MODEL 1
REMARK VINA RESULT:     -11.9      0.000      0.000
REMARK SMILES [NH3+]C[C@@H]1CC[C@H](C(=O)N[C@@H](Cc2ccccc2)C(=O)NCCCNC(=O)c2ccc(-c3c4nc(c(-c5cc(S(=O)(=O)[O-])ccc5F)c5ccc([nH]5)c(-c5cc(S(=O)(=O)[O-])ccc5F)c5nc(c(-c6cc(S(=O)(=O)[O-])ccc6F)c6ccc3[nH]6)C=C5)C=C4)cc2)O1
REMARK SMILES IDX 21 1 20 2 18 3 19 4 10 6 9 7 7 8 8 9 6 11 3 12 4 13 90 14
REMARK SMILES IDX 5 15 2 16 1 17 11 21 12 22 13 23 17 24 14 25 16 26 15 27
REMARK SMILES IDX 22 28 23 29 24 30 25 31 26 33 27 34 28 35 89 36 29 37 88 38
REMARK SMILES IDX 30 39 31 40 32 41 82 42 33 43 87 44 81 45 83 46 34 47 86 48
REMARK SMILES IDX 80 49 79 50 35 52 67 53 47 54 66 55 48 56 51 57 65 58 84 59
REMARK SMILES IDX 49 60 50 61 64 63 85 64 52 65 36 66 37 67 45 68 38 69 44 70
REMARK SMILES IDX 46 71 43 72 39 73 40 74 41 75 42 76 68 77 69 78 77 79 70 80
REMARK SMILES IDX 76 81 78 82 75 83 71 84 72 85 73 86 74 87 53 88 54 89 62 90
REMARK SMILES IDX 55 91 61 92 63 93 60 94 56 95 57 96 58 97 59 98
REMARK H PARENT 20 5 9 10 1 18 1 19 1 20 24 32 83 51 51 62
REMARK Flexibility Score: inf
ROOT
ATOM      1  C   UNL A   1      31.987  27.540  26.389  1.00  0.00     0.117 C 
ENDROOT
BRANCH   1   2
ATOM      2  N   UNL A   1      30.893  26.681  26.790  1.00  0.00    -0.354 N 
ATOM      3  C   UNL A   1      30.247  25.734  26.062  1.00  0.00     0.242 C 
ATOM      4  O   UNL A   1      29.833  24.747  26.683  1.00  0.00    -0.273 OA
ATOM      5  H   UNL A   1      30.573  26.801  27.713  1.00  0.00     0.163 HD
BRANCH   3   6
ATOM      6  C   UNL A   1      30.160  25.769  24.526  1.00  0.00     0.175 C 
BRANCH   6   7
ATOM      7  N   UNL A   1      30.527  24.548  23.808  1.00  0.00    -0.342 N 
ATOM      8  C   UNL A   1      31.705  23.862  23.802  1.00  0.00     0.249 C 
ATOM      9  O   UNL A   1      31.736  22.801  23.170  1.00  0.00    -0.272 OA
ATOM     10  H   UNL A   1      29.817  24.165  23.244  1.00  0.00     0.164 HD
BRANCH   8  11
ATOM     11  C   UNL A   1      32.986  24.420  24.459  1.00  0.00     0.207 C 
ATOM     12  C   UNL A   1      35.274  23.983  24.486  1.00  0.00     0.174 C 
ATOM     13  C   UNL A   1      34.683  23.163  25.620  1.00  0.00     0.041 C 
ATOM     14  O   UNL A   1      34.165  24.365  23.655  1.00  0.00    -0.359 OA
ATOM     15  C   UNL A   1      33.300  23.751  25.794  1.00  0.00     0.045 C 
BRANCH  12  16
ATOM     16  C   UNL A   1      36.306  23.211  23.645  1.00  0.00     0.291 C 
BRANCH  16  17
ATOM     17  N   UNL A   1      37.454  22.766  24.443  1.00  0.00    -0.355 N 
ATOM     18  H   UNL A   1      38.305  23.201  24.085  1.00  0.00     0.344 HD
ATOM     19  H   UNL A   1      37.538  21.751  24.380  1.00  0.00     0.344 HD
ATOM     20  H   UNL A   1      37.317  23.036  25.417  1.00  0.00     0.344 HD
ENDBRANCH  16  17
ENDBRANCH  12  16
ENDBRANCH   8  11
ENDBRANCH   6   7
BRANCH   6  21
ATOM     21  C   UNL A   1      28.869  26.424  23.998  1.00  0.00     0.070 C 
BRANCH  21  22
ATOM     22  C   UNL A   1      29.031  27.758  23.316  1.00  0.00    -0.045 A 
ATOM     23  C   UNL A   1      30.291  28.210  22.903  1.00  0.00     0.004 A 
ATOM     24  C   UNL A   1      27.899  28.541  23.032  1.00  0.00     0.004 A 
ATOM     25  C   UNL A   1      30.409  29.398  22.179  1.00  0.00     0.000 A 
ATOM     26  C   UNL A   1      28.021  29.729  22.310  1.00  0.00     0.000 A 
ATOM     27  C   UNL A   1      29.276  30.151  21.874  1.00  0.00     0.000 A 
ENDBRANCH  21  22
ENDBRANCH   6  21
ENDBRANCH   3   6
ENDBRANCH   1   2
BRANCH   1  28
ATOM     28  C   UNL A   1      31.600  28.995  26.264  1.00  0.00     0.042 C 
BRANCH  28  29
ATOM     29  C   UNL A   1      32.785  29.900  25.971  1.00  0.00     0.118 C 
BRANCH  29  30
ATOM     30  N   UNL A   1      32.591  31.275  26.431  1.00  0.00    -0.352 N 
ATOM     31  C   UNL A   1      33.337  32.033  27.308  1.00  0.00     0.251 C 
ATOM     32  H   UNL A   1      31.802  31.731  26.055  1.00  0.00     0.163 HD
ATOM     33  O   UNL A   1      32.911  33.102  27.716  1.00  0.00    -0.269 OA
BRANCH  31  34
ATOM     34  C   UNL A   1      34.637  31.505  27.771  1.00  0.00     0.039 A 
ATOM     35  C   UNL A   1      35.693  32.384  28.015  1.00  0.00     0.014 A 
ATOM     36  C   UNL A   1      34.772  30.145  28.045  1.00  0.00     0.014 A 
ATOM     37  C   UNL A   1      36.844  31.909  28.647  1.00  0.00     0.010 A 
ATOM     38  C   UNL A   1      35.851  29.708  28.795  1.00  0.00     0.010 A 
ATOM     39  C   UNL A   1      36.904  30.581  29.102  1.00  0.00    -0.014 A 
BRANCH  39  40
ATOM     40  C   UNL A   1      38.056  30.061  29.883  1.00  0.00     0.031 A 
ATOM     41  C   UNL A   1      38.280  30.562  31.287  1.00  0.00     0.074 A 
ATOM     42  C   UNL A   1      38.949  29.233  29.304  1.00  0.00     0.049 A 
ATOM     43  N   UNL A   1      39.302  30.379  32.081  1.00  0.00    -0.248 NA
ATOM     44  C   UNL A   1      37.237  31.437  31.845  1.00  0.00     0.031 C 
ATOM     45  C   UNL A   1      38.874  28.728  27.930  1.00  0.00     0.029 A 
ATOM     46  N   UNL A   1      40.104  28.677  29.794  1.00  0.00    -0.354 N 
ATOM     47  C   UNL A   1      39.040  31.145  33.213  1.00  0.00     0.074 A 
ATOM     48  C   UNL A   1      37.807  31.857  32.963  1.00  0.00     0.031 C 
ATOM     49  C   UNL A   1      39.912  27.906  27.704  1.00  0.00     0.029 A 
ATOM     50  C   UNL A   1      40.756  27.868  28.893  1.00  0.00     0.049 A 
ATOM     51  H   UNL A   1      40.435  28.843  30.706  1.00  0.00     0.167 HD
ATOM     52  C   UNL A   1      39.744  31.220  34.369  1.00  0.00     0.034 A 
ATOM     53  C   UNL A   1      41.908  27.179  29.012  1.00  0.00     0.034 A 
ATOM     54  C   UNL A   1      40.947  30.464  34.615  1.00  0.00     0.049 A 
ATOM     55  C   UNL A   1      42.665  27.259  30.313  1.00  0.00     0.074 A 
ATOM     56  C   UNL A   1      41.710  30.407  35.767  1.00  0.00     0.029 A 
ATOM     57  N   UNL A   1      41.557  29.624  33.691  1.00  0.00    -0.354 N 
ATOM     58  N   UNL A   1      42.385  27.958  31.390  1.00  0.00    -0.248 NA
ATOM     59  C   UNL A   1      43.889  26.455  30.417  1.00  0.00     0.031 C 
ATOM     60  C   UNL A   1      42.809  29.575  35.522  1.00  0.00     0.029 A 
ATOM     61  C   UNL A   1      42.695  29.058  34.241  1.00  0.00     0.049 A 
ATOM     62  H   UNL A   1      41.228  29.457  32.777  1.00  0.00     0.167 HD
ATOM     63  C   UNL A   1      43.381  27.649  32.312  1.00  0.00     0.074 A 
ATOM     64  C   UNL A   1      44.260  26.693  31.667  1.00  0.00     0.031 C 
ATOM     65  C   UNL A   1      43.557  28.109  33.577  1.00  0.00     0.034 A 
BRANCH  52  66
ATOM     66  C   UNL A   1      39.225  32.154  35.437  1.00  0.00     0.023 A 
ATOM     67  C   UNL A   1      39.638  33.498  35.502  1.00  0.00     0.031 A 
ATOM     68  C   UNL A   1      38.351  31.688  36.433  1.00  0.00     0.131 A 
ATOM     69  C   UNL A   1      39.255  34.298  36.588  1.00  0.00     0.055 A 
ATOM     70  C   UNL A   1      37.899  32.518  37.463  1.00  0.00     0.041 A 
ATOM     71  F   UNL A   1      37.938  30.411  36.437  1.00  0.00    -0.206 F 
ATOM     72  C   UNL A   1      38.367  33.825  37.556  1.00  0.00     0.022 A 
BRANCH  69  73
ATOM     73  S   UNL A   1      40.065  35.907  36.803  1.00  0.00     0.124 S 
ATOM     74  O   UNL A   1      39.383  36.421  37.989  1.00  0.00    -0.237 OA
ATOM     75  O   UNL A   1      41.464  35.534  36.983  1.00  0.00    -0.237 OA
ATOM     76  O   UNL A   1      39.760  36.612  35.561  1.00  0.00    -0.744 OA
ENDBRANCH  69  73
ENDBRANCH  52  66
BRANCH  53  77
ATOM     77  C   UNL A   1      42.416  26.345  27.885  1.00  0.00     0.023 A 
ATOM     78  C   UNL A   1      41.937  25.040  27.683  1.00  0.00     0.031 A 
ATOM     79  C   UNL A   1      43.413  26.821  27.016  1.00  0.00     0.131 A 
ATOM     80  C   UNL A   1      42.486  24.240  26.670  1.00  0.00     0.055 A 
ATOM     81  C   UNL A   1      43.921  26.038  25.976  1.00  0.00     0.041 A 
ATOM     82  F   UNL A   1      43.901  28.064  27.158  1.00  0.00    -0.206 F 
ATOM     83  C   UNL A   1      43.466  24.734  25.808  1.00  0.00     0.022 A 
BRANCH  80  84
ATOM     84  S   UNL A   1      41.952  22.510  26.546  1.00  0.00     0.124 S 
ATOM     85  O   UNL A   1      40.501  22.642  26.599  1.00  0.00    -0.237 OA
ATOM     86  O   UNL A   1      42.516  22.111  25.261  1.00  0.00    -0.237 OA
ATOM     87  O   UNL A   1      42.566  21.882  27.714  1.00  0.00    -0.744 OA
ENDBRANCH  80  84
ENDBRANCH  53  77
BRANCH  65  88
ATOM     88  C   UNL A   1      44.713  27.539  34.356  1.00  0.00     0.023 A 
ATOM     89  C   UNL A   1      44.591  26.349  35.095  1.00  0.00     0.031 A 
ATOM     90  C   UNL A   1      45.952  28.203  34.363  1.00  0.00     0.131 A 
ATOM     91  C   UNL A   1      45.677  25.887  35.853  1.00  0.00     0.055 A 
ATOM     92  C   UNL A   1      47.045  27.707  35.073  1.00  0.00     0.041 A 
ATOM     93  F   UNL A   1      46.120  29.343  33.676  1.00  0.00    -0.206 F 
ATOM     94  C   UNL A   1      46.908  26.549  35.834  1.00  0.00     0.022 A 
BRANCH  91  95
ATOM     95  S   UNL A   1      45.434  24.452  36.934  1.00  0.00     0.124 S 
ATOM     96  O   UNL A   1      46.782  24.227  37.448  1.00  0.00    -0.237 OA
ATOM     97  O   UNL A   1      44.458  24.949  37.899  1.00  0.00    -0.237 OA
ATOM     98  O   UNL A   1      44.936  23.419  36.028  1.00  0.00    -0.744 OA
ENDBRANCH  91  95
ENDBRANCH  65  88
ENDBRANCH  39  40
ENDBRANCH  31  34
ENDBRANCH  29  30
ENDBRANCH  28  29
ENDBRANCH   1  28
TORSDOF 19
ENDMDL
MODEL 2
REMARK VINA RESULT:     -11.9      1.452      7.597
REMARK SMILES [NH3+]C[C@@H]1CC[C@H](C(=O)N[C@@H](Cc2ccccc2)C(=O)NCCCNC(=O)c2ccc(-c3c4nc(c(-c5cc(S(=O)(=O)[O-])ccc5F)c5ccc([nH]5)c(-c5cc(S(=O)(=O)[O-])ccc5F)c5nc(c(-c6cc(S(=O)(=O)[O-])ccc6F)c6ccc3[nH]6)C=C5)C=C4)cc2)O1
REMARK SMILES IDX 21 1 20 2 18 3 19 4 10 6 9 7 7 8 8 9 6 11 3 12 4 13 90 14
REMARK SMILES IDX 5 15 2 16 1 17 11 21 12 22 13 23 17 24 14 25 16 26 15 27
REMARK SMILES IDX 22 28 23 29 24 30 25 31 26 33 27 34 28 35 89 36 29 37 88 38
REMARK SMILES IDX 30 39 31 40 32 41 82 42 33 43 87 44 81 45 83 46 34 47 86 48
REMARK SMILES IDX 80 49 79 50 35 52 67 53 47 54 66 55 48 56 51 57 65 58 84 59
REMARK SMILES IDX 49 60 50 61 64 63 85 64 52 65 36 66 37 67 45 68 38 69 44 70
REMARK SMILES IDX 46 71 43 72 39 73 40 74 41 75 42 76 68 77 69 78 77 79 70 80
REMARK SMILES IDX 76 81 78 82 75 83 71 84 72 85 73 86 74 87 53 88 54 89 62 90
REMARK SMILES IDX 55 91 61 92 63 93 60 94 56 95 57 96 58 97 59 98
REMARK H PARENT 20 5 9 10 1 18 1 19 1 20 24 32 83 51 51 62
REMARK Flexibility Score: inf
ROOT
ATOM      1  C   UNL A   1      31.913  27.521  26.543  1.00  0.00     0.117 C 
ENDROOT
BRANCH   1   2
ATOM      2  N   UNL A   1      30.771  26.696  26.877  1.00  0.00    -0.354 N 
ATOM      3  C   UNL A   1      30.166  25.741  26.126  1.00  0.00     0.242 C 
ATOM      4  O   UNL A   1      29.681  24.781  26.738  1.00  0.00    -0.273 OA
ATOM      5  H   UNL A   1      30.381  26.849  27.768  1.00  0.00     0.163 HD
BRANCH   3   6
ATOM      6  C   UNL A   1      30.203  25.733  24.587  1.00  0.00     0.175 C 
BRANCH   6   7
ATOM      7  N   UNL A   1      30.670  24.508  23.936  1.00  0.00    -0.342 N 
ATOM      8  C   UNL A   1      31.862  23.859  24.054  1.00  0.00     0.249 C 
ATOM      9  O   UNL A   1      31.981  22.785  23.455  1.00  0.00    -0.272 OA
ATOM     10  H   UNL A   1      30.025  24.089  23.321  1.00  0.00     0.164 HD
BRANCH   8  11
ATOM     11  C   UNL A   1      33.062  24.471  24.809  1.00  0.00     0.207 C 
ATOM     12  C   UNL A   1      35.340  24.077  25.092  1.00  0.00     0.174 C 
ATOM     13  C   UNL A   1      34.646  23.305  26.201  1.00  0.00     0.041 C 
ATOM     14  O   UNL A   1      34.318  24.398  24.134  1.00  0.00    -0.359 OA
ATOM     15  C   UNL A   1      33.245  23.876  26.202  1.00  0.00     0.045 C 
BRANCH  12  16
ATOM     16  C   UNL A   1      36.463  23.284  24.402  1.00  0.00     0.291 C 
BRANCH  16  17
ATOM     17  N   UNL A   1      37.777  23.540  25.002  1.00  0.00    -0.355 N 
ATOM     18  H   UNL A   1      38.494  23.039  24.478  1.00  0.00     0.344 HD
ATOM     19  H   UNL A   1      37.777  23.220  25.970  1.00  0.00     0.344 HD
ATOM     20  H   UNL A   1      37.974  24.541  24.976  1.00  0.00     0.344 HD
ENDBRANCH  16  17
ENDBRANCH  12  16
ENDBRANCH   8  11
ENDBRANCH   6   7
BRANCH   6  21
ATOM     21  C   UNL A   1      28.937  26.327  23.938  1.00  0.00     0.070 C 
BRANCH  21  22
ATOM     22  C   UNL A   1      29.073  27.713  23.363  1.00  0.00    -0.045 A 
ATOM     23  C   UNL A   1      30.326  28.227  23.006  1.00  0.00     0.004 A 
ATOM     24  C   UNL A   1      27.925  28.487  23.126  1.00  0.00     0.004 A 
ATOM     25  C   UNL A   1      30.422  29.471  22.378  1.00  0.00     0.000 A 
ATOM     26  C   UNL A   1      28.024  29.730  22.500  1.00  0.00     0.000 A 
ATOM     27  C   UNL A   1      29.273  30.217  22.116  1.00  0.00     0.000 A 
ENDBRANCH  21  22
ENDBRANCH   6  21
ENDBRANCH   3   6
ENDBRANCH   1   2
BRANCH   1  28
ATOM     28  C   UNL A   1      31.779  28.955  27.002  1.00  0.00     0.042 C 
BRANCH  28  29
ATOM     29  C   UNL A   1      32.664  29.911  26.222  1.00  0.00     0.118 C 
BRANCH  29  30
ATOM     30  N   UNL A   1      32.424  31.318  26.549  1.00  0.00    -0.352 N 
ATOM     31  C   UNL A   1      33.169  32.192  27.310  1.00  0.00     0.251 C 
ATOM     32  H   UNL A   1      31.602  31.699  26.163  1.00  0.00     0.163 HD
ATOM     33  O   UNL A   1      32.710  33.279  27.626  1.00  0.00    -0.269 OA
BRANCH  31  34
ATOM     34  C   UNL A   1      34.509  31.770  27.767  1.00  0.00     0.039 A 
ATOM     35  C   UNL A   1      35.494  32.730  28.000  1.00  0.00     0.014 A 
ATOM     36  C   UNL A   1      34.752  30.427  28.047  1.00  0.00     0.014 A 
ATOM     37  C   UNL A   1      36.684  32.350  28.626  1.00  0.00     0.010 A 
ATOM     38  C   UNL A   1      35.866  30.079  28.791  1.00  0.00     0.010 A 
ATOM     39  C   UNL A   1      36.850  31.033  29.087  1.00  0.00    -0.014 A 
BRANCH  39  40
ATOM     40  C   UNL A   1      38.044  30.609  29.863  1.00  0.00     0.031 A 
ATOM     41  C   UNL A   1      39.012  29.629  29.250  1.00  0.00     0.074 A 
ATOM     42  C   UNL A   1      38.200  31.013  31.140  1.00  0.00     0.049 A 
ATOM     43  N   UNL A   1      40.014  28.997  29.801  1.00  0.00    -0.248 NA
ATOM     44  C   UNL A   1      38.777  29.269  27.842  1.00  0.00     0.031 C 
ATOM     45  C   UNL A   1      37.296  31.911  31.864  1.00  0.00     0.029 A 
ATOM     46  N   UNL A   1      39.171  30.713  32.062  1.00  0.00    -0.354 N 
ATOM     47  C   UNL A   1      40.504  28.141  28.819  1.00  0.00     0.074 A 
ATOM     48  C   UNL A   1      39.634  28.276  27.672  1.00  0.00     0.031 C 
ATOM     49  C   UNL A   1      37.778  32.120  33.101  1.00  0.00     0.029 A 
ATOM     50  C   UNL A   1      38.991  31.331  33.278  1.00  0.00     0.049 A 
ATOM     51  H   UNL A   1      39.925  30.110  31.871  1.00  0.00     0.167 HD
ATOM     52  C   UNL A   1      41.598  27.343  28.857  1.00  0.00     0.034 A 
ATOM     53  C   UNL A   1      39.721  31.262  34.409  1.00  0.00     0.034 A 
ATOM     54  C   UNL A   1      42.480  27.259  29.996  1.00  0.00     0.049 A 
ATOM     55  C   UNL A   1      40.946  30.384  34.425  1.00  0.00     0.074 A 
ATOM     56  C   UNL A   1      43.651  26.538  30.129  1.00  0.00     0.029 A 
ATOM     57  N   UNL A   1      42.285  27.930  31.197  1.00  0.00    -0.354 N 
ATOM     58  N   UNL A   1      41.419  29.609  33.475  1.00  0.00    -0.248 NA
ATOM     59  C   UNL A   1      41.739  30.376  35.660  1.00  0.00     0.031 C 
ATOM     60  C   UNL A   1      44.138  26.731  31.428  1.00  0.00     0.029 A 
ATOM     61  C   UNL A   1      43.307  27.627  32.081  1.00  0.00     0.049 A 
ATOM     62  H   UNL A   1      41.531  28.533  31.391  1.00  0.00     0.167 HD
ATOM     63  C   UNL A   1      42.585  29.048  33.989  1.00  0.00     0.074 A 
ATOM     64  C   UNL A   1      42.747  29.584  35.326  1.00  0.00     0.031 C 
ATOM     65  C   UNL A   1      43.446  28.172  33.412  1.00  0.00     0.034 A 
BRANCH  52  66
ATOM     66  C   UNL A   1      41.886  26.502  27.635  1.00  0.00     0.023 A 
ATOM     67  C   UNL A   1      41.468  25.162  27.548  1.00  0.00     0.031 A 
ATOM     68  C   UNL A   1      42.633  27.027  26.566  1.00  0.00     0.131 A 
ATOM     69  C   UNL A   1      41.877  24.367  26.469  1.00  0.00     0.055 A 
ATOM     70  C   UNL A   1      42.959  26.254  25.448  1.00  0.00     0.041 A 
ATOM     71  F   UNL A   1      43.079  28.291  26.598  1.00  0.00    -0.206 F 
ATOM     72  C   UNL A   1      42.598  24.910  25.404  1.00  0.00     0.022 A 
BRANCH  69  73
ATOM     73  S   UNL A   1      41.593  22.578  26.558  1.00  0.00     0.124 S 
ATOM     74  O   UNL A   1      42.226  22.244  27.832  1.00  0.00    -0.237 OA
ATOM     75  O   UNL A   1      40.138  22.487  26.525  1.00  0.00    -0.237 OA
ATOM     76  O   UNL A   1      42.279  22.063  25.375  1.00  0.00    -0.744 OA
ENDBRANCH  69  73
ENDBRANCH  52  66
BRANCH  53  77
ATOM     77  C   UNL A   1      39.331  32.047  35.615  1.00  0.00     0.023 A 
ATOM     78  C   UNL A   1      38.570  31.461  36.640  1.00  0.00     0.031 A 
ATOM     79  C   UNL A   1      39.678  33.403  35.746  1.00  0.00     0.131 A 
ATOM     80  C   UNL A   1      38.141  32.238  37.727  1.00  0.00     0.055 A 
ATOM     81  C   UNL A   1      39.291  34.159  36.856  1.00  0.00     0.041 A 
ATOM     82  F   UNL A   1      40.411  34.011  34.801  1.00  0.00    -0.206 F 
ATOM     83  C   UNL A   1      38.506  33.580  37.847  1.00  0.00     0.022 A 
BRANCH  80  84
ATOM     84  S   UNL A   1      37.027  31.484  38.945  1.00  0.00     0.124 S 
ATOM     85  O   UNL A   1      36.870  30.137  38.411  1.00  0.00    -0.237 OA
ATOM     86  O   UNL A   1      37.803  31.601  40.176  1.00  0.00    -0.237 OA
ATOM     87  O   UNL A   1      35.835  32.325  38.881  1.00  0.00    -0.744 OA
ENDBRANCH  80  84
ENDBRANCH  53  77
BRANCH  65  88
ATOM     88  C   UNL A   1      44.664  27.786  34.209  1.00  0.00     0.023 A 
ATOM     89  C   UNL A   1      44.669  26.659  35.050  1.00  0.00     0.031 A 
ATOM     90  C   UNL A   1      45.833  28.562  34.129  1.00  0.00     0.131 A 
ATOM     91  C   UNL A   1      45.806  26.369  35.819  1.00  0.00     0.055 A 
ATOM     92  C   UNL A   1      46.980  28.235  34.853  1.00  0.00     0.041 A 
ATOM     93  F   UNL A   1      45.880  29.648  33.342  1.00  0.00    -0.206 F 
ATOM     94  C   UNL A   1      46.967  27.141  35.713  1.00  0.00     0.022 A 
BRANCH  91  95
ATOM     95  S   UNL A   1      45.719  25.019  37.025  1.00  0.00     0.124 S 
ATOM     96  O   UNL A   1      44.432  24.409  36.705  1.00  0.00    -0.237 OA
ATOM     97  O   UNL A   1      46.899  24.228  36.694  1.00  0.00    -0.237 OA
ATOM     98  O   UNL A   1      45.776  25.705  38.314  1.00  0.00    -0.744 OA
ENDBRANCH  91  95
ENDBRANCH  65  88
ENDBRANCH  39  40
ENDBRANCH  31  34
ENDBRANCH  29  30
ENDBRANCH  28  29
ENDBRANCH   1  28
TORSDOF 19
ENDMDL
MODEL 3
REMARK VINA RESULT:     -11.9      5.108      8.143
REMARK SMILES [NH3+]C[C@@H]1CC[C@H](C(=O)N[C@@H](Cc2ccccc2)C(=O)NCCCNC(=O)c2ccc(-c3c4nc(c(-c5cc(S(=O)(=O)[O-])ccc5F)c5ccc([nH]5)c(-c5cc(S(=O)(=O)[O-])ccc5F)c5nc(c(-c6cc(S(=O)(=O)[O-])ccc6F)c6ccc3[nH]6)C=C5)C=C4)cc2)O1
REMARK SMILES IDX 21 1 20 2 18 3 19 4 10 6 9 7 7 8 8 9 6 11 3 12 4 13 90 14
REMARK SMILES IDX 5 15 2 16 1 17 11 21 12 22 13 23 17 24 14 25 16 26 15 27
REMARK SMILES IDX 22 28 23 29 24 30 25 31 26 33 27 34 28 35 89 36 29 37 88 38
REMARK SMILES IDX 30 39 31 40 32 41 82 42 33 43 87 44 81 45 83 46 34 47 86 48
REMARK SMILES IDX 80 49 79 50 35 52 67 53 47 54 66 55 48 56 51 57 65 58 84 59
REMARK SMILES IDX 49 60 50 61 64 63 85 64 52 65 36 66 37 67 45 68 38 69 44 70
REMARK SMILES IDX 46 71 43 72 39 73 40 74 41 75 42 76 68 77 69 78 77 79 70 80
REMARK SMILES IDX 76 81 78 82 75 83 71 84 72 85 73 86 74 87 53 88 54 89 62 90
REMARK SMILES IDX 55 91 61 92 63 93 60 94 56 95 57 96 58 97 59 98
REMARK H PARENT 20 5 9 10 1 18 1 19 1 20 24 32 83 51 51 62
REMARK Flexibility Score: inf
ROOT
ATOM      1  C   UNL A   1      34.827  22.551  25.283  1.00  0.00     0.117 C 
ENDROOT
BRANCH   1   2
ATOM      2  N   UNL A   1      34.894  22.668  23.842  1.00  0.00    -0.354 N 
ATOM      3  C   UNL A   1      33.890  22.913  22.962  1.00  0.00     0.242 C 
ATOM      4  O   UNL A   1      34.185  23.567  21.954  1.00  0.00    -0.273 OA
ATOM      5  H   UNL A   1      35.789  22.554  23.446  1.00  0.00     0.163 HD
BRANCH   3   6
ATOM      6  C   UNL A   1      32.419  22.558  23.246  1.00  0.00     0.175 C 
BRANCH   6   7
ATOM      7  N   UNL A   1      31.437  23.637  23.132  1.00  0.00    -0.342 N 
ATOM      8  C   UNL A   1      31.398  24.849  23.754  1.00  0.00     0.249 C 
ATOM      9  O   UNL A   1      30.497  25.625  23.421  1.00  0.00    -0.272 OA
ATOM     10  H   UNL A   1      30.692  23.461  22.512  1.00  0.00     0.164 HD
BRANCH   8  11
ATOM     11  C   UNL A   1      32.362  25.215  24.904  1.00  0.00     0.207 C 
ATOM     12  C   UNL A   1      32.656  26.915  26.470  1.00  0.00     0.174 C 
ATOM     13  C   UNL A   1      33.464  27.329  25.252  1.00  0.00     0.041 C 
ATOM     14  O   UNL A   1      31.767  25.878  26.020  1.00  0.00    -0.359 OA
ATOM     15  C   UNL A   1      33.543  26.060  24.434  1.00  0.00     0.045 C 
BRANCH  12  16
ATOM     16  C   UNL A   1      31.838  28.064  27.084  1.00  0.00     0.291 C 
BRANCH  16  17
ATOM     17  N   UNL A   1      32.692  29.098  27.680  1.00  0.00    -0.355 N 
ATOM     18  H   UNL A   1      32.123  29.909  27.924  1.00  0.00     0.344 HD
ATOM     19  H   UNL A   1      33.409  29.375  27.010  1.00  0.00     0.344 HD
ATOM     20  H   UNL A   1      33.137  28.729  28.521  1.00  0.00     0.344 HD
ENDBRANCH  16  17
ENDBRANCH  12  16
ENDBRANCH   8  11
ENDBRANCH   6   7
BRANCH   6  21
ATOM     21  C   UNL A   1      31.965  21.244  22.580  1.00  0.00     0.070 C 
BRANCH  21  22
ATOM     22  C   UNL A   1      32.266  19.976  23.337  1.00  0.00    -0.045 A 
ATOM     23  C   UNL A   1      32.460  18.762  22.665  1.00  0.00     0.004 A 
ATOM     24  C   UNL A   1      32.415  20.014  24.734  1.00  0.00     0.004 A 
ATOM     25  C   UNL A   1      32.842  17.620  23.373  1.00  0.00     0.000 A 
ATOM     26  C   UNL A   1      32.795  18.871  25.438  1.00  0.00     0.000 A 
ATOM     27  C   UNL A   1      33.019  17.677  24.755  1.00  0.00     0.000 A 
ENDBRANCH  21  22
ENDBRANCH   6  21
ENDBRANCH   3   6
ENDBRANCH   1   2
BRANCH   1  28
ATOM     28  C   UNL A   1      35.927  21.699  25.873  1.00  0.00     0.042 C 
BRANCH  28  29
ATOM     29  C   UNL A   1      37.173  21.658  25.005  1.00  0.00     0.118 C 
BRANCH  29  30
ATOM     30  N   UNL A   1      38.087  20.571  25.356  1.00  0.00    -0.352 N 
ATOM     31  C   UNL A   1      39.312  20.608  25.986  1.00  0.00     0.251 C 
ATOM     32  H   UNL A   1      37.778  19.671  25.103  1.00  0.00     0.163 HD
ATOM     33  O   UNL A   1      40.017  19.612  26.024  1.00  0.00    -0.269 OA
BRANCH  31  34
ATOM     34  C   UNL A   1      39.769  21.885  26.573  1.00  0.00     0.039 A 
ATOM     35  C   UNL A   1      40.760  21.879  27.556  1.00  0.00     0.014 A 
ATOM     36  C   UNL A   1      39.271  23.089  26.080  1.00  0.00     0.014 A 
ATOM     37  C   UNL A   1      41.332  23.089  27.956  1.00  0.00     0.010 A 
ATOM     38  C   UNL A   1      39.934  24.269  26.372  1.00  0.00     0.010 A 
ATOM     39  C   UNL A   1      40.969  24.287  27.318  1.00  0.00    -0.014 A 
BRANCH  39  40
ATOM     40  C   UNL A   1      41.633  25.581  27.622  1.00  0.00     0.031 A 
ATOM     41  C   UNL A   1      40.885  26.626  28.410  1.00  0.00     0.074 A 
ATOM     42  C   UNL A   1      42.849  25.856  27.108  1.00  0.00     0.049 A 
ATOM     43  N   UNL A   1      41.198  27.874  28.641  1.00  0.00    -0.248 NA
ATOM     44  C   UNL A   1      39.578  26.225  28.956  1.00  0.00     0.031 C 
ATOM     45  C   UNL A   1      43.647  24.948  26.278  1.00  0.00     0.029 A 
ATOM     46  N   UNL A   1      43.625  26.984  27.198  1.00  0.00    -0.354 N 
ATOM     47  C   UNL A   1      40.113  28.412  29.326  1.00  0.00     0.074 A 
ATOM     48  C   UNL A   1      39.104  27.379  29.395  1.00  0.00     0.031 C 
ATOM     49  C   UNL A   1      44.813  25.539  25.972  1.00  0.00     0.029 A 
ATOM     50  C   UNL A   1      44.827  26.885  26.534  1.00  0.00     0.049 A 
ATOM     51  H   UNL A   1      43.348  27.789  27.691  1.00  0.00     0.167 HD
ATOM     52  C   UNL A   1      39.984  29.643  29.879  1.00  0.00     0.034 A 
ATOM     53  C   UNL A   1      45.822  27.782  26.390  1.00  0.00     0.034 A 
ATOM     54  C   UNL A   1      41.023  30.643  29.840  1.00  0.00     0.049 A 
ATOM     55  C   UNL A   1      45.667  29.139  27.030  1.00  0.00     0.074 A 
ATOM     56  C   UNL A   1      41.034  31.899  30.417  1.00  0.00     0.029 A 
ATOM     57  N   UNL A   1      42.241  30.492  29.189  1.00  0.00    -0.354 N 
ATOM     58  N   UNL A   1      44.651  29.621  27.708  1.00  0.00    -0.248 NA
ATOM     59  C   UNL A   1      46.795  30.068  26.890  1.00  0.00     0.031 C 
ATOM     60  C   UNL A   1      42.237  32.527  30.073  1.00  0.00     0.029 A 
ATOM     61  C   UNL A   1      43.005  31.638  29.339  1.00  0.00     0.049 A 
ATOM     62  H   UNL A   1      42.521  29.688  28.694  1.00  0.00     0.167 HD
ATOM     63  C   UNL A   1      45.033  30.899  28.105  1.00  0.00     0.074 A 
ATOM     64  C   UNL A   1      46.376  31.106  27.600  1.00  0.00     0.031 C 
ATOM     65  C   UNL A   1      44.341  31.821  28.823  1.00  0.00     0.034 A 
BRANCH  52  66
ATOM     66  C   UNL A   1      38.674  29.963  30.560  1.00  0.00     0.023 A 
ATOM     67  C   UNL A   1      37.633  30.621  29.880  1.00  0.00     0.031 A 
ATOM     68  C   UNL A   1      38.480  29.657  31.917  1.00  0.00     0.131 A 
ATOM     69  C   UNL A   1      36.490  31.035  30.578  1.00  0.00     0.055 A 
ATOM     70  C   UNL A   1      37.298  29.991  32.585  1.00  0.00     0.041 A 
ATOM     71  F   UNL A   1      39.443  29.049  32.626  1.00  0.00    -0.206 F 
ATOM     72  C   UNL A   1      36.303  30.702  31.921  1.00  0.00     0.022 A 
BRANCH  69  73
ATOM     73  S   UNL A   1      35.330  32.156  29.748  1.00  0.00     0.124 S 
ATOM     74  O   UNL A   1      36.226  33.211  29.282  1.00  0.00    -0.237 OA
ATOM     75  O   UNL A   1      34.754  31.304  28.713  1.00  0.00    -0.237 OA
ATOM     76  O   UNL A   1      34.413  32.551  30.814  1.00  0.00    -0.744 OA
ENDBRANCH  69  73
ENDBRANCH  52  66
BRANCH  53  77
ATOM     77  C   UNL A   1      47.054  27.436  25.625  1.00  0.00     0.023 A 
ATOM     78  C   UNL A   1      47.186  27.793  24.274  1.00  0.00     0.031 A 
ATOM     79  C   UNL A   1      48.102  26.711  26.220  1.00  0.00     0.131 A 
ATOM     80  C   UNL A   1      48.316  27.386  23.547  1.00  0.00     0.055 A 
ATOM     81  C   UNL A   1      49.248  26.352  25.506  1.00  0.00     0.041 A 
ATOM     82  F   UNL A   1      48.032  26.351  27.511  1.00  0.00    -0.206 F 
ATOM     83  C   UNL A   1      49.352  26.678  24.157  1.00  0.00     0.022 A 
BRANCH  80  84
ATOM     84  S   UNL A   1      48.372  27.730  21.767  1.00  0.00     0.124 S 
ATOM     85  O   UNL A   1      49.474  28.681  21.682  1.00  0.00    -0.237 OA
ATOM     86  O   UNL A   1      48.622  26.405  21.211  1.00  0.00    -0.237 OA
ATOM     87  O   UNL A   1      47.048  28.281  21.486  1.00  0.00    -0.744 OA
ENDBRANCH  80  84
ENDBRANCH  53  77
BRANCH  65  88
ATOM     88  C   UNL A   1      45.052  33.109  29.145  1.00  0.00     0.023 A 
ATOM     89  C   UNL A   1      45.040  34.201  28.258  1.00  0.00     0.031 A 
ATOM     90  C   UNL A   1      45.755  33.243  30.355  1.00  0.00     0.131 A 
ATOM     91  C   UNL A   1      45.763  35.360  28.572  1.00  0.00     0.055 A 
ATOM     92  C   UNL A   1      46.425  34.420  30.687  1.00  0.00     0.041 A 
ATOM     93  F   UNL A   1      45.798  32.230  31.234  1.00  0.00    -0.206 F 
ATOM     94  C   UNL A   1      46.442  35.483  29.789  1.00  0.00     0.022 A 
BRANCH  91  95
ATOM     95  S   UNL A   1      45.877  36.677  27.332  1.00  0.00     0.124 S 
ATOM     96  O   UNL A   1      44.590  37.351  27.486  1.00  0.00    -0.237 OA
ATOM     97  O   UNL A   1      47.046  37.427  27.777  1.00  0.00    -0.237 OA
ATOM     98  O   UNL A   1      46.049  35.951  26.075  1.00  0.00    -0.744 OA
ENDBRANCH  91  95
ENDBRANCH  65  88
ENDBRANCH  39  40
ENDBRANCH  31  34
ENDBRANCH  29  30
ENDBRANCH  28  29
ENDBRANCH   1  28
TORSDOF 19
ENDMDL
