MODEL 1
REMARK VINA RESULT:     -13.5      0.000      0.000
REMARK SMILES O=C(NCCCNC(=O)[C@]1(NC(=O)C2CCN(C(=O)C3CC3)CC2)CCCc2ccccc21)c1ccc(-c2c3nc(c(-c4cc(S(=O)(=O)[O-])ccc4F)c4ccc([nH]4)c(-c4cc(S(=O)(=O)[O-])ccc4F)c4nc(c(-c5cc(S(=O)(=O)[O-])ccc5F)c5ccc2[nH]5)C=C4)C=C3)cc1
REMARK SMILES IDX 5 1 4 2 3 3 1 4 2 5 34 7 35 8 96 9 36 10 95 11 37 12 38 13
REMARK SMILES IDX 39 14 89 15 40 16 94 17 88 18 90 19 41 20 93 21 87 22 86 23
REMARK SMILES IDX 42 25 74 26 54 27 73 28 55 29 58 30 72 31 91 32 56 33 57 34
REMARK SMILES IDX 71 36 92 37 59 38 43 39 44 40 52 41 45 42 51 43 53 44 50 45
REMARK SMILES IDX 46 46 47 47 48 48 49 49 75 50 76 51 84 52 77 53 83 54 85 55
REMARK SMILES IDX 82 56 78 57 79 58 80 59 81 60 60 61 61 62 69 63 62 64 68 65
REMARK SMILES IDX 70 66 67 67 63 68 64 69 65 70 66 71 6 72 7 73 8 74 9 76
REMARK SMILES IDX 10 77 25 78 33 79 26 80 28 81 32 82 27 83 29 84 31 85 30 86
REMARK SMILES IDX 11 87 12 88 13 90 14 91 15 92 24 93 16 94 23 95 17 96 18 97
REMARK SMILES IDX 19 98 20 99 21 100 22 101
REMARK H PARENT 3 6 90 24 58 35 7 75 11 89
REMARK Flexibility Score: inf
ROOT
ATOM      1  C   UNL A   1      31.688  31.835  26.488  1.00  0.00     0.042 C 
ENDROOT
BRANCH   1   2
ATOM      2  C   UNL A   1      32.894  32.357  27.247  1.00  0.00     0.118 C 
BRANCH   2   3
ATOM      3  N   UNL A   1      32.727  33.751  27.652  1.00  0.00    -0.352 N 
ATOM      4  O   UNL A   1      32.808  35.508  29.054  1.00  0.00    -0.269 OA
ATOM      5  C   UNL A   1      33.295  34.442  28.694  1.00  0.00     0.251 C 
ATOM      6  H   UNL A   1      32.111  34.276  27.091  1.00  0.00     0.163 HD
BRANCH   5   7
ATOM      7  C   UNL A   1      34.491  33.896  29.366  1.00  0.00     0.039 A 
ATOM      8  C   UNL A   1      34.347  32.917  30.351  1.00  0.00     0.014 A 
ATOM      9  C   UNL A   1      35.763  34.332  28.989  1.00  0.00     0.014 A 
ATOM     10  C   UNL A   1      35.450  32.499  31.077  1.00  0.00     0.010 A 
ATOM     11  C   UNL A   1      36.887  33.814  29.636  1.00  0.00     0.010 A 
ATOM     12  C   UNL A   1      36.735  32.909  30.699  1.00  0.00    -0.014 A 
BRANCH  12  13
ATOM     13  C   UNL A   1      37.908  32.304  31.372  1.00  0.00     0.031 A 
ATOM     14  C   UNL A   1      38.691  31.207  30.716  1.00  0.00     0.074 A 
ATOM     15  C   UNL A   1      38.251  32.761  32.592  1.00  0.00     0.049 A 
ATOM     16  N   UNL A   1      39.691  30.512  31.189  1.00  0.00    -0.248 NA
ATOM     17  C   UNL A   1      38.285  30.833  29.354  1.00  0.00     0.031 C 
ATOM     18  C   UNL A   1      37.554  33.830  33.314  1.00  0.00     0.029 A 
ATOM     19  N   UNL A   1      39.261  32.394  33.441  1.00  0.00    -0.354 N 
ATOM     20  C   UNL A   1      40.021  29.596  30.198  1.00  0.00     0.074 A 
ATOM     21  C   UNL A   1      39.088  29.807  29.110  1.00  0.00     0.031 C 
ATOM     22  C   UNL A   1      38.170  34.047  34.483  1.00  0.00     0.029 A 
ATOM     23  C   UNL A   1      39.240  33.071  34.636  1.00  0.00     0.049 A 
ATOM     24  H   UNL A   1      39.935  31.711  33.217  1.00  0.00     0.167 HD
ATOM     25  C   UNL A   1      41.015  28.671  30.202  1.00  0.00     0.034 A 
ATOM     26  C   UNL A   1      39.961  32.893  35.759  1.00  0.00     0.034 A 
ATOM     27  C   UNL A   1      41.918  28.484  31.314  1.00  0.00     0.049 A 
ATOM     28  C   UNL A   1      41.010  31.820  35.772  1.00  0.00     0.074 A 
ATOM     29  C   UNL A   1      42.984  27.608  31.421  1.00  0.00     0.029 A 
ATOM     30  N   UNL A   1      41.849  29.170  32.524  1.00  0.00    -0.354 N 
ATOM     31  N   UNL A   1      41.328  30.972  34.820  1.00  0.00    -0.248 NA
ATOM     32  C   UNL A   1      41.798  31.678  37.000  1.00  0.00     0.031 C 
ATOM     33  C   UNL A   1      43.500  27.702  32.719  1.00  0.00     0.029 A 
ATOM     34  C   UNL A   1      42.822  28.705  33.395  1.00  0.00     0.049 A 
ATOM     35  H   UNL A   1      41.202  29.883  32.730  1.00  0.00     0.167 HD
ATOM     36  C   UNL A   1      42.372  30.207  35.327  1.00  0.00     0.074 A 
ATOM     37  C   UNL A   1      42.632  30.701  36.667  1.00  0.00     0.031 C 
ATOM     38  C   UNL A   1      43.059  29.198  34.735  1.00  0.00     0.034 A 
BRANCH  25  39
ATOM     39  C   UNL A   1      41.120  27.758  29.002  1.00  0.00     0.023 A 
ATOM     40  C   UNL A   1      42.138  27.904  28.043  1.00  0.00     0.031 A 
ATOM     41  C   UNL A   1      40.150  26.763  28.779  1.00  0.00     0.131 A 
ATOM     42  C   UNL A   1      42.105  27.145  26.862  1.00  0.00     0.055 A 
ATOM     43  C   UNL A   1      40.179  25.943  27.648  1.00  0.00     0.041 A 
ATOM     44  F   UNL A   1      39.139  26.587  29.643  1.00  0.00    -0.206 F 
ATOM     45  C   UNL A   1      41.148  26.146  26.671  1.00  0.00     0.022 A 
BRANCH  42  46
ATOM     46  S   UNL A   1      43.210  27.616  25.501  1.00  0.00     0.124 S 
ATOM     47  O   UNL A   1      43.815  26.333  25.151  1.00  0.00    -0.237 OA
ATOM     48  O   UNL A   1      42.284  28.172  24.521  1.00  0.00    -0.237 OA
ATOM     49  O   UNL A   1      44.122  28.577  26.116  1.00  0.00    -0.744 OA
ENDBRANCH  42  46
ENDBRANCH  25  39
BRANCH  26  50
ATOM     50  C   UNL A   1      39.651  33.711  36.964  1.00  0.00     0.023 A 
ATOM     51  C   UNL A   1      39.000  33.160  38.075  1.00  0.00     0.031 A 
ATOM     52  C   UNL A   1      40.043  35.064  37.028  1.00  0.00     0.131 A 
ATOM     53  C   UNL A   1      38.741  33.963  39.198  1.00  0.00     0.055 A 
ATOM     54  C   UNL A   1      39.830  35.841  38.165  1.00  0.00     0.041 A 
ATOM     55  F   UNL A   1      40.680  35.635  35.992  1.00  0.00    -0.206 F 
ATOM     56  C   UNL A   1      39.168  35.292  39.258  1.00  0.00     0.022 A 
BRANCH  53  57
ATOM     57  S   UNL A   1      37.788  33.257  40.568  1.00  0.00     0.124 S 
ATOM     58  O   UNL A   1      36.495  33.014  39.936  1.00  0.00    -0.237 OA
ATOM     59  O   UNL A   1      38.570  32.072  40.904  1.00  0.00    -0.237 OA
ATOM     60  O   UNL A   1      37.801  34.316  41.574  1.00  0.00    -0.744 OA
ENDBRANCH  53  57
ENDBRANCH  26  50
BRANCH  38  61
ATOM     61  C   UNL A   1      44.197  28.593  35.516  1.00  0.00     0.023 A 
ATOM     62  C   UNL A   1      44.005  27.523  36.407  1.00  0.00     0.031 A 
ATOM     63  C   UNL A   1      45.504  29.085  35.343  1.00  0.00     0.131 A 
ATOM     64  C   UNL A   1      45.098  27.003  37.117  1.00  0.00     0.055 A 
ATOM     65  C   UNL A   1      46.595  28.526  36.007  1.00  0.00     0.041 A 
ATOM     66  F   UNL A   1      45.740  30.112  34.509  1.00  0.00    -0.206 F 
ATOM     67  C   UNL A   1      46.394  27.485  36.907  1.00  0.00     0.022 A 
BRANCH  64  68
ATOM     68  S   UNL A   1      44.799  25.731  38.375  1.00  0.00     0.124 S 
ATOM     69  O   UNL A   1      44.170  26.504  39.442  1.00  0.00    -0.237 OA
ATOM     70  O   UNL A   1      43.934  24.791  37.671  1.00  0.00    -0.237 OA
ATOM     71  O   UNL A   1      46.138  25.230  38.681  1.00  0.00    -0.744 OA
ENDBRANCH  64  68
ENDBRANCH  38  61
ENDBRANCH  12  13
ENDBRANCH   5   7
ENDBRANCH   2   3
ENDBRANCH   1   2
BRANCH   1  72
ATOM     72  C   UNL A   1      31.811  30.367  26.138  1.00  0.00     0.117 C 
BRANCH  72  73
ATOM     73  N   UNL A   1      31.238  29.470  27.123  1.00  0.00    -0.354 N 
ATOM     74  C   UNL A   1      31.509  28.156  27.361  1.00  0.00     0.250 C 
ATOM     75  H   UNL A   1      30.553  29.871  27.707  1.00  0.00     0.163 HD
ATOM     76  O   UNL A   1      31.537  27.861  28.562  1.00  0.00    -0.272 OA
BRANCH  74  77
ATOM     77  C   UNL A   1      31.809  27.079  26.246  1.00  0.00     0.145 C 
ATOM     78  C   UNL A   1      33.360  26.900  26.253  1.00  0.00     0.044 C 
ATOM     79  C   UNL A   1      31.313  27.452  24.843  1.00  0.00    -0.010 A 
ATOM     80  C   UNL A   1      34.109  28.020  25.558  1.00  0.00     0.008 C 
ATOM     81  C   UNL A   1      32.196  27.964  23.860  1.00  0.00    -0.042 A 
ATOM     82  C   UNL A   1      29.947  27.339  24.515  1.00  0.00     0.007 A 
ATOM     83  C   UNL A   1      33.683  28.124  24.098  1.00  0.00     0.036 C 
ATOM     84  C   UNL A   1      31.692  28.368  22.611  1.00  0.00     0.004 A 
ATOM     85  C   UNL A   1      29.466  27.733  23.263  1.00  0.00     0.000 A 
ATOM     86  C   UNL A   1      30.336  28.260  22.317  1.00  0.00     0.000 A 
BRANCH  77  87
ATOM     87  N   UNL A   1      31.317  25.694  26.583  1.00  0.00    -0.338 N 
ATOM     88  C   UNL A   1      31.840  24.442  26.537  1.00  0.00     0.224 C 
ATOM     89  H   UNL A   1      30.392  25.698  26.919  1.00  0.00     0.164 HD
ATOM     90  O   UNL A   1      31.389  23.624  27.344  1.00  0.00    -0.275 OA
BRANCH  88  91
ATOM     91  C   UNL A   1      32.828  24.019  25.459  1.00  0.00     0.082 C 
ATOM     92  C   UNL A   1      32.400  22.655  24.874  1.00  0.00     0.035 C 
ATOM     93  C   UNL A   1      34.277  23.979  25.991  1.00  0.00     0.035 C 
ATOM     94  C   UNL A   1      32.826  21.461  25.723  1.00  0.00     0.120 C 
ATOM     95  C   UNL A   1      34.591  22.713  26.791  1.00  0.00     0.120 C 
ATOM     96  N   UNL A   1      34.255  21.540  25.998  1.00  0.00    -0.342 N 
ATOM     97  C   UNL A   1      35.090  20.612  25.376  1.00  0.00     0.225 C 
ATOM     98  O   UNL A   1      34.620  19.679  24.725  1.00  0.00    -0.275 OA
BRANCH  97  99
ATOM     99  C   UNL A   1      36.583  20.650  25.425  1.00  0.00     0.079 C 
ATOM    100  C   UNL A   1      37.572  20.002  24.501  1.00  0.00     0.014 C 
ATOM    101  C   UNL A   1      37.410  21.502  24.500  1.00  0.00     0.014 C 
ENDBRANCH  97  99
ENDBRANCH  88  91
ENDBRANCH  77  87
ENDBRANCH  74  77
ENDBRANCH  72  73
ENDBRANCH   1  72
TORSDOF 16
ENDMDL
MODEL 2
REMARK VINA RESULT:     -13.3      1.376      1.672
REMARK SMILES O=C(NCCCNC(=O)[C@]1(NC(=O)C2CCN(C(=O)C3CC3)CC2)CCCc2ccccc21)c1ccc(-c2c3nc(c(-c4cc(S(=O)(=O)[O-])ccc4F)c4ccc([nH]4)c(-c4cc(S(=O)(=O)[O-])ccc4F)c4nc(c(-c5cc(S(=O)(=O)[O-])ccc5F)c5ccc2[nH]5)C=C4)C=C3)cc1
REMARK SMILES IDX 5 1 4 2 3 3 1 4 2 5 34 7 35 8 96 9 36 10 95 11 37 12 38 13
REMARK SMILES IDX 39 14 89 15 40 16 94 17 88 18 90 19 41 20 93 21 87 22 86 23
REMARK SMILES IDX 42 25 74 26 54 27 73 28 55 29 58 30 72 31 91 32 56 33 57 34
REMARK SMILES IDX 71 36 92 37 59 38 43 39 44 40 52 41 45 42 51 43 53 44 50 45
REMARK SMILES IDX 46 46 47 47 48 48 49 49 75 50 76 51 84 52 77 53 83 54 85 55
REMARK SMILES IDX 82 56 78 57 79 58 80 59 81 60 60 61 61 62 69 63 62 64 68 65
REMARK SMILES IDX 70 66 67 67 63 68 64 69 65 70 66 71 6 72 7 73 8 74 9 76
REMARK SMILES IDX 10 77 25 78 33 79 26 80 28 81 32 82 27 83 29 84 31 85 30 86
REMARK SMILES IDX 11 87 12 88 13 90 14 91 15 92 24 93 16 94 23 95 17 96 18 97
REMARK SMILES IDX 19 98 20 99 21 100 22 101
REMARK H PARENT 3 6 90 24 58 35 7 75 11 89
REMARK Flexibility Score: inf
ROOT
ATOM      1  C   UNL A   1      31.471  31.791  26.254  1.00  0.00     0.042 C 
ENDROOT
BRANCH   1   2
ATOM      2  C   UNL A   1      32.598  32.181  27.192  1.00  0.00     0.118 C 
BRANCH   2   3
ATOM      3  N   UNL A   1      32.570  33.604  27.522  1.00  0.00    -0.352 N 
ATOM      4  O   UNL A   1      32.900  35.423  28.804  1.00  0.00    -0.269 OA
ATOM      5  C   UNL A   1      33.274  34.303  28.472  1.00  0.00     0.251 C 
ATOM      6  H   UNL A   1      31.950  34.144  26.981  1.00  0.00     0.163 HD
BRANCH   5   7
ATOM      7  C   UNL A   1      34.478  33.701  29.079  1.00  0.00     0.039 A 
ATOM      8  C   UNL A   1      34.348  32.615  29.945  1.00  0.00     0.014 A 
ATOM      9  C   UNL A   1      35.743  34.197  28.757  1.00  0.00     0.014 A 
ATOM     10  C   UNL A   1      35.456  32.132  30.621  1.00  0.00     0.010 A 
ATOM     11  C   UNL A   1      36.874  33.625  29.342  1.00  0.00     0.010 A 
ATOM     12  C   UNL A   1      36.735  32.602  30.295  1.00  0.00    -0.014 A 
BRANCH  12  13
ATOM     13  C   UNL A   1      37.917  31.941  30.896  1.00  0.00     0.031 A 
ATOM     14  C   UNL A   1      38.696  30.912  30.133  1.00  0.00     0.074 A 
ATOM     15  C   UNL A   1      38.273  32.285  32.150  1.00  0.00     0.049 A 
ATOM     16  N   UNL A   1      39.703  30.180  30.529  1.00  0.00    -0.248 NA
ATOM     17  C   UNL A   1      38.276  30.665  28.746  1.00  0.00     0.031 C 
ATOM     18  C   UNL A   1      37.581  33.280  32.975  1.00  0.00     0.029 A 
ATOM     19  N   UNL A   1      39.293  31.843  32.950  1.00  0.00    -0.354 N 
ATOM     20  C   UNL A   1      40.024  29.361  29.453  1.00  0.00     0.074 A 
ATOM     21  C   UNL A   1      39.078  29.668  28.400  1.00  0.00     0.031 C 
ATOM     22  C   UNL A   1      38.209  33.389  34.153  1.00  0.00     0.029 A 
ATOM     23  C   UNL A   1      39.284  32.407  34.203  1.00  0.00     0.049 A 
ATOM     24  H   UNL A   1      39.966  31.187  32.657  1.00  0.00     0.167 HD
ATOM     25  C   UNL A   1      41.020  28.443  29.362  1.00  0.00     0.034 A 
ATOM     26  C   UNL A   1      40.017  32.128  35.297  1.00  0.00     0.034 A 
ATOM     27  C   UNL A   1      41.936  28.157  30.441  1.00  0.00     0.049 A 
ATOM     28  C   UNL A   1      41.069  31.062  35.199  1.00  0.00     0.074 A 
ATOM     29  C   UNL A   1      43.005  27.278  30.456  1.00  0.00     0.029 A 
ATOM     30  N   UNL A   1      41.878  28.728  31.710  1.00  0.00    -0.354 N 
ATOM     31  N   UNL A   1      41.379  30.307  34.169  1.00  0.00    -0.248 NA
ATOM     32  C   UNL A   1      41.870  30.809  36.400  1.00  0.00     0.031 C 
ATOM     33  C   UNL A   1      43.535  27.253  31.751  1.00  0.00     0.029 A 
ATOM     34  C   UNL A   1      42.862  28.187  32.524  1.00  0.00     0.049 A 
ATOM     35  H   UNL A   1      41.232  29.416  31.989  1.00  0.00     0.167 HD
ATOM     36  C   UNL A   1      42.430  29.502  34.592  1.00  0.00     0.074 A 
ATOM     37  C   UNL A   1      42.703  29.871  35.969  1.00  0.00     0.031 C 
ATOM     38  C   UNL A   1      43.112  28.554  33.901  1.00  0.00     0.034 A 
BRANCH  25  39
ATOM     39  C   UNL A   1      41.114  27.645  28.080  1.00  0.00     0.023 A 
ATOM     40  C   UNL A   1      40.725  26.295  28.014  1.00  0.00     0.031 A 
ATOM     41  C   UNL A   1      41.660  28.225  26.921  1.00  0.00     0.131 A 
ATOM     42  C   UNL A   1      40.981  25.547  26.855  1.00  0.00     0.055 A 
ATOM     43  C   UNL A   1      41.821  27.500  25.738  1.00  0.00     0.041 A 
ATOM     44  F   UNL A   1      42.072  29.502  26.923  1.00  0.00    -0.206 F 
ATOM     45  C   UNL A   1      41.501  26.147  25.706  1.00  0.00     0.022 A 
BRANCH  42  46
ATOM     46  S   UNL A   1      40.806  23.741  26.936  1.00  0.00     0.124 S 
ATOM     47  O   UNL A   1      41.219  23.464  28.310  1.00  0.00    -0.237 OA
ATOM     48  O   UNL A   1      39.390  23.549  26.645  1.00  0.00    -0.237 OA
ATOM     49  O   UNL A   1      41.728  23.260  25.910  1.00  0.00    -0.744 OA
ENDBRANCH  42  46
ENDBRANCH  25  39
BRANCH  26  50
ATOM     50  C   UNL A   1      39.718  32.830  36.576  1.00  0.00     0.023 A 
ATOM     51  C   UNL A   1      38.731  32.363  37.453  1.00  0.00     0.031 A 
ATOM     52  C   UNL A   1      40.455  33.971  36.952  1.00  0.00     0.131 A 
ATOM     53  C   UNL A   1      38.492  33.045  38.657  1.00  0.00     0.055 A 
ATOM     54  C   UNL A   1      40.249  34.613  38.172  1.00  0.00     0.041 A 
ATOM     55  F   UNL A   1      41.419  34.451  36.150  1.00  0.00    -0.206 F 
ATOM     56  C   UNL A   1      39.256  34.155  39.030  1.00  0.00     0.022 A 
BRANCH  53  57
ATOM     57  S   UNL A   1      37.126  32.492  39.712  1.00  0.00     0.124 S 
ATOM     58  O   UNL A   1      37.235  33.408  40.843  1.00  0.00    -0.237 OA
ATOM     59  O   UNL A   1      35.972  32.682  38.840  1.00  0.00    -0.237 OA
ATOM     60  O   UNL A   1      37.463  31.100  40.002  1.00  0.00    -0.744 OA
ENDBRANCH  53  57
ENDBRANCH  26  50
BRANCH  38  61
ATOM     61  C   UNL A   1      44.261  27.883  34.611  1.00  0.00     0.023 A 
ATOM     62  C   UNL A   1      44.113  26.650  35.268  1.00  0.00     0.031 A 
ATOM     63  C   UNL A   1      45.533  28.484  34.605  1.00  0.00     0.131 A 
ATOM     64  C   UNL A   1      45.213  26.073  35.923  1.00  0.00     0.055 A 
ATOM     65  C   UNL A   1      46.635  27.877  35.206  1.00  0.00     0.041 A 
ATOM     66  F   UNL A   1      45.726  29.666  33.998  1.00  0.00    -0.206 F 
ATOM     67  C   UNL A   1      46.477  26.670  35.877  1.00  0.00     0.022 A 
BRANCH  64  68
ATOM     68  S   UNL A   1      44.959  24.564  36.895  1.00  0.00     0.124 S 
ATOM     69  O   UNL A   1      46.327  24.087  37.075  1.00  0.00    -0.237 OA
ATOM     70  O   UNL A   1      44.297  25.070  38.092  1.00  0.00    -0.237 OA
ATOM     71  O   UNL A   1      44.123  23.734  36.029  1.00  0.00    -0.744 OA
ENDBRANCH  64  68
ENDBRANCH  38  61
ENDBRANCH  12  13
ENDBRANCH   5   7
ENDBRANCH   2   3
ENDBRANCH   1   2
BRANCH   1  72
ATOM     72  C   UNL A   1      31.496  30.321  25.892  1.00  0.00     0.117 C 
BRANCH  72  73
ATOM     73  N   UNL A   1      31.108  29.435  26.973  1.00  0.00    -0.354 N 
ATOM     74  C   UNL A   1      31.533  28.170  27.252  1.00  0.00     0.250 C 
ATOM     75  H   UNL A   1      30.440  29.802  27.597  1.00  0.00     0.163 HD
ATOM     76  O   UNL A   1      31.698  27.954  28.459  1.00  0.00    -0.272 OA
BRANCH  74  77
ATOM     77  C   UNL A   1      31.841  27.062  26.172  1.00  0.00     0.145 C 
ATOM     78  C   UNL A   1      33.395  26.899  26.181  1.00  0.00     0.044 C 
ATOM     79  C   UNL A   1      31.339  27.383  24.759  1.00  0.00    -0.010 A 
ATOM     80  C   UNL A   1      34.130  28.004  25.448  1.00  0.00     0.008 C 
ATOM     81  C   UNL A   1      32.214  27.873  23.758  1.00  0.00    -0.042 A 
ATOM     82  C   UNL A   1      29.973  27.246  24.438  1.00  0.00     0.007 A 
ATOM     83  C   UNL A   1      33.700  28.056  23.986  1.00  0.00     0.036 C 
ATOM     84  C   UNL A   1      31.703  28.232  22.498  1.00  0.00     0.004 A 
ATOM     85  C   UNL A   1      29.485  27.595  23.176  1.00  0.00     0.000 A 
ATOM     86  C   UNL A   1      30.347  28.100  22.211  1.00  0.00     0.000 A 
BRANCH  77  87
ATOM     87  N   UNL A   1      31.365  25.683  26.555  1.00  0.00    -0.338 N 
ATOM     88  C   UNL A   1      31.895  24.433  26.532  1.00  0.00     0.224 C 
ATOM     89  H   UNL A   1      30.447  25.691  26.907  1.00  0.00     0.164 HD
ATOM     90  O   UNL A   1      31.465  23.635  27.368  1.00  0.00    -0.275 OA
BRANCH  88  91
ATOM     91  C   UNL A   1      32.866  23.988  25.447  1.00  0.00     0.082 C 
ATOM     92  C   UNL A   1      32.415  22.623  24.881  1.00  0.00     0.035 C 
ATOM     93  C   UNL A   1      34.320  23.937  25.962  1.00  0.00     0.035 C 
ATOM     94  C   UNL A   1      32.838  21.432  25.738  1.00  0.00     0.120 C 
ATOM     95  C   UNL A   1      34.629  22.676  26.772  1.00  0.00     0.120 C 
ATOM     96  N   UNL A   1      34.271  21.498  25.995  1.00  0.00    -0.342 N 
ATOM     97  C   UNL A   1      35.088  20.555  25.373  1.00  0.00     0.225 C 
ATOM     98  O   UNL A   1      34.599  19.620  24.738  1.00  0.00    -0.275 OA
BRANCH  97  99
ATOM     99  C   UNL A   1      36.581  20.576  25.404  1.00  0.00     0.079 C 
ATOM    100  C   UNL A   1      37.552  19.951  24.446  1.00  0.00     0.014 C 
ATOM    101  C   UNL A   1      37.406  21.451  24.498  1.00  0.00     0.014 C 
ENDBRANCH  97  99
ENDBRANCH  88  91
ENDBRANCH  77  87
ENDBRANCH  74  77
ENDBRANCH  72  73
ENDBRANCH   1  72
TORSDOF 16
ENDMDL
MODEL 3
REMARK VINA RESULT:     -13.0      5.413     10.816
REMARK SMILES O=C(NCCCNC(=O)[C@]1(NC(=O)C2CCN(C(=O)C3CC3)CC2)CCCc2ccccc21)c1ccc(-c2c3nc(c(-c4cc(S(=O)(=O)[O-])ccc4F)c4ccc([nH]4)c(-c4cc(S(=O)(=O)[O-])ccc4F)c4nc(c(-c5cc(S(=O)(=O)[O-])ccc5F)c5ccc2[nH]5)C=C4)C=C3)cc1
REMARK SMILES IDX 5 1 4 2 3 3 1 4 2 5 34 7 35 8 96 9 36 10 95 11 37 12 38 13
REMARK SMILES IDX 39 14 89 15 40 16 94 17 88 18 90 19 41 20 93 21 87 22 86 23
REMARK SMILES IDX 42 25 74 26 54 27 73 28 55 29 58 30 72 31 91 32 56 33 57 34
REMARK SMILES IDX 71 36 92 37 59 38 43 39 44 40 52 41 45 42 51 43 53 44 50 45
REMARK SMILES IDX 46 46 47 47 48 48 49 49 75 50 76 51 84 52 77 53 83 54 85 55
REMARK SMILES IDX 82 56 78 57 79 58 80 59 81 60 60 61 61 62 69 63 62 64 68 65
REMARK SMILES IDX 70 66 67 67 63 68 64 69 65 70 66 71 6 72 7 73 8 74 9 76
REMARK SMILES IDX 10 77 25 78 33 79 26 80 28 81 32 82 27 83 29 84 31 85 30 86
REMARK SMILES IDX 11 87 12 88 13 90 14 91 15 92 24 93 16 94 23 95 17 96 18 97
REMARK SMILES IDX 19 98 20 99 21 100 22 101
REMARK H PARENT 3 6 90 24 58 35 7 75 11 89
REMARK Flexibility Score: inf
ROOT
ATOM      1  C   UNL A   1      36.695  21.612  25.277  1.00  0.00     0.042 C 
ENDROOT
BRANCH   1   2
ATOM      2  C   UNL A   1      38.173  21.477  24.961  1.00  0.00     0.118 C 
BRANCH   2   3
ATOM      3  N   UNL A   1      38.838  20.523  25.844  1.00  0.00    -0.352 N 
ATOM      4  O   UNL A   1      40.533  19.688  27.066  1.00  0.00    -0.269 OA
ATOM      5  C   UNL A   1      39.951  20.678  26.633  1.00  0.00     0.251 C 
ATOM      6  H   UNL A   1      38.424  19.630  25.879  1.00  0.00     0.163 HD
BRANCH   5   7
ATOM      7  C   UNL A   1      40.434  22.035  26.957  1.00  0.00     0.039 A 
ATOM      8  C   UNL A   1      41.340  22.218  28.002  1.00  0.00     0.014 A 
ATOM      9  C   UNL A   1      40.012  23.126  26.193  1.00  0.00     0.014 A 
ATOM     10  C   UNL A   1      41.693  23.498  28.396  1.00  0.00     0.010 A 
ATOM     11  C   UNL A   1      40.469  24.405  26.512  1.00  0.00     0.010 A 
ATOM     12  C   UNL A   1      41.296  24.601  27.630  1.00  0.00    -0.014 A 
BRANCH  12  13
ATOM     13  C   UNL A   1      41.839  25.939  27.965  1.00  0.00     0.031 A 
ATOM     14  C   UNL A   1      40.990  26.962  28.658  1.00  0.00     0.074 A 
ATOM     15  C   UNL A   1      43.114  26.214  27.628  1.00  0.00     0.049 A 
ATOM     16  N   UNL A   1      41.274  28.203  28.956  1.00  0.00    -0.248 NA
ATOM     17  C   UNL A   1      39.640  26.539  29.053  1.00  0.00     0.031 C 
ATOM     18  C   UNL A   1      44.024  25.283  26.955  1.00  0.00     0.029 A 
ATOM     19  N   UNL A   1      43.867  27.346  27.799  1.00  0.00    -0.354 N 
ATOM     20  C   UNL A   1      40.130  28.723  29.549  1.00  0.00     0.074 A 
ATOM     21  C   UNL A   1      39.138  27.667  29.536  1.00  0.00     0.031 C 
ATOM     22  C   UNL A   1      45.216  25.871  26.791  1.00  0.00     0.029 A 
ATOM     23  C   UNL A   1      45.126  27.248  27.257  1.00  0.00     0.049 A 
ATOM     24  H   UNL A   1      43.539  28.150  28.263  1.00  0.00     0.167 HD
ATOM     25  C   UNL A   1      39.936  29.967  30.057  1.00  0.00     0.034 A 
ATOM     26  C   UNL A   1      46.087  28.176  27.096  1.00  0.00     0.034 A 
ATOM     27  C   UNL A   1      40.949  30.997  30.040  1.00  0.00     0.049 A 
ATOM     28  C   UNL A   1      45.831  29.565  27.602  1.00  0.00     0.074 A 
ATOM     29  C   UNL A   1      40.884  32.279  30.556  1.00  0.00     0.029 A 
ATOM     30  N   UNL A   1      42.206  30.871  29.455  1.00  0.00    -0.354 N 
ATOM     31  N   UNL A   1      44.752  30.041  28.182  1.00  0.00    -0.248 NA
ATOM     32  C   UNL A   1      46.913  30.541  27.440  1.00  0.00     0.031 C 
ATOM     33  C   UNL A   1      42.060  32.953  30.207  1.00  0.00     0.029 A 
ATOM     34  C   UNL A   1      42.904  32.065  29.559  1.00  0.00     0.049 A 
ATOM     35  H   UNL A   1      42.550  30.052  29.029  1.00  0.00     0.167 HD
ATOM     36  C   UNL A   1      45.034  31.371  28.474  1.00  0.00     0.074 A 
ATOM     37  C   UNL A   1      46.388  31.616  28.013  1.00  0.00     0.031 C 
ATOM     38  C   UNL A   1      44.249  32.298  29.079  1.00  0.00     0.034 A 
BRANCH  25  39
ATOM     39  C   UNL A   1      38.563  30.288  30.604  1.00  0.00     0.023 A 
ATOM     40  C   UNL A   1      37.628  31.040  29.870  1.00  0.00     0.031 A 
ATOM     41  C   UNL A   1      38.204  29.888  31.904  1.00  0.00     0.131 A 
ATOM     42  C   UNL A   1      36.431  31.455  30.475  1.00  0.00     0.055 A 
ATOM     43  C   UNL A   1      36.969  30.221  32.465  1.00  0.00     0.041 A 
ATOM     44  F   UNL A   1      39.059  29.188  32.665  1.00  0.00    -0.206 F 
ATOM     45  C   UNL A   1      36.083  31.028  31.759  1.00  0.00     0.022 A 
BRANCH  42  46
ATOM     46  S   UNL A   1      35.432  32.717  29.636  1.00  0.00     0.124 S 
ATOM     47  O   UNL A   1      36.366  33.216  28.629  1.00  0.00    -0.237 OA
ATOM     48  O   UNL A   1      34.305  31.942  29.131  1.00  0.00    -0.237 OA
ATOM     49  O   UNL A   1      35.113  33.666  30.700  1.00  0.00    -0.744 OA
ENDBRANCH  42  46
ENDBRANCH  25  39
BRANCH  26  50
ATOM     50  C   UNL A   1      47.334  27.818  26.366  1.00  0.00     0.023 A 
ATOM     51  C   UNL A   1      47.414  27.899  24.969  1.00  0.00     0.031 A 
ATOM     52  C   UNL A   1      48.486  27.418  27.074  1.00  0.00     0.131 A 
ATOM     53  C   UNL A   1      48.615  27.567  24.321  1.00  0.00     0.055 A 
ATOM     54  C   UNL A   1      49.690  27.141  26.429  1.00  0.00     0.041 A 
ATOM     55  F   UNL A   1      48.463  27.336  28.414  1.00  0.00    -0.206 F 
ATOM     56  C   UNL A   1      49.757  27.207  25.042  1.00  0.00     0.022 A 
BRANCH  53  57
ATOM     57  S   UNL A   1      48.650  27.562  22.509  1.00  0.00     0.124 S 
ATOM     58  O   UNL A   1      48.672  26.133  22.217  1.00  0.00    -0.237 OA
ATOM     59  O   UNL A   1      47.415  28.265  22.179  1.00  0.00    -0.237 OA
ATOM     60  O   UNL A   1      49.879  28.284  22.191  1.00  0.00    -0.744 OA
ENDBRANCH  53  57
ENDBRANCH  26  50
BRANCH  38  61
ATOM     61  C   UNL A   1      44.858  33.655  29.324  1.00  0.00     0.023 A 
ATOM     62  C   UNL A   1      44.584  34.757  28.495  1.00  0.00     0.031 A 
ATOM     63  C   UNL A   1      45.709  33.851  30.426  1.00  0.00     0.131 A 
ATOM     64  C   UNL A   1      45.186  35.996  28.762  1.00  0.00     0.055 A 
ATOM     65  C   UNL A   1      46.257  35.099  30.721  1.00  0.00     0.041 A 
ATOM     66  F   UNL A   1      46.009  32.829  31.246  1.00  0.00    -0.206 F 
ATOM     67  C   UNL A   1      46.003  36.178  29.881  1.00  0.00     0.022 A 
BRANCH  64  68
ATOM     68  S   UNL A   1      44.942  37.358  27.588  1.00  0.00     0.124 S 
ATOM     69  O   UNL A   1      46.263  37.469  26.977  1.00  0.00    -0.237 OA
ATOM     70  O   UNL A   1      43.882  36.844  26.728  1.00  0.00    -0.237 OA
ATOM     71  O   UNL A   1      44.558  38.481  28.442  1.00  0.00    -0.744 OA
ENDBRANCH  64  68
ENDBRANCH  38  61
ENDBRANCH  12  13
ENDBRANCH   5   7
ENDBRANCH   2   3
ENDBRANCH   1   2
BRANCH   1  72
ATOM     72  C   UNL A   1      36.309  23.024  25.668  1.00  0.00     0.117 C 
BRANCH  72  73
ATOM     73  N   UNL A   1      35.518  23.110  26.880  1.00  0.00    -0.354 N 
ATOM     74  C   UNL A   1      34.166  23.217  27.026  1.00  0.00     0.250 C 
ATOM     75  H   UNL A   1      36.032  23.087  27.720  1.00  0.00     0.163 HD
ATOM     76  O   UNL A   1      33.711  22.543  27.959  1.00  0.00    -0.272 OA
BRANCH  74  77
ATOM     77  C   UNL A   1      33.222  24.073  26.097  1.00  0.00     0.145 C 
ATOM     78  C   UNL A   1      31.884  24.215  26.890  1.00  0.00     0.044 C 
ATOM     79  C   UNL A   1      32.967  23.471  24.709  1.00  0.00    -0.010 A 
ATOM     80  C   UNL A   1      31.015  22.974  26.852  1.00  0.00     0.008 C 
ATOM     81  C   UNL A   1      31.769  22.774  24.416  1.00  0.00    -0.042 A 
ATOM     82  C   UNL A   1      33.950  23.555  23.703  1.00  0.00     0.007 A 
ATOM     83  C   UNL A   1      30.642  22.624  25.415  1.00  0.00     0.036 C 
ATOM     84  C   UNL A   1      31.604  22.167  23.158  1.00  0.00     0.004 A 
ATOM     85  C   UNL A   1      33.764  22.957  22.453  1.00  0.00     0.000 A 
ATOM     86  C   UNL A   1      32.597  22.252  22.186  1.00  0.00     0.000 A 
BRANCH  77  87
ATOM     87  N   UNL A   1      33.659  25.507  25.931  1.00  0.00    -0.338 N 
ATOM     88  C   UNL A   1      33.063  26.722  26.046  1.00  0.00     0.224 C 
ATOM     89  H   UNL A   1      34.607  25.580  25.679  1.00  0.00     0.164 HD
ATOM     90  O   UNL A   1      33.793  27.668  26.351  1.00  0.00    -0.275 OA
BRANCH  88  91
ATOM     91  C   UNL A   1      31.602  26.941  25.680  1.00  0.00     0.082 C 
ATOM     92  C   UNL A   1      31.396  26.638  24.179  1.00  0.00     0.035 C 
ATOM     93  C   UNL A   1      31.126  28.365  26.042  1.00  0.00     0.035 C 
ATOM     94  C   UNL A   1      31.792  27.789  23.259  1.00  0.00     0.120 C 
ATOM     95  C   UNL A   1      31.553  29.421  25.021  1.00  0.00     0.120 C 
ATOM     96  N   UNL A   1      31.127  29.013  23.690  1.00  0.00    -0.342 N 
ATOM     97  C   UNL A   1      30.115  29.525  22.878  1.00  0.00     0.225 C 
ATOM     98  O   UNL A   1      29.887  29.034  21.772  1.00  0.00    -0.275 OA
BRANCH  97  99
ATOM     99  C   UNL A   1      29.233  30.672  23.247  1.00  0.00     0.079 C 
ATOM    100  C   UNL A   1      28.296  31.457  22.377  1.00  0.00     0.014 C 
ATOM    101  C   UNL A   1      27.746  30.533  23.435  1.00  0.00     0.014 C 
ENDBRANCH  97  99
ENDBRANCH  88  91
ENDBRANCH  77  87
ENDBRANCH  74  77
ENDBRANCH  72  73
ENDBRANCH   1  72
TORSDOF 16
ENDMDL
