MODEL 1
REMARK VINA RESULT:     -12.5      0.000      0.000
REMARK SMILES COc1cc(CC(=O)N2CCC[C@H]2C(=O)NCCCNC(=O)c2ccc(-c3c4nc(c(-c5cc(S(=O)(=O)[O-])ccc5F)c5ccc([nH]5)c(-c5cc(S(=O)(=O)[O-])ccc5F)c5nc(c(-c6cc(S(=O)(=O)[O-])ccc6F)c6ccc3[nH]6)C=C5)C=C4)cc2)ccc1C
REMARK SMILES IDX 17 1 16 2 14 3 15 4 13 6 9 7 10 8 11 9 12 10 7 11 8 12 6 13
REMARK SMILES IDX 5 14 3 15 4 16 88 17 87 18 89 19 86 20 2 21 1 22 18 23 19 24
REMARK SMILES IDX 20 25 21 26 22 28 23 29 24 30 85 31 25 32 84 33 26 34 27 35
REMARK SMILES IDX 28 36 78 37 29 38 83 39 77 40 79 41 30 42 82 43 76 44 75 45
REMARK SMILES IDX 31 47 63 48 43 49 62 50 44 51 47 52 61 53 80 54 45 55 46 56
REMARK SMILES IDX 60 58 81 59 48 60 32 61 33 62 41 63 34 64 40 65 42 66 39 67
REMARK SMILES IDX 35 68 36 69 37 70 38 71 64 72 65 73 73 74 66 75 72 76 74 77
REMARK SMILES IDX 71 78 67 79 68 80 69 81 70 82 49 83 50 84 58 85 51 86 57 87
REMARK SMILES IDX 59 88 56 89 52 90 53 91 54 92 55 93
REMARK H PARENT 16 5 20 27 79 46 47 57
REMARK Flexibility Score: inf
ROOT
ATOM      1  C   UNL A   1      33.888  28.674  26.747  1.00  0.00     0.117 C 
ENDROOT
BRANCH   1   2
ATOM      2  N   UNL A   1      34.035  28.973  25.335  1.00  0.00    -0.354 N 
ATOM      3  C   UNL A   1      33.476  28.424  24.224  1.00  0.00     0.242 C 
ATOM      4  O   UNL A   1      33.675  28.999  23.146  1.00  0.00    -0.273 OA
ATOM      5  H   UNL A   1      34.657  29.713  25.146  1.00  0.00     0.163 HD
BRANCH   3   6
ATOM      6  C   UNL A   1      32.560  27.177  24.258  1.00  0.00     0.174 C 
ATOM      7  N   UNL A   1      32.901  26.080  25.164  1.00  0.00    -0.330 N 
ATOM      8  C   UNL A   1      31.888  25.877  26.175  1.00  0.00     0.120 C 
ATOM      9  C   UNL A   1      30.690  26.718  25.778  1.00  0.00     0.024 C 
ATOM     10  C   UNL A   1      31.087  27.492  24.524  1.00  0.00     0.037 C 
BRANCH   7  11
ATOM     11  C   UNL A   1      33.973  25.258  24.876  1.00  0.00     0.227 C 
ATOM     12  O   UNL A   1      34.292  24.996  23.714  1.00  0.00    -0.275 OA
BRANCH  11  13
ATOM     13  C   UNL A   1      34.672  24.511  26.006  1.00  0.00     0.135 C 
BRANCH  13  14
ATOM     14  C   UNL A   1      35.494  23.300  25.641  1.00  0.00    -0.035 A 
ATOM     15  C   UNL A   1      35.584  20.926  25.068  1.00  0.00     0.122 A 
ATOM     16  C   UNL A   1      34.852  22.080  25.364  1.00  0.00     0.051 A 
ATOM     17  C   UNL A   1      36.985  20.995  25.027  1.00  0.00    -0.009 A 
ATOM     18  C   UNL A   1      37.621  22.231  25.240  1.00  0.00     0.007 A 
ATOM     19  C   UNL A   1      37.839  19.793  24.731  1.00  0.00     0.048 C 
ATOM     20  C   UNL A   1      36.884  23.374  25.547  1.00  0.00     0.005 A 
BRANCH  15  21
ATOM     21  O   UNL A   1      35.023  19.695  24.850  1.00  0.00    -0.496 OA
ATOM     22  C   UNL A   1      33.637  19.659  24.531  1.00  0.00     0.278 C 
ENDBRANCH  15  21
ENDBRANCH  13  14
ENDBRANCH  11  13
ENDBRANCH   7  11
ENDBRANCH   3   6
ENDBRANCH   1   2
BRANCH   1  23
ATOM     23  C   UNL A   1      33.672  29.917  27.593  1.00  0.00     0.042 C 
BRANCH  23  24
ATOM     24  C   UNL A   1      34.785  30.940  27.406  1.00  0.00     0.118 C 
BRANCH  24  25
ATOM     25  N   UNL A   1      35.246  31.561  28.649  1.00  0.00    -0.352 N 
ATOM     26  C   UNL A   1      36.149  31.070  29.582  1.00  0.00     0.251 C 
ATOM     27  H   UNL A   1      34.866  32.446  28.850  1.00  0.00     0.163 HD
ATOM     28  O   UNL A   1      36.402  31.671  30.609  1.00  0.00    -0.269 OA
BRANCH  26  29
ATOM     29  C   UNL A   1      36.909  29.845  29.234  1.00  0.00     0.039 A 
ATOM     30  C   UNL A   1      37.212  28.964  30.279  1.00  0.00     0.014 A 
ATOM     31  C   UNL A   1      37.541  29.733  28.001  1.00  0.00     0.014 A 
ATOM     32  C   UNL A   1      38.331  28.145  30.168  1.00  0.00     0.010 A 
ATOM     33  C   UNL A   1      38.710  29.004  27.929  1.00  0.00     0.010 A 
ATOM     34  C   UNL A   1      39.138  28.263  29.036  1.00  0.00    -0.014 A 
BRANCH  34  35
ATOM     35  C   UNL A   1      40.505  27.757  28.990  1.00  0.00     0.031 A 
ATOM     36  C   UNL A   1      40.779  26.380  28.545  1.00  0.00     0.074 A 
ATOM     37  C   UNL A   1      41.533  28.566  29.329  1.00  0.00     0.049 A 
ATOM     38  N   UNL A   1      41.779  25.671  28.946  1.00  0.00    -0.248 NA
ATOM     39  C   UNL A   1      39.901  25.673  27.623  1.00  0.00     0.031 C 
ATOM     40  C   UNL A   1      42.960  28.309  29.157  1.00  0.00     0.029 A 
ATOM     41  N   UNL A   1      41.477  29.703  30.133  1.00  0.00    -0.354 N 
ATOM     42  C   UNL A   1      41.849  24.560  28.138  1.00  0.00     0.074 A 
ATOM     43  C   UNL A   1      40.618  24.573  27.381  1.00  0.00     0.031 C 
ATOM     44  C   UNL A   1      43.642  29.066  30.030  1.00  0.00     0.029 A 
ATOM     45  C   UNL A   1      42.670  29.736  30.876  1.00  0.00     0.049 A 
ATOM     46  H   UNL A   1      40.741  30.358  30.174  1.00  0.00     0.167 HD
ATOM     47  C   UNL A   1      43.002  23.832  28.088  1.00  0.00     0.034 A 
ATOM     48  C   UNL A   1      42.644  29.687  32.239  1.00  0.00     0.034 A 
ATOM     49  C   UNL A   1      44.013  24.359  29.006  1.00  0.00     0.049 A 
ATOM     50  C   UNL A   1      43.351  28.479  32.813  1.00  0.00     0.074 A 
ATOM     51  C   UNL A   1      45.134  25.153  28.815  1.00  0.00     0.029 A 
ATOM     52  N   UNL A   1      43.785  24.330  30.378  1.00  0.00    -0.354 N 
ATOM     53  N   UNL A   1      43.692  27.425  32.124  1.00  0.00    -0.248 NA
ATOM     54  C   UNL A   1      43.709  28.363  34.221  1.00  0.00     0.031 C 
ATOM     55  C   UNL A   1      45.543  25.647  30.081  1.00  0.00     0.029 A 
ATOM     56  C   UNL A   1      44.694  25.130  31.046  1.00  0.00     0.049 A 
ATOM     57  H   UNL A   1      43.073  23.810  30.815  1.00  0.00     0.167 HD
ATOM     58  C   UNL A   1      44.265  26.492  32.955  1.00  0.00     0.074 A 
ATOM     59  C   UNL A   1      44.284  27.148  34.252  1.00  0.00     0.031 C 
ATOM     60  C   UNL A   1      44.655  25.260  32.500  1.00  0.00     0.034 A 
BRANCH  47  61
ATOM     61  C   UNL A   1      43.311  22.857  26.971  1.00  0.00     0.023 A 
ATOM     62  C   UNL A   1      42.796  21.545  27.027  1.00  0.00     0.031 A 
ATOM     63  C   UNL A   1      44.135  23.130  25.862  1.00  0.00     0.131 A 
ATOM     64  C   UNL A   1      43.196  20.558  26.107  1.00  0.00     0.055 A 
ATOM     65  C   UNL A   1      44.594  22.134  24.989  1.00  0.00     0.041 A 
ATOM     66  F   UNL A   1      44.488  24.384  25.544  1.00  0.00    -0.206 F 
ATOM     67  C   UNL A   1      44.137  20.832  25.120  1.00  0.00     0.022 A 
BRANCH  64  68
ATOM     68  S   UNL A   1      42.452  18.905  26.202  1.00  0.00     0.124 S 
ATOM     69  O   UNL A   1      43.303  18.127  25.307  1.00  0.00    -0.237 OA
ATOM     70  O   UNL A   1      42.561  18.601  27.625  1.00  0.00    -0.237 OA
ATOM     71  O   UNL A   1      41.087  19.120  25.722  1.00  0.00    -0.744 OA
ENDBRANCH  64  68
ENDBRANCH  47  61
BRANCH  48  72
ATOM     72  C   UNL A   1      41.453  30.364  32.827  1.00  0.00     0.023 A 
ATOM     73  C   UNL A   1      41.437  31.777  32.808  1.00  0.00     0.031 A 
ATOM     74  C   UNL A   1      40.235  29.700  33.019  1.00  0.00     0.131 A 
ATOM     75  C   UNL A   1      40.219  32.473  32.809  1.00  0.00     0.055 A 
ATOM     76  C   UNL A   1      39.025  30.405  33.084  1.00  0.00     0.041 A 
ATOM     77  F   UNL A   1      40.178  28.360  33.014  1.00  0.00    -0.206 F 
ATOM     78  C   UNL A   1      39.009  31.793  32.932  1.00  0.00     0.022 A 
BRANCH  75  79
ATOM     79  S   UNL A   1      40.223  34.237  32.368  1.00  0.00     0.124 S 
ATOM     80  O   UNL A   1      40.831  34.851  33.541  1.00  0.00    -0.237 OA
ATOM     81  O   UNL A   1      41.024  34.266  31.145  1.00  0.00    -0.237 OA
ATOM     82  O   UNL A   1      38.809  34.544  32.157  1.00  0.00    -0.744 OA
ENDBRANCH  75  79
ENDBRANCH  48  72
BRANCH  60  83
ATOM     83  C   UNL A   1      45.116  24.086  33.353  1.00  0.00     0.023 A 
ATOM     84  C   UNL A   1      46.403  23.973  33.900  1.00  0.00     0.031 A 
ATOM     85  C   UNL A   1      44.225  23.037  33.698  1.00  0.00     0.131 A 
ATOM     86  C   UNL A   1      46.788  22.849  34.656  1.00  0.00     0.055 A 
ATOM     87  C   UNL A   1      44.584  21.959  34.515  1.00  0.00     0.041 A 
ATOM     88  F   UNL A   1      42.955  23.013  33.268  1.00  0.00    -0.206 F 
ATOM     89  C   UNL A   1      45.881  21.849  34.986  1.00  0.00     0.022 A 
BRANCH  86  90
ATOM     90  S   UNL A   1      48.529  22.696  35.141  1.00  0.00     0.124 S 
ATOM     91  O   UNL A   1      48.735  21.253  35.068  1.00  0.00    -0.237 OA
ATOM     92  O   UNL A   1      49.209  23.485  34.119  1.00  0.00    -0.237 OA
ATOM     93  O   UNL A   1      48.564  23.261  36.488  1.00  0.00    -0.744 OA
ENDBRANCH  86  90
ENDBRANCH  60  83
ENDBRANCH  34  35
ENDBRANCH  26  29
ENDBRANCH  24  25
ENDBRANCH  23  24
ENDBRANCH   1  23
TORSDOF 17
ENDMDL
MODEL 2
REMARK VINA RESULT:     -12.0      4.140     10.708
REMARK SMILES COc1cc(CC(=O)N2CCC[C@H]2C(=O)NCCCNC(=O)c2ccc(-c3c4nc(c(-c5cc(S(=O)(=O)[O-])ccc5F)c5ccc([nH]5)c(-c5cc(S(=O)(=O)[O-])ccc5F)c5nc(c(-c6cc(S(=O)(=O)[O-])ccc6F)c6ccc3[nH]6)C=C5)C=C4)cc2)ccc1C
REMARK SMILES IDX 17 1 16 2 14 3 15 4 13 6 9 7 10 8 11 9 12 10 7 11 8 12 6 13
REMARK SMILES IDX 5 14 3 15 4 16 88 17 87 18 89 19 86 20 2 21 1 22 18 23 19 24
REMARK SMILES IDX 20 25 21 26 22 28 23 29 24 30 85 31 25 32 84 33 26 34 27 35
REMARK SMILES IDX 28 36 78 37 29 38 83 39 77 40 79 41 30 42 82 43 76 44 75 45
REMARK SMILES IDX 31 47 63 48 43 49 62 50 44 51 47 52 61 53 80 54 45 55 46 56
REMARK SMILES IDX 60 58 81 59 48 60 32 61 33 62 41 63 34 64 40 65 42 66 39 67
REMARK SMILES IDX 35 68 36 69 37 70 38 71 64 72 65 73 73 74 66 75 72 76 74 77
REMARK SMILES IDX 71 78 67 79 68 80 69 81 70 82 49 83 50 84 58 85 51 86 57 87
REMARK SMILES IDX 59 88 56 89 52 90 53 91 54 92 55 93
REMARK H PARENT 16 5 20 27 79 46 47 57
REMARK Flexibility Score: inf
ROOT
ATOM      1  C   UNL A   1      36.402  21.875  26.133  1.00  0.00     0.117 C 
ENDROOT
BRANCH   1   2
ATOM      2  N   UNL A   1      35.741  20.706  25.584  1.00  0.00    -0.354 N 
ATOM      3  C   UNL A   1      34.589  20.559  24.876  1.00  0.00     0.242 C 
ATOM      4  O   UNL A   1      34.355  19.440  24.401  1.00  0.00    -0.273 OA
ATOM      5  H   UNL A   1      36.216  19.861  25.757  1.00  0.00     0.163 HD
BRANCH   3   6
ATOM      6  C   UNL A   1      33.614  21.724  24.583  1.00  0.00     0.174 C 
ATOM      7  N   UNL A   1      33.917  22.632  23.477  1.00  0.00    -0.330 N 
ATOM      8  C   UNL A   1      32.915  22.574  22.436  1.00  0.00     0.120 C 
ATOM      9  C   UNL A   1      31.752  21.769  22.985  1.00  0.00     0.024 C 
ATOM     10  C   UNL A   1      32.164  21.285  24.374  1.00  0.00     0.037 C 
BRANCH   7  11
ATOM     11  C   UNL A   1      34.942  23.550  23.601  1.00  0.00     0.227 C 
ATOM     12  O   UNL A   1      35.997  23.428  22.974  1.00  0.00    -0.275 OA
BRANCH  11  13
ATOM     13  C   UNL A   1      34.852  24.638  24.664  1.00  0.00     0.135 C 
BRANCH  13  14
ATOM     14  C   UNL A   1      33.803  25.706  24.486  1.00  0.00    -0.035 A 
ATOM     15  C   UNL A   1      32.043  27.097  25.460  1.00  0.00     0.122 A 
ATOM     16  C   UNL A   1      33.057  26.143  25.596  1.00  0.00     0.051 A 
ATOM     17  C   UNL A   1      31.782  27.642  24.194  1.00  0.00    -0.009 A 
ATOM     18  C   UNL A   1      32.574  27.252  23.098  1.00  0.00     0.007 A 
ATOM     19  C   UNL A   1      30.700  28.660  23.967  1.00  0.00     0.048 C 
ATOM     20  C   UNL A   1      33.573  26.291  23.241  1.00  0.00     0.005 A 
BRANCH  15  21
ATOM     21  O   UNL A   1      31.242  27.518  26.488  1.00  0.00    -0.496 OA
ATOM     22  C   UNL A   1      31.875  28.165  27.584  1.00  0.00     0.278 C 
ENDBRANCH  15  21
ENDBRANCH  13  14
ENDBRANCH  11  13
ENDBRANCH   7  11
ENDBRANCH   3   6
ENDBRANCH   1   2
BRANCH   1  23
ATOM     23  C   UNL A   1      37.854  21.989  25.699  1.00  0.00     0.042 C 
BRANCH  23  24
ATOM     24  C   UNL A   1      38.459  23.337  26.067  1.00  0.00     0.118 C 
BRANCH  24  25
ATOM     25  N   UNL A   1      39.884  23.285  26.402  1.00  0.00    -0.352 N 
ATOM     26  C   UNL A   1      40.701  24.297  26.887  1.00  0.00     0.251 C 
ATOM     27  H   UNL A   1      40.321  22.414  26.267  1.00  0.00     0.163 HD
ATOM     28  O   UNL A   1      41.891  24.130  27.071  1.00  0.00    -0.269 OA
BRANCH  26  29
ATOM     29  C   UNL A   1      40.057  25.566  27.306  1.00  0.00     0.039 A 
ATOM     30  C   UNL A   1      40.412  26.724  26.605  1.00  0.00     0.014 A 
ATOM     31  C   UNL A   1      39.377  25.646  28.517  1.00  0.00     0.014 A 
ATOM     32  C   UNL A   1      40.317  27.956  27.243  1.00  0.00     0.010 A 
ATOM     33  C   UNL A   1      39.382  26.849  29.191  1.00  0.00     0.010 A 
ATOM     34  C   UNL A   1      39.912  27.990  28.578  1.00  0.00    -0.014 A 
BRANCH  34  35
ATOM     35  C   UNL A   1      40.145  29.142  29.440  1.00  0.00     0.031 A 
ATOM     36  C   UNL A   1      39.102  30.166  29.619  1.00  0.00     0.074 A 
ATOM     37  C   UNL A   1      41.315  29.259  30.105  1.00  0.00     0.049 A 
ATOM     38  N   UNL A   1      39.337  31.408  29.875  1.00  0.00    -0.248 NA
ATOM     39  C   UNL A   1      37.684  29.862  29.479  1.00  0.00     0.031 C 
ATOM     40  C   UNL A   1      41.650  30.220  31.153  1.00  0.00     0.029 A 
ATOM     41  N   UNL A   1      42.531  28.662  29.777  1.00  0.00    -0.354 N 
ATOM     42  C   UNL A   1      38.141  31.993  30.221  1.00  0.00     0.074 A 
ATOM     43  C   UNL A   1      37.136  31.009  29.890  1.00  0.00     0.031 C 
ATOM     44  C   UNL A   1      42.985  30.355  31.201  1.00  0.00     0.029 A 
ATOM     45  C   UNL A   1      43.540  29.585  30.102  1.00  0.00     0.049 A 
ATOM     46  H   UNL A   1      42.659  27.764  29.390  1.00  0.00     0.167 HD
ATOM     47  C   UNL A   1      38.139  33.184  30.888  1.00  0.00     0.034 A 
ATOM     48  C   UNL A   1      44.376  30.072  29.141  1.00  0.00     0.034 A 
ATOM     49  C   UNL A   1      39.496  33.697  31.081  1.00  0.00     0.049 A 
ATOM     50  C   UNL A   1      44.281  31.570  28.961  1.00  0.00     0.074 A 
ATOM     51  C   UNL A   1      40.355  33.697  32.169  1.00  0.00     0.029 A 
ATOM     52  N   UNL A   1      40.265  34.054  29.977  1.00  0.00    -0.354 N 
ATOM     53  N   UNL A   1      43.314  32.312  29.427  1.00  0.00    -0.248 NA
ATOM     54  C   UNL A   1      45.268  32.346  28.219  1.00  0.00     0.031 C 
ATOM     55  C   UNL A   1      41.660  34.003  31.699  1.00  0.00     0.029 A 
ATOM     56  C   UNL A   1      41.591  34.221  30.333  1.00  0.00     0.049 A 
ATOM     57  H   UNL A   1      39.913  34.173  29.065  1.00  0.00     0.167 HD
ATOM     58  C   UNL A   1      43.502  33.618  29.042  1.00  0.00     0.074 A 
ATOM     59  C   UNL A   1      44.762  33.587  28.318  1.00  0.00     0.031 C 
ATOM     60  C   UNL A   1      42.593  34.599  29.341  1.00  0.00     0.034 A 
BRANCH  47  61
ATOM     61  C   UNL A   1      36.932  33.702  31.642  1.00  0.00     0.023 A 
ATOM     62  C   UNL A   1      35.811  34.173  30.927  1.00  0.00     0.031 A 
ATOM     63  C   UNL A   1      36.837  33.807  33.043  1.00  0.00     0.131 A 
ATOM     64  C   UNL A   1      34.744  34.821  31.578  1.00  0.00     0.055 A 
ATOM     65  C   UNL A   1      35.813  34.516  33.687  1.00  0.00     0.041 A 
ATOM     66  F   UNL A   1      37.702  33.180  33.853  1.00  0.00    -0.206 F 
ATOM     67  C   UNL A   1      34.765  35.044  32.950  1.00  0.00     0.022 A 
BRANCH  64  68
ATOM     68  S   UNL A   1      33.306  35.353  30.605  1.00  0.00     0.124 S 
ATOM     69  O   UNL A   1      33.766  36.615  30.034  1.00  0.00    -0.237 OA
ATOM     70  O   UNL A   1      33.138  34.243  29.673  1.00  0.00    -0.237 OA
ATOM     71  O   UNL A   1      32.247  35.480  31.607  1.00  0.00    -0.744 OA
ENDBRANCH  64  68
ENDBRANCH  47  61
BRANCH  48  72
ATOM     72  C   UNL A   1      44.677  29.080  28.069  1.00  0.00     0.023 A 
ATOM     73  C   UNL A   1      45.493  27.980  28.415  1.00  0.00     0.031 A 
ATOM     74  C   UNL A   1      43.899  28.976  26.908  1.00  0.00     0.131 A 
ATOM     75  C   UNL A   1      45.392  26.771  27.712  1.00  0.00     0.055 A 
ATOM     76  C   UNL A   1      43.849  27.785  26.171  1.00  0.00     0.041 A 
ATOM     77  F   UNL A   1      43.078  29.972  26.543  1.00  0.00    -0.206 F 
ATOM     78  C   UNL A   1      44.561  26.661  26.598  1.00  0.00     0.022 A 
BRANCH  75  79
ATOM     79  S   UNL A   1      46.135  25.277  28.434  1.00  0.00     0.124 S 
ATOM     80  O   UNL A   1      46.942  24.766  27.333  1.00  0.00    -0.237 OA
ATOM     81  O   UNL A   1      46.877  25.803  29.579  1.00  0.00    -0.237 OA
ATOM     82  O   UNL A   1      44.981  24.459  28.803  1.00  0.00    -0.744 OA
ENDBRANCH  75  79
ENDBRANCH  48  72
BRANCH  60  83
ATOM     83  C   UNL A   1      42.595  36.025  28.808  1.00  0.00     0.023 A 
ATOM     84  C   UNL A   1      43.189  37.109  29.472  1.00  0.00     0.031 A 
ATOM     85  C   UNL A   1      42.028  36.335  27.544  1.00  0.00     0.131 A 
ATOM     86  C   UNL A   1      43.132  38.416  28.950  1.00  0.00     0.055 A 
ATOM     87  C   UNL A   1      42.043  37.619  26.989  1.00  0.00     0.041 A 
ATOM     88  F   UNL A   1      41.441  35.402  26.781  1.00  0.00    -0.206 F 
ATOM     89  C   UNL A   1      42.581  38.677  27.700  1.00  0.00     0.022 A 
BRANCH  86  90
ATOM     90  S   UNL A   1      43.743  39.778  29.979  1.00  0.00     0.124 S 
ATOM     91  O   UNL A   1      44.787  40.349  29.133  1.00  0.00    -0.237 OA
ATOM     92  O   UNL A   1      42.549  40.599  30.151  1.00  0.00    -0.237 OA
ATOM     93  O   UNL A   1      44.220  39.112  31.188  1.00  0.00    -0.744 OA
ENDBRANCH  86  90
ENDBRANCH  60  83
ENDBRANCH  34  35
ENDBRANCH  26  29
ENDBRANCH  24  25
ENDBRANCH  23  24
ENDBRANCH   1  23
TORSDOF 17
ENDMDL
MODEL 3
REMARK VINA RESULT:     -11.7      3.883      9.772
REMARK SMILES COc1cc(CC(=O)N2CCC[C@H]2C(=O)NCCCNC(=O)c2ccc(-c3c4nc(c(-c5cc(S(=O)(=O)[O-])ccc5F)c5ccc([nH]5)c(-c5cc(S(=O)(=O)[O-])ccc5F)c5nc(c(-c6cc(S(=O)(=O)[O-])ccc6F)c6ccc3[nH]6)C=C5)C=C4)cc2)ccc1C
REMARK SMILES IDX 17 1 16 2 14 3 15 4 13 6 9 7 10 8 11 9 12 10 7 11 8 12 6 13
REMARK SMILES IDX 5 14 3 15 4 16 88 17 87 18 89 19 86 20 2 21 1 22 18 23 19 24
REMARK SMILES IDX 20 25 21 26 22 28 23 29 24 30 85 31 25 32 84 33 26 34 27 35
REMARK SMILES IDX 28 36 78 37 29 38 83 39 77 40 79 41 30 42 82 43 76 44 75 45
REMARK SMILES IDX 31 47 63 48 43 49 62 50 44 51 47 52 61 53 80 54 45 55 46 56
REMARK SMILES IDX 60 58 81 59 48 60 32 61 33 62 41 63 34 64 40 65 42 66 39 67
REMARK SMILES IDX 35 68 36 69 37 70 38 71 64 72 65 73 73 74 66 75 72 76 74 77
REMARK SMILES IDX 71 78 67 79 68 80 69 81 70 82 49 83 50 84 58 85 51 86 57 87
REMARK SMILES IDX 59 88 56 89 52 90 53 91 54 92 55 93
REMARK H PARENT 16 5 20 27 79 46 47 57
REMARK Flexibility Score: inf
ROOT
ATOM      1  C   UNL A   1      37.613  21.686  25.170  1.00  0.00     0.117 C 
ENDROOT
BRANCH   1   2
ATOM      2  N   UNL A   1      36.673  22.167  24.175  1.00  0.00    -0.354 N 
ATOM      3  C   UNL A   1      35.317  22.096  24.093  1.00  0.00     0.242 C 
ATOM      4  O   UNL A   1      34.770  22.743  23.191  1.00  0.00    -0.273 OA
ATOM      5  H   UNL A   1      37.097  22.631  23.417  1.00  0.00     0.163 HD
BRANCH   3   6
ATOM      6  C   UNL A   1      34.442  21.316  25.103  1.00  0.00     0.174 C 
ATOM      7  N   UNL A   1      33.303  21.997  25.717  1.00  0.00    -0.330 N 
ATOM      8  C   UNL A   1      32.044  21.385  25.356  1.00  0.00     0.120 C 
ATOM      9  C   UNL A   1      32.371  20.076  24.663  1.00  0.00     0.024 C 
ATOM     10  C   UNL A   1      33.892  19.995  24.561  1.00  0.00     0.037 C 
BRANCH   7  11
ATOM     11  C   UNL A   1      33.517  22.962  26.682  1.00  0.00     0.227 C 
ATOM     12  O   UNL A   1      34.415  22.849  27.520  1.00  0.00    -0.275 OA
BRANCH  11  13
ATOM     13  C   UNL A   1      32.521  24.105  26.838  1.00  0.00     0.135 C 
BRANCH  13  14
ATOM     14  C   UNL A   1      32.766  25.361  26.042  1.00  0.00    -0.035 A 
ATOM     15  C   UNL A   1      32.243  27.713  25.624  1.00  0.00     0.122 A 
ATOM     16  C   UNL A   1      32.075  26.542  26.370  1.00  0.00     0.051 A 
ATOM     17  C   UNL A   1      33.134  27.713  24.541  1.00  0.00    -0.009 A 
ATOM     18  C   UNL A   1      33.873  26.551  24.256  1.00  0.00     0.007 A 
ATOM     19  C   UNL A   1      33.356  28.928  23.684  1.00  0.00     0.048 C 
ATOM     20  C   UNL A   1      33.690  25.384  24.997  1.00  0.00     0.005 A 
BRANCH  15  21
ATOM     21  O   UNL A   1      31.554  28.875  25.854  1.00  0.00    -0.496 OA
ATOM     22  C   UNL A   1      31.926  29.637  26.996  1.00  0.00     0.278 C 
ENDBRANCH  15  21
ENDBRANCH  13  14
ENDBRANCH  11  13
ENDBRANCH   7  11
ENDBRANCH   3   6
ENDBRANCH   1   2
BRANCH   1  23
ATOM     23  C   UNL A   1      38.389  22.808  25.838  1.00  0.00     0.042 C 
BRANCH  23  24
ATOM     24  C   UNL A   1      39.478  22.282  26.765  1.00  0.00     0.118 C 
BRANCH  24  25
ATOM     25  N   UNL A   1      40.297  21.216  26.185  1.00  0.00    -0.352 N 
ATOM     26  C   UNL A   1      41.681  21.117  26.128  1.00  0.00     0.251 C 
ATOM     27  H   UNL A   1      39.801  20.469  25.782  1.00  0.00     0.163 HD
ATOM     28  O   UNL A   1      42.237  20.196  25.561  1.00  0.00    -0.269 OA
BRANCH  26  29
ATOM     29  C   UNL A   1      42.478  22.103  26.898  1.00  0.00     0.039 A 
ATOM     30  C   UNL A   1      42.443  22.001  28.293  1.00  0.00     0.014 A 
ATOM     31  C   UNL A   1      42.982  23.242  26.279  1.00  0.00     0.014 A 
ATOM     32  C   UNL A   1      42.668  23.140  29.059  1.00  0.00     0.010 A 
ATOM     33  C   UNL A   1      43.098  24.395  27.026  1.00  0.00     0.010 A 
ATOM     34  C   UNL A   1      42.877  24.356  28.408  1.00  0.00    -0.014 A 
BRANCH  34  35
ATOM     35  C   UNL A   1      42.737  25.642  29.080  1.00  0.00     0.031 A 
ATOM     36  C   UNL A   1      41.522  26.455  28.893  1.00  0.00     0.074 A 
ATOM     37  C   UNL A   1      43.713  26.080  29.904  1.00  0.00     0.049 A 
ATOM     38  N   UNL A   1      41.491  27.742  28.963  1.00  0.00    -0.248 NA
ATOM     39  C   UNL A   1      40.233  25.860  28.569  1.00  0.00     0.031 C 
ATOM     40  C   UNL A   1      43.666  27.227  30.807  1.00  0.00     0.029 A 
ATOM     41  N   UNL A   1      45.052  25.694  29.899  1.00  0.00    -0.354 N 
ATOM     42  C   UNL A   1      40.169  28.123  28.990  1.00  0.00     0.074 A 
ATOM     43  C   UNL A   1      39.430  26.922  28.671  1.00  0.00     0.031 C 
ATOM     44  C   UNL A   1      44.921  27.628  31.058  1.00  0.00     0.029 A 
ATOM     45  C   UNL A   1      45.807  26.835  30.224  1.00  0.00     0.049 A 
ATOM     46  H   UNL A   1      45.403  24.794  29.704  1.00  0.00     0.167 HD
ATOM     47  C   UNL A   1      39.835  29.372  29.426  1.00  0.00     0.034 A 
ATOM     48  C   UNL A   1      46.726  27.336  29.350  1.00  0.00     0.034 A 
ATOM     49  C   UNL A   1      41.020  30.165  29.755  1.00  0.00     0.049 A 
ATOM     50  C   UNL A   1      46.420  28.745  28.894  1.00  0.00     0.074 A 
ATOM     51  C   UNL A   1      41.631  30.489  30.956  1.00  0.00     0.029 A 
ATOM     52  N   UNL A   1      41.925  30.507  28.753  1.00  0.00    -0.354 N 
ATOM     53  N   UNL A   1      45.269  29.340  29.050  1.00  0.00    -0.248 NA
ATOM     54  C   UNL A   1      47.392  29.586  28.207  1.00  0.00     0.031 C 
ATOM     55  C   UNL A   1      42.934  30.976  30.670  1.00  0.00     0.029 A 
ATOM     56  C   UNL A   1      43.106  30.980  29.296  1.00  0.00     0.049 A 
ATOM     57  H   UNL A   1      41.748  30.423  27.788  1.00  0.00     0.167 HD
ATOM     58  C   UNL A   1      45.310  30.589  28.478  1.00  0.00     0.074 A 
ATOM     59  C   UNL A   1      46.677  30.705  27.997  1.00  0.00     0.031 C 
ATOM     60  C   UNL A   1      44.209  31.404  28.439  1.00  0.00     0.034 A 
BRANCH  47  61
ATOM     61  C   UNL A   1      38.432  29.743  29.859  1.00  0.00     0.023 A 
ATOM     62  C   UNL A   1      37.688  30.670  29.098  1.00  0.00     0.031 A 
ATOM     63  C   UNL A   1      37.792  29.271  31.021  1.00  0.00     0.131 A 
ATOM     64  C   UNL A   1      36.455  31.174  29.554  1.00  0.00     0.055 A 
ATOM     65  C   UNL A   1      36.602  29.825  31.515  1.00  0.00     0.041 A 
ATOM     66  F   UNL A   1      38.262  28.215  31.700  1.00  0.00    -0.206 F 
ATOM     67  C   UNL A   1      35.934  30.797  30.787  1.00  0.00     0.022 A 
BRANCH  64  68
ATOM     68  S   UNL A   1      35.524  32.321  28.500  1.00  0.00     0.124 S 
ATOM     69  O   UNL A   1      34.903  31.422  27.533  1.00  0.00    -0.237 OA
ATOM     70  O   UNL A   1      34.628  32.960  29.458  1.00  0.00    -0.237 OA
ATOM     71  O   UNL A   1      36.561  33.195  27.951  1.00  0.00    -0.744 OA
ENDBRANCH  64  68
ENDBRANCH  47  61
BRANCH  48  72
ATOM     72  C   UNL A   1      47.397  26.280  28.537  1.00  0.00     0.023 A 
ATOM     73  C   UNL A   1      47.054  26.203  27.168  1.00  0.00     0.031 A 
ATOM     74  C   UNL A   1      48.584  25.663  28.949  1.00  0.00     0.131 A 
ATOM     75  C   UNL A   1      47.960  25.673  26.238  1.00  0.00     0.055 A 
ATOM     76  C   UNL A   1      49.458  25.078  28.022  1.00  0.00     0.041 A 
ATOM     77  F   UNL A   1      48.982  25.729  30.228  1.00  0.00    -0.206 F 
ATOM     78  C   UNL A   1      49.170  25.122  26.656  1.00  0.00     0.022 A 
BRANCH  75  79
ATOM     79  S   UNL A   1      47.665  25.967  24.469  1.00  0.00     0.124 S 
ATOM     80  O   UNL A   1      46.574  26.933  24.490  1.00  0.00    -0.237 OA
ATOM     81  O   UNL A   1      48.955  26.472  24.002  1.00  0.00    -0.237 OA
ATOM     82  O   UNL A   1      47.325  24.643  23.949  1.00  0.00    -0.744 OA
ENDBRANCH  75  79
ENDBRANCH  48  72
BRANCH  60  83
ATOM     83  C   UNL A   1      44.080  32.712  27.671  1.00  0.00     0.023 A 
ATOM     84  C   UNL A   1      43.588  33.902  28.228  1.00  0.00     0.031 A 
ATOM     85  C   UNL A   1      44.516  32.816  26.325  1.00  0.00     0.131 A 
ATOM     86  C   UNL A   1      43.458  35.077  27.462  1.00  0.00     0.055 A 
ATOM     87  C   UNL A   1      44.461  34.005  25.588  1.00  0.00     0.041 A 
ATOM     88  F   UNL A   1      45.029  31.770  25.660  1.00  0.00    -0.206 F 
ATOM     89  C   UNL A   1      43.912  35.144  26.150  1.00  0.00     0.022 A 
BRANCH  86  90
ATOM     90  S   UNL A   1      42.619  36.500  28.210  1.00  0.00     0.124 S 
ATOM     91  O   UNL A   1      43.594  36.934  29.205  1.00  0.00    -0.237 OA
ATOM     92  O   UNL A   1      42.439  37.392  27.069  1.00  0.00    -0.237 OA
ATOM     93  O   UNL A   1      41.389  35.930  28.754  1.00  0.00    -0.744 OA
ENDBRANCH  86  90
ENDBRANCH  60  83
ENDBRANCH  34  35
ENDBRANCH  26  29
ENDBRANCH  24  25
ENDBRANCH  23  24
ENDBRANCH   1  23
TORSDOF 17
ENDMDL
