MODEL 1
REMARK VINA RESULT:     -12.1      0.000      0.000
REMARK SMILES CCC[C@H](NC(=O)c1cc2ccccc2[nH]1)C(=O)NCCCNC(=O)c1ccc(-c2c3nc(c(-c4cc(S(=O)(=O)[O-])ccc4F)c4ccc([nH]4)c(-c4cc(S(=O)(=O)[O-])ccc4F)c4nc(c(-c5cc(S(=O)(=O)[O-])ccc5F)c5ccc2[nH]5)C=C4)C=C3)cc1
REMARK SMILES IDX 21 1 20 2 19 3 17 4 18 5 4 7 3 8 2 9 1 10 5 11 6 12 7 14
REMARK SMILES IDX 8 15 9 16 16 17 10 18 15 19 11 21 14 22 12 23 13 24 22 25
REMARK SMILES IDX 23 26 24 27 25 29 26 30 27 31 88 32 28 33 87 34 29 35 30 36
REMARK SMILES IDX 31 37 81 38 32 39 86 40 80 41 82 42 33 43 85 44 79 45 78 46
REMARK SMILES IDX 34 48 66 49 46 50 65 51 47 52 50 53 64 54 83 55 48 56 49 57
REMARK SMILES IDX 63 59 84 60 51 61 35 62 36 63 44 64 37 65 43 66 45 67 42 68
REMARK SMILES IDX 38 69 39 70 40 71 41 72 67 73 68 74 76 75 69 76 75 77 77 78
REMARK SMILES IDX 74 79 70 80 71 81 72 82 73 83 52 84 53 85 61 86 54 87 60 88
REMARK SMILES IDX 62 89 59 90 55 91 56 92 57 93 58 94
REMARK H PARENT 19 6 5 13 16 20 23 28 82 47 50 58
REMARK Flexibility Score: inf
ROOT
ATOM      1  C   UNL A   1      35.412  22.064  24.520  1.00  0.00     0.042 C 
ENDROOT
BRANCH   1   2
ATOM      2  C   UNL A   1      34.000  21.717  24.949  1.00  0.00     0.117 C 
BRANCH   2   3
ATOM      3  N   UNL A   1      33.162  21.253  23.857  1.00  0.00    -0.354 N 
ATOM      4  C   UNL A   1      32.376  21.946  22.985  1.00  0.00     0.242 C 
ATOM      5  O   UNL A   1      31.927  21.337  22.008  1.00  0.00    -0.273 OA
ATOM      6  H   UNL A   1      33.162  20.277  23.726  1.00  0.00     0.163 HD
BRANCH   4   7
ATOM      7  C   UNL A   1      32.046  23.434  23.176  1.00  0.00     0.171 C 
BRANCH   7   8
ATOM      8  C   UNL A   1      30.664  23.860  23.712  1.00  0.00     0.035 C 
BRANCH   8   9
ATOM      9  C   UNL A   1      30.507  24.723  24.964  1.00  0.00    -0.001 C 
ATOM     10  C   UNL A   1      31.314  24.262  26.170  1.00  0.00     0.004 C 
ENDBRANCH   8   9
ENDBRANCH   7   8
BRANCH   7  11
ATOM     11  N   UNL A   1      32.477  24.170  21.984  1.00  0.00    -0.339 N 
ATOM     12  C   UNL A   1      32.889  25.464  21.813  1.00  0.00     0.268 C 
ATOM     13  H   UNL A   1      32.467  23.636  21.156  1.00  0.00     0.164 HD
ATOM     14  O   UNL A   1      33.197  25.800  20.671  1.00  0.00    -0.268 OA
BRANCH  12  15
ATOM     15  C   UNL A   1      32.871  26.394  22.914  1.00  0.00     0.105 A 
ATOM     16  C   UNL A   1      33.750  26.413  23.984  1.00  0.00     0.042 A 
ATOM     17  N   UNL A   1      31.940  27.378  23.169  1.00  0.00    -0.351 N 
ATOM     18  C   UNL A   1      33.452  27.535  24.796  1.00  0.00     0.000 A 
ATOM     19  C   UNL A   1      32.326  28.144  24.247  1.00  0.00     0.046 A 
ATOM     20  H   UNL A   1      31.114  27.515  22.651  1.00  0.00     0.167 HD
ATOM     21  C   UNL A   1      34.043  28.099  25.941  1.00  0.00     0.010 A 
ATOM     22  C   UNL A   1      31.765  29.309  24.781  1.00  0.00     0.026 A 
ATOM     23  C   UNL A   1      33.503  29.270  26.482  1.00  0.00     0.001 A 
ATOM     24  C   UNL A   1      32.382  29.867  25.906  1.00  0.00     0.002 A 
ENDBRANCH  12  15
ENDBRANCH   7  11
ENDBRANCH   4   7
ENDBRANCH   2   3
ENDBRANCH   1   2
BRANCH   1  25
ATOM     25  C   UNL A   1      36.398  22.139  25.679  1.00  0.00     0.118 C 
BRANCH  25  26
ATOM     26  N   UNL A   1      37.400  21.077  25.642  1.00  0.00    -0.352 N 
ATOM     27  C   UNL A   1      38.750  21.127  25.908  1.00  0.00     0.251 C 
ATOM     28  H   UNL A   1      37.059  20.191  25.387  1.00  0.00     0.163 HD
ATOM     29  O   UNL A   1      39.456  20.159  25.641  1.00  0.00    -0.269 OA
BRANCH  27  30
ATOM     30  C   UNL A   1      39.341  22.353  26.481  1.00  0.00     0.039 A 
ATOM     31  C   UNL A   1      40.427  22.250  27.353  1.00  0.00     0.014 A 
ATOM     32  C   UNL A   1      38.844  23.607  26.124  1.00  0.00     0.014 A 
ATOM     33  C   UNL A   1      41.079  23.409  27.781  1.00  0.00     0.010 A 
ATOM     34  C   UNL A   1      39.555  24.751  26.465  1.00  0.00     0.010 A 
ATOM     35  C   UNL A   1      40.683  24.665  27.294  1.00  0.00    -0.014 A 
BRANCH  35  36
ATOM     36  C   UNL A   1      41.424  25.909  27.625  1.00  0.00     0.031 A 
ATOM     37  C   UNL A   1      40.761  26.975  28.454  1.00  0.00     0.074 A 
ATOM     38  C   UNL A   1      42.642  26.127  27.091  1.00  0.00     0.049 A 
ATOM     39  N   UNL A   1      41.162  28.191  28.723  1.00  0.00    -0.248 NA
ATOM     40  C   UNL A   1      39.444  26.637  29.015  1.00  0.00     0.031 C 
ATOM     41  C   UNL A   1      43.372  25.194  26.231  1.00  0.00     0.029 A 
ATOM     42  N   UNL A   1      43.476  27.212  27.183  1.00  0.00    -0.354 N 
ATOM     43  C   UNL A   1      40.133  28.774  29.455  1.00  0.00     0.074 A 
ATOM     44  C   UNL A   1      39.064  27.798  29.520  1.00  0.00     0.031 C 
ATOM     45  C   UNL A   1      44.559  25.731  25.905  1.00  0.00     0.029 A 
ATOM     46  C   UNL A   1      44.652  27.065  26.487  1.00  0.00     0.049 A 
ATOM     47  H   UNL A   1      43.254  28.021  27.700  1.00  0.00     0.167 HD
ATOM     48  C   UNL A   1      40.092  29.996  30.043  1.00  0.00     0.034 A 
ATOM     49  C   UNL A   1      45.685  27.914  26.327  1.00  0.00     0.034 A 
ATOM     50  C   UNL A   1      41.179  30.943  29.989  1.00  0.00     0.049 A 
ATOM     51  C   UNL A   1      45.617  29.273  26.971  1.00  0.00     0.074 A 
ATOM     52  C   UNL A   1      41.284  32.179  30.603  1.00  0.00     0.029 A 
ATOM     53  N   UNL A   1      42.357  30.758  29.273  1.00  0.00    -0.354 N 
ATOM     54  N   UNL A   1      44.655  29.799  27.690  1.00  0.00    -0.248 NA
ATOM     55  C   UNL A   1      46.778  30.152  26.777  1.00  0.00     0.031 C 
ATOM     56  C   UNL A   1      42.497  32.762  30.216  1.00  0.00     0.029 A 
ATOM     57  C   UNL A   1      43.179  31.866  29.408  1.00  0.00     0.049 A 
ATOM     58  H   UNL A   1      42.575  29.955  28.746  1.00  0.00     0.167 HD
ATOM     59  C   UNL A   1      45.105  31.062  28.058  1.00  0.00     0.074 A 
ATOM     60  C   UNL A   1      46.427  31.216  27.484  1.00  0.00     0.031 C 
ATOM     61  C   UNL A   1      44.486  32.009  28.810  1.00  0.00     0.034 A 
BRANCH  48  62
ATOM     62  C   UNL A   1      38.819  30.365  30.767  1.00  0.00     0.023 A 
ATOM     63  C   UNL A   1      37.730  30.943  30.090  1.00  0.00     0.031 A 
ATOM     64  C   UNL A   1      38.719  30.220  32.162  1.00  0.00     0.131 A 
ATOM     65  C   UNL A   1      36.647  31.461  30.814  1.00  0.00     0.055 A 
ATOM     66  C   UNL A   1      37.592  30.648  32.868  1.00  0.00     0.041 A 
ATOM     67  F   UNL A   1      39.730  29.692  32.870  1.00  0.00    -0.206 F 
ATOM     68  C   UNL A   1      36.557  31.295  32.196  1.00  0.00     0.022 A 
BRANCH  65  69
ATOM     69  S   UNL A   1      35.463  32.528  29.945  1.00  0.00     0.124 S 
ATOM     70  O   UNL A   1      36.250  33.744  29.753  1.00  0.00    -0.237 OA
ATOM     71  O   UNL A   1      35.171  31.758  28.741  1.00  0.00    -0.237 OA
ATOM     72  O   UNL A   1      34.357  32.654  30.892  1.00  0.00    -0.744 OA
ENDBRANCH  65  69
ENDBRANCH  48  62
BRANCH  49  73
ATOM     73  C   UNL A   1      46.876  27.505  25.534  1.00  0.00     0.023 A 
ATOM     74  C   UNL A   1      46.993  27.870  24.184  1.00  0.00     0.031 A 
ATOM     75  C   UNL A   1      47.905  26.739  26.106  1.00  0.00     0.131 A 
ATOM     76  C   UNL A   1      48.101  27.443  23.439  1.00  0.00     0.055 A 
ATOM     77  C   UNL A   1      49.025  26.347  25.371  1.00  0.00     0.041 A 
ATOM     78  F   UNL A   1      47.844  26.377  27.398  1.00  0.00    -0.206 F 
ATOM     79  C   UNL A   1      49.123  26.693  24.025  1.00  0.00     0.022 A 
BRANCH  76  80
ATOM     80  S   UNL A   1      48.169  27.852  21.673  1.00  0.00     0.124 S 
ATOM     81  O   UNL A   1      46.856  28.448  21.456  1.00  0.00    -0.237 OA
ATOM     82  O   UNL A   1      49.306  28.763  21.616  1.00  0.00    -0.237 OA
ATOM     83  O   UNL A   1      48.380  26.555  21.032  1.00  0.00    -0.744 OA
ENDBRANCH  76  80
ENDBRANCH  49  73
BRANCH  61  84
ATOM     84  C   UNL A   1      45.260  33.272  29.080  1.00  0.00     0.023 A 
ATOM     85  C   UNL A   1      45.242  34.354  28.184  1.00  0.00     0.031 A 
ATOM     86  C   UNL A   1      46.043  33.384  30.243  1.00  0.00     0.131 A 
ATOM     87  C   UNL A   1      46.029  35.486  28.442  1.00  0.00     0.055 A 
ATOM     88  C   UNL A   1      46.785  34.532  30.519  1.00  0.00     0.041 A 
ATOM     89  F   UNL A   1      46.096  32.376  31.129  1.00  0.00    -0.206 F 
ATOM     90  C   UNL A   1      46.790  35.587  29.611  1.00  0.00     0.022 A 
BRANCH  87  91
ATOM     91  S   UNL A   1      46.106  36.799  27.193  1.00  0.00     0.124 S 
ATOM     92  O   UNL A   1      47.280  37.555  27.620  1.00  0.00    -0.237 OA
ATOM     93  O   UNL A   1      46.250  36.044  25.953  1.00  0.00    -0.237 OA
ATOM     94  O   UNL A   1      44.829  37.495  27.350  1.00  0.00    -0.744 OA
ENDBRANCH  87  91
ENDBRANCH  61  84
ENDBRANCH  35  36
ENDBRANCH  27  30
ENDBRANCH  25  26
ENDBRANCH   1  25
TORSDOF 17
ENDMDL
MODEL 2
REMARK VINA RESULT:     -12.0      5.638     10.816
REMARK SMILES CCC[C@H](NC(=O)c1cc2ccccc2[nH]1)C(=O)NCCCNC(=O)c1ccc(-c2c3nc(c(-c4cc(S(=O)(=O)[O-])ccc4F)c4ccc([nH]4)c(-c4cc(S(=O)(=O)[O-])ccc4F)c4nc(c(-c5cc(S(=O)(=O)[O-])ccc5F)c5ccc2[nH]5)C=C4)C=C3)cc1
REMARK SMILES IDX 21 1 20 2 19 3 17 4 18 5 4 7 3 8 2 9 1 10 5 11 6 12 7 14
REMARK SMILES IDX 8 15 9 16 16 17 10 18 15 19 11 21 14 22 12 23 13 24 22 25
REMARK SMILES IDX 23 26 24 27 25 29 26 30 27 31 88 32 28 33 87 34 29 35 30 36
REMARK SMILES IDX 31 37 81 38 32 39 86 40 80 41 82 42 33 43 85 44 79 45 78 46
REMARK SMILES IDX 34 48 66 49 46 50 65 51 47 52 50 53 64 54 83 55 48 56 49 57
REMARK SMILES IDX 63 59 84 60 51 61 35 62 36 63 44 64 37 65 43 66 45 67 42 68
REMARK SMILES IDX 38 69 39 70 40 71 41 72 67 73 68 74 76 75 69 76 75 77 77 78
REMARK SMILES IDX 74 79 70 80 71 81 72 82 73 83 52 84 53 85 61 86 54 87 60 88
REMARK SMILES IDX 62 89 59 90 55 91 56 92 57 93 58 94
REMARK H PARENT 19 6 5 13 16 20 23 28 82 47 50 58
REMARK Flexibility Score: inf
ROOT
ATOM      1  C   UNL A   1      31.490  31.808  26.702  1.00  0.00     0.042 C 
ENDROOT
BRANCH   1   2
ATOM      2  C   UNL A   1      31.733  30.377  26.259  1.00  0.00     0.117 C 
BRANCH   2   3
ATOM      3  N   UNL A   1      32.963  29.812  26.785  1.00  0.00    -0.354 N 
ATOM      4  C   UNL A   1      33.689  28.732  26.378  1.00  0.00     0.242 C 
ATOM      5  O   UNL A   1      34.816  28.582  26.861  1.00  0.00    -0.273 OA
ATOM      6  H   UNL A   1      33.333  30.287  27.564  1.00  0.00     0.163 HD
BRANCH   4   7
ATOM      7  C   UNL A   1      33.156  27.721  25.350  1.00  0.00     0.171 C 
BRANCH   7   8
ATOM      8  C   UNL A   1      33.022  26.232  25.725  1.00  0.00     0.035 C 
BRANCH   8   9
ATOM      9  C   UNL A   1      31.890  25.714  26.613  1.00  0.00    -0.001 C 
ATOM     10  C   UNL A   1      30.698  25.133  25.863  1.00  0.00     0.004 C 
ENDBRANCH   8   9
ENDBRANCH   7   8
BRANCH   7  11
ATOM     11  N   UNL A   1      33.825  27.956  24.067  1.00  0.00    -0.339 N 
ATOM     12  C   UNL A   1      33.360  28.439  22.874  1.00  0.00     0.268 C 
ATOM     13  H   UNL A   1      34.782  27.724  24.064  1.00  0.00     0.164 HD
ATOM     14  O   UNL A   1      34.175  28.529  21.958  1.00  0.00    -0.268 OA
BRANCH  12  15
ATOM     15  C   UNL A   1      31.961  28.736  22.695  1.00  0.00     0.105 A 
ATOM     16  C   UNL A   1      30.898  27.978  23.159  1.00  0.00     0.042 A 
ATOM     17  N   UNL A   1      31.405  29.765  21.967  1.00  0.00    -0.351 N 
ATOM     18  C   UNL A   1      29.692  28.659  22.859  1.00  0.00     0.000 A 
ATOM     19  C   UNL A   1      30.038  29.796  22.132  1.00  0.00     0.046 A 
ATOM     20  H   UNL A   1      31.916  30.393  21.405  1.00  0.00     0.167 HD
ATOM     21  C   UNL A   1      28.336  28.421  23.149  1.00  0.00     0.010 A 
ATOM     22  C   UNL A   1      29.090  30.725  21.691  1.00  0.00     0.026 A 
ATOM     23  C   UNL A   1      27.375  29.344  22.725  1.00  0.00     0.001 A 
ATOM     24  C   UNL A   1      27.749  30.481  22.011  1.00  0.00     0.002 A 
ENDBRANCH  12  15
ENDBRANCH   7  11
ENDBRANCH   4   7
ENDBRANCH   2   3
ENDBRANCH   1   2
BRANCH   1  25
ATOM     25  C   UNL A   1      32.771  32.611  26.884  1.00  0.00     0.118 C 
BRANCH  25  26
ATOM     26  N   UNL A   1      32.560  33.861  27.610  1.00  0.00    -0.352 N 
ATOM     27  C   UNL A   1      33.218  34.369  28.707  1.00  0.00     0.251 C 
ATOM     28  H   UNL A   1      31.834  34.427  27.261  1.00  0.00     0.163 HD
ATOM     29  O   UNL A   1      32.767  35.356  29.282  1.00  0.00    -0.269 OA
BRANCH  27  30
ATOM     30  C   UNL A   1      34.442  33.705  29.201  1.00  0.00     0.039 A 
ATOM     31  C   UNL A   1      35.689  34.274  28.934  1.00  0.00     0.014 A 
ATOM     32  C   UNL A   1      34.350  32.540  29.964  1.00  0.00     0.014 A 
ATOM     33  C   UNL A   1      36.834  33.732  29.521  1.00  0.00     0.010 A 
ATOM     34  C   UNL A   1      35.474  32.065  30.629  1.00  0.00     0.010 A 
ATOM     35  C   UNL A   1      36.727  32.658  30.419  1.00  0.00    -0.014 A 
BRANCH  35  36
ATOM     36  C   UNL A   1      37.902  32.129  31.160  1.00  0.00     0.031 A 
ATOM     37  C   UNL A   1      38.726  31.021  30.561  1.00  0.00     0.074 A 
ATOM     38  C   UNL A   1      38.158  32.563  32.409  1.00  0.00     0.049 A 
ATOM     39  N   UNL A   1      39.684  30.312  31.100  1.00  0.00    -0.248 NA
ATOM     40  C   UNL A   1      38.387  30.631  29.185  1.00  0.00     0.031 C 
ATOM     41  C   UNL A   1      37.403  33.598  33.121  1.00  0.00     0.029 A 
ATOM     42  N   UNL A   1      39.119  32.180  33.309  1.00  0.00    -0.354 N 
ATOM     43  C   UNL A   1      40.040  29.370  30.140  1.00  0.00     0.074 A 
ATOM     44  C   UNL A   1      39.141  29.557  29.020  1.00  0.00     0.031 C 
ATOM     45  C   UNL A   1      37.952  33.790  34.331  1.00  0.00     0.029 A 
ATOM     46  C   UNL A   1      39.063  32.859  34.502  1.00  0.00     0.049 A 
ATOM     47  H   UNL A   1      39.788  31.481  33.118  1.00  0.00     0.167 HD
ATOM     48  C   UNL A   1      41.040  28.454  30.176  1.00  0.00     0.034 A 
ATOM     49  C   UNL A   1      39.814  32.738  35.614  1.00  0.00     0.034 A 
ATOM     50  C   UNL A   1      41.942  28.302  31.292  1.00  0.00     0.049 A 
ATOM     51  C   UNL A   1      40.908  31.705  35.644  1.00  0.00     0.074 A 
ATOM     52  C   UNL A   1      43.034  27.462  31.415  1.00  0.00     0.029 A 
ATOM     53  N   UNL A   1      41.853  29.010  32.485  1.00  0.00    -0.354 N 
ATOM     54  N   UNL A   1      41.258  30.845  34.717  1.00  0.00    -0.248 NA
ATOM     55  C   UNL A   1      41.705  31.628  36.875  1.00  0.00     0.031 C 
ATOM     56  C   UNL A   1      43.571  27.622  32.698  1.00  0.00     0.029 A 
ATOM     57  C   UNL A   1      42.852  28.607  33.357  1.00  0.00     0.049 A 
ATOM     58  H   UNL A   1      41.177  29.699  32.682  1.00  0.00     0.167 HD
ATOM     59  C   UNL A   1      42.336  30.141  35.243  1.00  0.00     0.074 A 
ATOM     60  C   UNL A   1      42.580  30.681  36.567  1.00  0.00     0.031 C 
ATOM     61  C   UNL A   1      43.065  29.143  34.681  1.00  0.00     0.034 A 
BRANCH  48  62
ATOM     62  C   UNL A   1      41.178  27.544  28.978  1.00  0.00     0.023 A 
ATOM     63  C   UNL A   1      42.205  27.723  28.034  1.00  0.00     0.031 A 
ATOM     64  C   UNL A   1      40.226  26.540  28.727  1.00  0.00     0.131 A 
ATOM     65  C   UNL A   1      42.190  27.000  26.833  1.00  0.00     0.055 A 
ATOM     66  C   UNL A   1      40.274  25.753  27.573  1.00  0.00     0.041 A 
ATOM     67  F   UNL A   1      39.212  26.329  29.580  1.00  0.00    -0.206 F 
ATOM     68  C   UNL A   1      41.246  25.997  26.606  1.00  0.00     0.022 A 
BRANCH  65  69
ATOM     69  S   UNL A   1      43.295  27.531  25.495  1.00  0.00     0.124 S 
ATOM     70  O   UNL A   1      42.351  28.138  24.558  1.00  0.00    -0.237 OA
ATOM     71  O   UNL A   1      44.197  28.451  26.178  1.00  0.00    -0.237 OA
ATOM     72  O   UNL A   1      43.901  26.283  25.035  1.00  0.00    -0.744 OA
ENDBRANCH  65  69
ENDBRANCH  48  62
BRANCH  49  73
ATOM     73  C   UNL A   1      39.568  33.623  36.785  1.00  0.00     0.023 A 
ATOM     74  C   UNL A   1      38.950  33.119  37.940  1.00  0.00     0.031 A 
ATOM     75  C   UNL A   1      39.934  34.979  36.764  1.00  0.00     0.131 A 
ATOM     76  C   UNL A   1      38.688  33.974  39.020  1.00  0.00     0.055 A 
ATOM     77  C   UNL A   1      39.704  35.818  37.856  1.00  0.00     0.041 A 
ATOM     78  F   UNL A   1      40.539  35.502  35.686  1.00  0.00    -0.206 F 
ATOM     79  C   UNL A   1      39.070  35.318  38.990  1.00  0.00     0.022 A 
BRANCH  76  80
ATOM     80  S   UNL A   1      37.801  33.311  40.456  1.00  0.00     0.124 S 
ATOM     81  O   UNL A   1      37.858  34.434  41.385  1.00  0.00    -0.237 OA
ATOM     82  O   UNL A   1      36.491  33.010  39.890  1.00  0.00    -0.237 OA
ATOM     83  O   UNL A   1      38.595  32.144  40.837  1.00  0.00    -0.744 OA
ENDBRANCH  76  80
ENDBRANCH  49  73
BRANCH  61  84
ATOM     84  C   UNL A   1      44.218  28.608  35.491  1.00  0.00     0.023 A 
ATOM     85  C   UNL A   1      44.054  27.543  36.392  1.00  0.00     0.031 A 
ATOM     86  C   UNL A   1      45.493  29.189  35.370  1.00  0.00     0.131 A 
ATOM     87  C   UNL A   1      45.139  27.119  37.173  1.00  0.00     0.055 A 
ATOM     88  C   UNL A   1      46.580  28.731  36.114  1.00  0.00     0.041 A 
ATOM     89  F   UNL A   1      45.700  30.212  34.524  1.00  0.00    -0.206 F 
ATOM     90  C   UNL A   1      46.405  27.698  37.030  1.00  0.00     0.022 A 
BRANCH  87  91
ATOM     91  S   UNL A   1      44.861  25.848  38.437  1.00  0.00     0.124 S 
ATOM     92  O   UNL A   1      44.355  26.639  39.556  1.00  0.00    -0.237 OA
ATOM     93  O   UNL A   1      43.894  24.969  37.789  1.00  0.00    -0.237 OA
ATOM     94  O   UNL A   1      46.188  25.268  38.638  1.00  0.00    -0.744 OA
ENDBRANCH  87  91
ENDBRANCH  61  84
ENDBRANCH  35  36
ENDBRANCH  27  30
ENDBRANCH  25  26
ENDBRANCH   1  25
TORSDOF 17
ENDMDL
MODEL 3
REMARK VINA RESULT:     -11.9      2.685      4.648
REMARK SMILES CCC[C@H](NC(=O)c1cc2ccccc2[nH]1)C(=O)NCCCNC(=O)c1ccc(-c2c3nc(c(-c4cc(S(=O)(=O)[O-])ccc4F)c4ccc([nH]4)c(-c4cc(S(=O)(=O)[O-])ccc4F)c4nc(c(-c5cc(S(=O)(=O)[O-])ccc5F)c5ccc2[nH]5)C=C4)C=C3)cc1
REMARK SMILES IDX 21 1 20 2 19 3 17 4 18 5 4 7 3 8 2 9 1 10 5 11 6 12 7 14
REMARK SMILES IDX 8 15 9 16 16 17 10 18 15 19 11 21 14 22 12 23 13 24 22 25
REMARK SMILES IDX 23 26 24 27 25 29 26 30 27 31 88 32 28 33 87 34 29 35 30 36
REMARK SMILES IDX 31 37 81 38 32 39 86 40 80 41 82 42 33 43 85 44 79 45 78 46
REMARK SMILES IDX 34 48 66 49 46 50 65 51 47 52 50 53 64 54 83 55 48 56 49 57
REMARK SMILES IDX 63 59 84 60 51 61 35 62 36 63 44 64 37 65 43 66 45 67 42 68
REMARK SMILES IDX 38 69 39 70 40 71 41 72 67 73 68 74 76 75 69 76 75 77 77 78
REMARK SMILES IDX 74 79 70 80 71 81 72 82 73 83 52 84 53 85 61 86 54 87 60 88
REMARK SMILES IDX 62 89 59 90 55 91 56 92 57 93 58 94
REMARK H PARENT 19 6 5 13 16 20 23 28 82 47 50 58
REMARK Flexibility Score: inf
ROOT
ATOM      1  C   UNL A   1      37.973  20.548  25.141  1.00  0.00     0.042 C 
ENDROOT
BRANCH   1   2
ATOM      2  C   UNL A   1      37.117  21.787  24.959  1.00  0.00     0.117 C 
BRANCH   2   3
ATOM      3  N   UNL A   1      36.349  22.136  26.141  1.00  0.00    -0.354 N 
ATOM      4  C   UNL A   1      35.057  22.552  26.269  1.00  0.00     0.242 C 
ATOM      5  O   UNL A   1      34.573  22.582  27.406  1.00  0.00    -0.273 OA
ATOM      6  H   UNL A   1      36.844  22.060  26.989  1.00  0.00     0.163 HD
BRANCH   4   7
ATOM      7  C   UNL A   1      34.202  22.970  25.063  1.00  0.00     0.171 C 
BRANCH   7   8
ATOM      8  C   UNL A   1      34.582  24.215  24.237  1.00  0.00     0.035 C 
BRANCH   8   9
ATOM      9  C   UNL A   1      33.537  25.057  23.504  1.00  0.00    -0.001 C 
ATOM     10  C   UNL A   1      33.069  24.486  22.172  1.00  0.00     0.004 C 
ENDBRANCH   8   9
ENDBRANCH   7   8
BRANCH   7  11
ATOM     11  N   UNL A   1      32.788  22.917  25.446  1.00  0.00    -0.339 N 
ATOM     12  C   UNL A   1      31.907  21.873  25.530  1.00  0.00     0.268 C 
ATOM     13  H   UNL A   1      32.403  23.791  25.685  1.00  0.00     0.164 HD
ATOM     14  O   UNL A   1      30.764  22.142  25.891  1.00  0.00    -0.268 OA
BRANCH  12  15
ATOM     15  C   UNL A   1      32.298  20.546  25.124  1.00  0.00     0.105 A 
ATOM     16  C   UNL A   1      32.381  20.080  23.821  1.00  0.00     0.042 A 
ATOM     17  N   UNL A   1      32.576  19.465  25.932  1.00  0.00    -0.351 N 
ATOM     18  C   UNL A   1      32.891  18.759  23.845  1.00  0.00     0.000 A 
ATOM     19  C   UNL A   1      33.031  18.403  25.184  1.00  0.00     0.046 A 
ATOM     20  H   UNL A   1      32.464  19.455  26.910  1.00  0.00     0.167 HD
ATOM     21  C   UNL A   1      33.258  17.833  22.850  1.00  0.00     0.010 A 
ATOM     22  C   UNL A   1      33.541  17.162  25.583  1.00  0.00     0.026 A 
ATOM     23  C   UNL A   1      33.780  16.593  23.231  1.00  0.00     0.001 A 
ATOM     24  C   UNL A   1      33.923  16.267  24.578  1.00  0.00     0.002 A 
ENDBRANCH  12  15
ENDBRANCH   7  11
ENDBRANCH   4   7
ENDBRANCH   2   3
ENDBRANCH   1   2
BRANCH   1  25
ATOM     25  C   UNL A   1      39.235  20.798  25.956  1.00  0.00     0.118 C 
BRANCH  25  26
ATOM     26  N   UNL A   1      40.101  19.624  26.037  1.00  0.00    -0.352 N 
ATOM     27  C   UNL A   1      41.469  19.543  26.169  1.00  0.00     0.251 C 
ATOM     28  H   UNL A   1      39.636  18.759  25.988  1.00  0.00     0.163 HD
ATOM     29  O   UNL A   1      42.027  18.458  26.033  1.00  0.00    -0.269 OA
BRANCH  27  30
ATOM     30  C   UNL A   1      42.255  20.764  26.441  1.00  0.00     0.039 A 
ATOM     31  C   UNL A   1      42.693  21.551  25.374  1.00  0.00     0.014 A 
ATOM     32  C   UNL A   1      42.522  21.150  27.756  1.00  0.00     0.014 A 
ATOM     33  C   UNL A   1      43.308  22.778  25.631  1.00  0.00     0.010 A 
ATOM     34  C   UNL A   1      43.038  22.415  28.008  1.00  0.00     0.010 A 
ATOM     35  C   UNL A   1      43.433  23.246  26.950  1.00  0.00    -0.014 A 
BRANCH  35  36
ATOM     36  C   UNL A   1      43.968  24.596  27.261  1.00  0.00     0.031 A 
ATOM     37  C   UNL A   1      43.048  25.658  27.799  1.00  0.00     0.074 A 
ATOM     38  C   UNL A   1      45.245  24.898  26.956  1.00  0.00     0.049 A 
ATOM     39  N   UNL A   1      43.268  26.934  27.985  1.00  0.00    -0.248 NA
ATOM     40  C   UNL A   1      41.680  25.229  28.124  1.00  0.00     0.031 C 
ATOM     41  C   UNL A   1      46.224  23.972  26.385  1.00  0.00     0.029 A 
ATOM     42  N   UNL A   1      45.936  26.077  27.075  1.00  0.00    -0.354 N 
ATOM     43  C   UNL A   1      42.057  27.465  28.418  1.00  0.00     0.074 A 
ATOM     44  C   UNL A   1      41.094  26.384  28.392  1.00  0.00     0.031 C 
ATOM     45  C   UNL A   1      47.398  24.607  26.236  1.00  0.00     0.029 A 
ATOM     46  C   UNL A   1      47.242  25.997  26.651  1.00  0.00     0.049 A 
ATOM     47  H   UNL A   1      45.535  26.904  27.429  1.00  0.00     0.167 HD
ATOM     48  C   UNL A   1      41.780  28.730  28.826  1.00  0.00     0.034 A 
ATOM     49  C   UNL A   1      48.201  26.940  26.593  1.00  0.00     0.034 A 
ATOM     50  C   UNL A   1      42.760  29.787  28.869  1.00  0.00     0.049 A 
ATOM     51  C   UNL A   1      47.872  28.342  27.032  1.00  0.00     0.074 A 
ATOM     52  C   UNL A   1      42.617  31.084  29.329  1.00  0.00     0.029 A 
ATOM     53  N   UNL A   1      44.075  29.667  28.431  1.00  0.00    -0.354 N 
ATOM     54  N   UNL A   1      46.734  28.824  27.473  1.00  0.00    -0.248 NA
ATOM     55  C   UNL A   1      48.961  29.325  26.963  1.00  0.00     0.031 C 
ATOM     56  C   UNL A   1      43.824  31.762  29.120  1.00  0.00     0.029 A 
ATOM     57  C   UNL A   1      44.743  30.872  28.585  1.00  0.00     0.049 A 
ATOM     58  H   UNL A   1      44.473  28.845  28.064  1.00  0.00     0.167 HD
ATOM     59  C   UNL A   1      46.976  30.163  27.759  1.00  0.00     0.074 A 
ATOM     60  C   UNL A   1      48.370  30.410  27.445  1.00  0.00     0.031 C 
ATOM     61  C   UNL A   1      46.127  31.103  28.246  1.00  0.00     0.034 A 
BRANCH  48  62
ATOM     62  C   UNL A   1      40.353  29.021  29.229  1.00  0.00     0.023 A 
ATOM     63  C   UNL A   1      39.956  29.017  30.578  1.00  0.00     0.031 A 
ATOM     64  C   UNL A   1      39.359  29.220  28.255  1.00  0.00     0.131 A 
ATOM     65  C   UNL A   1      38.596  29.087  30.910  1.00  0.00     0.055 A 
ATOM     66  C   UNL A   1      38.015  29.390  28.599  1.00  0.00     0.041 A 
ATOM     67  F   UNL A   1      39.669  29.219  26.950  1.00  0.00    -0.206 F 
ATOM     68  C   UNL A   1      37.624  29.299  29.932  1.00  0.00     0.022 A 
BRANCH  65  69
ATOM     69  S   UNL A   1      38.105  28.693  32.613  1.00  0.00     0.124 S 
ATOM     70  O   UNL A   1      36.747  29.231  32.659  1.00  0.00    -0.237 OA
ATOM     71  O   UNL A   1      38.218  27.239  32.644  1.00  0.00    -0.237 OA
ATOM     72  O   UNL A   1      39.081  29.415  33.427  1.00  0.00    -0.744 OA
ENDBRANCH  65  69
ENDBRANCH  48  62
BRANCH  49  73
ATOM     73  C   UNL A   1      49.566  26.593  26.112  1.00  0.00     0.023 A 
ATOM     74  C   UNL A   1      49.999  27.004  24.842  1.00  0.00     0.031 A 
ATOM     75  C   UNL A   1      50.449  25.840  26.904  1.00  0.00     0.131 A 
ATOM     76  C   UNL A   1      51.273  26.635  24.385  1.00  0.00     0.055 A 
ATOM     77  C   UNL A   1      51.729  25.506  26.460  1.00  0.00     0.041 A 
ATOM     78  F   UNL A   1      50.083  25.436  28.130  1.00  0.00    -0.206 F 
ATOM     79  C   UNL A   1      52.145  25.897  25.190  1.00  0.00     0.022 A 
BRANCH  76  80
ATOM     80  S   UNL A   1      51.760  27.101  22.702  1.00  0.00     0.124 S 
ATOM     81  O   UNL A   1      52.818  26.137  22.421  1.00  0.00    -0.237 OA
ATOM     82  O   UNL A   1      50.514  26.920  21.965  1.00  0.00    -0.237 OA
ATOM     83  O   UNL A   1      52.200  28.487  22.847  1.00  0.00    -0.744 OA
ENDBRANCH  76  80
ENDBRANCH  49  73
BRANCH  61  84
ATOM     84  C   UNL A   1      46.706  32.471  28.502  1.00  0.00     0.023 A 
ATOM     85  C   UNL A   1      46.711  33.467  27.511  1.00  0.00     0.031 A 
ATOM     86  C   UNL A   1      47.277  32.771  29.751  1.00  0.00     0.131 A 
ATOM     87  C   UNL A   1      47.319  34.704  27.770  1.00  0.00     0.055 A 
ATOM     88  C   UNL A   1      47.836  34.021  30.020  1.00  0.00     0.041 A 
ATOM     89  F   UNL A   1      47.299  31.852  30.730  1.00  0.00    -0.206 F 
ATOM     90  C   UNL A   1      47.869  34.992  29.023  1.00  0.00     0.022 A 
BRANCH  87  91
ATOM     91  S   UNL A   1      47.448  35.912  26.423  1.00  0.00     0.124 S 
ATOM     92  O   UNL A   1      48.193  35.163  25.415  1.00  0.00    -0.237 OA
ATOM     93  O   UNL A   1      46.048  36.184  26.111  1.00  0.00    -0.237 OA
ATOM     94  O   UNL A   1      48.175  37.026  27.031  1.00  0.00    -0.744 OA
ENDBRANCH  87  91
ENDBRANCH  61  84
ENDBRANCH  35  36
ENDBRANCH  27  30
ENDBRANCH  25  26
ENDBRANCH   1  25
TORSDOF 17
ENDMDL
