MODEL 1
REMARK VINA RESULT:     -10.7      0.000      0.000
REMARK SMILES CC[N@@H+]1CCC[C@@H]1C[N@@H+](C)C[C@H]([NH3+])C(=O)NCCCNC(=O)c1ccc(-c2c3nc(c(-c4cc(S(=O)(=O)[O-])ccc4F)c4ccc([nH]4)c(-c4cc(S(=O)(=O)[O-])ccc4F)c4nc(c(-c5cc(S(=O)(=O)[O-])ccc5F)c5ccc2[nH]5)C=C4)C=C3)cc1
REMARK SMILES IDX 17 1 16 2 14 3 15 4 12 6 11 7 9 8 10 9 8 11 7 12 3 13 4 14
REMARK SMILES IDX 5 16 6 17 2 18 1 19 13 20 18 24 19 25 20 26 21 27 22 29
REMARK SMILES IDX 23 30 24 31 85 32 25 33 84 34 26 35 27 36 28 37 78 38 29 39
REMARK SMILES IDX 83 40 77 41 79 42 30 43 82 44 76 45 75 46 31 48 63 49 43 50
REMARK SMILES IDX 62 51 44 52 47 53 61 54 80 55 45 56 46 57 60 59 81 60 48 61
REMARK SMILES IDX 32 62 33 63 41 64 34 65 40 66 42 67 39 68 35 69 36 70 37 71
REMARK SMILES IDX 38 72 64 73 65 74 73 75 66 76 72 77 74 78 71 79 67 80 68 81
REMARK SMILES IDX 69 82 70 83 49 84 50 85 58 86 51 87 57 88 59 89 56 90 52 91
REMARK SMILES IDX 53 92 54 93 55 94
REMARK H PARENT 16 5 9 10 3 15 13 21 13 22 13 23 20 28 79 47 47 58
REMARK Flexibility Score: inf
ROOT
ATOM      1  C   UNL A   1      35.156  20.683  25.036  1.00  0.00     0.118 C 
ENDROOT
BRANCH   1   2
ATOM      2  N   UNL A   1      34.591  21.227  26.253  1.00  0.00    -0.351 N 
ATOM      3  C   UNL A   1      33.385  21.710  26.628  1.00  0.00     0.284 C 
ATOM      4  O   UNL A   1      33.248  21.788  27.862  1.00  0.00    -0.268 OA
ATOM      5  H   UNL A   1      35.246  21.250  26.989  1.00  0.00     0.163 HD
BRANCH   3   6
ATOM      6  C   UNL A   1      32.269  22.339  25.741  1.00  0.00     0.326 C 
BRANCH   6   7
ATOM      7  C   UNL A   1      32.439  23.591  24.828  1.00  0.00     0.338 C 
BRANCH   7   8
ATOM      8  N   UNL A   1      32.100  23.707  23.389  1.00  0.00    -0.327 N 
ATOM      9  C   UNL A   1      32.991  22.857  22.595  1.00  0.00     0.333 C 
ATOM     10  H   UNL A   1      31.150  23.349  23.288  1.00  0.00     0.348 HD
BRANCH   8  11
ATOM     11  C   UNL A   1      31.923  25.069  22.874  1.00  0.00     0.327 C 
BRANCH  11  12
ATOM     12  C   UNL A   1      32.949  26.168  23.280  1.00  0.00     0.239 C 
ATOM     13  N   UNL A   1      32.492  27.244  24.216  1.00  0.00    -0.328 N 
ATOM     14  C   UNL A   1      33.518  28.297  24.070  1.00  0.00     0.262 C 
ATOM     15  H   UNL A   1      32.397  26.835  25.146  1.00  0.00     0.348 HD
ATOM     16  C   UNL A   1      33.852  28.311  22.589  1.00  0.00     0.068 C 
ATOM     17  C   UNL A   1      33.732  26.860  22.161  1.00  0.00     0.077 C 
BRANCH  13  18
ATOM     18  C   UNL A   1      31.155  27.813  24.002  1.00  0.00     0.259 C 
ATOM     19  C   UNL A   1      31.053  29.231  24.557  1.00  0.00     0.071 C 
ENDBRANCH  13  18
ENDBRANCH  11  12
ENDBRANCH   8  11
ENDBRANCH   7   8
ENDBRANCH   6   7
BRANCH   6  20
ATOM     20  N   UNL A   1      30.961  22.225  26.433  1.00  0.00    -0.343 N 
ATOM     21  H   UNL A   1      30.363  21.574  25.924  1.00  0.00     0.345 HD
ATOM     22  H   UNL A   1      30.514  23.141  26.469  1.00  0.00     0.345 HD
ATOM     23  H   UNL A   1      31.107  21.880  27.382  1.00  0.00     0.345 HD
ENDBRANCH   6  20
ENDBRANCH   3   6
ENDBRANCH   1   2
BRANCH   1  24
ATOM     24  C   UNL A   1      36.232  21.558  24.403  1.00  0.00     0.042 C 
BRANCH  24  25
ATOM     25  C   UNL A   1      37.278  22.025  25.398  1.00  0.00     0.118 C 
BRANCH  25  26
ATOM     26  N   UNL A   1      38.301  21.028  25.693  1.00  0.00    -0.352 N 
ATOM     27  C   UNL A   1      39.511  21.204  26.330  1.00  0.00     0.251 C 
ATOM     28  H   UNL A   1      38.101  20.111  25.398  1.00  0.00     0.163 HD
ATOM     29  O   UNL A   1      40.286  20.255  26.430  1.00  0.00    -0.269 OA
BRANCH  27  30
ATOM     30  C   UNL A   1      39.887  22.544  26.834  1.00  0.00     0.039 A 
ATOM     31  C   UNL A   1      40.849  22.648  27.843  1.00  0.00     0.014 A 
ATOM     32  C   UNL A   1      39.340  23.699  26.274  1.00  0.00     0.014 A 
ATOM     33  C   UNL A   1      41.308  23.910  28.230  1.00  0.00     0.010 A 
ATOM     34  C   UNL A   1      39.890  24.939  26.566  1.00  0.00     0.010 A 
ATOM     35  C   UNL A   1      40.864  25.065  27.564  1.00  0.00    -0.014 A 
BRANCH  35  36
ATOM     36  C   UNL A   1      41.367  26.416  27.923  1.00  0.00     0.031 A 
ATOM     37  C   UNL A   1      42.761  26.825  27.516  1.00  0.00     0.074 A 
ATOM     38  C   UNL A   1      40.598  27.242  28.663  1.00  0.00     0.049 A 
ATOM     39  N   UNL A   1      43.412  27.929  27.778  1.00  0.00    -0.248 NA
ATOM     40  C   UNL A   1      43.547  25.839  26.756  1.00  0.00     0.031 C 
ATOM     41  C   UNL A   1      39.261  26.924  29.175  1.00  0.00     0.029 A 
ATOM     42  N   UNL A   1      40.824  28.518  29.110  1.00  0.00    -0.354 N 
ATOM     43  C   UNL A   1      44.686  27.753  27.246  1.00  0.00     0.074 A 
ATOM     44  C   UNL A   1      44.740  26.409  26.718  1.00  0.00     0.031 C 
ATOM     45  C   UNL A   1      38.767  27.997  29.814  1.00  0.00     0.029 A 
ATOM     46  C   UNL A   1      39.762  29.062  29.798  1.00  0.00     0.049 A 
ATOM     47  H   UNL A   1      41.668  29.002  28.953  1.00  0.00     0.167 HD
ATOM     48  C   UNL A   1      45.706  28.644  27.171  1.00  0.00     0.034 A 
ATOM     49  C   UNL A   1      39.611  30.286  30.342  1.00  0.00     0.034 A 
ATOM     50  C   UNL A   1      45.609  29.997  27.657  1.00  0.00     0.049 A 
ATOM     51  C   UNL A   1      40.745  31.273  30.205  1.00  0.00     0.074 A 
ATOM     52  C   UNL A   1      46.541  31.014  27.572  1.00  0.00     0.029 A 
ATOM     53  N   UNL A   1      44.504  30.524  28.316  1.00  0.00    -0.354 N 
ATOM     54  N   UNL A   1      41.919  31.115  29.636  1.00  0.00    -0.248 NA
ATOM     55  C   UNL A   1      40.522  32.612  30.764  1.00  0.00     0.031 C 
ATOM     56  C   UNL A   1      46.027  32.136  28.232  1.00  0.00     0.029 A 
ATOM     57  C   UNL A   1      44.742  31.845  28.660  1.00  0.00     0.049 A 
ATOM     58  H   UNL A   1      43.675  30.031  28.510  1.00  0.00     0.167 HD
ATOM     59  C   UNL A   1      42.556  32.349  29.732  1.00  0.00     0.074 A 
ATOM     60  C   UNL A   1      41.624  33.241  30.392  1.00  0.00     0.031 C 
ATOM     61  C   UNL A   1      43.795  32.716  29.317  1.00  0.00     0.034 A 
BRANCH  48  62
ATOM     62  C   UNL A   1      47.005  28.173  26.558  1.00  0.00     0.023 A 
ATOM     63  C   UNL A   1      47.231  28.216  25.170  1.00  0.00     0.031 A 
ATOM     64  C   UNL A   1      48.023  27.644  27.370  1.00  0.00     0.131 A 
ATOM     65  C   UNL A   1      48.406  27.666  24.632  1.00  0.00     0.055 A 
ATOM     66  C   UNL A   1      49.227  27.179  26.836  1.00  0.00     0.041 A 
ATOM     67  F   UNL A   1      47.859  27.554  28.699  1.00  0.00    -0.206 F 
ATOM     68  C   UNL A   1      49.418  27.174  25.457  1.00  0.00     0.022 A 
BRANCH  65  69
ATOM     69  S   UNL A   1      48.527  27.472  22.833  1.00  0.00     0.124 S 
ATOM     70  O   UNL A   1      49.826  28.082  22.558  1.00  0.00    -0.237 OA
ATOM     71  O   UNL A   1      48.452  26.026  22.664  1.00  0.00    -0.237 OA
ATOM     72  O   UNL A   1      47.377  28.220  22.328  1.00  0.00    -0.744 OA
ENDBRANCH  65  69
ENDBRANCH  48  62
BRANCH  49  73
ATOM     73  C   UNL A   1      38.346  30.670  31.036  1.00  0.00     0.023 A 
ATOM     74  C   UNL A   1      37.335  31.366  30.352  1.00  0.00     0.031 A 
ATOM     75  C   UNL A   1      38.151  30.407  32.403  1.00  0.00     0.131 A 
ATOM     76  C   UNL A   1      36.208  31.833  31.048  1.00  0.00     0.055 A 
ATOM     77  C   UNL A   1      37.000  30.821  33.078  1.00  0.00     0.041 A 
ATOM     78  F   UNL A   1      39.080  29.740  33.106  1.00  0.00    -0.206 F 
ATOM     79  C   UNL A   1      36.028  31.555  32.403  1.00  0.00     0.022 A 
BRANCH  76  80
ATOM     80  S   UNL A   1      35.035  32.909  30.176  1.00  0.00     0.124 S 
ATOM     81  O   UNL A   1      34.457  31.992  29.202  1.00  0.00    -0.237 OA
ATOM     82  O   UNL A   1      34.155  33.335  31.260  1.00  0.00    -0.237 OA
ATOM     83  O   UNL A   1      35.887  33.958  29.619  1.00  0.00    -0.744 OA
ENDBRANCH  76  80
ENDBRANCH  49  73
BRANCH  61  84
ATOM     84  C   UNL A   1      44.178  34.162  29.518  1.00  0.00     0.023 A 
ATOM     85  C   UNL A   1      43.755  35.168  28.633  1.00  0.00     0.031 A 
ATOM     86  C   UNL A   1      45.015  34.530  30.587  1.00  0.00     0.131 A 
ATOM     87  C   UNL A   1      44.239  36.475  28.780  1.00  0.00     0.055 A 
ATOM     88  C   UNL A   1      45.431  35.848  30.773  1.00  0.00     0.041 A 
ATOM     89  F   UNL A   1      45.448  33.609  31.463  1.00  0.00    -0.206 F 
ATOM     90  C   UNL A   1      45.060  36.825  29.855  1.00  0.00     0.022 A 
BRANCH  87  91
ATOM     91  S   UNL A   1      43.892  37.679  27.470  1.00  0.00     0.124 S 
ATOM     92  O   UNL A   1      45.229  37.968  26.960  1.00  0.00    -0.237 OA
ATOM     93  O   UNL A   1      43.021  36.922  26.576  1.00  0.00    -0.237 OA
ATOM     94  O   UNL A   1      43.246  38.781  28.179  1.00  0.00    -0.744 OA
ENDBRANCH  87  91
ENDBRANCH  61  84
ENDBRANCH  35  36
ENDBRANCH  27  30
ENDBRANCH  25  26
ENDBRANCH  24  25
ENDBRANCH   1  24
TORSDOF 19
ENDMDL
MODEL 2
REMARK VINA RESULT:     -10.6      3.957      6.543
REMARK SMILES CC[N@@H+]1CCC[C@@H]1C[N@@H+](C)C[C@H]([NH3+])C(=O)NCCCNC(=O)c1ccc(-c2c3nc(c(-c4cc(S(=O)(=O)[O-])ccc4F)c4ccc([nH]4)c(-c4cc(S(=O)(=O)[O-])ccc4F)c4nc(c(-c5cc(S(=O)(=O)[O-])ccc5F)c5ccc2[nH]5)C=C4)C=C3)cc1
REMARK SMILES IDX 17 1 16 2 14 3 15 4 12 6 11 7 9 8 10 9 8 11 7 12 3 13 4 14
REMARK SMILES IDX 5 16 6 17 2 18 1 19 13 20 18 24 19 25 20 26 21 27 22 29
REMARK SMILES IDX 23 30 24 31 85 32 25 33 84 34 26 35 27 36 28 37 78 38 29 39
REMARK SMILES IDX 83 40 77 41 79 42 30 43 82 44 76 45 75 46 31 48 63 49 43 50
REMARK SMILES IDX 62 51 44 52 47 53 61 54 80 55 45 56 46 57 60 59 81 60 48 61
REMARK SMILES IDX 32 62 33 63 41 64 34 65 40 66 42 67 39 68 35 69 36 70 37 71
REMARK SMILES IDX 38 72 64 73 65 74 73 75 66 76 72 77 74 78 71 79 67 80 68 81
REMARK SMILES IDX 69 82 70 83 49 84 50 85 58 86 51 87 57 88 59 89 56 90 52 91
REMARK SMILES IDX 53 92 54 93 55 94
REMARK H PARENT 16 5 9 10 3 15 13 21 13 22 13 23 20 28 79 47 47 58
REMARK Flexibility Score: inf
ROOT
ATOM      1  C   UNL A   1      42.796  19.763  26.918  1.00  0.00     0.118 C 
ENDROOT
BRANCH   1   2
ATOM      2  N   UNL A   1      43.648  18.799  26.254  1.00  0.00    -0.351 N 
ATOM      3  C   UNL A   1      44.727  18.860  25.441  1.00  0.00     0.284 C 
ATOM      4  O   UNL A   1      45.335  17.779  25.349  1.00  0.00    -0.268 OA
ATOM      5  H   UNL A   1      43.375  17.871  26.441  1.00  0.00     0.163 HD
BRANCH   3   6
ATOM      6  C   UNL A   1      45.168  20.014  24.492  1.00  0.00     0.326 C 
BRANCH   6   7
ATOM      7  C   UNL A   1      45.336  21.509  24.905  1.00  0.00     0.338 C 
BRANCH   7   8
ATOM      8  N   UNL A   1      44.309  22.400  25.494  1.00  0.00    -0.327 N 
ATOM      9  C   UNL A   1      43.735  23.259  24.455  1.00  0.00     0.333 C 
ATOM     10  H   UNL A   1      43.568  21.792  25.844  1.00  0.00     0.348 HD
BRANCH   8  11
ATOM     11  C   UNL A   1      44.685  23.093  26.731  1.00  0.00     0.327 C 
BRANCH  11  12
ATOM     12  C   UNL A   1      46.062  23.818  26.800  1.00  0.00     0.239 C 
ATOM     13  N   UNL A   1      46.578  24.219  28.147  1.00  0.00    -0.328 N 
ATOM     14  C   UNL A   1      47.638  25.201  27.839  1.00  0.00     0.262 C 
ATOM     15  H   UNL A   1      46.875  23.375  28.637  1.00  0.00     0.348 HD
ATOM     16  C   UNL A   1      47.093  26.010  26.675  1.00  0.00     0.068 C 
ATOM     17  C   UNL A   1      46.285  25.011  25.867  1.00  0.00     0.077 C 
BRANCH  13  18
ATOM     18  C   UNL A   1      45.621  24.797  29.101  1.00  0.00     0.259 C 
ATOM     19  C   UNL A   1      46.329  25.591  30.194  1.00  0.00     0.071 C 
ENDBRANCH  13  18
ENDBRANCH  11  12
ENDBRANCH   8  11
ENDBRANCH   7   8
ENDBRANCH   6   7
BRANCH   6  20
ATOM     20  N   UNL A   1      44.608  19.784  23.138  1.00  0.00    -0.343 N 
ATOM     21  H   UNL A   1      44.353  18.801  23.038  1.00  0.00     0.345 HD
ATOM     22  H   UNL A   1      45.307  20.027  22.435  1.00  0.00     0.345 HD
ATOM     23  H   UNL A   1      43.779  20.364  23.008  1.00  0.00     0.345 HD
ENDBRANCH   6  20
ENDBRANCH   3   6
ENDBRANCH   1   2
BRANCH   1  24
ATOM     24  C   UNL A   1      41.552  20.146  26.125  1.00  0.00     0.042 C 
BRANCH  24  25
ATOM     25  C   UNL A   1      40.994  21.502  26.513  1.00  0.00     0.118 C 
BRANCH  25  26
ATOM     26  N   UNL A   1      39.602  21.702  26.128  1.00  0.00    -0.352 N 
ATOM     27  C   UNL A   1      38.841  22.848  26.224  1.00  0.00     0.251 C 
ATOM     28  H   UNL A   1      39.146  20.916  25.751  1.00  0.00     0.163 HD
ATOM     29  O   UNL A   1      37.653  22.814  25.914  1.00  0.00    -0.269 OA
BRANCH  27  30
ATOM     30  C   UNL A   1      39.448  24.090  26.753  1.00  0.00     0.039 A 
ATOM     31  C   UNL A   1      40.048  24.988  25.867  1.00  0.00     0.014 A 
ATOM     32  C   UNL A   1      39.375  24.399  28.112  1.00  0.00     0.014 A 
ATOM     33  C   UNL A   1      40.502  26.223  26.339  1.00  0.00     0.010 A 
ATOM     34  C   UNL A   1      39.706  25.672  28.553  1.00  0.00     0.010 A 
ATOM     35  C   UNL A   1      40.295  26.593  27.679  1.00  0.00    -0.014 A 
BRANCH  35  36
ATOM     36  C   UNL A   1      40.728  27.917  28.199  1.00  0.00     0.031 A 
ATOM     37  C   UNL A   1      42.187  28.297  28.148  1.00  0.00     0.074 A 
ATOM     38  C   UNL A   1      39.824  28.739  28.769  1.00  0.00     0.049 A 
ATOM     39  N   UNL A   1      42.781  29.371  28.599  1.00  0.00    -0.248 NA
ATOM     40  C   UNL A   1      43.108  27.314  27.556  1.00  0.00     0.031 C 
ATOM     41  C   UNL A   1      38.397  28.445  28.939  1.00  0.00     0.029 A 
ATOM     42  N   UNL A   1      39.965  29.993  29.307  1.00  0.00    -0.354 N 
ATOM     43  C   UNL A   1      44.140  29.176  28.375  1.00  0.00     0.074 A 
ATOM     44  C   UNL A   1      44.289  27.849  27.822  1.00  0.00     0.031 C 
ATOM     45  C   UNL A   1      37.789  29.510  29.486  1.00  0.00     0.029 A 
ATOM     46  C   UNL A   1      38.782  30.545  29.747  1.00  0.00     0.049 A 
ATOM     47  H   UNL A   1      40.831  30.456  29.372  1.00  0.00     0.167 HD
ATOM     48  C   UNL A   1      45.167  30.038  28.577  1.00  0.00     0.034 A 
ATOM     49  C   UNL A   1      38.532  31.754  30.288  1.00  0.00     0.034 A 
ATOM     50  C   UNL A   1      44.987  31.376  29.080  1.00  0.00     0.049 A 
ATOM     51  C   UNL A   1      39.687  32.711  30.461  1.00  0.00     0.074 A 
ATOM     52  C   UNL A   1      45.935  32.368  29.257  1.00  0.00     0.029 A 
ATOM     53  N   UNL A   1      43.769  31.914  29.481  1.00  0.00    -0.354 N 
ATOM     54  N   UNL A   1      40.958  32.537  30.178  1.00  0.00    -0.248 NA
ATOM     55  C   UNL A   1      39.367  34.036  31.005  1.00  0.00     0.031 C 
ATOM     56  C   UNL A   1      45.302  33.481  29.821  1.00  0.00     0.029 A 
ATOM     57  C   UNL A   1      43.947  33.215  29.923  1.00  0.00     0.049 A 
ATOM     58  H   UNL A   1      42.908  31.440  29.455  1.00  0.00     0.167 HD
ATOM     59  C   UNL A   1      41.580  33.747  30.470  1.00  0.00     0.074 A 
ATOM     60  C   UNL A   1      40.539  34.645  30.927  1.00  0.00     0.031 C 
ATOM     61  C   UNL A   1      42.890  34.091  30.373  1.00  0.00     0.034 A 
BRANCH  48  62
ATOM     62  C   UNL A   1      46.564  29.549  28.269  1.00  0.00     0.023 A 
ATOM     63  C   UNL A   1      47.360  28.910  29.238  1.00  0.00     0.031 A 
ATOM     64  C   UNL A   1      47.122  29.750  26.994  1.00  0.00     0.131 A 
ATOM     65  C   UNL A   1      48.690  28.572  28.943  1.00  0.00     0.055 A 
ATOM     66  C   UNL A   1      48.417  29.331  26.681  1.00  0.00     0.041 A 
ATOM     67  F   UNL A   1      46.423  30.373  26.033  1.00  0.00    -0.206 F 
ATOM     68  C   UNL A   1      49.216  28.752  27.662  1.00  0.00     0.022 A 
BRANCH  65  69
ATOM     69  S   UNL A   1      49.767  28.029  30.298  1.00  0.00     0.124 S 
ATOM     70  O   UNL A   1      50.990  28.778  30.021  1.00  0.00    -0.237 OA
ATOM     71  O   UNL A   1      49.020  28.440  31.481  1.00  0.00    -0.237 OA
ATOM     72  O   UNL A   1      49.871  26.585  30.096  1.00  0.00    -0.744 OA
ENDBRANCH  65  69
ENDBRANCH  48  62
BRANCH  49  73
ATOM     73  C   UNL A   1      37.147  32.152  30.680  1.00  0.00     0.023 A 
ATOM     74  C   UNL A   1      36.267  32.710  29.737  1.00  0.00     0.031 A 
ATOM     75  C   UNL A   1      36.701  32.042  32.008  1.00  0.00     0.131 A 
ATOM     76  C   UNL A   1      35.016  33.198  30.146  1.00  0.00     0.055 A 
ATOM     77  C   UNL A   1      35.431  32.474  32.399  1.00  0.00     0.041 A 
ATOM     78  F   UNL A   1      37.496  31.510  32.950  1.00  0.00    -0.206 F 
ATOM     79  C   UNL A   1      34.587  33.073  31.468  1.00  0.00     0.022 A 
BRANCH  76  80
ATOM     80  S   UNL A   1      34.003  34.104  28.943  1.00  0.00     0.124 S 
ATOM     81  O   UNL A   1      34.977  35.022  28.366  1.00  0.00    -0.237 OA
ATOM     82  O   UNL A   1      33.537  33.029  28.072  1.00  0.00    -0.237 OA
ATOM     83  O   UNL A   1      32.970  34.726  29.769  1.00  0.00    -0.744 OA
ENDBRANCH  76  80
ENDBRANCH  49  73
BRANCH  61  84
ATOM     84  C   UNL A   1      43.245  35.518  30.715  1.00  0.00     0.023 A 
ATOM     85  C   UNL A   1      43.333  36.514  29.728  1.00  0.00     0.031 A 
ATOM     86  C   UNL A   1      43.542  35.873  32.043  1.00  0.00     0.131 A 
ATOM     87  C   UNL A   1      43.792  37.794  30.069  1.00  0.00     0.055 A 
ATOM     88  C   UNL A   1      43.924  37.169  32.388  1.00  0.00     0.041 A 
ATOM     89  F   UNL A   1      43.473  34.961  33.027  1.00  0.00    -0.206 F 
ATOM     90  C   UNL A   1      44.071  38.132  31.395  1.00  0.00     0.022 A 
BRANCH  87  91
ATOM     91  S   UNL A   1      44.152  38.967  28.734  1.00  0.00     0.124 S 
ATOM     92  O   UNL A   1      45.607  38.893  28.648  1.00  0.00    -0.237 OA
ATOM     93  O   UNL A   1      43.418  38.394  27.611  1.00  0.00    -0.237 OA
ATOM     94  O   UNL A   1      43.624  40.233  29.240  1.00  0.00    -0.744 OA
ENDBRANCH  87  91
ENDBRANCH  61  84
ENDBRANCH  35  36
ENDBRANCH  27  30
ENDBRANCH  25  26
ENDBRANCH  24  25
ENDBRANCH   1  24
TORSDOF 19
ENDMDL
MODEL 3
REMARK VINA RESULT:     -10.5      4.846     10.265
REMARK SMILES CC[N@@H+]1CCC[C@@H]1C[N@@H+](C)C[C@H]([NH3+])C(=O)NCCCNC(=O)c1ccc(-c2c3nc(c(-c4cc(S(=O)(=O)[O-])ccc4F)c4ccc([nH]4)c(-c4cc(S(=O)(=O)[O-])ccc4F)c4nc(c(-c5cc(S(=O)(=O)[O-])ccc5F)c5ccc2[nH]5)C=C4)C=C3)cc1
REMARK SMILES IDX 17 1 16 2 14 3 15 4 12 6 11 7 9 8 10 9 8 11 7 12 3 13 4 14
REMARK SMILES IDX 5 16 6 17 2 18 1 19 13 20 18 24 19 25 20 26 21 27 22 29
REMARK SMILES IDX 23 30 24 31 85 32 25 33 84 34 26 35 27 36 28 37 78 38 29 39
REMARK SMILES IDX 83 40 77 41 79 42 30 43 82 44 76 45 75 46 31 48 63 49 43 50
REMARK SMILES IDX 62 51 44 52 47 53 61 54 80 55 45 56 46 57 60 59 81 60 48 61
REMARK SMILES IDX 32 62 33 63 41 64 34 65 40 66 42 67 39 68 35 69 36 70 37 71
REMARK SMILES IDX 38 72 64 73 65 74 73 75 66 76 72 77 74 78 71 79 67 80 68 81
REMARK SMILES IDX 69 82 70 83 49 84 50 85 58 86 51 87 57 88 59 89 56 90 52 91
REMARK SMILES IDX 53 92 54 93 55 94
REMARK H PARENT 16 5 9 10 3 15 13 21 13 22 13 23 20 28 79 47 47 58
REMARK Flexibility Score: inf
ROOT
ATOM      1  C   UNL A   1      31.751  28.184  27.510  1.00  0.00     0.118 C 
ENDROOT
BRANCH   1   2
ATOM      2  N   UNL A   1      31.174  26.894  27.195  1.00  0.00    -0.351 N 
ATOM      3  C   UNL A   1      31.555  25.814  26.477  1.00  0.00     0.284 C 
ATOM      4  O   UNL A   1      30.884  24.796  26.724  1.00  0.00    -0.268 OA
ATOM      5  H   UNL A   1      30.286  26.773  27.605  1.00  0.00     0.163 HD
BRANCH   3   6
ATOM      6  C   UNL A   1      32.558  25.740  25.286  1.00  0.00     0.326 C 
BRANCH   6   7
ATOM      7  C   UNL A   1      32.358  24.900  23.987  1.00  0.00     0.338 C 
BRANCH   7   8
ATOM      8  N   UNL A   1      33.411  24.372  23.088  1.00  0.00    -0.327 N 
ATOM      9  C   UNL A   1      32.907  24.301  21.714  1.00  0.00     0.333 C 
ATOM     10  H   UNL A   1      34.173  25.050  23.108  1.00  0.00     0.348 HD
BRANCH   8  11
ATOM     11  C   UNL A   1      34.116  23.172  23.550  1.00  0.00     0.327 C 
BRANCH  11  12
ATOM     12  C   UNL A   1      33.304  22.045  24.253  1.00  0.00     0.239 C 
ATOM     13  N   UNL A   1      34.022  21.164  25.228  1.00  0.00    -0.328 N 
ATOM     14  C   UNL A   1      33.121  20.003  25.385  1.00  0.00     0.262 C 
ATOM     15  H   UNL A   1      34.205  21.708  26.072  1.00  0.00     0.348 HD
ATOM     16  C   UNL A   1      32.574  19.746  23.992  1.00  0.00     0.068 C 
ATOM     17  C   UNL A   1      32.452  21.126  23.373  1.00  0.00     0.077 C 
BRANCH  13  18
ATOM     18  C   UNL A   1      35.372  20.707  24.870  1.00  0.00     0.259 C 
ATOM     19  C   UNL A   1      36.444  21.449  25.663  1.00  0.00     0.071 C 
ENDBRANCH  13  18
ENDBRANCH  11  12
ENDBRANCH   8  11
ENDBRANCH   7   8
ENDBRANCH   6   7
BRANCH   6  20
ATOM     20  N   UNL A   1      33.947  25.797  25.803  1.00  0.00    -0.343 N 
ATOM     21  H   UNL A   1      34.550  25.215  25.221  1.00  0.00     0.345 HD
ATOM     22  H   UNL A   1      33.968  25.454  26.763  1.00  0.00     0.345 HD
ATOM     23  H   UNL A   1      34.280  26.761  25.778  1.00  0.00     0.345 HD
ENDBRANCH   6  20
ENDBRANCH   3   6
ENDBRANCH   1   2
BRANCH   1  24
ATOM     24  C   UNL A   1      31.913  29.105  26.307  1.00  0.00     0.042 C 
BRANCH  24  25
ATOM     25  C   UNL A   1      33.199  29.911  26.346  1.00  0.00     0.118 C 
BRANCH  25  26
ATOM     26  N   UNL A   1      33.034  31.262  26.867  1.00  0.00    -0.352 N 
ATOM     27  C   UNL A   1      33.888  31.979  27.679  1.00  0.00     0.251 C 
ATOM     28  H   UNL A   1      32.205  31.723  26.607  1.00  0.00     0.163 HD
ATOM     29  O   UNL A   1      33.552  33.090  28.082  1.00  0.00    -0.269 OA
BRANCH  27  30
ATOM     30  C   UNL A   1      35.174  31.379  28.102  1.00  0.00     0.039 A 
ATOM     31  C   UNL A   1      36.330  32.164  28.089  1.00  0.00     0.014 A 
ATOM     32  C   UNL A   1      35.232  30.065  28.568  1.00  0.00     0.014 A 
ATOM     33  C   UNL A   1      37.519  31.648  28.613  1.00  0.00     0.010 A 
ATOM     34  C   UNL A   1      36.375  29.604  29.204  1.00  0.00     0.010 A 
ATOM     35  C   UNL A   1      37.541  30.379  29.215  1.00  0.00    -0.014 A 
BRANCH  35  36
ATOM     36  C   UNL A   1      38.779  29.823  29.820  1.00  0.00     0.031 A 
ATOM     37  C   UNL A   1      39.218  30.292  31.184  1.00  0.00     0.074 A 
ATOM     38  C   UNL A   1      39.533  28.951  29.119  1.00  0.00     0.049 A 
ATOM     39  N   UNL A   1      40.291  29.981  31.864  1.00  0.00    -0.248 NA
ATOM     40  C   UNL A   1      38.361  31.285  31.852  1.00  0.00     0.031 C 
ATOM     41  C   UNL A   1      39.244  28.481  27.760  1.00  0.00     0.029 A 
ATOM     42  N   UNL A   1      40.693  28.298  29.450  1.00  0.00    -0.354 N 
ATOM     43  C   UNL A   1      40.251  30.761  33.015  1.00  0.00     0.074 A 
ATOM     44  C   UNL A   1      39.092  31.617  32.904  1.00  0.00     0.031 C 
ATOM     45  C   UNL A   1      40.168  27.575  27.401  1.00  0.00     0.029 A 
ATOM     46  C   UNL A   1      41.139  27.430  28.479  1.00  0.00     0.049 A 
ATOM     47  H   UNL A   1      41.163  28.437  30.304  1.00  0.00     0.167 HD
ATOM     48  C   UNL A   1      41.084  30.740  34.085  1.00  0.00     0.034 A 
ATOM     49  C   UNL A   1      42.204  26.604  28.470  1.00  0.00     0.034 A 
ATOM     50  C   UNL A   1      42.204  29.840  34.197  1.00  0.00     0.049 A 
ATOM     51  C   UNL A   1      43.090  26.569  29.692  1.00  0.00     0.074 A 
ATOM     52  C   UNL A   1      43.074  29.670  35.258  1.00  0.00     0.029 A 
ATOM     53  N   UNL A   1      42.603  28.948  33.208  1.00  0.00    -0.354 N 
ATOM     54  N   UNL A   1      42.998  27.263  30.804  1.00  0.00    -0.248 NA
ATOM     55  C   UNL A   1      44.209  25.620  29.665  1.00  0.00     0.031 C 
ATOM     56  C   UNL A   1      44.035  28.722  34.889  1.00  0.00     0.029 A 
ATOM     57  C   UNL A   1      43.719  28.242  33.628  1.00  0.00     0.049 A 
ATOM     58  H   UNL A   1      42.160  28.835  32.337  1.00  0.00     0.167 HD
ATOM     59  C   UNL A   1      44.023  26.801  31.624  1.00  0.00     0.074 A 
ATOM     60  C   UNL A   1      44.701  25.755  30.886  1.00  0.00     0.031 C 
ATOM     61  C   UNL A   1      44.377  27.202  32.873  1.00  0.00     0.034 A 
BRANCH  48  62
ATOM     62  C   UNL A   1      40.819  31.727  35.199  1.00  0.00     0.023 A 
ATOM     63  C   UNL A   1      39.821  31.508  36.166  1.00  0.00     0.031 A 
ATOM     64  C   UNL A   1      41.556  32.922  35.280  1.00  0.00     0.131 A 
ATOM     65  C   UNL A   1      39.533  32.500  37.117  1.00  0.00     0.055 A 
ATOM     66  C   UNL A   1      41.324  33.866  36.284  1.00  0.00     0.041 A 
ATOM     67  F   UNL A   1      42.507  33.201  34.375  1.00  0.00    -0.206 F 
ATOM     68  C   UNL A   1      40.296  33.666  37.200  1.00  0.00     0.022 A 
BRANCH  65  69
ATOM     69  S   UNL A   1      38.053  32.309  38.148  1.00  0.00     0.124 S 
ATOM     70  O   UNL A   1      37.335  33.550  37.866  1.00  0.00    -0.237 OA
ATOM     71  O   UNL A   1      37.452  31.090  37.618  1.00  0.00    -0.237 OA
ATOM     72  O   UNL A   1      38.589  32.203  39.503  1.00  0.00    -0.744 OA
ENDBRANCH  65  69
ENDBRANCH  48  62
BRANCH  49  73
ATOM     73  C   UNL A   1      42.488  25.724  27.297  1.00  0.00     0.023 A 
ATOM     74  C   UNL A   1      42.040  24.393  27.274  1.00  0.00     0.031 A 
ATOM     75  C   UNL A   1      43.261  26.175  26.213  1.00  0.00     0.131 A 
ATOM     76  C   UNL A   1      42.423  23.540  26.226  1.00  0.00     0.055 A 
ATOM     77  C   UNL A   1      43.589  25.340  25.142  1.00  0.00     0.041 A 
ATOM     78  F   UNL A   1      43.710  27.440  26.178  1.00  0.00    -0.206 F 
ATOM     79  C   UNL A   1      43.184  24.008  25.154  1.00  0.00     0.022 A 
BRANCH  76  80
ATOM     80  S   UNL A   1      42.006  21.778  26.344  1.00  0.00     0.124 S 
ATOM     81  O   UNL A   1      42.384  21.475  27.720  1.00  0.00    -0.237 OA
ATOM     82  O   UNL A   1      40.574  21.788  26.059  1.00  0.00    -0.237 OA
ATOM     83  O   UNL A   1      42.841  21.162  25.316  1.00  0.00    -0.744 OA
ENDBRANCH  76  80
ENDBRANCH  49  73
BRANCH  61  84
ATOM     84  C   UNL A   1      45.514  26.455  33.528  1.00  0.00     0.023 A 
ATOM     85  C   UNL A   1      45.291  25.320  34.325  1.00  0.00     0.031 A 
ATOM     86  C   UNL A   1      46.835  26.916  33.387  1.00  0.00     0.131 A 
ATOM     87  C   UNL A   1      46.358  24.735  35.019  1.00  0.00     0.055 A 
ATOM     88  C   UNL A   1      47.904  26.283  34.020  1.00  0.00     0.041 A 
ATOM     89  F   UNL A   1      47.106  27.996  32.636  1.00  0.00    -0.206 F 
ATOM     90  C   UNL A   1      47.666  25.199  34.858  1.00  0.00     0.022 A 
BRANCH  87  91
ATOM     91  S   UNL A   1      45.992  23.449  36.244  1.00  0.00     0.124 S 
ATOM     92  O   UNL A   1      47.284  23.280  36.903  1.00  0.00    -0.237 OA
ATOM     93  O   UNL A   1      44.945  24.074  37.047  1.00  0.00    -0.237 OA
ATOM     94  O   UNL A   1      45.557  22.315  35.431  1.00  0.00    -0.744 OA
ENDBRANCH  87  91
ENDBRANCH  61  84
ENDBRANCH  35  36
ENDBRANCH  27  30
ENDBRANCH  25  26
ENDBRANCH  24  25
ENDBRANCH   1  24
TORSDOF 19
ENDMDL
