MODEL 1
REMARK VINA RESULT:     -10.1      0.000      0.000
REMARK SMILES Cc1cscc1-c1noc(SCC(=O)NCCCNC(=O)c2ccc(-c3c4nc(c(-c5cc(S(=O)(=O)[O-])ccc5F)c5ccc([nH]5)c(-c5cc(S(=O)(=O)[O-])ccc5F)c5nc(c(-c6cc(S(=O)(=O)[O-])ccc6F)c6ccc3[nH]6)C=C5)C=C4)cc2)n1
REMARK SMILES IDX 17 1 16 2 15 3 13 4 14 5 12 7 11 8 10 9 7 10 8 11 85 12 9 13
REMARK SMILES IDX 6 14 1 15 2 16 3 17 4 18 5 19 18 20 19 21 20 22 21 24 22 25
REMARK SMILES IDX 23 26 84 27 24 28 83 29 25 30 26 31 27 32 77 33 28 34 82 35
REMARK SMILES IDX 76 36 78 37 29 38 81 39 75 40 74 41 30 43 62 44 42 45 61 46
REMARK SMILES IDX 43 47 46 48 60 49 79 50 44 51 45 52 59 54 80 55 47 56 31 57
REMARK SMILES IDX 32 58 40 59 33 60 39 61 41 62 38 63 34 64 35 65 36 66 37 67
REMARK SMILES IDX 63 68 64 69 72 70 65 71 71 72 73 73 70 74 66 75 67 76 68 77
REMARK SMILES IDX 69 78 48 79 49 80 57 81 50 82 56 83 58 84 55 85 51 86 52 87
REMARK SMILES IDX 53 88 54 89
REMARK H PARENT 15 6 19 23 78 42 46 53
REMARK Flexibility Score: inf
ROOT
ATOM      1  C   UNL A   1      42.306  20.514  26.878  1.00  0.00     0.042 C 
ENDROOT
BRANCH   1   2
ATOM      2  C   UNL A   1      42.267  19.223  26.067  1.00  0.00     0.117 C 
BRANCH   2   3
ATOM      3  N   UNL A   1      43.554  18.550  26.056  1.00  0.00    -0.355 N 
ATOM      4  C   UNL A   1      44.661  18.776  25.294  1.00  0.00     0.230 C 
ATOM      5  O   UNL A   1      45.654  18.078  25.516  1.00  0.00    -0.274 OA
ATOM      6  H   UNL A   1      43.640  17.811  26.702  1.00  0.00     0.163 HD
BRANCH   4   7
ATOM      7  C   UNL A   1      44.714  19.927  24.308  1.00  0.00     0.179 C 
BRANCH   7   8
ATOM      8  S   UNL A   1      46.177  20.972  24.446  1.00  0.00    -0.055 SA
BRANCH   8   9
ATOM      9  C   UNL A   1      45.620  22.302  25.409  1.00  0.00     0.286 A 
ATOM     10  C   UNL A   1      45.245  23.666  26.946  1.00  0.00     0.204 A 
ATOM     11  N   UNL A   1      44.396  24.058  25.990  1.00  0.00    -0.056 NA
ATOM     12  N   UNL A   1      46.018  22.579  26.629  1.00  0.00    -0.181 NA
ATOM     13  O   UNL A   1      44.662  23.166  24.952  1.00  0.00    -0.327 OA
BRANCH  10  14
ATOM     14  C   UNL A   1      45.293  24.268  28.278  1.00  0.00     0.036 A 
ATOM     15  C   UNL A   1      42.993  23.351  29.094  1.00  0.00     0.046 C 
ATOM     16  C   UNL A   1      44.254  24.134  29.262  1.00  0.00    -0.029 A 
ATOM     17  C   UNL A   1      44.594  24.814  30.419  1.00  0.00     0.069 A 
ATOM     18  S   UNL A   1      46.117  25.584  30.323  1.00  0.00    -0.151 S 
ATOM     19  C   UNL A   1      46.363  25.010  28.736  1.00  0.00     0.077 A 
ENDBRANCH  10  14
ENDBRANCH   8   9
ENDBRANCH   7   8
ENDBRANCH   4   7
ENDBRANCH   2   3
ENDBRANCH   1   2
BRANCH   1  20
ATOM     20  C   UNL A   1      41.713  21.723  26.158  1.00  0.00     0.118 C 
BRANCH  20  21
ATOM     21  N   UNL A   1      40.277  21.606  25.954  1.00  0.00    -0.352 N 
ATOM     22  C   UNL A   1      39.268  22.491  26.242  1.00  0.00     0.251 C 
ATOM     23  H   UNL A   1      39.983  20.759  25.545  1.00  0.00     0.163 HD
ATOM     24  O   UNL A   1      38.100  22.109  26.166  1.00  0.00    -0.269 OA
BRANCH  22  25
ATOM     25  C   UNL A   1      39.572  23.878  26.663  1.00  0.00     0.039 A 
ATOM     26  C   UNL A   1      39.529  24.192  28.024  1.00  0.00     0.014 A 
ATOM     27  C   UNL A   1      39.872  24.874  25.730  1.00  0.00     0.014 A 
ATOM     28  C   UNL A   1      39.856  25.482  28.453  1.00  0.00     0.010 A 
ATOM     29  C   UNL A   1      40.273  26.136  26.163  1.00  0.00     0.010 A 
ATOM     30  C   UNL A   1      40.271  26.455  27.529  1.00  0.00    -0.014 A 
BRANCH  30  31
ATOM     31  C   UNL A   1      40.713  27.804  27.979  1.00  0.00     0.031 A 
ATOM     32  C   UNL A   1      42.173  28.170  27.968  1.00  0.00     0.074 A 
ATOM     33  C   UNL A   1      39.803  28.679  28.452  1.00  0.00     0.049 A 
ATOM     34  N   UNL A   1      42.756  29.263  28.389  1.00  0.00    -0.248 NA
ATOM     35  C   UNL A   1      43.102  27.161  27.438  1.00  0.00     0.031 C 
ATOM     36  C   UNL A   1      38.362  28.431  28.546  1.00  0.00     0.029 A 
ATOM     37  N   UNL A   1      39.950  29.951  28.949  1.00  0.00    -0.354 N 
ATOM     38  C   UNL A   1      44.119  29.070  28.186  1.00  0.00     0.074 A 
ATOM     39  C   UNL A   1      44.276  27.730  27.661  1.00  0.00     0.031 C 
ATOM     40  C   UNL A   1      37.758  29.520  29.043  1.00  0.00     0.029 A 
ATOM     41  C   UNL A   1      38.768  30.527  29.358  1.00  0.00     0.049 A 
ATOM     42  H   UNL A   1      40.820  30.408  29.009  1.00  0.00     0.167 HD
ATOM     43  C   UNL A   1      45.140  29.938  28.399  1.00  0.00     0.034 A 
ATOM     44  C   UNL A   1      38.524  31.720  29.936  1.00  0.00     0.034 A 
ATOM     45  C   UNL A   1      44.964  31.274  28.918  1.00  0.00     0.049 A 
ATOM     46  C   UNL A   1      39.681  32.652  30.200  1.00  0.00     0.074 A 
ATOM     47  C   UNL A   1      45.924  32.251  29.121  1.00  0.00     0.029 A 
ATOM     48  N   UNL A   1      43.754  31.817  29.330  1.00  0.00    -0.354 N 
ATOM     49  N   UNL A   1      40.959  32.473  29.954  1.00  0.00    -0.248 NA
ATOM     50  C   UNL A   1      39.361  33.949  30.808  1.00  0.00     0.031 C 
ATOM     51  C   UNL A   1      45.309  33.351  29.728  1.00  0.00     0.029 A 
ATOM     52  C   UNL A   1      43.950  33.100  29.820  1.00  0.00     0.049 A 
ATOM     53  H   UNL A   1      42.884  31.359  29.280  1.00  0.00     0.167 HD
ATOM     54  C   UNL A   1      41.589  33.651  30.349  1.00  0.00     0.074 A 
ATOM     55  C   UNL A   1      40.548  34.536  30.831  1.00  0.00     0.031 C 
ATOM     56  C   UNL A   1      42.906  33.973  30.309  1.00  0.00     0.034 A 
BRANCH  43  57
ATOM     57  C   UNL A   1      46.541  29.456  28.098  1.00  0.00     0.023 A 
ATOM     58  C   UNL A   1      47.336  28.831  29.075  1.00  0.00     0.031 A 
ATOM     59  C   UNL A   1      47.097  29.636  26.819  1.00  0.00     0.131 A 
ATOM     60  C   UNL A   1      48.662  28.479  28.783  1.00  0.00     0.055 A 
ATOM     61  C   UNL A   1      48.389  29.203  26.508  1.00  0.00     0.041 A 
ATOM     62  F   UNL A   1      46.398  30.245  25.848  1.00  0.00    -0.206 F 
ATOM     63  C   UNL A   1      49.185  28.634  27.497  1.00  0.00     0.022 A 
BRANCH  60  64
ATOM     64  S   UNL A   1      49.739  27.951  30.143  1.00  0.00     0.124 S 
ATOM     65  O   UNL A   1      51.046  28.410  29.679  1.00  0.00    -0.237 OA
ATOM     66  O   UNL A   1      49.179  28.665  31.285  1.00  0.00    -0.237 OA
ATOM     67  O   UNL A   1      49.571  26.500  30.171  1.00  0.00    -0.744 OA
ENDBRANCH  60  64
ENDBRANCH  43  57
BRANCH  44  68
ATOM     68  C   UNL A   1      37.135  32.100  30.329  1.00  0.00     0.023 A 
ATOM     69  C   UNL A   1      36.246  32.662  29.398  1.00  0.00     0.031 A 
ATOM     70  C   UNL A   1      36.691  31.951  31.655  1.00  0.00     0.131 A 
ATOM     71  C   UNL A   1      34.979  33.099  29.815  1.00  0.00     0.055 A 
ATOM     72  C   UNL A   1      35.407  32.332  32.051  1.00  0.00     0.041 A 
ATOM     73  F   UNL A   1      37.498  31.418  32.587  1.00  0.00    -0.206 F 
ATOM     74  C   UNL A   1      34.548  32.923  31.132  1.00  0.00     0.022 A 
BRANCH  71  75
ATOM     75  S   UNL A   1      33.934  33.992  28.631  1.00  0.00     0.124 S 
ATOM     76  O   UNL A   1      33.487  32.912  27.759  1.00  0.00    -0.237 OA
ATOM     77  O   UNL A   1      32.920  34.576  29.503  1.00  0.00    -0.237 OA
ATOM     78  O   UNL A   1      34.854  34.949  28.020  1.00  0.00    -0.744 OA
ENDBRANCH  71  75
ENDBRANCH  44  68
BRANCH  56  79
ATOM     79  C   UNL A   1      43.291  35.365  30.756  1.00  0.00     0.023 A 
ATOM     80  C   UNL A   1      43.500  35.680  32.111  1.00  0.00     0.031 A 
ATOM     81  C   UNL A   1      43.439  36.394  29.808  1.00  0.00     0.131 A 
ATOM     82  C   UNL A   1      43.788  37.003  32.483  1.00  0.00     0.055 A 
ATOM     83  C   UNL A   1      43.794  37.691  30.179  1.00  0.00     0.041 A 
ATOM     84  F   UNL A   1      43.246  36.152  28.502  1.00  0.00    -0.206 F 
ATOM     85  C   UNL A   1      43.956  38.005  31.525  1.00  0.00     0.022 A 
BRANCH  82  86
ATOM     86  S   UNL A   1      43.840  37.418  34.248  1.00  0.00     0.124 S 
ATOM     87  O   UNL A   1      44.932  38.385  34.300  1.00  0.00    -0.237 OA
ATOM     88  O   UNL A   1      42.503  37.953  34.483  1.00  0.00    -0.237 OA
ATOM     89  O   UNL A   1      44.117  36.136  34.895  1.00  0.00    -0.744 OA
ENDBRANCH  82  86
ENDBRANCH  56  79
ENDBRANCH  30  31
ENDBRANCH  22  25
ENDBRANCH  20  21
ENDBRANCH   1  20
TORSDOF 16
ENDMDL
MODEL 2
REMARK VINA RESULT:     -10.0      5.705     10.252
REMARK SMILES Cc1cscc1-c1noc(SCC(=O)NCCCNC(=O)c2ccc(-c3c4nc(c(-c5cc(S(=O)(=O)[O-])ccc5F)c5ccc([nH]5)c(-c5cc(S(=O)(=O)[O-])ccc5F)c5nc(c(-c6cc(S(=O)(=O)[O-])ccc6F)c6ccc3[nH]6)C=C5)C=C4)cc2)n1
REMARK SMILES IDX 17 1 16 2 15 3 13 4 14 5 12 7 11 8 10 9 7 10 8 11 85 12 9 13
REMARK SMILES IDX 6 14 1 15 2 16 3 17 4 18 5 19 18 20 19 21 20 22 21 24 22 25
REMARK SMILES IDX 23 26 84 27 24 28 83 29 25 30 26 31 27 32 77 33 28 34 82 35
REMARK SMILES IDX 76 36 78 37 29 38 81 39 75 40 74 41 30 43 62 44 42 45 61 46
REMARK SMILES IDX 43 47 46 48 60 49 79 50 44 51 45 52 59 54 80 55 47 56 31 57
REMARK SMILES IDX 32 58 40 59 33 60 39 61 41 62 38 63 34 64 35 65 36 66 37 67
REMARK SMILES IDX 63 68 64 69 72 70 65 71 71 72 73 73 70 74 66 75 67 76 68 77
REMARK SMILES IDX 69 78 48 79 49 80 57 81 50 82 56 83 58 84 55 85 51 86 52 87
REMARK SMILES IDX 53 88 54 89
REMARK H PARENT 15 6 19 23 78 42 46 53
REMARK Flexibility Score: inf
ROOT
ATOM      1  C   UNL A   1      31.029  32.154  26.209  1.00  0.00     0.042 C 
ENDROOT
BRANCH   1   2
ATOM      2  C   UNL A   1      31.055  30.820  25.467  1.00  0.00     0.117 C 
BRANCH   2   3
ATOM      3  N   UNL A   1      32.294  30.098  25.693  1.00  0.00    -0.355 N 
ATOM      4  C   UNL A   1      32.917  29.154  24.932  1.00  0.00     0.230 C 
ATOM      5  O   UNL A   1      33.998  28.721  25.337  1.00  0.00    -0.274 OA
ATOM      6  H   UNL A   1      32.758  30.324  26.532  1.00  0.00     0.163 HD
BRANCH   4   7
ATOM      7  C   UNL A   1      32.368  28.752  23.576  1.00  0.00     0.179 C 
BRANCH   7   8
ATOM      8  S   UNL A   1      33.618  28.252  22.375  1.00  0.00    -0.055 SA
BRANCH   8   9
ATOM      9  C   UNL A   1      33.424  26.531  22.301  1.00  0.00     0.286 A 
ATOM     10  C   UNL A   1      33.269  24.495  22.739  1.00  0.00     0.204 A 
ATOM     11  N   UNL A   1      33.278  24.509  21.402  1.00  0.00    -0.056 NA
ATOM     12  N   UNL A   1      33.362  25.726  23.336  1.00  0.00    -0.181 NA
ATOM     13  O   UNL A   1      33.355  25.868  21.105  1.00  0.00    -0.327 OA
BRANCH  10  14
ATOM     14  C   UNL A   1      33.264  23.267  23.533  1.00  0.00     0.036 A 
ATOM     15  C   UNL A   1      35.845  22.892  23.502  1.00  0.00     0.046 C 
ATOM     16  C   UNL A   1      34.446  22.523  23.874  1.00  0.00    -0.029 A 
ATOM     17  C   UNL A   1      34.116  21.413  24.634  1.00  0.00     0.069 A 
ATOM     18  S   UNL A   1      32.438  21.276  24.930  1.00  0.00    -0.151 S 
ATOM     19  C   UNL A   1      32.117  22.710  24.061  1.00  0.00     0.077 A 
ENDBRANCH  10  14
ENDBRANCH   8   9
ENDBRANCH   7   8
ENDBRANCH   4   7
ENDBRANCH   2   3
ENDBRANCH   1   2
BRANCH   1  20
ATOM     20  C   UNL A   1      32.310  32.465  26.978  1.00  0.00     0.118 C 
BRANCH  20  21
ATOM     21  N   UNL A   1      32.367  33.845  27.440  1.00  0.00    -0.352 N 
ATOM     22  C   UNL A   1      33.186  34.432  28.371  1.00  0.00     0.251 C 
ATOM     23  H   UNL A   1      31.714  34.451  27.019  1.00  0.00     0.163 HD
ATOM     24  O   UNL A   1      32.931  35.575  28.752  1.00  0.00    -0.269 OA
BRANCH  22  25
ATOM     25  C   UNL A   1      34.344  33.701  28.933  1.00  0.00     0.039 A 
ATOM     26  C   UNL A   1      35.632  34.172  28.662  1.00  0.00     0.014 A 
ATOM     27  C   UNL A   1      34.175  32.546  29.701  1.00  0.00     0.014 A 
ATOM     28  C   UNL A   1      36.741  33.528  29.218  1.00  0.00     0.010 A 
ATOM     29  C   UNL A   1      35.274  31.952  30.318  1.00  0.00     0.010 A 
ATOM     30  C   UNL A   1      36.570  32.436  30.085  1.00  0.00    -0.014 A 
BRANCH  30  31
ATOM     31  C   UNL A   1      37.734  31.799  30.759  1.00  0.00     0.031 A 
ATOM     32  C   UNL A   1      38.537  30.739  30.053  1.00  0.00     0.074 A 
ATOM     33  C   UNL A   1      38.033  32.134  32.031  1.00  0.00     0.049 A 
ATOM     34  N   UNL A   1      39.535  30.020  30.500  1.00  0.00    -0.248 NA
ATOM     35  C   UNL A   1      38.148  30.430  28.669  1.00  0.00     0.031 C 
ATOM     36  C   UNL A   1      37.310  33.122  32.836  1.00  0.00     0.029 A 
ATOM     37  N   UNL A   1      39.017  31.679  32.875  1.00  0.00    -0.354 N 
ATOM     38  C   UNL A   1      39.885  29.165  29.459  1.00  0.00     0.074 A 
ATOM     39  C   UNL A   1      38.952  29.418  28.382  1.00  0.00     0.031 C 
ATOM     40  C   UNL A   1      37.888  33.216  34.042  1.00  0.00     0.029 A 
ATOM     41  C   UNL A   1      38.987  32.258  34.124  1.00  0.00     0.049 A 
ATOM     42  H   UNL A   1      39.680  31.001  32.612  1.00  0.00     0.167 HD
ATOM     43  C   UNL A   1      40.903  28.271  29.402  1.00  0.00     0.034 A 
ATOM     44  C   UNL A   1      39.745  32.033  35.216  1.00  0.00     0.034 A 
ATOM     45  C   UNL A   1      41.829  28.036  30.485  1.00  0.00     0.049 A 
ATOM     46  C   UNL A   1      40.845  31.005  35.141  1.00  0.00     0.074 A 
ATOM     47  C   UNL A   1      42.926  27.191  30.511  1.00  0.00     0.029 A 
ATOM     48  N   UNL A   1      41.761  28.634  31.736  1.00  0.00    -0.354 N 
ATOM     49  N   UNL A   1      41.195  30.241  34.130  1.00  0.00    -0.248 NA
ATOM     50  C   UNL A   1      41.659  30.814  36.348  1.00  0.00     0.031 C 
ATOM     51  C   UNL A   1      43.470  27.218  31.799  1.00  0.00     0.029 A 
ATOM     52  C   UNL A   1      42.772  28.149  32.553  1.00  0.00     0.049 A 
ATOM     53  H   UNL A   1      41.093  29.305  32.005  1.00  0.00     0.167 HD
ATOM     54  C   UNL A   1      42.292  29.506  34.574  1.00  0.00     0.074 A 
ATOM     55  C   UNL A   1      42.553  29.930  35.934  1.00  0.00     0.031 C 
ATOM     56  C   UNL A   1      43.019  28.570  33.913  1.00  0.00     0.034 A 
BRANCH  43  57
ATOM     57  C   UNL A   1      41.048  27.458  28.135  1.00  0.00     0.023 A 
ATOM     58  C   UNL A   1      40.680  26.102  28.079  1.00  0.00     0.031 A 
ATOM     59  C   UNL A   1      41.575  28.042  26.969  1.00  0.00     0.131 A 
ATOM     60  C   UNL A   1      40.913  25.358  26.912  1.00  0.00     0.055 A 
ATOM     61  C   UNL A   1      41.723  27.318  25.784  1.00  0.00     0.041 A 
ATOM     62  F   UNL A   1      41.966  29.326  26.964  1.00  0.00    -0.206 F 
ATOM     63  C   UNL A   1      41.406  25.965  25.755  1.00  0.00     0.022 A 
BRANCH  60  64
ATOM     64  S   UNL A   1      40.701  23.558  26.975  1.00  0.00     0.124 S 
ATOM     65  O   UNL A   1      41.099  23.262  28.350  1.00  0.00    -0.237 OA
ATOM     66  O   UNL A   1      39.285  23.395  26.671  1.00  0.00    -0.237 OA
ATOM     67  O   UNL A   1      41.621  23.068  25.951  1.00  0.00    -0.744 OA
ENDBRANCH  60  64
ENDBRANCH  43  57
BRANCH  44  68
ATOM     68  C   UNL A   1      39.482  32.776  36.484  1.00  0.00     0.023 A 
ATOM     69  C   UNL A   1      38.715  32.206  37.513  1.00  0.00     0.031 A 
ATOM     70  C   UNL A   1      39.957  34.087  36.668  1.00  0.00     0.131 A 
ATOM     71  C   UNL A   1      38.403  32.961  38.655  1.00  0.00     0.055 A 
ATOM     72  C   UNL A   1      39.695  34.812  37.831  1.00  0.00     0.041 A 
ATOM     73  F   UNL A   1      40.697  34.681  35.717  1.00  0.00    -0.206 F 
ATOM     74  C   UNL A   1      38.901  34.255  38.828  1.00  0.00     0.022 A 
BRANCH  71  75
ATOM     75  S   UNL A   1      37.253  32.262  39.872  1.00  0.00     0.124 S 
ATOM     76  O   UNL A   1      36.936  33.431  40.684  1.00  0.00    -0.237 OA
ATOM     77  O   UNL A   1      36.180  31.760  39.020  1.00  0.00    -0.237 OA
ATOM     78  O   UNL A   1      38.049  31.234  40.539  1.00  0.00    -0.744 OA
ENDBRANCH  71  75
ENDBRANCH  44  68
BRANCH  56  79
ATOM     79  C   UNL A   1      44.203  27.976  34.641  1.00  0.00     0.023 A 
ATOM     80  C   UNL A   1      44.119  26.748  35.322  1.00  0.00     0.031 A 
ATOM     81  C   UNL A   1      45.434  28.658  34.660  1.00  0.00     0.131 A 
ATOM     82  C   UNL A   1      45.226  26.271  36.041  1.00  0.00     0.055 A 
ATOM     83  C   UNL A   1      46.551  28.144  35.319  1.00  0.00     0.041 A 
ATOM     84  F   UNL A   1      45.571  29.837  34.032  1.00  0.00    -0.206 F 
ATOM     85  C   UNL A   1      46.447  26.950  36.027  1.00  0.00     0.022 A 
BRANCH  82  86
ATOM     86  S   UNL A   1      45.021  24.799  37.081  1.00  0.00     0.124 S 
ATOM     87  O   UNL A   1      44.241  25.323  38.197  1.00  0.00    -0.237 OA
ATOM     88  O   UNL A   1      44.320  23.881  36.189  1.00  0.00    -0.237 OA
ATOM     89  O   UNL A   1      46.393  24.416  37.410  1.00  0.00    -0.744 OA
ENDBRANCH  82  86
ENDBRANCH  56  79
ENDBRANCH  30  31
ENDBRANCH  22  25
ENDBRANCH  20  21
ENDBRANCH   1  20
TORSDOF 16
ENDMDL
MODEL 3
REMARK VINA RESULT:      -9.9      6.025     10.345
REMARK SMILES Cc1cscc1-c1noc(SCC(=O)NCCCNC(=O)c2ccc(-c3c4nc(c(-c5cc(S(=O)(=O)[O-])ccc5F)c5ccc([nH]5)c(-c5cc(S(=O)(=O)[O-])ccc5F)c5nc(c(-c6cc(S(=O)(=O)[O-])ccc6F)c6ccc3[nH]6)C=C5)C=C4)cc2)n1
REMARK SMILES IDX 17 1 16 2 15 3 13 4 14 5 12 7 11 8 10 9 7 10 8 11 85 12 9 13
REMARK SMILES IDX 6 14 1 15 2 16 3 17 4 18 5 19 18 20 19 21 20 22 21 24 22 25
REMARK SMILES IDX 23 26 84 27 24 28 83 29 25 30 26 31 27 32 77 33 28 34 82 35
REMARK SMILES IDX 76 36 78 37 29 38 81 39 75 40 74 41 30 43 62 44 42 45 61 46
REMARK SMILES IDX 43 47 46 48 60 49 79 50 44 51 45 52 59 54 80 55 47 56 31 57
REMARK SMILES IDX 32 58 40 59 33 60 39 61 41 62 38 63 34 64 35 65 36 66 37 67
REMARK SMILES IDX 63 68 64 69 72 70 65 71 71 72 73 73 70 74 66 75 67 76 68 77
REMARK SMILES IDX 69 78 48 79 49 80 57 81 50 82 56 83 58 84 55 85 51 86 52 87
REMARK SMILES IDX 53 88 54 89
REMARK H PARENT 15 6 19 23 78 42 46 53
REMARK Flexibility Score: inf
ROOT
ATOM      1  C   UNL A   1      31.679  31.417  26.564  1.00  0.00     0.042 C 
ENDROOT
BRANCH   1   2
ATOM      2  C   UNL A   1      31.980  30.179  25.723  1.00  0.00     0.117 C 
BRANCH   2   3
ATOM      3  N   UNL A   1      31.153  30.119  24.533  1.00  0.00    -0.355 N 
ATOM      4  C   UNL A   1      30.978  29.111  23.630  1.00  0.00     0.230 C 
ATOM      5  O   UNL A   1      30.173  29.303  22.716  1.00  0.00    -0.274 OA
ATOM      6  H   UNL A   1      30.636  30.936  24.344  1.00  0.00     0.163 HD
BRANCH   4   7
ATOM      7  C   UNL A   1      31.643  27.761  23.822  1.00  0.00     0.179 C 
BRANCH   7   8
ATOM      8  S   UNL A   1      33.195  27.552  22.928  1.00  0.00    -0.055 SA
BRANCH   8   9
ATOM      9  C   UNL A   1      33.210  25.859  22.557  1.00  0.00     0.286 A 
ATOM     10  C   UNL A   1      33.204  23.772  22.644  1.00  0.00     0.204 A 
ATOM     11  N   UNL A   1      33.453  24.013  21.352  1.00  0.00    -0.056 NA
ATOM     12  N   UNL A   1      33.051  24.887  23.426  1.00  0.00    -0.181 NA
ATOM     13  O   UNL A   1      33.432  25.405  21.285  1.00  0.00    -0.327 OA
BRANCH  10  14
ATOM     14  C   UNL A   1      33.192  22.430  23.227  1.00  0.00     0.036 A 
ATOM     15  C   UNL A   1      35.223  22.789  24.821  1.00  0.00     0.046 C 
ATOM     16  C   UNL A   1      34.127  21.974  24.218  1.00  0.00    -0.029 A 
ATOM     17  C   UNL A   1      33.854  20.663  24.572  1.00  0.00     0.069 A 
ATOM     18  S   UNL A   1      32.513  20.007  23.739  1.00  0.00    -0.151 S 
ATOM     19  C   UNL A   1      32.256  21.470  22.898  1.00  0.00     0.077 A 
ENDBRANCH  10  14
ENDBRANCH   8   9
ENDBRANCH   7   8
ENDBRANCH   4   7
ENDBRANCH   2   3
ENDBRANCH   1   2
BRANCH   1  20
ATOM     20  C   UNL A   1      32.913  32.061  27.192  1.00  0.00     0.118 C 
BRANCH  20  21
ATOM     21  N   UNL A   1      32.724  33.476  27.478  1.00  0.00    -0.352 N 
ATOM     22  C   UNL A   1      33.323  34.274  28.420  1.00  0.00     0.251 C 
ATOM     23  H   UNL A   1      32.064  33.930  26.906  1.00  0.00     0.163 HD
ATOM     24  O   UNL A   1      32.871  35.403  28.618  1.00  0.00    -0.269 OA
BRANCH  22  25
ATOM     25  C   UNL A   1      34.478  33.786  29.208  1.00  0.00     0.039 A 
ATOM     26  C   UNL A   1      34.272  32.764  30.139  1.00  0.00     0.014 A 
ATOM     27  C   UNL A   1      35.751  34.342  29.055  1.00  0.00     0.014 A 
ATOM     28  C   UNL A   1      35.354  32.254  30.862  1.00  0.00     0.010 A 
ATOM     29  C   UNL A   1      36.840  33.779  29.719  1.00  0.00     0.010 A 
ATOM     30  C   UNL A   1      36.655  32.728  30.629  1.00  0.00    -0.014 A 
BRANCH  30  31
ATOM     31  C   UNL A   1      37.828  32.130  31.323  1.00  0.00     0.031 A 
ATOM     32  C   UNL A   1      38.616  31.024  30.671  1.00  0.00     0.074 A 
ATOM     33  C   UNL A   1      38.149  32.542  32.566  1.00  0.00     0.049 A 
ATOM     34  N   UNL A   1      39.619  30.331  31.146  1.00  0.00    -0.248 NA
ATOM     35  C   UNL A   1      38.203  30.631  29.316  1.00  0.00     0.031 C 
ATOM     36  C   UNL A   1      37.443  33.582  33.319  1.00  0.00     0.029 A 
ATOM     37  N   UNL A   1      39.145  32.137  33.421  1.00  0.00    -0.354 N 
ATOM     38  C   UNL A   1      39.949  29.411  30.155  1.00  0.00     0.074 A 
ATOM     39  C   UNL A   1      38.999  29.599  29.079  1.00  0.00     0.031 C 
ATOM     40  C   UNL A   1      38.041  33.749  34.508  1.00  0.00     0.029 A 
ATOM     41  C   UNL A   1      39.138  32.793  34.631  1.00  0.00     0.049 A 
ATOM     42  H   UNL A   1      39.802  31.442  33.190  1.00  0.00     0.167 HD
ATOM     43  C   UNL A   1      40.963  28.511  30.137  1.00  0.00     0.034 A 
ATOM     44  C   UNL A   1      39.913  32.635  35.722  1.00  0.00     0.034 A 
ATOM     45  C   UNL A   1      41.906  28.341  31.217  1.00  0.00     0.049 A 
ATOM     46  C   UNL A   1      41.009  31.599  35.693  1.00  0.00     0.074 A 
ATOM     47  C   UNL A   1      43.001  27.495  31.279  1.00  0.00     0.029 A 
ATOM     48  N   UNL A   1      41.861  29.016  32.430  1.00  0.00    -0.354 N 
ATOM     49  N   UNL A   1      41.340  30.773  34.727  1.00  0.00    -0.248 NA
ATOM     50  C   UNL A   1      41.842  31.482  36.897  1.00  0.00     0.031 C 
ATOM     51  C   UNL A   1      43.567  27.600  32.554  1.00  0.00     0.029 A 
ATOM     52  C   UNL A   1      42.885  28.579  33.258  1.00  0.00     0.049 A 
ATOM     53  H   UNL A   1      41.199  29.706  32.667  1.00  0.00     0.167 HD
ATOM     54  C   UNL A   1      42.442  30.062  35.198  1.00  0.00     0.074 A 
ATOM     55  C   UNL A   1      42.726  30.569  36.524  1.00  0.00     0.031 C 
ATOM     56  C   UNL A   1      43.155  29.083  34.585  1.00  0.00     0.034 A 
BRANCH  43  57
ATOM     57  C   UNL A   1      41.085  27.619  28.922  1.00  0.00     0.023 A 
ATOM     58  C   UNL A   1      42.101  27.803  27.967  1.00  0.00     0.031 A 
ATOM     59  C   UNL A   1      40.163  26.579  28.706  1.00  0.00     0.131 A 
ATOM     60  C   UNL A   1      42.127  27.012  26.808  1.00  0.00     0.055 A 
ATOM     61  C   UNL A   1      40.247  25.739  27.593  1.00  0.00     0.041 A 
ATOM     62  F   UNL A   1      39.157  26.367  29.568  1.00  0.00    -0.206 F 
ATOM     63  C   UNL A   1      41.224  25.962  26.629  1.00  0.00     0.022 A 
BRANCH  60  64
ATOM     64  S   UNL A   1      43.265  27.470  25.473  1.00  0.00     0.124 S 
ATOM     65  O   UNL A   1      44.204  28.345  26.172  1.00  0.00    -0.237 OA
ATOM     66  O   UNL A   1      43.791  26.178  25.047  1.00  0.00    -0.237 OA
ATOM     67  O   UNL A   1      42.404  28.144  24.504  1.00  0.00    -0.744 OA
ENDBRANCH  60  64
ENDBRANCH  43  57
BRANCH  44  68
ATOM     68  C   UNL A   1      39.674  33.456  36.946  1.00  0.00     0.023 A 
ATOM     69  C   UNL A   1      39.074  32.901  38.087  1.00  0.00     0.031 A 
ATOM     70  C   UNL A   1      40.001  34.824  36.975  1.00  0.00     0.131 A 
ATOM     71  C   UNL A   1      38.772  33.717  39.189  1.00  0.00     0.055 A 
ATOM     72  C   UNL A   1      39.755  35.619  38.096  1.00  0.00     0.041 A 
ATOM     73  F   UNL A   1      40.579  35.408  35.913  1.00  0.00    -0.206 F 
ATOM     74  C   UNL A   1      39.124  35.069  39.207  1.00  0.00     0.022 A 
BRANCH  71  75
ATOM     75  S   UNL A   1      37.826  33.008  40.564  1.00  0.00     0.124 S 
ATOM     76  O   UNL A   1      38.358  31.652  40.621  1.00  0.00    -0.237 OA
ATOM     77  O   UNL A   1      38.190  33.890  41.668  1.00  0.00    -0.237 OA
ATOM     78  O   UNL A   1      36.440  33.117  40.114  1.00  0.00    -0.744 OA
ENDBRANCH  71  75
ENDBRANCH  44  68
BRANCH  56  79
ATOM     79  C   UNL A   1      44.350  28.531  35.329  1.00  0.00     0.023 A 
ATOM     80  C   UNL A   1      44.225  27.499  36.276  1.00  0.00     0.031 A 
ATOM     81  C   UNL A   1      45.633  29.057  35.092  1.00  0.00     0.131 A 
ATOM     82  C   UNL A   1      45.353  27.067  36.992  1.00  0.00     0.055 A 
ATOM     83  C   UNL A   1      46.761  28.575  35.757  1.00  0.00     0.041 A 
ATOM     84  F   UNL A   1      45.812  30.048  34.204  1.00  0.00    -0.206 F 
ATOM     85  C   UNL A   1      46.622  27.584  36.723  1.00  0.00     0.022 A 
BRANCH  82  86
ATOM     86  S   UNL A   1      45.122  25.889  38.352  1.00  0.00     0.124 S 
ATOM     87  O   UNL A   1      44.713  24.682  37.641  1.00  0.00    -0.237 OA
ATOM     88  O   UNL A   1      46.447  25.852  38.961  1.00  0.00    -0.237 OA
ATOM     89  O   UNL A   1      44.080  26.509  39.170  1.00  0.00    -0.744 OA
ENDBRANCH  82  86
ENDBRANCH  56  79
ENDBRANCH  30  31
ENDBRANCH  22  25
ENDBRANCH  20  21
ENDBRANCH   1  20
TORSDOF 16
ENDMDL
