MODEL 1
REMARK VINA RESULT:     -12.3      0.000      0.000
REMARK SMILES Cc1cc(C(=O)NCCCNC(=O)c2ccc(-c3c4nc(c(-c5cc(S(=O)(=O)[O-])ccc5F)c5ccc([nH]5)c(-c5cc(S(=O)(=O)[O-])ccc5F)c5nc(c(-c6cc(S(=O)(=O)[O-])ccc6F)c6ccc3[nH]6)C=C5)C=C4)cc2)cc(C)c1OC[C@H]1C[N@@H+](C)CCO1
REMARK SMILES IDX 9 1 8 2 7 3 5 4 6 5 4 7 1 8 2 9 3 10 80 11 78 12 77 13 79 14
REMARK SMILES IDX 81 15 82 16 83 17 84 18 89 19 85 20 88 21 86 22 87 23 10 25
REMARK SMILES IDX 11 26 12 27 13 29 14 30 15 31 76 32 16 33 75 34 17 35 18 36
REMARK SMILES IDX 19 37 69 38 20 39 74 40 68 41 70 42 21 43 73 44 67 45 66 46
REMARK SMILES IDX 22 48 54 49 34 50 53 51 35 52 38 53 52 54 71 55 36 56 37 57
REMARK SMILES IDX 51 59 72 60 39 61 23 62 24 63 32 64 25 65 31 66 33 67 30 68
REMARK SMILES IDX 26 69 27 70 28 71 29 72 55 73 56 74 64 75 57 76 63 77 65 78
REMARK SMILES IDX 62 79 58 80 59 81 60 82 61 83 40 84 41 85 49 86 42 87 48 88
REMARK SMILES IDX 50 89 47 90 43 91 44 92 45 93 46 94
REMARK H PARENT 7 6 85 24 11 28 70 47 38 58
REMARK Flexibility Score: inf
ROOT
ATOM      1  C   UNL A   1      31.523  31.859  26.667  1.00  0.00     0.042 C 
ENDROOT
BRANCH   1   2
ATOM      2  C   UNL A   1      31.632  30.377  26.340  1.00  0.00     0.118 C 
BRANCH   2   3
ATOM      3  N   UNL A   1      31.800  30.108  24.922  1.00  0.00    -0.352 N 
ATOM      4  C   UNL A   1      32.064  28.955  24.230  1.00  0.00     0.251 C 
ATOM      5  O   UNL A   1      32.254  29.030  23.015  1.00  0.00    -0.269 OA
ATOM      6  H   UNL A   1      31.709  30.904  24.349  1.00  0.00     0.163 HD
BRANCH   4   7
ATOM      7  C   UNL A   1      32.176  27.634  24.894  1.00  0.00     0.040 A 
ATOM      8  C   UNL A   1      29.609  25.239  26.233  1.00  0.00     0.048 C 
ATOM      9  C   UNL A   1      30.983  25.749  25.926  1.00  0.00    -0.008 A 
ATOM     10  C   UNL A   1      30.998  27.035  25.338  1.00  0.00     0.021 A 
ATOM     11  C   UNL A   1      32.197  25.069  26.113  1.00  0.00     0.125 A 
ATOM     12  C   UNL A   1      33.390  25.662  25.628  1.00  0.00    -0.008 A 
ATOM     13  C   UNL A   1      33.375  26.963  25.092  1.00  0.00     0.021 A 
ATOM     14  C   UNL A   1      34.684  24.894  25.516  1.00  0.00     0.048 C 
BRANCH  11  15
ATOM     15  O   UNL A   1      32.383  23.830  26.656  1.00  0.00    -0.490 OA
BRANCH  15  16
ATOM     16  C   UNL A   1      31.708  22.651  26.190  1.00  0.00     0.267 C 
BRANCH  16  17
ATOM     17  C   UNL A   1      32.498  21.704  25.266  1.00  0.00     0.210 C 
ATOM     18  C   UNL A   1      33.901  21.437  25.846  1.00  0.00     0.298 C 
ATOM     19  O   UNL A   1      31.838  20.411  25.180  1.00  0.00    -0.363 OA
ATOM     20  N   UNL A   1      34.679  20.720  24.824  1.00  0.00    -0.333 N 
ATOM     21  C   UNL A   1      32.564  19.531  24.295  1.00  0.00     0.222 C 
ATOM     22  C   UNL A   1      36.094  20.670  25.152  1.00  0.00     0.332 C 
ATOM     23  C   UNL A   1      34.065  19.396  24.649  1.00  0.00     0.290 C 
ATOM     24  H   UNL A   1      34.650  21.218  23.933  1.00  0.00     0.348 HD
ENDBRANCH  16  17
ENDBRANCH  15  16
ENDBRANCH  11  15
ENDBRANCH   4   7
ENDBRANCH   2   3
ENDBRANCH   1   2
BRANCH   1  25
ATOM     25  C   UNL A   1      32.821  32.502  27.126  1.00  0.00     0.118 C 
BRANCH  25  26
ATOM     26  N   UNL A   1      32.643  33.879  27.569  1.00  0.00    -0.352 N 
ATOM     27  C   UNL A   1      33.201  34.565  28.615  1.00  0.00     0.251 C 
ATOM     28  H   UNL A   1      32.014  34.406  27.024  1.00  0.00     0.163 HD
ATOM     29  O   UNL A   1      32.714  35.655  28.939  1.00  0.00    -0.269 OA
BRANCH  27  30
ATOM     30  C   UNL A   1      34.349  34.018  29.369  1.00  0.00     0.039 A 
ATOM     31  C   UNL A   1      34.114  33.160  30.448  1.00  0.00     0.014 A 
ATOM     32  C   UNL A   1      35.659  34.372  29.045  1.00  0.00     0.014 A 
ATOM     33  C   UNL A   1      35.191  32.613  31.151  1.00  0.00     0.010 A 
ATOM     34  C   UNL A   1      36.728  33.738  29.665  1.00  0.00     0.010 A 
ATOM     35  C   UNL A   1      36.510  32.867  30.742  1.00  0.00    -0.014 A 
BRANCH  35  36
ATOM     36  C   UNL A   1      37.676  32.274  31.449  1.00  0.00     0.031 A 
ATOM     37  C   UNL A   1      38.451  31.153  30.805  1.00  0.00     0.074 A 
ATOM     38  C   UNL A   1      37.992  32.694  32.690  1.00  0.00     0.049 A 
ATOM     39  N   UNL A   1      39.432  30.436  31.289  1.00  0.00    -0.248 NA
ATOM     40  C   UNL A   1      38.037  30.758  29.449  1.00  0.00     0.031 C 
ATOM     41  C   UNL A   1      37.283  33.736  33.438  1.00  0.00     0.029 A 
ATOM     42  N   UNL A   1      38.986  32.293  33.547  1.00  0.00    -0.354 N 
ATOM     43  C   UNL A   1      39.733  29.494  30.310  1.00  0.00     0.074 A 
ATOM     44  C   UNL A   1      38.780  29.684  29.239  1.00  0.00     0.031 C 
ATOM     45  C   UNL A   1      37.887  33.914  34.624  1.00  0.00     0.029 A 
ATOM     46  C   UNL A   1      38.992  32.969  34.745  1.00  0.00     0.049 A 
ATOM     47  H   UNL A   1      39.635  31.586  33.325  1.00  0.00     0.167 HD
ATOM     48  C   UNL A   1      40.731  28.575  30.291  1.00  0.00     0.034 A 
ATOM     49  C   UNL A   1      39.794  32.838  35.820  1.00  0.00     0.034 A 
ATOM     50  C   UNL A   1      41.691  28.420  31.358  1.00  0.00     0.049 A 
ATOM     51  C   UNL A   1      40.900  31.814  35.776  1.00  0.00     0.074 A 
ATOM     52  C   UNL A   1      42.776  27.566  31.427  1.00  0.00     0.029 A 
ATOM     53  N   UNL A   1      41.678  29.141  32.547  1.00  0.00    -0.354 N 
ATOM     54  N   UNL A   1      41.202  30.963  34.822  1.00  0.00    -0.248 NA
ATOM     55  C   UNL A   1      41.783  31.746  36.946  1.00  0.00     0.031 C 
ATOM     56  C   UNL A   1      43.380  27.723  32.678  1.00  0.00     0.029 A 
ATOM     57  C   UNL A   1      42.722  28.732  33.362  1.00  0.00     0.049 A 
ATOM     58  H   UNL A   1      41.023  29.840  32.777  1.00  0.00     0.167 HD
ATOM     59  C   UNL A   1      42.331  30.282  35.266  1.00  0.00     0.074 A 
ATOM     60  C   UNL A   1      42.664  30.835  36.563  1.00  0.00     0.031 C 
ATOM     61  C   UNL A   1      43.034  29.291  34.658  1.00  0.00     0.034 A 
BRANCH  48  62
ATOM     62  C   UNL A   1      40.816  27.663  29.088  1.00  0.00     0.023 A 
ATOM     63  C   UNL A   1      41.770  27.864  28.073  1.00  0.00     0.031 A 
ATOM     64  C   UNL A   1      39.908  26.602  28.930  1.00  0.00     0.131 A 
ATOM     65  C   UNL A   1      41.738  27.076  26.913  1.00  0.00     0.055 A 
ATOM     66  C   UNL A   1      39.939  25.764  27.813  1.00  0.00     0.041 A 
ATOM     67  F   UNL A   1      38.959  26.370  29.852  1.00  0.00    -0.206 F 
ATOM     68  C   UNL A   1      40.846  26.010  26.787  1.00  0.00     0.022 A 
BRANCH  65  69
ATOM     69  S   UNL A   1      42.772  27.568  25.505  1.00  0.00     0.124 S 
ATOM     70  O   UNL A   1      42.705  26.377  24.661  1.00  0.00    -0.237 OA
ATOM     71  O   UNL A   1      42.079  28.748  25.001  1.00  0.00    -0.237 OA
ATOM     72  O   UNL A   1      44.078  27.820  26.111  1.00  0.00    -0.744 OA
ENDBRANCH  65  69
ENDBRANCH  48  62
BRANCH  49  73
ATOM     73  C   UNL A   1      39.592  33.693  37.025  1.00  0.00     0.023 A 
ATOM     74  C   UNL A   1      38.950  33.192  38.168  1.00  0.00     0.031 A 
ATOM     75  C   UNL A   1      40.004  35.038  37.039  1.00  0.00     0.131 A 
ATOM     76  C   UNL A   1      38.692  34.040  39.257  1.00  0.00     0.055 A 
ATOM     77  C   UNL A   1      39.795  35.863  38.146  1.00  0.00     0.041 A 
ATOM     78  F   UNL A   1      40.630  35.568  35.975  1.00  0.00    -0.206 F 
ATOM     79  C   UNL A   1      39.121  35.369  39.258  1.00  0.00     0.022 A 
BRANCH  76  80
ATOM     80  S   UNL A   1      37.705  33.403  40.640  1.00  0.00     0.124 S 
ATOM     81  O   UNL A   1      38.599  32.397  41.204  1.00  0.00    -0.237 OA
ATOM     82  O   UNL A   1      37.500  34.604  41.443  1.00  0.00    -0.237 OA
ATOM     83  O   UNL A   1      36.507  32.879  39.989  1.00  0.00    -0.744 OA
ENDBRANCH  76  80
ENDBRANCH  49  73
BRANCH  61  84
ATOM     84  C   UNL A   1      44.262  28.785  35.375  1.00  0.00     0.023 A 
ATOM     85  C   UNL A   1      44.192  27.752  36.326  1.00  0.00     0.031 A 
ATOM     86  C   UNL A   1      45.517  29.364  35.118  1.00  0.00     0.131 A 
ATOM     87  C   UNL A   1      45.343  27.375  37.033  1.00  0.00     0.055 A 
ATOM     88  C   UNL A   1      46.671  28.939  35.777  1.00  0.00     0.041 A 
ATOM     89  F   UNL A   1      45.643  30.356  34.222  1.00  0.00    -0.206 F 
ATOM     90  C   UNL A   1      46.586  27.949  36.752  1.00  0.00     0.022 A 
BRANCH  87  91
ATOM     91  S   UNL A   1      45.174  26.201  38.405  1.00  0.00     0.124 S 
ATOM     92  O   UNL A   1      44.790  24.976  37.711  1.00  0.00    -0.237 OA
ATOM     93  O   UNL A   1      46.511  26.210  38.988  1.00  0.00    -0.237 OA
ATOM     94  O   UNL A   1      44.130  26.795  39.238  1.00  0.00    -0.744 OA
ENDBRANCH  87  91
ENDBRANCH  61  84
ENDBRANCH  35  36
ENDBRANCH  27  30
ENDBRANCH  25  26
ENDBRANCH   1  25
TORSDOF 16
ENDMDL
MODEL 2
REMARK VINA RESULT:     -12.0      1.273      1.799
REMARK SMILES Cc1cc(C(=O)NCCCNC(=O)c2ccc(-c3c4nc(c(-c5cc(S(=O)(=O)[O-])ccc5F)c5ccc([nH]5)c(-c5cc(S(=O)(=O)[O-])ccc5F)c5nc(c(-c6cc(S(=O)(=O)[O-])ccc6F)c6ccc3[nH]6)C=C5)C=C4)cc2)cc(C)c1OC[C@H]1C[N@@H+](C)CCO1
REMARK SMILES IDX 9 1 8 2 7 3 5 4 6 5 4 7 1 8 2 9 3 10 80 11 78 12 77 13 79 14
REMARK SMILES IDX 81 15 82 16 83 17 84 18 89 19 85 20 88 21 86 22 87 23 10 25
REMARK SMILES IDX 11 26 12 27 13 29 14 30 15 31 76 32 16 33 75 34 17 35 18 36
REMARK SMILES IDX 19 37 69 38 20 39 74 40 68 41 70 42 21 43 73 44 67 45 66 46
REMARK SMILES IDX 22 48 54 49 34 50 53 51 35 52 38 53 52 54 71 55 36 56 37 57
REMARK SMILES IDX 51 59 72 60 39 61 23 62 24 63 32 64 25 65 31 66 33 67 30 68
REMARK SMILES IDX 26 69 27 70 28 71 29 72 55 73 56 74 64 75 57 76 63 77 65 78
REMARK SMILES IDX 62 79 58 80 59 81 60 82 61 83 40 84 41 85 49 86 42 87 48 88
REMARK SMILES IDX 50 89 47 90 43 91 44 92 45 93 46 94
REMARK H PARENT 7 6 85 24 11 28 70 47 38 58
REMARK Flexibility Score: inf
ROOT
ATOM      1  C   UNL A   1      31.712  32.139  26.896  1.00  0.00     0.042 C 
ENDROOT
BRANCH   1   2
ATOM      2  C   UNL A   1      31.920  30.633  26.918  1.00  0.00     0.118 C 
BRANCH   2   3
ATOM      3  N   UNL A   1      33.245  30.238  27.367  1.00  0.00    -0.352 N 
ATOM      4  C   UNL A   1      34.052  29.181  27.035  1.00  0.00     0.251 C 
ATOM      5  O   UNL A   1      35.108  29.034  27.651  1.00  0.00    -0.269 OA
ATOM      6  H   UNL A   1      33.638  30.843  28.038  1.00  0.00     0.163 HD
BRANCH   4   7
ATOM      7  C   UNL A   1      33.678  28.187  26.001  1.00  0.00     0.040 A 
ATOM      8  C   UNL A   1      31.793  24.940  26.164  1.00  0.00     0.048 C 
ATOM      9  C   UNL A   1      32.567  26.048  25.518  1.00  0.00    -0.008 A 
ATOM     10  C   UNL A   1      33.024  27.031  26.426  1.00  0.00     0.021 A 
ATOM     11  C   UNL A   1      32.817  26.216  24.147  1.00  0.00     0.125 A 
ATOM     12  C   UNL A   1      33.447  27.408  23.711  1.00  0.00    -0.008 A 
ATOM     13  C   UNL A   1      33.933  28.343  24.645  1.00  0.00     0.021 A 
ATOM     14  C   UNL A   1      33.494  27.812  22.258  1.00  0.00     0.048 C 
BRANCH  11  15
ATOM     15  O   UNL A   1      32.454  25.384  23.126  1.00  0.00    -0.490 OA
BRANCH  15  16
ATOM     16  C   UNL A   1      33.325  24.385  22.571  1.00  0.00     0.267 C 
BRANCH  16  17
ATOM     17  C   UNL A   1      34.470  23.871  23.467  1.00  0.00     0.210 C 
ATOM     18  C   UNL A   1      33.991  22.675  24.313  1.00  0.00     0.298 C 
ATOM     19  O   UNL A   1      35.570  23.381  22.653  1.00  0.00    -0.363 OA
ATOM     20  N   UNL A   1      35.041  22.374  25.299  1.00  0.00    -0.333 N 
ATOM     21  C   UNL A   1      36.653  22.921  23.490  1.00  0.00     0.222 C 
ATOM     22  C   UNL A   1      34.577  21.457  26.326  1.00  0.00     0.332 C 
ATOM     23  C   UNL A   1      36.215  21.890  24.559  1.00  0.00     0.290 C 
ATOM     24  H   UNL A   1      35.300  23.215  25.817  1.00  0.00     0.348 HD
ENDBRANCH  16  17
ENDBRANCH  15  16
ENDBRANCH  11  15
ENDBRANCH   4   7
ENDBRANCH   2   3
ENDBRANCH   1   2
BRANCH   1  25
ATOM     25  C   UNL A   1      32.979  32.955  27.091  1.00  0.00     0.118 C 
BRANCH  25  26
ATOM     26  N   UNL A   1      32.741  34.207  27.798  1.00  0.00    -0.352 N 
ATOM     27  C   UNL A   1      33.260  34.688  28.972  1.00  0.00     0.251 C 
ATOM     28  H   UNL A   1      32.099  34.810  27.357  1.00  0.00     0.163 HD
ATOM     29  O   UNL A   1      32.725  35.672  29.498  1.00  0.00    -0.269 OA
BRANCH  27  30
ATOM     30  C   UNL A   1      34.419  34.043  29.623  1.00  0.00     0.039 A 
ATOM     31  C   UNL A   1      35.712  34.398  29.228  1.00  0.00     0.014 A 
ATOM     32  C   UNL A   1      34.242  33.060  30.597  1.00  0.00     0.014 A 
ATOM     33  C   UNL A   1      36.817  33.816  29.855  1.00  0.00     0.010 A 
ATOM     34  C   UNL A   1      35.336  32.571  31.302  1.00  0.00     0.010 A 
ATOM     35  C   UNL A   1      36.639  32.925  30.925  1.00  0.00    -0.014 A 
BRANCH  35  36
ATOM     36  C   UNL A   1      37.795  32.314  31.634  1.00  0.00     0.031 A 
ATOM     37  C   UNL A   1      38.573  31.202  30.978  1.00  0.00     0.074 A 
ATOM     38  C   UNL A   1      38.098  32.707  32.887  1.00  0.00     0.049 A 
ATOM     39  N   UNL A   1      39.545  30.471  31.459  1.00  0.00    -0.248 NA
ATOM     40  C   UNL A   1      38.173  30.836  29.609  1.00  0.00     0.031 C 
ATOM     41  C   UNL A   1      37.384  33.737  33.648  1.00  0.00     0.029 A 
ATOM     42  N   UNL A   1      39.080  32.285  33.747  1.00  0.00    -0.354 N 
ATOM     43  C   UNL A   1      39.854  29.547  30.465  1.00  0.00     0.074 A 
ATOM     44  C   UNL A   1      38.914  29.762  29.387  1.00  0.00     0.031 C 
ATOM     45  C   UNL A   1      37.975  33.889  34.843  1.00  0.00     0.029 A 
ATOM     46  C   UNL A   1      39.075  32.938  34.959  1.00  0.00     0.049 A 
ATOM     47  H   UNL A   1      39.729  31.580  33.519  1.00  0.00     0.167 HD
ATOM     48  C   UNL A   1      40.848  28.625  30.440  1.00  0.00     0.034 A 
ATOM     49  C   UNL A   1      39.863  32.782  36.041  1.00  0.00     0.034 A 
ATOM     50  C   UNL A   1      41.795  28.445  31.515  1.00  0.00     0.049 A 
ATOM     51  C   UNL A   1      40.966  31.755  35.989  1.00  0.00     0.074 A 
ATOM     52  C   UNL A   1      42.876  27.584  31.579  1.00  0.00     0.029 A 
ATOM     53  N   UNL A   1      41.771  29.142  32.717  1.00  0.00    -0.354 N 
ATOM     54  N   UNL A   1      41.275  30.922  35.022  1.00  0.00    -0.248 NA
ATOM     55  C   UNL A   1      41.835  31.660  37.168  1.00  0.00     0.031 C 
ATOM     56  C   UNL A   1      43.466  27.715  32.840  1.00  0.00     0.029 A 
ATOM     57  C   UNL A   1      42.803  28.713  33.536  1.00  0.00     0.049 A 
ATOM     58  H   UNL A   1      41.116  29.839  32.953  1.00  0.00     0.167 HD
ATOM     59  C   UNL A   1      42.397  30.227  35.466  1.00  0.00     0.074 A 
ATOM     60  C   UNL A   1      42.717  30.753  36.777  1.00  0.00     0.031 C 
ATOM     61  C   UNL A   1      43.103  29.245  34.846  1.00  0.00     0.034 A 
BRANCH  48  62
ATOM     62  C   UNL A   1      40.944  27.736  29.220  1.00  0.00     0.023 A 
ATOM     63  C   UNL A   1      41.928  27.936  28.234  1.00  0.00     0.031 A 
ATOM     64  C   UNL A   1      40.017  26.699  29.017  1.00  0.00     0.131 A 
ATOM     65  C   UNL A   1      41.908  27.174  27.057  1.00  0.00     0.055 A 
ATOM     66  C   UNL A   1      40.058  25.884  27.883  1.00  0.00     0.041 A 
ATOM     67  F   UNL A   1      39.040  26.470  29.910  1.00  0.00    -0.206 F 
ATOM     68  C   UNL A   1      40.996  26.131  26.886  1.00  0.00     0.022 A 
BRANCH  65  69
ATOM     69  S   UNL A   1      42.988  27.671  25.686  1.00  0.00     0.124 S 
ATOM     70  O   UNL A   1      42.069  28.439  24.851  1.00  0.00    -0.237 OA
ATOM     71  O   UNL A   1      44.026  28.437  26.365  1.00  0.00    -0.237 OA
ATOM     72  O   UNL A   1      43.423  26.399  25.114  1.00  0.00    -0.744 OA
ENDBRANCH  65  69
ENDBRANCH  48  62
BRANCH  49  73
ATOM     73  C   UNL A   1      39.650  33.615  37.260  1.00  0.00     0.023 A 
ATOM     74  C   UNL A   1      38.876  33.143  38.331  1.00  0.00     0.031 A 
ATOM     75  C   UNL A   1      40.188  34.911  37.357  1.00  0.00     0.131 A 
ATOM     76  C   UNL A   1      38.616  33.978  39.429  1.00  0.00     0.055 A 
ATOM     77  C   UNL A   1      39.972  35.717  38.477  1.00  0.00     0.041 A 
ATOM     78  F   UNL A   1      40.942  35.410  36.365  1.00  0.00    -0.206 F 
ATOM     79  C   UNL A   1      39.169  35.256  39.515  1.00  0.00     0.022 A 
BRANCH  76  80
ATOM     80  S   UNL A   1      37.467  33.397  40.709  1.00  0.00     0.124 S 
ATOM     81  O   UNL A   1      38.290  32.433  41.431  1.00  0.00    -0.237 OA
ATOM     82  O   UNL A   1      37.155  34.634  41.418  1.00  0.00    -0.237 OA
ATOM     83  O   UNL A   1      36.364  32.825  39.941  1.00  0.00    -0.744 OA
ENDBRANCH  76  80
ENDBRANCH  49  73
BRANCH  61  84
ATOM     84  C   UNL A   1      44.320  28.720  35.568  1.00  0.00     0.023 A 
ATOM     85  C   UNL A   1      44.231  27.689  36.519  1.00  0.00     0.031 A 
ATOM     86  C   UNL A   1      45.585  29.279  35.315  1.00  0.00     0.131 A 
ATOM     87  C   UNL A   1      45.373  27.293  37.229  1.00  0.00     0.055 A 
ATOM     88  C   UNL A   1      46.730  28.836  35.978  1.00  0.00     0.041 A 
ATOM     89  F   UNL A   1      45.729  30.269  34.419  1.00  0.00    -0.206 F 
ATOM     90  C   UNL A   1      46.625  27.847  36.953  1.00  0.00     0.022 A 
BRANCH  87  91
ATOM     91  S   UNL A   1      45.181  26.122  38.601  1.00  0.00     0.124 S 
ATOM     92  O   UNL A   1      44.182  26.786  39.429  1.00  0.00    -0.237 OA
ATOM     93  O   UNL A   1      44.740  24.912  37.917  1.00  0.00    -0.237 OA
ATOM     94  O   UNL A   1      46.521  26.052  39.181  1.00  0.00    -0.744 OA
ENDBRANCH  87  91
ENDBRANCH  61  84
ENDBRANCH  35  36
ENDBRANCH  27  30
ENDBRANCH  25  26
ENDBRANCH   1  25
TORSDOF 16
ENDMDL
MODEL 3
REMARK VINA RESULT:     -12.0      5.747     11.843
REMARK SMILES Cc1cc(C(=O)NCCCNC(=O)c2ccc(-c3c4nc(c(-c5cc(S(=O)(=O)[O-])ccc5F)c5ccc([nH]5)c(-c5cc(S(=O)(=O)[O-])ccc5F)c5nc(c(-c6cc(S(=O)(=O)[O-])ccc6F)c6ccc3[nH]6)C=C5)C=C4)cc2)cc(C)c1OC[C@H]1C[N@@H+](C)CCO1
REMARK SMILES IDX 9 1 8 2 7 3 5 4 6 5 4 7 1 8 2 9 3 10 80 11 78 12 77 13 79 14
REMARK SMILES IDX 81 15 82 16 83 17 84 18 89 19 85 20 88 21 86 22 87 23 10 25
REMARK SMILES IDX 11 26 12 27 13 29 14 30 15 31 76 32 16 33 75 34 17 35 18 36
REMARK SMILES IDX 19 37 69 38 20 39 74 40 68 41 70 42 21 43 73 44 67 45 66 46
REMARK SMILES IDX 22 48 54 49 34 50 53 51 35 52 38 53 52 54 71 55 36 56 37 57
REMARK SMILES IDX 51 59 72 60 39 61 23 62 24 63 32 64 25 65 31 66 33 67 30 68
REMARK SMILES IDX 26 69 27 70 28 71 29 72 55 73 56 74 64 75 57 76 63 77 65 78
REMARK SMILES IDX 62 79 58 80 59 81 60 82 61 83 40 84 41 85 49 86 42 87 48 88
REMARK SMILES IDX 50 89 47 90 43 91 44 92 45 93 46 94
REMARK H PARENT 7 6 85 24 11 28 70 47 38 58
REMARK Flexibility Score: inf
ROOT
ATOM      1  C   UNL A   1      38.502  19.643  25.064  1.00  0.00     0.042 C 
ENDROOT
BRANCH   1   2
ATOM      2  C   UNL A   1      37.642  20.846  24.709  1.00  0.00     0.118 C 
BRANCH   2   3
ATOM      3  N   UNL A   1      38.130  22.093  25.275  1.00  0.00    -0.352 N 
ATOM      4  C   UNL A   1      37.487  23.238  25.668  1.00  0.00     0.251 C 
ATOM      5  O   UNL A   1      38.168  24.197  26.033  1.00  0.00    -0.269 OA
ATOM      6  H   UNL A   1      39.106  22.122  25.400  1.00  0.00     0.163 HD
BRANCH   4   7
ATOM      7  C   UNL A   1      36.012  23.380  25.623  1.00  0.00     0.040 A 
ATOM      8  C   UNL A   1      33.628  24.256  22.853  1.00  0.00     0.048 C 
ATOM      9  C   UNL A   1      34.042  23.902  24.248  1.00  0.00    -0.008 A 
ATOM     10  C   UNL A   1      35.442  23.795  24.420  1.00  0.00     0.021 A 
ATOM     11  C   UNL A   1      33.197  23.625  25.335  1.00  0.00     0.125 A 
ATOM     12  C   UNL A   1      33.774  23.166  26.545  1.00  0.00    -0.008 A 
ATOM     13  C   UNL A   1      35.173  23.118  26.698  1.00  0.00     0.021 A 
ATOM     14  C   UNL A   1      32.948  22.569  27.657  1.00  0.00     0.048 C 
BRANCH  11  15
ATOM     15  O   UNL A   1      31.833  23.670  25.362  1.00  0.00    -0.490 OA
BRANCH  15  16
ATOM     16  C   UNL A   1      31.080  24.893  25.325  1.00  0.00     0.267 C 
BRANCH  16  17
ATOM     17  C   UNL A   1      31.761  26.158  25.883  1.00  0.00     0.210 C 
ATOM     18  C   UNL A   1      31.880  27.232  24.783  1.00  0.00     0.298 C 
ATOM     19  O   UNL A   1      30.955  26.745  26.941  1.00  0.00    -0.363 OA
ATOM     20  N   UNL A   1      32.730  28.314  25.303  1.00  0.00    -0.333 N 
ATOM     21  C   UNL A   1      31.604  27.916  27.481  1.00  0.00     0.222 C 
ATOM     22  C   UNL A   1      33.140  29.236  24.257  1.00  0.00     0.332 C 
ATOM     23  C   UNL A   1      32.000  28.957  26.406  1.00  0.00     0.290 C 
ATOM     24  H   UNL A   1      33.609  27.941  25.662  1.00  0.00     0.348 HD
ENDBRANCH  16  17
ENDBRANCH  15  16
ENDBRANCH  11  15
ENDBRANCH   4   7
ENDBRANCH   2   3
ENDBRANCH   1   2
BRANCH   1  25
ATOM     25  C   UNL A   1      39.526  19.898  26.158  1.00  0.00     0.118 C 
BRANCH  25  26
ATOM     26  N   UNL A   1      40.731  19.095  26.002  1.00  0.00    -0.352 N 
ATOM     27  C   UNL A   1      42.048  19.462  25.904  1.00  0.00     0.251 C 
ATOM     28  H   UNL A   1      40.573  18.124  25.960  1.00  0.00     0.163 HD
ATOM     29  O   UNL A   1      42.874  18.618  25.533  1.00  0.00    -0.269 OA
BRANCH  27  30
ATOM     30  C   UNL A   1      42.488  20.839  26.208  1.00  0.00     0.039 A 
ATOM     31  C   UNL A   1      42.697  21.214  27.539  1.00  0.00     0.014 A 
ATOM     32  C   UNL A   1      42.662  21.781  25.193  1.00  0.00     0.014 A 
ATOM     33  C   UNL A   1      43.140  22.505  27.838  1.00  0.00     0.010 A 
ATOM     34  C   UNL A   1      43.215  23.023  25.480  1.00  0.00     0.010 A 
ATOM     35  C   UNL A   1      43.441  23.411  26.808  1.00  0.00    -0.014 A 
BRANCH  35  36
ATOM     36  C   UNL A   1      43.945  24.780  27.093  1.00  0.00     0.031 A 
ATOM     37  C   UNL A   1      43.005  25.825  27.639  1.00  0.00     0.074 A 
ATOM     38  C   UNL A   1      45.219  25.102  26.796  1.00  0.00     0.049 A 
ATOM     39  N   UNL A   1      43.215  27.097  27.863  1.00  0.00    -0.248 NA
ATOM     40  C   UNL A   1      41.631  25.387  27.933  1.00  0.00     0.031 C 
ATOM     41  C   UNL A   1      46.209  24.191  26.214  1.00  0.00     0.029 A 
ATOM     42  N   UNL A   1      45.903  26.283  26.935  1.00  0.00    -0.354 N 
ATOM     43  C   UNL A   1      41.998  27.612  28.298  1.00  0.00     0.074 A 
ATOM     44  C   UNL A   1      41.038  26.532  28.232  1.00  0.00     0.031 C 
ATOM     45  C   UNL A   1      47.378  24.838  26.081  1.00  0.00     0.029 A 
ATOM     46  C   UNL A   1      47.212  26.219  26.518  1.00  0.00     0.049 A 
ATOM     47  H   UNL A   1      45.493  27.102  27.300  1.00  0.00     0.167 HD
ATOM     48  C   UNL A   1      41.713  28.862  28.740  1.00  0.00     0.034 A 
ATOM     49  C   UNL A   1      48.168  27.169  26.487  1.00  0.00     0.034 A 
ATOM     50  C   UNL A   1      42.691  29.919  28.824  1.00  0.00     0.049 A 
ATOM     51  C   UNL A   1      47.831  28.550  26.988  1.00  0.00     0.074 A 
ATOM     52  C   UNL A   1      42.534  31.206  29.307  1.00  0.00     0.029 A 
ATOM     53  N   UNL A   1      44.015  29.810  28.414  1.00  0.00    -0.354 N 
ATOM     54  N   UNL A   1      46.687  29.009  27.442  1.00  0.00    -0.248 NA
ATOM     55  C   UNL A   1      48.918  29.536  26.988  1.00  0.00     0.031 C 
ATOM     56  C   UNL A   1      43.741  31.891  29.131  1.00  0.00     0.029 A 
ATOM     57  C   UNL A   1      44.676  31.011  28.611  1.00  0.00     0.049 A 
ATOM     58  H   UNL A   1      44.424  28.996  28.038  1.00  0.00     0.167 HD
ATOM     59  C   UNL A   1      46.929  30.329  27.813  1.00  0.00     0.074 A 
ATOM     60  C   UNL A   1      48.330  30.583  27.546  1.00  0.00     0.031 C 
ATOM     61  C   UNL A   1      46.074  31.249  28.331  1.00  0.00     0.034 A 
BRANCH  48  62
ATOM     62  C   UNL A   1      40.284  29.149  29.146  1.00  0.00     0.023 A 
ATOM     63  C   UNL A   1      39.881  29.133  30.494  1.00  0.00     0.031 A 
ATOM     64  C   UNL A   1      39.302  29.403  28.172  1.00  0.00     0.131 A 
ATOM     65  C   UNL A   1      38.524  29.278  30.823  1.00  0.00     0.055 A 
ATOM     66  C   UNL A   1      37.968  29.637  28.514  1.00  0.00     0.041 A 
ATOM     67  F   UNL A   1      39.618  29.411  26.867  1.00  0.00    -0.206 F 
ATOM     68  C   UNL A   1      37.569  29.557  29.845  1.00  0.00     0.022 A 
BRANCH  65  69
ATOM     69  S   UNL A   1      38.008  28.939  32.529  1.00  0.00     0.124 S 
ATOM     70  O   UNL A   1      39.011  29.677  33.292  1.00  0.00    -0.237 OA
ATOM     71  O   UNL A   1      36.654  29.480  32.561  1.00  0.00    -0.237 OA
ATOM     72  O   UNL A   1      38.103  27.485  32.633  1.00  0.00    -0.744 OA
ENDBRANCH  65  69
ENDBRANCH  48  62
BRANCH  49  73
ATOM     73  C   UNL A   1      49.532  26.854  25.972  1.00  0.00     0.023 A 
ATOM     74  C   UNL A   1      49.923  27.238  24.679  1.00  0.00     0.031 A 
ATOM     75  C   UNL A   1      50.455  26.132  26.751  1.00  0.00     0.131 A 
ATOM     76  C   UNL A   1      51.179  26.854  24.183  1.00  0.00     0.055 A 
ATOM     77  C   UNL A   1      51.724  25.801  26.273  1.00  0.00     0.041 A 
ATOM     78  F   UNL A   1      50.136  25.746  27.997  1.00  0.00    -0.206 F 
ATOM     79  C   UNL A   1      52.087  26.149  24.976  1.00  0.00     0.022 A 
BRANCH  76  80
ATOM     80  S   UNL A   1      51.576  27.215  22.450  1.00  0.00     0.124 S 
ATOM     81  O   UNL A   1      51.884  28.640  22.507  1.00  0.00    -0.237 OA
ATOM     82  O   UNL A   1      52.705  26.323  22.206  1.00  0.00    -0.237 OA
ATOM     83  O   UNL A   1      50.346  26.870  21.741  1.00  0.00    -0.744 OA
ENDBRANCH  76  80
ENDBRANCH  49  73
BRANCH  61  84
ATOM     84  C   UNL A   1      46.653  32.596  28.687  1.00  0.00     0.023 A 
ATOM     85  C   UNL A   1      46.603  33.683  27.798  1.00  0.00     0.031 A 
ATOM     86  C   UNL A   1      47.288  32.785  29.928  1.00  0.00     0.131 A 
ATOM     87  C   UNL A   1      47.232  34.891  28.135  1.00  0.00     0.055 A 
ATOM     88  C   UNL A   1      47.855  34.009  30.285  1.00  0.00     0.041 A 
ATOM     89  F   UNL A   1      47.368  31.780  30.815  1.00  0.00    -0.206 F 
ATOM     90  C   UNL A   1      47.843  35.066  29.379  1.00  0.00     0.022 A 
BRANCH  87  91
ATOM     91  S   UNL A   1      47.341  36.194  26.878  1.00  0.00     0.124 S 
ATOM     92  O   UNL A   1      47.728  35.440  25.691  1.00  0.00    -0.237 OA
ATOM     93  O   UNL A   1      45.986  36.736  26.874  1.00  0.00    -0.237 OA
ATOM     94  O   UNL A   1      48.366  37.093  27.404  1.00  0.00    -0.744 OA
ENDBRANCH  87  91
ENDBRANCH  61  84
ENDBRANCH  35  36
ENDBRANCH  27  30
ENDBRANCH  25  26
ENDBRANCH   1  25
TORSDOF 16
ENDMDL
