MODEL 1
REMARK VINA RESULT:     -10.8      0.000      0.000
REMARK SMILES CN(CC1CCC1)C(=O)N(CC(=O)NCCCNC(=O)c1ccc(-c2c3nc(c(-c4cc(S(=O)(=O)[O-])ccc4F)c4ccc([nH]4)c(-c4cc(S(=O)(=O)[O-])ccc4F)c4nc(c(-c5cc(S(=O)(=O)[O-])ccc5F)c5ccc2[nH]5)C=C4)C=C3)cc1)C(C)(C)C
REMARK SMILES IDX 15 1 14 2 12 3 13 4 11 6 10 7 8 8 9 9 2 10 1 11 3 12 4 13
REMARK SMILES IDX 5 14 7 15 6 16 84 17 85 18 86 19 87 20 16 21 17 22 18 23
REMARK SMILES IDX 19 24 20 26 21 27 22 28 83 29 23 30 82 31 24 32 25 33 26 34
REMARK SMILES IDX 76 35 27 36 81 37 75 38 77 39 28 40 80 41 74 42 73 43 29 45
REMARK SMILES IDX 61 46 41 47 60 48 42 49 45 50 59 51 78 52 43 53 44 54 58 56
REMARK SMILES IDX 79 57 46 58 30 59 31 60 39 61 32 62 38 63 40 64 37 65 33 66
REMARK SMILES IDX 34 67 35 68 36 69 62 70 63 71 71 72 64 73 70 74 72 75 69 76
REMARK SMILES IDX 65 77 66 78 67 79 68 80 47 81 48 82 56 83 49 84 55 85 57 86
REMARK SMILES IDX 54 87 50 88 51 89 52 90 53 91
REMARK H PARENT 14 5 18 25 77 44 45 55
REMARK Flexibility Score: inf
ROOT
ATOM      1  C   UNL A   1      32.208  27.670  27.115  1.00  0.00     0.117 C 
ENDROOT
BRANCH   1   2
ATOM      2  N   UNL A   1      31.199  26.692  26.768  1.00  0.00    -0.354 N 
ATOM      3  C   UNL A   1      31.362  25.385  26.433  1.00  0.00     0.239 C 
ATOM      4  O   UNL A   1      30.368  24.653  26.494  1.00  0.00    -0.273 OA
ATOM      5  H   UNL A   1      30.270  27.018  26.776  1.00  0.00     0.163 HD
BRANCH   3   6
ATOM      6  C   UNL A   1      32.751  24.786  26.197  1.00  0.00     0.221 C 
BRANCH   6   7
ATOM      7  N   UNL A   1      33.224  24.443  24.848  1.00  0.00    -0.311 N 
BRANCH   7   8
ATOM      8  C   UNL A   1      32.518  24.768  23.686  1.00  0.00     0.320 C 
ATOM      9  O   UNL A   1      31.715  23.968  23.195  1.00  0.00    -0.248 OA
BRANCH   8  10
ATOM     10  N   UNL A   1      32.636  26.029  23.096  1.00  0.00    -0.327 N 
ATOM     11  C   UNL A   1      33.665  26.879  23.699  1.00  0.00     0.148 C 
BRANCH  10  12
ATOM     12  C   UNL A   1      31.609  26.749  22.328  1.00  0.00     0.124 C 
BRANCH  12  13
ATOM     13  C   UNL A   1      30.798  27.698  23.238  1.00  0.00     0.008 C 
ATOM     14  C   UNL A   1      30.412  29.135  22.808  1.00  0.00     0.005 C 
ATOM     15  C   UNL A   1      29.286  27.386  23.404  1.00  0.00     0.005 C 
ATOM     16  C   UNL A   1      28.927  28.813  22.971  1.00  0.00     0.001 C 
ENDBRANCH  12  13
ENDBRANCH  10  12
ENDBRANCH   8  10
ENDBRANCH   7   8
BRANCH   7  17
ATOM     17  C   UNL A   1      34.400  23.481  24.747  1.00  0.00     0.037 C 
ATOM     18  C   UNL A   1      34.049  22.103  25.349  1.00  0.00     0.034 C 
ATOM     19  C   UNL A   1      34.854  23.286  23.280  1.00  0.00     0.034 C 
ATOM     20  C   UNL A   1      35.670  23.979  25.491  1.00  0.00     0.034 C 
ENDBRANCH   7  17
ENDBRANCH   6   7
ENDBRANCH   3   6
ENDBRANCH   1   2
BRANCH   1  21
ATOM     21  C   UNL A   1      31.809  29.088  26.789  1.00  0.00     0.042 C 
BRANCH  21  22
ATOM     22  C   UNL A   1      33.002  29.948  26.431  1.00  0.00     0.118 C 
BRANCH  22  23
ATOM     23  N   UNL A   1      32.884  31.330  26.891  1.00  0.00    -0.352 N 
ATOM     24  C   UNL A   1      33.757  32.065  27.659  1.00  0.00     0.251 C 
ATOM     25  H   UNL A   1      32.064  31.801  26.613  1.00  0.00     0.163 HD
ATOM     26  O   UNL A   1      33.434  33.170  28.081  1.00  0.00    -0.269 OA
BRANCH  24  27
ATOM     27  C   UNL A   1      35.065  31.470  27.999  1.00  0.00     0.039 A 
ATOM     28  C   UNL A   1      36.202  32.275  28.043  1.00  0.00     0.014 A 
ATOM     29  C   UNL A   1      35.126  30.135  28.396  1.00  0.00     0.014 A 
ATOM     30  C   UNL A   1      37.380  31.757  28.583  1.00  0.00     0.010 A 
ATOM     31  C   UNL A   1      36.239  29.685  29.084  1.00  0.00     0.010 A 
ATOM     32  C   UNL A   1      37.393  30.477  29.161  1.00  0.00    -0.014 A 
BRANCH  32  33
ATOM     33  C   UNL A   1      38.607  29.912  29.809  1.00  0.00     0.031 A 
ATOM     34  C   UNL A   1      38.992  30.384  31.189  1.00  0.00     0.074 A 
ATOM     35  C   UNL A   1      39.396  29.049  29.138  1.00  0.00     0.049 A 
ATOM     36  N   UNL A   1      40.064  30.118  31.889  1.00  0.00    -0.248 NA
ATOM     37  C   UNL A   1      38.079  31.339  31.841  1.00  0.00     0.031 C 
ATOM     38  C   UNL A   1      39.173  28.579  27.767  1.00  0.00     0.029 A 
ATOM     39  N   UNL A   1      40.549  28.412  29.519  1.00  0.00    -0.354 N 
ATOM     40  C   UNL A   1      39.968  30.902  33.035  1.00  0.00     0.074 A 
ATOM     41  C   UNL A   1      38.793  31.729  32.882  1.00  0.00     0.031 C 
ATOM     42  C   UNL A   1      40.124  27.687  27.446  1.00  0.00     0.029 A 
ATOM     43  C   UNL A   1      41.051  27.554  28.565  1.00  0.00     0.049 A 
ATOM     44  H   UNL A   1      40.979  28.553  30.393  1.00  0.00     0.167 HD
ATOM     45  C   UNL A   1      40.757  30.899  34.138  1.00  0.00     0.034 A 
ATOM     46  C   UNL A   1      42.133  26.751  28.596  1.00  0.00     0.034 A 
ATOM     47  C   UNL A   1      41.887  30.023  34.293  1.00  0.00     0.049 A 
ATOM     48  C   UNL A   1      42.976  26.729  29.847  1.00  0.00     0.074 A 
ATOM     49  C   UNL A   1      42.721  29.872  35.386  1.00  0.00     0.029 A 
ATOM     50  N   UNL A   1      42.337  29.135  33.323  1.00  0.00    -0.354 N 
ATOM     51  N   UNL A   1      42.840  27.436  30.947  1.00  0.00    -0.248 NA
ATOM     52  C   UNL A   1      44.105  25.793  29.866  1.00  0.00     0.031 C 
ATOM     53  C   UNL A   1      43.706  28.934  35.058  1.00  0.00     0.029 A 
ATOM     54  C   UNL A   1      43.445  28.446  33.787  1.00  0.00     0.049 A 
ATOM     55  H   UNL A   1      41.928  29.014  32.436  1.00  0.00     0.167 HD
ATOM     56  C   UNL A   1      43.848  27.000  31.803  1.00  0.00     0.074 A 
ATOM     57  C   UNL A   1      44.571  25.964  31.095  1.00  0.00     0.031 C 
ATOM     58  C   UNL A   1      44.149  27.414  33.060  1.00  0.00     0.034 A 
BRANCH  45  59
ATOM     59  C   UNL A   1      40.409  31.873  35.241  1.00  0.00     0.023 A 
ATOM     60  C   UNL A   1      39.454  31.561  36.227  1.00  0.00     0.031 A 
ATOM     61  C   UNL A   1      40.987  33.153  35.275  1.00  0.00     0.131 A 
ATOM     62  C   UNL A   1      39.029  32.545  37.131  1.00  0.00     0.055 A 
ATOM     63  C   UNL A   1      40.632  34.097  36.242  1.00  0.00     0.041 A 
ATOM     64  F   UNL A   1      41.890  33.521  34.352  1.00  0.00    -0.206 F 
ATOM     65  C   UNL A   1      39.632  33.804  37.164  1.00  0.00     0.022 A 
BRANCH  62  66
ATOM     66  S   UNL A   1      37.557  32.214  38.138  1.00  0.00     0.124 S 
ATOM     67  O   UNL A   1      37.395  30.772  37.955  1.00  0.00    -0.237 OA
ATOM     68  O   UNL A   1      37.978  32.644  39.466  1.00  0.00    -0.237 OA
ATOM     69  O   UNL A   1      36.521  33.033  37.513  1.00  0.00    -0.744 OA
ENDBRANCH  62  66
ENDBRANCH  45  59
BRANCH  46  70
ATOM     70  C   UNL A   1      42.467  25.882  27.431  1.00  0.00     0.023 A 
ATOM     71  C   UNL A   1      42.018  24.552  27.371  1.00  0.00     0.031 A 
ATOM     72  C   UNL A   1      43.265  26.354  26.375  1.00  0.00     0.131 A 
ATOM     73  C   UNL A   1      42.407  23.727  26.305  1.00  0.00     0.055 A 
ATOM     74  C   UNL A   1      43.608  25.545  25.290  1.00  0.00     0.041 A 
ATOM     75  F   UNL A   1      43.714  27.619  26.376  1.00  0.00    -0.206 F 
ATOM     76  C   UNL A   1      43.189  24.217  25.257  1.00  0.00     0.022 A 
BRANCH  73  77
ATOM     77  S   UNL A   1      41.939  21.975  26.346  1.00  0.00     0.124 S 
ATOM     78  O   UNL A   1      42.728  21.431  25.247  1.00  0.00    -0.237 OA
ATOM     79  O   UNL A   1      42.352  21.582  27.689  1.00  0.00    -0.237 OA
ATOM     80  O   UNL A   1      40.495  22.002  26.124  1.00  0.00    -0.744 OA
ENDBRANCH  73  77
ENDBRANCH  46  70
BRANCH  58  81
ATOM     81  C   UNL A   1      45.274  26.701  33.765  1.00  0.00     0.023 A 
ATOM     82  C   UNL A   1      45.067  25.498  34.460  1.00  0.00     0.031 A 
ATOM     83  C   UNL A   1      46.573  27.239  33.737  1.00  0.00     0.131 A 
ATOM     84  C   UNL A   1      46.133  24.900  35.147  1.00  0.00     0.055 A 
ATOM     85  C   UNL A   1      47.642  26.606  34.371  1.00  0.00     0.041 A 
ATOM     86  F   UNL A   1      46.824  28.386  33.086  1.00  0.00    -0.206 F 
ATOM     87  C   UNL A   1      47.422  25.437  35.093  1.00  0.00     0.022 A 
BRANCH  84  88
ATOM     88  S   UNL A   1      45.793  23.456  36.190  1.00  0.00     0.124 S 
ATOM     89  O   UNL A   1      44.431  23.109  35.794  1.00  0.00    -0.237 OA
ATOM     90  O   UNL A   1      46.834  22.521  35.778  1.00  0.00    -0.237 OA
ATOM     91  O   UNL A   1      45.930  23.975  37.550  1.00  0.00    -0.744 OA
ENDBRANCH  84  88
ENDBRANCH  58  81
ENDBRANCH  32  33
ENDBRANCH  24  27
ENDBRANCH  22  23
ENDBRANCH  21  22
ENDBRANCH   1  21
TORSDOF 19
ENDMDL
MODEL 2
REMARK VINA RESULT:     -10.8      2.231      3.551
REMARK SMILES CN(CC1CCC1)C(=O)N(CC(=O)NCCCNC(=O)c1ccc(-c2c3nc(c(-c4cc(S(=O)(=O)[O-])ccc4F)c4ccc([nH]4)c(-c4cc(S(=O)(=O)[O-])ccc4F)c4nc(c(-c5cc(S(=O)(=O)[O-])ccc5F)c5ccc2[nH]5)C=C4)C=C3)cc1)C(C)(C)C
REMARK SMILES IDX 15 1 14 2 12 3 13 4 11 6 10 7 8 8 9 9 2 10 1 11 3 12 4 13
REMARK SMILES IDX 5 14 7 15 6 16 84 17 85 18 86 19 87 20 16 21 17 22 18 23
REMARK SMILES IDX 19 24 20 26 21 27 22 28 83 29 23 30 82 31 24 32 25 33 26 34
REMARK SMILES IDX 76 35 27 36 81 37 75 38 77 39 28 40 80 41 74 42 73 43 29 45
REMARK SMILES IDX 61 46 41 47 60 48 42 49 45 50 59 51 78 52 43 53 44 54 58 56
REMARK SMILES IDX 79 57 46 58 30 59 31 60 39 61 32 62 38 63 40 64 37 65 33 66
REMARK SMILES IDX 34 67 35 68 36 69 62 70 63 71 71 72 64 73 70 74 72 75 69 76
REMARK SMILES IDX 65 77 66 78 67 79 68 80 47 81 48 82 56 83 49 84 55 85 57 86
REMARK SMILES IDX 54 87 50 88 51 89 52 90 53 91
REMARK H PARENT 14 5 18 25 77 44 45 55
REMARK Flexibility Score: inf
ROOT
ATOM      1  C   UNL A   1      32.278  27.530  26.019  1.00  0.00     0.117 C 
ENDROOT
BRANCH   1   2
ATOM      2  N   UNL A   1      31.482  26.408  26.469  1.00  0.00    -0.354 N 
ATOM      3  C   UNL A   1      31.825  25.095  26.532  1.00  0.00     0.239 C 
ATOM      4  O   UNL A   1      31.131  24.359  27.242  1.00  0.00    -0.273 OA
ATOM      5  H   UNL A   1      30.570  26.626  26.769  1.00  0.00     0.163 HD
BRANCH   3   6
ATOM      6  C   UNL A   1      33.135  24.579  25.930  1.00  0.00     0.221 C 
BRANCH   6   7
ATOM      7  N   UNL A   1      33.154  23.484  24.949  1.00  0.00    -0.311 N 
BRANCH   7   8
ATOM      8  C   UNL A   1      32.838  22.162  25.274  1.00  0.00     0.320 C 
ATOM      9  O   UNL A   1      31.673  21.757  25.198  1.00  0.00    -0.248 OA
BRANCH   8  10
ATOM     10  N   UNL A   1      33.833  21.242  25.612  1.00  0.00    -0.327 N 
ATOM     11  C   UNL A   1      34.608  21.604  26.801  1.00  0.00     0.148 C 
BRANCH  10  12
ATOM     12  C   UNL A   1      34.487  20.274  24.718  1.00  0.00     0.124 C 
BRANCH  12  13
ATOM     13  C   UNL A   1      33.706  18.941  24.675  1.00  0.00     0.008 C 
ATOM     14  C   UNL A   1      32.726  18.588  23.529  1.00  0.00     0.005 C 
ATOM     15  C   UNL A   1      34.518  17.666  24.319  1.00  0.00     0.005 C 
ATOM     16  C   UNL A   1      33.537  17.339  23.186  1.00  0.00     0.001 C 
ENDBRANCH  12  13
ENDBRANCH  10  12
ENDBRANCH   8  10
ENDBRANCH   7   8
BRANCH   7  17
ATOM     17  C   UNL A   1      33.782  23.776  23.593  1.00  0.00     0.037 C 
ATOM     18  C   UNL A   1      33.155  22.899  22.487  1.00  0.00     0.034 C 
ATOM     19  C   UNL A   1      33.627  25.266  23.201  1.00  0.00     0.034 C 
ATOM     20  C   UNL A   1      35.313  23.513  23.552  1.00  0.00     0.034 C 
ENDBRANCH   7  17
ENDBRANCH   6   7
ENDBRANCH   3   6
ENDBRANCH   1   2
BRANCH   1  21
ATOM     21  C   UNL A   1      33.430  27.858  26.937  1.00  0.00     0.042 C 
BRANCH  21  22
ATOM     22  C   UNL A   1      34.330  28.930  26.361  1.00  0.00     0.118 C 
BRANCH  22  23
ATOM     23  N   UNL A   1      33.894  30.289  26.681  1.00  0.00    -0.352 N 
ATOM     24  C   UNL A   1      34.400  31.163  27.615  1.00  0.00     0.251 C 
ATOM     25  H   UNL A   1      33.133  30.625  26.154  1.00  0.00     0.163 HD
ATOM     26  O   UNL A   1      33.820  32.216  27.859  1.00  0.00    -0.269 OA
BRANCH  24  27
ATOM     27  C   UNL A   1      35.622  30.778  28.347  1.00  0.00     0.039 A 
ATOM     28  C   UNL A   1      35.549  29.840  29.375  1.00  0.00     0.014 A 
ATOM     29  C   UNL A   1      36.858  31.261  27.917  1.00  0.00     0.014 A 
ATOM     30  C   UNL A   1      36.731  29.317  29.903  1.00  0.00     0.010 A 
ATOM     31  C   UNL A   1      38.013  30.617  28.319  1.00  0.00     0.010 A 
ATOM     32  C   UNL A   1      37.971  29.657  29.340  1.00  0.00    -0.014 A 
BRANCH  32  33
ATOM     33  C   UNL A   1      39.249  29.071  29.825  1.00  0.00     0.031 A 
ATOM     34  C   UNL A   1      39.918  29.667  31.039  1.00  0.00     0.074 A 
ATOM     35  C   UNL A   1      39.843  28.073  29.140  1.00  0.00     0.049 A 
ATOM     36  N   UNL A   1      41.085  29.395  31.562  1.00  0.00    -0.248 NA
ATOM     37  C   UNL A   1      39.206  30.765  31.716  1.00  0.00     0.031 C 
ATOM     38  C   UNL A   1      39.335  27.467  27.906  1.00  0.00     0.029 A 
ATOM     39  N   UNL A   1      41.006  27.389  29.386  1.00  0.00    -0.354 N 
ATOM     40  C   UNL A   1      41.257  30.312  32.594  1.00  0.00     0.074 A 
ATOM     41  C   UNL A   1      40.127  31.211  32.551  1.00  0.00     0.031 C 
ATOM     42  C   UNL A   1      40.151  26.466  27.537  1.00  0.00     0.029 A 
ATOM     43  C   UNL A   1      41.264  26.387  28.477  1.00  0.00     0.049 A 
ATOM     44  H   UNL A   1      41.601  27.595  30.142  1.00  0.00     0.167 HD
ATOM     45  C   UNL A   1      42.239  30.371  33.527  1.00  0.00     0.034 A 
ATOM     46  C   UNL A   1      42.281  25.505  28.416  1.00  0.00     0.034 A 
ATOM     47  C   UNL A   1      43.323  29.427  33.588  1.00  0.00     0.049 A 
ATOM     48  C   UNL A   1      43.343  25.558  29.486  1.00  0.00     0.074 A 
ATOM     49  C   UNL A   1      44.339  29.334  34.522  1.00  0.00     0.029 A 
ATOM     50  N   UNL A   1      43.525  28.397  32.677  1.00  0.00    -0.354 N 
ATOM     51  N   UNL A   1      43.463  26.397  30.491  1.00  0.00    -0.248 NA
ATOM     52  C   UNL A   1      44.396  24.538  29.422  1.00  0.00     0.031 C 
ATOM     53  C   UNL A   1      45.184  28.285  34.147  1.00  0.00     0.029 A 
ATOM     54  C   UNL A   1      44.657  27.675  33.018  1.00  0.00     0.049 A 
ATOM     55  H   UNL A   1      42.949  28.209  31.902  1.00  0.00     0.167 HD
ATOM     56  C   UNL A   1      44.586  25.980  31.199  1.00  0.00     0.074 A 
ATOM     57  C   UNL A   1      45.097  24.811  30.513  1.00  0.00     0.031 C 
ATOM     58  C   UNL A   1      45.145  26.510  32.317  1.00  0.00     0.034 A 
BRANCH  45  59
ATOM     59  C   UNL A   1      42.168  31.493  34.539  1.00  0.00     0.023 A 
ATOM     60  C   UNL A   1      41.227  31.483  35.587  1.00  0.00     0.031 A 
ATOM     61  C   UNL A   1      43.003  32.617  34.422  1.00  0.00     0.131 A 
ATOM     62  C   UNL A   1      41.071  32.613  36.402  1.00  0.00     0.055 A 
ATOM     63  C   UNL A   1      42.910  33.699  35.301  1.00  0.00     0.041 A 
ATOM     64  F   UNL A   1      43.907  32.697  33.434  1.00  0.00    -0.206 F 
ATOM     65  C   UNL A   1      41.926  33.711  36.285  1.00  0.00     0.022 A 
BRANCH  62  66
ATOM     66  S   UNL A   1      39.623  32.698  37.491  1.00  0.00     0.124 S 
ATOM     67  O   UNL A   1      38.879  31.506  37.083  1.00  0.00    -0.237 OA
ATOM     68  O   UNL A   1      40.223  32.651  38.819  1.00  0.00    -0.237 OA
ATOM     69  O   UNL A   1      38.996  33.968  37.132  1.00  0.00    -0.744 OA
ENDBRANCH  62  66
ENDBRANCH  45  59
BRANCH  46  70
ATOM     70  C   UNL A   1      42.333  24.481  27.333  1.00  0.00     0.023 A 
ATOM     71  C   UNL A   1      41.561  23.310  27.409  1.00  0.00     0.031 A 
ATOM     72  C   UNL A   1      43.178  24.640  26.220  1.00  0.00     0.131 A 
ATOM     73  C   UNL A   1      41.683  22.323  26.420  1.00  0.00     0.055 A 
ATOM     74  C   UNL A   1      43.257  23.678  25.211  1.00  0.00     0.041 A 
ATOM     75  F   UNL A   1      43.930  25.744  26.091  1.00  0.00    -0.206 F 
ATOM     76  C   UNL A   1      42.517  22.504  25.314  1.00  0.00     0.022 A 
BRANCH  73  77
ATOM     77  S   UNL A   1      40.791  20.758  26.638  1.00  0.00     0.124 S 
ATOM     78  O   UNL A   1      40.787  20.617  28.090  1.00  0.00    -0.237 OA
ATOM     79  O   UNL A   1      39.503  21.054  26.019  1.00  0.00    -0.237 OA
ATOM     80  O   UNL A   1      41.618  19.791  25.919  1.00  0.00    -0.744 OA
ENDBRANCH  73  77
ENDBRANCH  46  70
BRANCH  58  81
ATOM     81  C   UNL A   1      46.338  25.792  32.893  1.00  0.00     0.023 A 
ATOM     82  C   UNL A   1      47.632  25.975  32.379  1.00  0.00     0.031 A 
ATOM     83  C   UNL A   1      46.170  24.908  33.974  1.00  0.00     0.131 A 
ATOM     84  C   UNL A   1      48.702  25.243  32.911  1.00  0.00     0.055 A 
ATOM     85  C   UNL A   1      47.249  24.228  34.539  1.00  0.00     0.041 A 
ATOM     86  F   UNL A   1      44.954  24.697  34.503  1.00  0.00    -0.206 F 
ATOM     87  C   UNL A   1      48.522  24.383  33.998  1.00  0.00     0.022 A 
BRANCH  84  88
ATOM     88  S   UNL A   1      50.322  25.359  32.103  1.00  0.00     0.124 S 
ATOM     89  O   UNL A   1      50.618  23.959  31.814  1.00  0.00    -0.237 OA
ATOM     90  O   UNL A   1      50.033  26.201  30.947  1.00  0.00    -0.237 OA
ATOM     91  O   UNL A   1      51.170  25.975  33.122  1.00  0.00    -0.744 OA
ENDBRANCH  84  88
ENDBRANCH  58  81
ENDBRANCH  32  33
ENDBRANCH  24  27
ENDBRANCH  22  23
ENDBRANCH  21  22
ENDBRANCH   1  21
TORSDOF 19
ENDMDL
MODEL 3
REMARK VINA RESULT:     -10.8      1.119      2.670
REMARK SMILES CN(CC1CCC1)C(=O)N(CC(=O)NCCCNC(=O)c1ccc(-c2c3nc(c(-c4cc(S(=O)(=O)[O-])ccc4F)c4ccc([nH]4)c(-c4cc(S(=O)(=O)[O-])ccc4F)c4nc(c(-c5cc(S(=O)(=O)[O-])ccc5F)c5ccc2[nH]5)C=C4)C=C3)cc1)C(C)(C)C
REMARK SMILES IDX 15 1 14 2 12 3 13 4 11 6 10 7 8 8 9 9 2 10 1 11 3 12 4 13
REMARK SMILES IDX 5 14 7 15 6 16 84 17 85 18 86 19 87 20 16 21 17 22 18 23
REMARK SMILES IDX 19 24 20 26 21 27 22 28 83 29 23 30 82 31 24 32 25 33 26 34
REMARK SMILES IDX 76 35 27 36 81 37 75 38 77 39 28 40 80 41 74 42 73 43 29 45
REMARK SMILES IDX 61 46 41 47 60 48 42 49 45 50 59 51 78 52 43 53 44 54 58 56
REMARK SMILES IDX 79 57 46 58 30 59 31 60 39 61 32 62 38 63 40 64 37 65 33 66
REMARK SMILES IDX 34 67 35 68 36 69 62 70 63 71 71 72 64 73 70 74 72 75 69 76
REMARK SMILES IDX 65 77 66 78 67 79 68 80 47 81 48 82 56 83 49 84 55 85 57 86
REMARK SMILES IDX 54 87 50 88 51 89 52 90 53 91
REMARK H PARENT 14 5 18 25 77 44 45 55
REMARK Flexibility Score: inf
ROOT
ATOM      1  C   UNL A   1      31.891  27.620  26.290  1.00  0.00     0.117 C 
ENDROOT
BRANCH   1   2
ATOM      2  N   UNL A   1      30.801  26.755  26.688  1.00  0.00    -0.354 N 
ATOM      3  C   UNL A   1      30.372  25.605  26.104  1.00  0.00     0.239 C 
ATOM      4  O   UNL A   1      29.653  24.858  26.776  1.00  0.00    -0.273 OA
ATOM      5  H   UNL A   1      30.303  27.038  27.489  1.00  0.00     0.163 HD
BRANCH   3   6
ATOM      6  C   UNL A   1      30.923  25.140  24.753  1.00  0.00     0.221 C 
BRANCH   6   7
ATOM      7  N   UNL A   1      32.254  24.528  24.633  1.00  0.00    -0.311 N 
BRANCH   7   8
ATOM      8  C   UNL A   1      32.908  23.907  25.701  1.00  0.00     0.320 C 
ATOM      9  O   UNL A   1      33.796  24.500  26.323  1.00  0.00    -0.248 OA
BRANCH   8  10
ATOM     10  N   UNL A   1      32.525  22.641  26.148  1.00  0.00    -0.327 N 
ATOM     11  C   UNL A   1      32.947  22.334  27.516  1.00  0.00     0.148 C 
BRANCH  10  12
ATOM     12  C   UNL A   1      32.203  21.468  25.321  1.00  0.00     0.124 C 
BRANCH  12  13
ATOM     13  C   UNL A   1      33.116  20.271  25.675  1.00  0.00     0.008 C 
ATOM     14  C   UNL A   1      32.735  18.808  25.342  1.00  0.00     0.005 C 
ATOM     15  C   UNL A   1      34.397  20.090  24.816  1.00  0.00     0.005 C 
ATOM     16  C   UNL A   1      33.997  18.645  24.496  1.00  0.00     0.001 C 
ENDBRANCH  12  13
ENDBRANCH  10  12
ENDBRANCH   8  10
ENDBRANCH   7   8
BRANCH   7  17
ATOM     17  C   UNL A   1      33.036  24.809  23.357  1.00  0.00     0.037 C 
ATOM     18  C   UNL A   1      33.795  26.150  23.452  1.00  0.00     0.034 C 
ATOM     19  C   UNL A   1      34.049  23.679  23.047  1.00  0.00     0.034 C 
ATOM     20  C   UNL A   1      32.141  24.895  22.090  1.00  0.00     0.034 C 
ENDBRANCH   7  17
ENDBRANCH   6   7
ENDBRANCH   3   6
ENDBRANCH   1   2
BRANCH   1  21
ATOM     21  C   UNL A   1      31.880  28.961  26.983  1.00  0.00     0.042 C 
BRANCH  21  22
ATOM     22  C   UNL A   1      33.058  29.820  26.580  1.00  0.00     0.118 C 
BRANCH  22  23
ATOM     23  N   UNL A   1      32.963  31.199  27.056  1.00  0.00    -0.352 N 
ATOM     24  C   UNL A   1      33.861  31.918  27.811  1.00  0.00     0.251 C 
ATOM     25  H   UNL A   1      32.143  31.680  26.801  1.00  0.00     0.163 HD
ATOM     26  O   UNL A   1      33.558  33.022  28.251  1.00  0.00    -0.269 OA
BRANCH  24  27
ATOM     27  C   UNL A   1      35.170  31.308  28.116  1.00  0.00     0.039 A 
ATOM     28  C   UNL A   1      36.318  32.097  28.122  1.00  0.00     0.014 A 
ATOM     29  C   UNL A   1      35.225  29.974  28.520  1.00  0.00     0.014 A 
ATOM     30  C   UNL A   1      37.505  31.566  28.631  1.00  0.00     0.010 A 
ATOM     31  C   UNL A   1      36.351  29.513  29.178  1.00  0.00     0.010 A 
ATOM     32  C   UNL A   1      37.517  30.289  29.216  1.00  0.00    -0.014 A 
BRANCH  32  33
ATOM     33  C   UNL A   1      38.742  29.711  29.831  1.00  0.00     0.031 A 
ATOM     34  C   UNL A   1      39.163  30.172  31.205  1.00  0.00     0.074 A 
ATOM     35  C   UNL A   1      39.509  28.848  29.137  1.00  0.00     0.049 A 
ATOM     36  N   UNL A   1      40.249  29.895  31.878  1.00  0.00    -0.248 NA
ATOM     37  C   UNL A   1      38.273  31.129  31.884  1.00  0.00     0.031 C 
ATOM     38  C   UNL A   1      39.251  28.388  27.769  1.00  0.00     0.029 A 
ATOM     39  N   UNL A   1      40.666  28.199  29.486  1.00  0.00    -0.354 N 
ATOM     40  C   UNL A   1      40.186  30.672  33.030  1.00  0.00     0.074 A 
ATOM     41  C   UNL A   1      39.014  31.507  32.911  1.00  0.00     0.031 C 
ATOM     42  C   UNL A   1      40.187  27.491  27.420  1.00  0.00     0.029 A 
ATOM     43  C   UNL A   1      41.139  27.344  28.516  1.00  0.00     0.049 A 
ATOM     44  H   UNL A   1      41.117  28.333  30.351  1.00  0.00     0.167 HD
ATOM     45  C   UNL A   1      41.001  30.656  34.114  1.00  0.00     0.034 A 
ATOM     46  C   UNL A   1      42.216  26.533  28.517  1.00  0.00     0.034 A 
ATOM     47  C   UNL A   1      42.128  29.771  34.238  1.00  0.00     0.049 A 
ATOM     48  C   UNL A   1      43.088  26.498  29.747  1.00  0.00     0.074 A 
ATOM     49  C   UNL A   1      42.987  29.607  35.310  1.00  0.00     0.029 A 
ATOM     50  N   UNL A   1      42.549  28.886  33.252  1.00  0.00    -0.354 N 
ATOM     51  N   UNL A   1      42.983  27.198  30.854  1.00  0.00    -0.248 NA
ATOM     52  C   UNL A   1      44.210  25.553  29.734  1.00  0.00     0.031 C 
ATOM     53  C   UNL A   1      43.957  28.664  34.953  1.00  0.00     0.029 A 
ATOM     54  C   UNL A   1      43.662  28.186  33.685  1.00  0.00     0.049 A 
ATOM     55  H   UNL A   1      42.118  28.774  32.374  1.00  0.00     0.167 HD
ATOM     56  C   UNL A   1      44.008  26.750  31.683  1.00  0.00     0.074 A 
ATOM     57  C   UNL A   1      44.707  25.713  30.952  1.00  0.00     0.031 C 
ATOM     58  C   UNL A   1      44.341  27.154  32.936  1.00  0.00     0.034 A 
BRANCH  45  59
ATOM     59  C   UNL A   1      40.686  31.626  35.232  1.00  0.00     0.023 A 
ATOM     60  C   UNL A   1      39.683  31.356  36.182  1.00  0.00     0.031 A 
ATOM     61  C   UNL A   1      41.348  32.862  35.314  1.00  0.00     0.131 A 
ATOM     62  C   UNL A   1      39.297  32.346  37.098  1.00  0.00     0.055 A 
ATOM     63  C   UNL A   1      41.028  33.806  36.294  1.00  0.00     0.041 A 
ATOM     64  F   UNL A   1      42.301  33.189  34.427  1.00  0.00    -0.206 F 
ATOM     65  C   UNL A   1      39.983  33.560  37.180  1.00  0.00     0.022 A 
BRANCH  62  66
ATOM     66  S   UNL A   1      37.777  32.092  38.054  1.00  0.00     0.124 S 
ATOM     67  O   UNL A   1      36.909  33.133  37.504  1.00  0.00    -0.237 OA
ATOM     68  O   UNL A   1      37.418  30.720  37.720  1.00  0.00    -0.237 OA
ATOM     69  O   UNL A   1      38.199  32.311  39.435  1.00  0.00    -0.744 OA
ENDBRANCH  62  66
ENDBRANCH  45  59
BRANCH  46  70
ATOM     70  C   UNL A   1      42.516  25.670  27.338  1.00  0.00     0.023 A 
ATOM     71  C   UNL A   1      42.116  24.323  27.311  1.00  0.00     0.031 A 
ATOM     72  C   UNL A   1      43.233  26.165  26.236  1.00  0.00     0.131 A 
ATOM     73  C   UNL A   1      42.476  23.505  26.229  1.00  0.00     0.055 A 
ATOM     74  C   UNL A   1      43.544  25.361  25.137  1.00  0.00     0.041 A 
ATOM     75  F   UNL A   1      43.631  27.446  26.204  1.00  0.00    -0.206 F 
ATOM     76  C   UNL A   1      43.177  24.018  25.135  1.00  0.00     0.022 A 
BRANCH  73  77
ATOM     77  S   UNL A   1      42.080  21.737  26.306  1.00  0.00     0.124 S 
ATOM     78  O   UNL A   1      42.309  21.442  27.716  1.00  0.00    -0.237 OA
ATOM     79  O   UNL A   1      40.690  21.717  25.864  1.00  0.00    -0.237 OA
ATOM     80  O   UNL A   1      43.035  21.133  25.379  1.00  0.00    -0.744 OA
ENDBRANCH  73  77
ENDBRANCH  46  70
BRANCH  58  81
ATOM     81  C   UNL A   1      45.477  26.428  33.609  1.00  0.00     0.023 A 
ATOM     82  C   UNL A   1      45.259  25.305  34.423  1.00  0.00     0.031 A 
ATOM     83  C   UNL A   1      46.799  26.874  33.430  1.00  0.00     0.131 A 
ATOM     84  C   UNL A   1      46.341  24.696  35.074  1.00  0.00     0.055 A 
ATOM     85  C   UNL A   1      47.878  26.226  34.031  1.00  0.00     0.041 A 
ATOM     86  F   UNL A   1      47.063  27.942  32.661  1.00  0.00    -0.206 F 
ATOM     87  C   UNL A   1      47.651  25.139  34.870  1.00  0.00     0.022 A 
BRANCH  84  88
ATOM     88  S   UNL A   1      46.005  23.371  36.265  1.00  0.00     0.124 S 
ATOM     89  O   UNL A   1      45.143  22.481  35.494  1.00  0.00    -0.237 OA
ATOM     90  O   UNL A   1      47.343  22.867  36.556  1.00  0.00    -0.237 OA
ATOM     91  O   UNL A   1      45.350  24.063  37.373  1.00  0.00    -0.744 OA
ENDBRANCH  84  88
ENDBRANCH  58  81
ENDBRANCH  32  33
ENDBRANCH  24  27
ENDBRANCH  22  23
ENDBRANCH  21  22
ENDBRANCH   1  21
TORSDOF 19
ENDMDL
