MODEL 1
REMARK VINA RESULT:     -11.9      0.000      0.000
REMARK SMILES CCc1ccsc1Cn1cccc1C(=O)NCCCNC(=O)c1ccc(-c2c3nc(c(-c4cc(S(=O)(=O)[O-])ccc4F)c4ccc([nH]4)c(-c4cc(S(=O)(=O)[O-])ccc4F)c4nc(c(-c5cc(S(=O)(=O)[O-])ccc5F)c5ccc2[nH]5)C=C4)C=C3)cc1
REMARK SMILES IDX 18 1 17 2 16 3 14 4 15 5 13 7 9 8 10 9 11 10 12 11 8 12 7 13
REMARK SMILES IDX 3 14 4 15 5 16 6 17 2 18 1 19 19 20 20 21 21 22 22 24 23 25
REMARK SMILES IDX 24 26 85 27 25 28 84 29 26 30 27 31 28 32 78 33 29 34 83 35
REMARK SMILES IDX 77 36 79 37 30 38 82 39 76 40 75 41 31 43 63 44 43 45 62 46
REMARK SMILES IDX 44 47 47 48 61 49 80 50 45 51 46 52 60 54 81 55 48 56 32 57
REMARK SMILES IDX 33 58 41 59 34 60 40 61 42 62 39 63 35 64 36 65 37 66 38 67
REMARK SMILES IDX 64 68 65 69 73 70 66 71 72 72 74 73 71 74 67 75 68 76 69 77
REMARK SMILES IDX 70 78 49 79 50 80 58 81 51 82 57 83 59 84 56 85 52 86 53 87
REMARK SMILES IDX 54 88 55 89
REMARK H PARENT 16 6 20 23 79 42 47 53
REMARK Flexibility Score: inf
ROOT
ATOM      1  C   UNL A   1      37.105  23.168  25.091  1.00  0.00     0.042 C 
ENDROOT
BRANCH   1   2
ATOM      2  C   UNL A   1      36.733  21.717  25.341  1.00  0.00     0.118 C 
BRANCH   2   3
ATOM      3  N   UNL A   1      35.858  21.664  26.484  1.00  0.00    -0.351 N 
ATOM      4  C   UNL A   1      34.497  21.544  26.587  1.00  0.00     0.267 C 
ATOM      5  O   UNL A   1      34.047  21.737  27.718  1.00  0.00    -0.268 OA
ATOM      6  H   UNL A   1      36.323  21.724  27.350  1.00  0.00     0.163 HD
BRANCH   4   7
ATOM      7  C   UNL A   1      33.653  21.018  25.520  1.00  0.00     0.107 A 
ATOM      8  N   UNL A   1      32.448  21.403  24.933  1.00  0.00    -0.338 N 
ATOM      9  C   UNL A   1      32.137  20.496  23.929  1.00  0.00     0.087 A 
ATOM     10  C   UNL A   1      33.016  19.449  23.976  1.00  0.00     0.020 A 
ATOM     11  C   UNL A   1      33.953  19.769  24.968  1.00  0.00     0.033 A 
BRANCH   8  12
ATOM     12  C   UNL A   1      31.615  22.601  25.104  1.00  0.00     0.169 C 
BRANCH  12  13
ATOM     13  C   UNL A   1      32.304  23.949  25.082  1.00  0.00     0.027 A 
ATOM     14  C   UNL A   1      32.991  24.616  24.059  1.00  0.00    -0.033 A 
ATOM     15  C   UNL A   1      33.329  25.960  24.448  1.00  0.00     0.016 A 
ATOM     16  C   UNL A   1      32.877  26.291  25.698  1.00  0.00     0.065 A 
ATOM     17  S   UNL A   1      32.071  24.997  26.439  1.00  0.00    -0.147 S 
BRANCH  14  18
ATOM     18  C   UNL A   1      33.341  24.139  22.672  1.00  0.00     0.033 C 
ATOM     19  C   UNL A   1      34.495  23.147  22.657  1.00  0.00     0.009 C 
ENDBRANCH  14  18
ENDBRANCH  12  13
ENDBRANCH   8  12
ENDBRANCH   4   7
ENDBRANCH   2   3
ENDBRANCH   1   2
BRANCH   1  20
ATOM     20  C   UNL A   1      37.600  23.942  26.286  1.00  0.00     0.118 C 
BRANCH  20  21
ATOM     21  N   UNL A   1      38.841  23.401  26.786  1.00  0.00    -0.352 N 
ATOM     22  C   UNL A   1      39.913  24.022  27.362  1.00  0.00     0.251 C 
ATOM     23  H   UNL A   1      38.929  22.425  26.698  1.00  0.00     0.163 HD
ATOM     24  O   UNL A   1      40.896  23.315  27.593  1.00  0.00    -0.269 OA
BRANCH  22  25
ATOM     25  C   UNL A   1      39.930  25.468  27.721  1.00  0.00     0.039 A 
ATOM     26  C   UNL A   1      39.624  25.775  29.058  1.00  0.00     0.014 A 
ATOM     27  C   UNL A   1      40.205  26.521  26.839  1.00  0.00     0.014 A 
ATOM     28  C   UNL A   1      39.618  27.093  29.499  1.00  0.00     0.010 A 
ATOM     29  C   UNL A   1      40.176  27.838  27.262  1.00  0.00     0.010 A 
ATOM     30  C   UNL A   1      39.912  28.116  28.597  1.00  0.00    -0.014 A 
BRANCH  30  31
ATOM     31  C   UNL A   1      40.100  29.494  29.070  1.00  0.00     0.031 A 
ATOM     32  C   UNL A   1      38.766  30.146  29.464  1.00  0.00     0.074 A 
ATOM     33  C   UNL A   1      41.391  29.940  29.097  1.00  0.00     0.049 A 
ATOM     34  N   UNL A   1      38.399  31.388  29.401  1.00  0.00    -0.248 NA
ATOM     35  C   UNL A   1      37.628  29.281  29.890  1.00  0.00     0.031 C 
ATOM     36  C   UNL A   1      42.568  29.131  28.698  1.00  0.00     0.029 A 
ATOM     37  N   UNL A   1      41.985  31.127  29.459  1.00  0.00    -0.354 N 
ATOM     38  C   UNL A   1      37.118  31.482  29.998  1.00  0.00     0.074 A 
ATOM     39  C   UNL A   1      36.638  30.143  30.125  1.00  0.00     0.031 C 
ATOM     40  C   UNL A   1      43.702  29.861  28.767  1.00  0.00     0.029 A 
ATOM     41  C   UNL A   1      43.385  31.197  29.234  1.00  0.00     0.049 A 
ATOM     42  H   UNL A   1      41.476  31.875  29.848  1.00  0.00     0.167 HD
ATOM     43  C   UNL A   1      36.615  32.648  30.504  1.00  0.00     0.034 A 
ATOM     44  C   UNL A   1      44.229  32.264  29.374  1.00  0.00     0.034 A 
ATOM     45  C   UNL A   1      37.564  33.697  30.309  1.00  0.00     0.049 A 
ATOM     46  C   UNL A   1      43.406  33.338  29.954  1.00  0.00     0.074 A 
ATOM     47  C   UNL A   1      38.034  34.354  29.204  1.00  0.00     0.029 A 
ATOM     48  N   UNL A   1      38.378  33.991  31.380  1.00  0.00    -0.354 N 
ATOM     49  N   UNL A   1      43.001  33.385  31.186  1.00  0.00    -0.248 NA
ATOM     50  C   UNL A   1      42.920  34.404  29.069  1.00  0.00     0.031 C 
ATOM     51  C   UNL A   1      39.376  34.640  29.537  1.00  0.00     0.029 A 
ATOM     52  C   UNL A   1      39.616  34.284  30.871  1.00  0.00     0.049 A 
ATOM     53  H   UNL A   1      38.120  33.992  32.330  1.00  0.00     0.167 HD
ATOM     54  C   UNL A   1      41.980  34.301  31.134  1.00  0.00     0.074 A 
ATOM     55  C   UNL A   1      42.198  35.096  29.946  1.00  0.00     0.031 C 
ATOM     56  C   UNL A   1      40.778  33.997  31.689  1.00  0.00     0.034 A 
BRANCH  43  57
ATOM     57  C   UNL A   1      35.456  32.961  31.424  1.00  0.00     0.023 A 
ATOM     58  C   UNL A   1      34.522  33.909  30.929  1.00  0.00     0.031 A 
ATOM     59  C   UNL A   1      35.367  32.671  32.791  1.00  0.00     0.131 A 
ATOM     60  C   UNL A   1      33.694  34.645  31.782  1.00  0.00     0.055 A 
ATOM     61  C   UNL A   1      34.468  33.349  33.634  1.00  0.00     0.041 A 
ATOM     62  F   UNL A   1      36.187  31.796  33.386  1.00  0.00    -0.206 F 
ATOM     63  C   UNL A   1      33.661  34.371  33.142  1.00  0.00     0.022 A 
BRANCH  60  64
ATOM     64  S   UNL A   1      32.842  36.095  31.094  1.00  0.00     0.124 S 
ATOM     65  O   UNL A   1      33.846  37.143  31.254  1.00  0.00    -0.237 OA
ATOM     66  O   UNL A   1      32.576  35.670  29.724  1.00  0.00    -0.237 OA
ATOM     67  O   UNL A   1      31.663  36.229  31.945  1.00  0.00    -0.744 OA
ENDBRANCH  60  64
ENDBRANCH  43  57
BRANCH  44  68
ATOM     68  C   UNL A   1      45.663  32.620  29.029  1.00  0.00     0.023 A 
ATOM     69  C   UNL A   1      46.114  33.165  27.815  1.00  0.00     0.031 A 
ATOM     70  C   UNL A   1      46.683  32.447  30.018  1.00  0.00     0.131 A 
ATOM     71  C   UNL A   1      47.470  33.562  27.666  1.00  0.00     0.055 A 
ATOM     72  C   UNL A   1      47.993  32.904  29.891  1.00  0.00     0.041 A 
ATOM     73  F   UNL A   1      46.455  31.820  31.179  1.00  0.00    -0.206 F 
ATOM     74  C   UNL A   1      48.394  33.480  28.710  1.00  0.00     0.022 A 
BRANCH  71  75
ATOM     75  S   UNL A   1      48.097  34.229  26.096  1.00  0.00     0.124 S 
ATOM     76  O   UNL A   1      49.021  33.182  25.672  1.00  0.00    -0.237 OA
ATOM     77  O   UNL A   1      46.890  34.382  25.292  1.00  0.00    -0.237 OA
ATOM     78  O   UNL A   1      48.727  35.485  26.505  1.00  0.00    -0.744 OA
ENDBRANCH  71  75
ENDBRANCH  44  68
BRANCH  56  79
ATOM     79  C   UNL A   1      40.850  33.001  32.843  1.00  0.00     0.023 A 
ATOM     80  C   UNL A   1      40.655  31.625  32.611  1.00  0.00     0.031 A 
ATOM     81  C   UNL A   1      40.991  33.383  34.190  1.00  0.00     0.131 A 
ATOM     82  C   UNL A   1      40.583  30.712  33.683  1.00  0.00     0.055 A 
ATOM     83  C   UNL A   1      40.941  32.477  35.256  1.00  0.00     0.041 A 
ATOM     84  F   UNL A   1      41.163  34.660  34.523  1.00  0.00    -0.206 F 
ATOM     85  C   UNL A   1      40.730  31.130  35.006  1.00  0.00     0.022 A 
BRANCH  82  86
ATOM     86  S   UNL A   1      40.307  28.952  33.339  1.00  0.00     0.124 S 
ATOM     87  O   UNL A   1      38.866  28.887  33.134  1.00  0.00    -0.237 OA
ATOM     88  O   UNL A   1      41.132  28.726  32.154  1.00  0.00    -0.237 OA
ATOM     89  O   UNL A   1      40.788  28.287  34.551  1.00  0.00    -0.744 OA
ENDBRANCH  82  86
ENDBRANCH  56  79
ENDBRANCH  30  31
ENDBRANCH  22  25
ENDBRANCH  20  21
ENDBRANCH   1  20
TORSDOF 16
ENDMDL
MODEL 2
REMARK VINA RESULT:     -11.7      1.257      1.925
REMARK SMILES CCc1ccsc1Cn1cccc1C(=O)NCCCNC(=O)c1ccc(-c2c3nc(c(-c4cc(S(=O)(=O)[O-])ccc4F)c4ccc([nH]4)c(-c4cc(S(=O)(=O)[O-])ccc4F)c4nc(c(-c5cc(S(=O)(=O)[O-])ccc5F)c5ccc2[nH]5)C=C4)C=C3)cc1
REMARK SMILES IDX 18 1 17 2 16 3 14 4 15 5 13 7 9 8 10 9 11 10 12 11 8 12 7 13
REMARK SMILES IDX 3 14 4 15 5 16 6 17 2 18 1 19 19 20 20 21 21 22 22 24 23 25
REMARK SMILES IDX 24 26 85 27 25 28 84 29 26 30 27 31 28 32 78 33 29 34 83 35
REMARK SMILES IDX 77 36 79 37 30 38 82 39 76 40 75 41 31 43 63 44 43 45 62 46
REMARK SMILES IDX 44 47 47 48 61 49 80 50 45 51 46 52 60 54 81 55 48 56 32 57
REMARK SMILES IDX 33 58 41 59 34 60 40 61 42 62 39 63 35 64 36 65 37 66 38 67
REMARK SMILES IDX 64 68 65 69 73 70 66 71 72 72 74 73 71 74 67 75 68 76 69 77
REMARK SMILES IDX 70 78 49 79 50 80 58 81 51 82 57 83 59 84 56 85 52 86 53 87
REMARK SMILES IDX 54 88 55 89
REMARK H PARENT 16 6 20 23 79 42 47 53
REMARK Flexibility Score: inf
ROOT
ATOM      1  C   UNL A   1      37.103  23.243  24.844  1.00  0.00     0.042 C 
ENDROOT
BRANCH   1   2
ATOM      2  C   UNL A   1      35.673  22.743  24.725  1.00  0.00     0.118 C 
BRANCH   2   3
ATOM      3  N   UNL A   1      35.119  23.245  23.494  1.00  0.00    -0.351 N 
ATOM      4  C   UNL A   1      33.840  23.590  23.143  1.00  0.00     0.267 C 
ATOM      5  O   UNL A   1      33.674  23.791  21.938  1.00  0.00    -0.268 OA
ATOM      6  H   UNL A   1      35.779  23.360  22.773  1.00  0.00     0.163 HD
BRANCH   4   7
ATOM      7  C   UNL A   1      32.800  23.916  24.112  1.00  0.00     0.107 A 
ATOM      8  N   UNL A   1      32.679  24.824  25.164  1.00  0.00    -0.338 N 
ATOM      9  C   UNL A   1      31.419  24.679  25.729  1.00  0.00     0.087 A 
ATOM     10  C   UNL A   1      30.801  23.587  25.184  1.00  0.00     0.020 A 
ATOM     11  C   UNL A   1      31.660  23.110  24.185  1.00  0.00     0.033 A 
BRANCH   8  12
ATOM     12  C   UNL A   1      33.552  25.914  25.620  1.00  0.00     0.169 C 
BRANCH  12  13
ATOM     13  C   UNL A   1      33.056  27.335  25.448  1.00  0.00     0.027 A 
ATOM     14  C   UNL A   1      32.464  27.978  24.353  1.00  0.00    -0.033 A 
ATOM     15  C   UNL A   1      31.997  29.291  24.710  1.00  0.00     0.016 A 
ATOM     16  C   UNL A   1      32.201  29.598  26.030  1.00  0.00     0.065 A 
ATOM     17  S   UNL A   1      32.981  28.339  26.855  1.00  0.00    -0.147 S 
BRANCH  14  18
ATOM     18  C   UNL A   1      32.223  27.463  22.957  1.00  0.00     0.033 C 
ATOM     19  C   UNL A   1      30.792  27.672  22.483  1.00  0.00     0.009 C 
ENDBRANCH  14  18
ENDBRANCH  12  13
ENDBRANCH   8  12
ENDBRANCH   4   7
ENDBRANCH   2   3
ENDBRANCH   1   2
BRANCH   1  20
ATOM     20  C   UNL A   1      37.460  23.927  26.139  1.00  0.00     0.118 C 
BRANCH  20  21
ATOM     21  N   UNL A   1      38.632  23.338  26.740  1.00  0.00    -0.352 N 
ATOM     22  C   UNL A   1      39.685  23.918  27.389  1.00  0.00     0.251 C 
ATOM     23  H   UNL A   1      38.681  22.358  26.670  1.00  0.00     0.163 HD
ATOM     24  O   UNL A   1      40.613  23.170  27.705  1.00  0.00    -0.269 OA
BRANCH  22  25
ATOM     25  C   UNL A   1      39.742  25.367  27.732  1.00  0.00     0.039 A 
ATOM     26  C   UNL A   1      39.401  25.702  29.054  1.00  0.00     0.014 A 
ATOM     27  C   UNL A   1      40.085  26.398  26.848  1.00  0.00     0.014 A 
ATOM     28  C   UNL A   1      39.427  27.025  29.479  1.00  0.00     0.010 A 
ATOM     29  C   UNL A   1      40.089  27.721  27.254  1.00  0.00     0.010 A 
ATOM     30  C   UNL A   1      39.789  28.025  28.576  1.00  0.00    -0.014 A 
BRANCH  30  31
ATOM     31  C   UNL A   1      40.010  29.401  29.039  1.00  0.00     0.031 A 
ATOM     32  C   UNL A   1      38.692  30.088  29.429  1.00  0.00     0.074 A 
ATOM     33  C   UNL A   1      41.311  29.817  29.063  1.00  0.00     0.049 A 
ATOM     34  N   UNL A   1      38.355  31.338  29.356  1.00  0.00    -0.248 NA
ATOM     35  C   UNL A   1      37.534  29.254  29.860  1.00  0.00     0.031 C 
ATOM     36  C   UNL A   1      42.469  28.977  28.670  1.00  0.00     0.029 A 
ATOM     37  N   UNL A   1      41.934  30.991  29.417  1.00  0.00    -0.354 N 
ATOM     38  C   UNL A   1      37.078  31.468  29.952  1.00  0.00     0.074 A 
ATOM     39  C   UNL A   1      36.565  30.142  30.089  1.00  0.00     0.031 C 
ATOM     40  C   UNL A   1      43.620  29.680  28.734  1.00  0.00     0.029 A 
ATOM     41  C   UNL A   1      43.336  31.026  29.192  1.00  0.00     0.049 A 
ATOM     42  H   UNL A   1      41.444  31.754  29.800  1.00  0.00     0.167 HD
ATOM     43  C   UNL A   1      36.603  32.649  30.450  1.00  0.00     0.034 A 
ATOM     44  C   UNL A   1      44.205  32.073  29.324  1.00  0.00     0.034 A 
ATOM     45  C   UNL A   1      37.577  33.673  30.248  1.00  0.00     0.049 A 
ATOM     46  C   UNL A   1      43.408  33.170  29.896  1.00  0.00     0.074 A 
ATOM     47  C   UNL A   1      38.062  34.311  29.138  1.00  0.00     0.029 A 
ATOM     48  N   UNL A   1      38.398  33.955  31.316  1.00  0.00    -0.354 N 
ATOM     49  N   UNL A   1      43.005  33.236  31.128  1.00  0.00    -0.248 NA
ATOM     50  C   UNL A   1      42.948  34.242  29.004  1.00  0.00     0.031 C 
ATOM     51  C   UNL A   1      39.410  34.567  29.469  1.00  0.00     0.029 A 
ATOM     52  C   UNL A   1      39.642  34.214  30.806  1.00  0.00     0.049 A 
ATOM     53  H   UNL A   1      38.139  33.969  32.266  1.00  0.00     0.167 HD
ATOM     54  C   UNL A   1      42.005  34.176  31.069  1.00  0.00     0.074 A 
ATOM     55  C   UNL A   1      42.242  34.957  29.875  1.00  0.00     0.031 C 
ATOM     56  C   UNL A   1      40.797  33.905  31.626  1.00  0.00     0.034 A 
BRANCH  43  57
ATOM     57  C   UNL A   1      35.451  32.996  31.368  1.00  0.00     0.023 A 
ATOM     58  C   UNL A   1      34.635  34.077  30.941  1.00  0.00     0.031 A 
ATOM     59  C   UNL A   1      35.288  32.595  32.699  1.00  0.00     0.131 A 
ATOM     60  C   UNL A   1      33.858  34.816  31.839  1.00  0.00     0.055 A 
ATOM     61  C   UNL A   1      34.435  33.283  33.580  1.00  0.00     0.041 A 
ATOM     62  F   UNL A   1      35.994  31.589  33.228  1.00  0.00    -0.206 F 
ATOM     63  C   UNL A   1      33.752  34.424  33.166  1.00  0.00     0.022 A 
BRANCH  60  64
ATOM     64  S   UNL A   1      33.182  36.403  31.270  1.00  0.00     0.124 S 
ATOM     65  O   UNL A   1      34.040  37.364  31.955  1.00  0.00    -0.237 OA
ATOM     66  O   UNL A   1      33.358  36.307  29.825  1.00  0.00    -0.237 OA
ATOM     67  O   UNL A   1      31.797  36.365  31.733  1.00  0.00    -0.744 OA
ENDBRANCH  60  64
ENDBRANCH  43  57
BRANCH  44  68
ATOM     68  C   UNL A   1      45.647  32.392  28.977  1.00  0.00     0.023 A 
ATOM     69  C   UNL A   1      46.094  33.076  27.834  1.00  0.00     0.031 A 
ATOM     70  C   UNL A   1      46.684  32.024  29.892  1.00  0.00     0.131 A 
ATOM     71  C   UNL A   1      47.467  33.412  27.689  1.00  0.00     0.055 A 
ATOM     72  C   UNL A   1      48.015  32.418  29.780  1.00  0.00     0.041 A 
ATOM     73  F   UNL A   1      46.453  31.254  30.963  1.00  0.00    -0.206 F 
ATOM     74  C   UNL A   1      48.415  33.132  28.676  1.00  0.00     0.022 A 
BRANCH  71  75
ATOM     75  S   UNL A   1      48.087  34.257  26.204  1.00  0.00     0.124 S 
ATOM     76  O   UNL A   1      46.935  34.180  25.312  1.00  0.00    -0.237 OA
ATOM     77  O   UNL A   1      48.430  35.587  26.694  1.00  0.00    -0.237 OA
ATOM     78  O   UNL A   1      49.230  33.431  25.814  1.00  0.00    -0.744 OA
ENDBRANCH  71  75
ENDBRANCH  44  68
BRANCH  56  79
ATOM     79  C   UNL A   1      40.845  32.916  32.787  1.00  0.00     0.023 A 
ATOM     80  C   UNL A   1      40.668  31.537  32.557  1.00  0.00     0.031 A 
ATOM     81  C   UNL A   1      40.944  33.306  34.135  1.00  0.00     0.131 A 
ATOM     82  C   UNL A   1      40.574  30.629  33.632  1.00  0.00     0.055 A 
ATOM     83  C   UNL A   1      40.871  32.406  35.205  1.00  0.00     0.041 A 
ATOM     84  F   UNL A   1      41.096  34.587  34.466  1.00  0.00    -0.206 F 
ATOM     85  C   UNL A   1      40.679  31.056  34.956  1.00  0.00     0.022 A 
BRANCH  82  86
ATOM     86  S   UNL A   1      40.323  28.865  33.290  1.00  0.00     0.124 S 
ATOM     87  O   UNL A   1      41.195  28.632  32.147  1.00  0.00    -0.237 OA
ATOM     88  O   UNL A   1      40.731  28.237  34.545  1.00  0.00    -0.237 OA
ATOM     89  O   UNL A   1      38.890  28.774  33.002  1.00  0.00    -0.744 OA
ENDBRANCH  82  86
ENDBRANCH  56  79
ENDBRANCH  30  31
ENDBRANCH  22  25
ENDBRANCH  20  21
ENDBRANCH   1  20
TORSDOF 16
ENDMDL
MODEL 3
REMARK VINA RESULT:     -11.7      1.090      2.049
REMARK SMILES CCc1ccsc1Cn1cccc1C(=O)NCCCNC(=O)c1ccc(-c2c3nc(c(-c4cc(S(=O)(=O)[O-])ccc4F)c4ccc([nH]4)c(-c4cc(S(=O)(=O)[O-])ccc4F)c4nc(c(-c5cc(S(=O)(=O)[O-])ccc5F)c5ccc2[nH]5)C=C4)C=C3)cc1
REMARK SMILES IDX 18 1 17 2 16 3 14 4 15 5 13 7 9 8 10 9 11 10 12 11 8 12 7 13
REMARK SMILES IDX 3 14 4 15 5 16 6 17 2 18 1 19 19 20 20 21 21 22 22 24 23 25
REMARK SMILES IDX 24 26 85 27 25 28 84 29 26 30 27 31 28 32 78 33 29 34 83 35
REMARK SMILES IDX 77 36 79 37 30 38 82 39 76 40 75 41 31 43 63 44 43 45 62 46
REMARK SMILES IDX 44 47 47 48 61 49 80 50 45 51 46 52 60 54 81 55 48 56 32 57
REMARK SMILES IDX 33 58 41 59 34 60 40 61 42 62 39 63 35 64 36 65 37 66 38 67
REMARK SMILES IDX 64 68 65 69 73 70 66 71 72 72 74 73 71 74 67 75 68 76 69 77
REMARK SMILES IDX 70 78 49 79 50 80 58 81 51 82 57 83 59 84 56 85 52 86 53 87
REMARK SMILES IDX 54 88 55 89
REMARK H PARENT 16 6 20 23 79 42 47 53
REMARK Flexibility Score: inf
ROOT
ATOM      1  C   UNL A   1      36.531  23.409  25.308  1.00  0.00     0.042 C 
ENDROOT
BRANCH   1   2
ATOM      2  C   UNL A   1      35.202  24.030  24.914  1.00  0.00     0.118 C 
BRANCH   2   3
ATOM      3  N   UNL A   1      34.989  23.792  23.510  1.00  0.00    -0.351 N 
ATOM      4  C   UNL A   1      33.848  23.761  22.752  1.00  0.00     0.267 C 
ATOM      5  O   UNL A   1      34.001  23.325  21.609  1.00  0.00    -0.268 OA
ATOM      6  H   UNL A   1      35.815  23.620  23.001  1.00  0.00     0.163 HD
BRANCH   4   7
ATOM      7  C   UNL A   1      32.596  24.389  23.157  1.00  0.00     0.107 A 
ATOM      8  N   UNL A   1      31.450  23.964  23.829  1.00  0.00    -0.338 N 
ATOM      9  C   UNL A   1      30.579  25.041  23.938  1.00  0.00     0.087 A 
ATOM     10  C   UNL A   1      31.060  26.090  23.204  1.00  0.00     0.020 A 
ATOM     11  C   UNL A   1      32.308  25.684  22.714  1.00  0.00     0.033 A 
BRANCH   8  12
ATOM     12  C   UNL A   1      31.124  22.703  24.507  1.00  0.00     0.169 C 
BRANCH  12  13
ATOM     13  C   UNL A   1      32.018  22.263  25.648  1.00  0.00     0.027 A 
ATOM     14  C   UNL A   1      33.037  21.303  25.702  1.00  0.00    -0.033 A 
ATOM     15  C   UNL A   1      33.732  21.351  26.961  1.00  0.00     0.016 A 
ATOM     16  C   UNL A   1      33.272  22.335  27.796  1.00  0.00     0.065 A 
ATOM     17  S   UNL A   1      31.984  23.194  27.105  1.00  0.00    -0.147 S 
BRANCH  14  18
ATOM     18  C   UNL A   1      33.494  20.332  24.643  1.00  0.00     0.033 C 
ATOM     19  C   UNL A   1      32.530  19.171  24.442  1.00  0.00     0.009 C 
ENDBRANCH  14  18
ENDBRANCH  12  13
ENDBRANCH   8  12
ENDBRANCH   4   7
ENDBRANCH   2   3
ENDBRANCH   1   2
BRANCH   1  20
ATOM     20  C   UNL A   1      37.159  23.933  26.574  1.00  0.00     0.118 C 
BRANCH  20  21
ATOM     21  N   UNL A   1      38.494  23.415  26.754  1.00  0.00    -0.352 N 
ATOM     22  C   UNL A   1      39.656  24.050  27.091  1.00  0.00     0.251 C 
ATOM     23  H   UNL A   1      38.581  22.445  26.610  1.00  0.00     0.163 HD
ATOM     24  O   UNL A   1      40.682  23.365  27.063  1.00  0.00    -0.269 OA
BRANCH  22  25
ATOM     25  C   UNL A   1      39.723  25.483  27.493  1.00  0.00     0.039 A 
ATOM     26  C   UNL A   1      39.453  25.757  28.845  1.00  0.00     0.014 A 
ATOM     27  C   UNL A   1      40.011  26.554  26.637  1.00  0.00     0.014 A 
ATOM     28  C   UNL A   1      39.496  27.061  29.325  1.00  0.00     0.010 A 
ATOM     29  C   UNL A   1      40.030  27.858  27.099  1.00  0.00     0.010 A 
ATOM     30  C   UNL A   1      39.802  28.102  28.448  1.00  0.00    -0.014 A 
BRANCH  30  31
ATOM     31  C   UNL A   1      40.040  29.459  28.958  1.00  0.00     0.031 A 
ATOM     32  C   UNL A   1      38.730  30.150  29.366  1.00  0.00     0.074 A 
ATOM     33  C   UNL A   1      41.346  29.855  28.999  1.00  0.00     0.049 A 
ATOM     34  N   UNL A   1      38.410  31.407  29.335  1.00  0.00    -0.248 NA
ATOM     35  C   UNL A   1      37.559  29.318  29.766  1.00  0.00     0.031 C 
ATOM     36  C   UNL A   1      42.494  29.013  28.581  1.00  0.00     0.029 A 
ATOM     37  N   UNL A   1      41.983  31.008  29.394  1.00  0.00    -0.354 N 
ATOM     38  C   UNL A   1      37.132  31.534  29.931  1.00  0.00     0.074 A 
ATOM     39  C   UNL A   1      36.601  30.211  30.022  1.00  0.00     0.031 C 
ATOM     40  C   UNL A   1      43.654  29.698  28.672  1.00  0.00     0.029 A 
ATOM     41  C   UNL A   1      43.387  31.031  29.174  1.00  0.00     0.049 A 
ATOM     42  H   UNL A   1      41.502  31.764  29.801  1.00  0.00     0.167 HD
ATOM     43  C   UNL A   1      36.672  32.704  30.467  1.00  0.00     0.034 A 
ATOM     44  C   UNL A   1      44.270  32.062  29.344  1.00  0.00     0.034 A 
ATOM     45  C   UNL A   1      37.661  33.721  30.302  1.00  0.00     0.049 A 
ATOM     46  C   UNL A   1      43.485  33.150  29.950  1.00  0.00     0.074 A 
ATOM     47  C   UNL A   1      38.159  34.389  29.216  1.00  0.00     0.029 A 
ATOM     48  N   UNL A   1      38.482  33.956  31.382  1.00  0.00    -0.354 N 
ATOM     49  N   UNL A   1      43.079  33.180  31.182  1.00  0.00    -0.248 NA
ATOM     50  C   UNL A   1      43.043  34.257  29.093  1.00  0.00     0.031 C 
ATOM     51  C   UNL A   1      39.509  34.615  29.559  1.00  0.00     0.029 A 
ATOM     52  C   UNL A   1      39.731  34.215  30.884  1.00  0.00     0.049 A 
ATOM     53  H   UNL A   1      38.220  33.941  32.331  1.00  0.00     0.167 HD
ATOM     54  C   UNL A   1      42.093  34.135  31.152  1.00  0.00     0.074 A 
ATOM     55  C   UNL A   1      42.345  34.952  29.986  1.00  0.00     0.031 C 
ATOM     56  C   UNL A   1      40.879  33.862  31.696  1.00  0.00     0.034 A 
BRANCH  43  57
ATOM     57  C   UNL A   1      35.522  33.036  31.392  1.00  0.00     0.023 A 
ATOM     58  C   UNL A   1      34.679  34.094  30.963  1.00  0.00     0.031 A 
ATOM     59  C   UNL A   1      35.381  32.646  32.730  1.00  0.00     0.131 A 
ATOM     60  C   UNL A   1      33.895  34.825  31.861  1.00  0.00     0.055 A 
ATOM     61  C   UNL A   1      34.522  33.325  33.612  1.00  0.00     0.041 A 
ATOM     62  F   UNL A   1      36.114  31.661  33.263  1.00  0.00    -0.206 F 
ATOM     63  C   UNL A   1      33.811  34.446  33.193  1.00  0.00     0.022 A 
BRANCH  60  64
ATOM     64  S   UNL A   1      33.178  36.391  31.282  1.00  0.00     0.124 S 
ATOM     65  O   UNL A   1      34.006  37.378  31.968  1.00  0.00    -0.237 OA
ATOM     66  O   UNL A   1      33.365  36.295  29.838  1.00  0.00    -0.237 OA
ATOM     67  O   UNL A   1      31.793  36.317  31.737  1.00  0.00    -0.744 OA
ENDBRANCH  60  64
ENDBRANCH  43  57
BRANCH  44  68
ATOM     68  C   UNL A   1      45.717  32.372  29.012  1.00  0.00     0.023 A 
ATOM     69  C   UNL A   1      46.182  33.027  27.860  1.00  0.00     0.031 A 
ATOM     70  C   UNL A   1      46.739  32.027  29.952  1.00  0.00     0.131 A 
ATOM     71  C   UNL A   1      47.558  33.361  27.728  1.00  0.00     0.055 A 
ATOM     72  C   UNL A   1      48.072  32.419  29.851  1.00  0.00     0.041 A 
ATOM     73  F   UNL A   1      46.491  31.284  31.039  1.00  0.00    -0.206 F 
ATOM     74  C   UNL A   1      48.489  33.105  28.736  1.00  0.00     0.022 A 
BRANCH  71  75
ATOM     75  S   UNL A   1      48.200  34.168  26.232  1.00  0.00     0.124 S 
ATOM     76  O   UNL A   1      47.016  34.213  25.382  1.00  0.00    -0.237 OA
ATOM     77  O   UNL A   1      48.683  35.453  26.726  1.00  0.00    -0.237 OA
ATOM     78  O   UNL A   1      49.248  33.247  25.790  1.00  0.00    -0.744 OA
ENDBRANCH  71  75
ENDBRANCH  44  68
BRANCH  56  79
ATOM     79  C   UNL A   1      40.909  32.834  32.824  1.00  0.00     0.023 A 
ATOM     80  C   UNL A   1      40.734  31.464  32.545  1.00  0.00     0.031 A 
ATOM     81  C   UNL A   1      40.991  33.178  34.186  1.00  0.00     0.131 A 
ATOM     82  C   UNL A   1      40.624  30.521  33.587  1.00  0.00     0.055 A 
ATOM     83  C   UNL A   1      40.903  32.242  35.223  1.00  0.00     0.041 A 
ATOM     84  F   UNL A   1      41.140  34.447  34.562  1.00  0.00    -0.206 F 
ATOM     85  C   UNL A   1      40.712  30.902  34.926  1.00  0.00     0.022 A 
BRANCH  82  86
ATOM     86  S   UNL A   1      40.375  28.769  33.182  1.00  0.00     0.124 S 
ATOM     87  O   UNL A   1      38.948  28.707  32.894  1.00  0.00    -0.237 OA
ATOM     88  O   UNL A   1      41.267  28.577  32.040  1.00  0.00    -0.237 OA
ATOM     89  O   UNL A   1      40.789  28.074  34.402  1.00  0.00    -0.744 OA
ENDBRANCH  82  86
ENDBRANCH  56  79
ENDBRANCH  30  31
ENDBRANCH  22  25
ENDBRANCH  20  21
ENDBRANCH   1  20
TORSDOF 16
ENDMDL
