MODEL 1
REMARK VINA RESULT:     -10.9      0.000      0.000
REMARK SMILES O=C(CC[NH2+]C[C@H](O)Cn1c2ccccc2c2ccccc21)NCCCNC(=O)c1ccc(-c2c3nc(c(-c4cc(S(=O)(=O)[O-])ccc4F)c4ccc([nH]4)c(-c4cc(S(=O)(=O)[O-])ccc4F)c4nc(c(-c5cc(S(=O)(=O)[O-])ccc5F)c5ccc2[nH]5)C=C4)C=C3)cc1
REMARK SMILES IDX 1 1 2 2 23 3 3 5 4 6 5 7 6 10 7 11 9 12 10 13 11 14 22 15
REMARK SMILES IDX 12 16 16 17 17 18 21 19 13 20 15 21 18 22 20 23 14 24 19 25
REMARK SMILES IDX 8 26 24 28 25 29 26 30 27 31 28 32 29 34 30 35 31 36 92 37
REMARK SMILES IDX 32 38 91 39 33 40 34 41 35 42 85 43 36 44 90 45 84 46 86 47
REMARK SMILES IDX 37 48 89 49 83 50 82 51 38 53 70 54 50 55 69 56 51 57 54 58
REMARK SMILES IDX 68 59 87 60 52 61 53 62 67 64 88 65 55 66 39 67 40 68 48 69
REMARK SMILES IDX 41 70 47 71 49 72 46 73 42 74 43 75 44 76 45 77 71 78 72 79
REMARK SMILES IDX 80 80 73 81 79 82 81 83 78 84 74 85 75 86 76 87 77 88 56 89
REMARK SMILES IDX 57 90 65 91 58 92 64 93 66 94 63 95 59 96 60 97 61 98 62 99
REMARK H PARENT 23 4 5 8 5 9 8 27 27 33 86 52 54 63
REMARK Flexibility Score: inf
ROOT
ATOM      1  O   UNL A   1      33.135  36.888  29.142  1.00  0.00    -0.275 OA
ATOM      2  C   UNL A   1      32.884  35.940  29.867  1.00  0.00     0.225 C 
ATOM      3  N   UNL A   1      33.068  34.618  29.521  1.00  0.00    -0.356 N 
ATOM      4  H   UNL A   1      32.907  33.932  30.209  1.00  0.00     0.163 HD
ENDROOT
BRANCH   2   5
ATOM      5  C   UNL A   1      32.248  36.107  31.233  1.00  0.00     0.161 C 
BRANCH   5   6
ATOM      6  C   UNL A   1      32.858  37.296  31.980  1.00  0.00     0.270 C 
BRANCH   6   7
ATOM      7  N   UNL A   1      34.313  37.155  32.141  1.00  0.00    -0.344 N 
ATOM      8  H   UNL A   1      34.716  38.081  32.286  1.00  0.00     0.346 HD
ATOM      9  H   UNL A   1      34.674  36.711  31.297  1.00  0.00     0.346 HD
BRANCH   7  10
ATOM     10  C   UNL A   1      34.683  36.301  33.279  1.00  0.00     0.294 C 
BRANCH  10  11
ATOM     11  C   UNL A   1      35.566  35.070  32.976  1.00  0.00     0.189 C 
BRANCH  11  12
ATOM     12  C   UNL A   1      35.068  33.794  33.680  1.00  0.00     0.160 C 
BRANCH  12  13
ATOM     13  N   UNL A   1      36.134  32.803  33.813  1.00  0.00    -0.338 N 
ATOM     14  C   UNL A   1      37.058  32.790  34.839  1.00  0.00     0.049 A 
ATOM     15  C   UNL A   1      36.325  31.723  32.970  1.00  0.00     0.049 A 
ATOM     16  C   UNL A   1      37.292  33.701  35.883  1.00  0.00     0.027 A 
ATOM     17  C   UNL A   1      37.799  31.615  34.705  1.00  0.00     0.007 A 
ATOM     18  C   UNL A   1      37.353  30.954  33.519  1.00  0.00     0.007 A 
ATOM     19  C   UNL A   1      35.688  31.348  31.776  1.00  0.00     0.027 A 
ATOM     20  C   UNL A   1      38.268  33.385  36.830  1.00  0.00     0.002 A 
ATOM     21  C   UNL A   1      38.784  31.322  35.671  1.00  0.00     0.011 A 
ATOM     22  C   UNL A   1      37.746  29.768  32.857  1.00  0.00     0.011 A 
ATOM     23  C   UNL A   1      36.096  30.174  31.137  1.00  0.00     0.002 A 
ATOM     24  C   UNL A   1      39.001  32.208  36.732  1.00  0.00     0.001 A 
ATOM     25  C   UNL A   1      37.112  29.390  31.670  1.00  0.00     0.001 A 
ENDBRANCH  12  13
ENDBRANCH  11  12
BRANCH  11  26
ATOM     26  O   UNL A   1      35.559  34.900  31.550  1.00  0.00    -0.385 OA
ATOM     27  H   UNL A   1      35.131  35.665  31.135  1.00  0.00     0.211 HD
ENDBRANCH  11  26
ENDBRANCH  10  11
ENDBRANCH   7  10
ENDBRANCH   6   7
ENDBRANCH   5   6
ENDBRANCH   2   5
BRANCH   3  28
ATOM     28  C   UNL A   1      33.487  34.179  28.201  1.00  0.00     0.117 C 
BRANCH  28  29
ATOM     29  C   UNL A   1      33.929  32.717  28.189  1.00  0.00     0.042 C 
BRANCH  29  30
ATOM     30  C   UNL A   1      35.444  32.512  28.097  1.00  0.00     0.118 C 
BRANCH  30  31
ATOM     31  N   UNL A   1      36.231  33.506  28.799  1.00  0.00    -0.352 N 
ATOM     32  C   UNL A   1      37.517  33.547  29.268  1.00  0.00     0.251 C 
ATOM     33  H   UNL A   1      35.730  34.334  28.980  1.00  0.00     0.163 HD
ATOM     34  O   UNL A   1      37.939  34.670  29.559  1.00  0.00    -0.269 OA
BRANCH  32  35
ATOM     35  C   UNL A   1      38.381  32.361  29.528  1.00  0.00     0.039 A 
ATOM     36  C   UNL A   1      39.472  32.333  30.390  1.00  0.00     0.014 A 
ATOM     37  C   UNL A   1      38.116  31.217  28.745  1.00  0.00     0.014 A 
ATOM     38  C   UNL A   1      40.345  31.250  30.375  1.00  0.00     0.010 A 
ATOM     39  C   UNL A   1      38.978  30.122  28.739  1.00  0.00     0.010 A 
ATOM     40  C   UNL A   1      40.128  30.164  29.513  1.00  0.00    -0.014 A 
BRANCH  40  41
ATOM     41  C   UNL A   1      41.077  29.051  29.580  1.00  0.00     0.031 A 
ATOM     42  C   UNL A   1      41.415  28.670  30.975  1.00  0.00     0.074 A 
ATOM     43  C   UNL A   1      41.590  28.379  28.525  1.00  0.00     0.049 A 
ATOM     44  N   UNL A   1      42.505  28.937  31.614  1.00  0.00    -0.248 NA
ATOM     45  C   UNL A   1      40.348  28.111  31.820  1.00  0.00     0.031 C 
ATOM     46  C   UNL A   1      41.139  28.425  27.132  1.00  0.00     0.029 A 
ATOM     47  N   UNL A   1      42.589  27.443  28.486  1.00  0.00    -0.354 N 
ATOM     48  C   UNL A   1      42.362  28.339  32.863  1.00  0.00     0.074 A 
ATOM     49  C   UNL A   1      40.961  28.044  33.004  1.00  0.00     0.031 C 
ATOM     50  C   UNL A   1      41.686  27.394  26.445  1.00  0.00     0.029 A 
ATOM     51  C   UNL A   1      42.662  26.731  27.293  1.00  0.00     0.049 A 
ATOM     52  H   UNL A   1      43.203  27.286  29.240  1.00  0.00     0.167 HD
ATOM     53  C   UNL A   1      43.452  27.870  33.533  1.00  0.00     0.034 A 
ATOM     54  C   UNL A   1      43.466  25.675  27.011  1.00  0.00     0.034 A 
ATOM     55  C   UNL A   1      44.666  28.366  32.945  1.00  0.00     0.049 A 
ATOM     56  C   UNL A   1      44.616  25.697  27.937  1.00  0.00     0.074 A 
ATOM     57  C   UNL A   1      45.422  29.513  33.004  1.00  0.00     0.029 A 
ATOM     58  N   UNL A   1      45.053  27.673  31.831  1.00  0.00    -0.354 N 
ATOM     59  N   UNL A   1      45.554  26.599  27.896  1.00  0.00    -0.248 NA
ATOM     60  C   UNL A   1      44.574  24.878  29.145  1.00  0.00     0.031 C 
ATOM     61  C   UNL A   1      46.205  29.537  31.813  1.00  0.00     0.029 A 
ATOM     62  C   UNL A   1      45.947  28.383  31.078  1.00  0.00     0.049 A 
ATOM     63  H   UNL A   1      44.729  26.773  31.599  1.00  0.00     0.167 HD
ATOM     64  C   UNL A   1      45.902  26.762  29.219  1.00  0.00     0.074 A 
ATOM     65  C   UNL A   1      45.425  25.568  29.905  1.00  0.00     0.031 C 
ATOM     66  C   UNL A   1      46.225  27.988  29.712  1.00  0.00     0.034 A 
BRANCH  53  67
ATOM     67  C   UNL A   1      43.454  26.605  34.370  1.00  0.00     0.023 A 
ATOM     68  C   UNL A   1      44.164  25.447  34.006  1.00  0.00     0.031 A 
ATOM     69  C   UNL A   1      42.949  26.620  35.688  1.00  0.00     0.131 A 
ATOM     70  C   UNL A   1      44.342  24.377  34.893  1.00  0.00     0.055 A 
ATOM     71  C   UNL A   1      43.183  25.580  36.599  1.00  0.00     0.041 A 
ATOM     72  F   UNL A   1      42.257  27.672  36.152  1.00  0.00    -0.206 F 
ATOM     73  C   UNL A   1      43.886  24.448  36.203  1.00  0.00     0.022 A 
BRANCH  70  74
ATOM     74  S   UNL A   1      45.198  22.875  34.342  1.00  0.00     0.124 S 
ATOM     75  O   UNL A   1      44.668  22.697  32.997  1.00  0.00    -0.237 OA
ATOM     76  O   UNL A   1      46.598  23.290  34.425  1.00  0.00    -0.237 OA
ATOM     77  O   UNL A   1      44.795  21.873  35.327  1.00  0.00    -0.744 OA
ENDBRANCH  70  74
ENDBRANCH  53  67
BRANCH  54  78
ATOM     78  C   UNL A   1      43.166  24.448  26.237  1.00  0.00     0.023 A 
ATOM     79  C   UNL A   1      42.213  23.545  26.741  1.00  0.00     0.031 A 
ATOM     80  C   UNL A   1      44.050  23.975  25.249  1.00  0.00     0.131 A 
ATOM     81  C   UNL A   1      42.213  22.208  26.316  1.00  0.00     0.055 A 
ATOM     82  C   UNL A   1      44.031  22.645  24.807  1.00  0.00     0.041 A 
ATOM     83  F   UNL A   1      45.007  24.774  24.752  1.00  0.00    -0.206 F 
ATOM     84  C   UNL A   1      43.122  21.749  25.358  1.00  0.00     0.022 A 
BRANCH  81  85
ATOM     85  S   UNL A   1      41.110  20.993  27.090  1.00  0.00     0.124 S 
ATOM     86  O   UNL A   1      40.705  21.685  28.311  1.00  0.00    -0.237 OA
ATOM     87  O   UNL A   1      40.071  20.850  26.076  1.00  0.00    -0.237 OA
ATOM     88  O   UNL A   1      41.970  19.832  27.292  1.00  0.00    -0.744 OA
ENDBRANCH  81  85
ENDBRANCH  54  78
BRANCH  66  89
ATOM     89  C   UNL A   1      46.762  29.029  28.777  1.00  0.00     0.023 A 
ATOM     90  C   UNL A   1      45.843  30.006  28.363  1.00  0.00     0.031 A 
ATOM     91  C   UNL A   1      48.031  29.019  28.176  1.00  0.00     0.131 A 
ATOM     92  C   UNL A   1      46.163  30.886  27.329  1.00  0.00     0.055 A 
ATOM     93  C   UNL A   1      48.377  29.955  27.194  1.00  0.00     0.041 A 
ATOM     94  F   UNL A   1      48.936  28.073  28.463  1.00  0.00    -0.206 F 
ATOM     95  C   UNL A   1      47.434  30.880  26.751  1.00  0.00     0.022 A 
BRANCH  92  96
ATOM     96  S   UNL A   1      44.871  31.932  26.614  1.00  0.00     0.124 S 
ATOM     97  O   UNL A   1      43.782  30.983  26.408  1.00  0.00    -0.237 OA
ATOM     98  O   UNL A   1      44.653  32.918  27.670  1.00  0.00    -0.237 OA
ATOM     99  O   UNL A   1      45.477  32.461  25.396  1.00  0.00    -0.744 OA
ENDBRANCH  92  96
ENDBRANCH  66  89
ENDBRANCH  40  41
ENDBRANCH  32  35
ENDBRANCH  30  31
ENDBRANCH  29  30
ENDBRANCH  28  29
ENDBRANCH   3  28
TORSDOF 20
ENDMDL
MODEL 2
REMARK VINA RESULT:     -10.9      4.453      7.188
REMARK SMILES O=C(CC[NH2+]C[C@H](O)Cn1c2ccccc2c2ccccc21)NCCCNC(=O)c1ccc(-c2c3nc(c(-c4cc(S(=O)(=O)[O-])ccc4F)c4ccc([nH]4)c(-c4cc(S(=O)(=O)[O-])ccc4F)c4nc(c(-c5cc(S(=O)(=O)[O-])ccc5F)c5ccc2[nH]5)C=C4)C=C3)cc1
REMARK SMILES IDX 1 1 2 2 23 3 3 5 4 6 5 7 6 10 7 11 9 12 10 13 11 14 22 15
REMARK SMILES IDX 12 16 16 17 17 18 21 19 13 20 15 21 18 22 20 23 14 24 19 25
REMARK SMILES IDX 8 26 24 28 25 29 26 30 27 31 28 32 29 34 30 35 31 36 92 37
REMARK SMILES IDX 32 38 91 39 33 40 34 41 35 42 85 43 36 44 90 45 84 46 86 47
REMARK SMILES IDX 37 48 89 49 83 50 82 51 38 53 70 54 50 55 69 56 51 57 54 58
REMARK SMILES IDX 68 59 87 60 52 61 53 62 67 64 88 65 55 66 39 67 40 68 48 69
REMARK SMILES IDX 41 70 47 71 49 72 46 73 42 74 43 75 44 76 45 77 71 78 72 79
REMARK SMILES IDX 80 80 73 81 79 82 81 83 78 84 74 85 75 86 76 87 77 88 56 89
REMARK SMILES IDX 57 90 65 91 58 92 64 93 66 94 63 95 59 96 60 97 61 98 62 99
REMARK H PARENT 23 4 5 8 5 9 8 27 27 33 86 52 54 63
REMARK Flexibility Score: inf
ROOT
ATOM      1  O   UNL A   1      34.055  27.943  25.601  1.00  0.00    -0.275 OA
ATOM      2  C   UNL A   1      33.587  28.601  24.687  1.00  0.00     0.225 C 
ATOM      3  N   UNL A   1      32.551  29.502  24.819  1.00  0.00    -0.356 N 
ATOM      4  H   UNL A   1      32.301  30.039  24.033  1.00  0.00     0.163 HD
ENDROOT
BRANCH   2   5
ATOM      5  C   UNL A   1      34.047  28.440  23.251  1.00  0.00     0.161 C 
BRANCH   5   6
ATOM      6  C   UNL A   1      33.311  27.286  22.566  1.00  0.00     0.270 C 
BRANCH   6   7
ATOM      7  N   UNL A   1      33.619  25.991  23.191  1.00  0.00    -0.344 N 
ATOM      8  H   UNL A   1      34.218  26.155  24.001  1.00  0.00     0.346 HD
ATOM      9  H   UNL A   1      34.081  25.414  22.488  1.00  0.00     0.346 HD
BRANCH   7  10
ATOM     10  C   UNL A   1      32.419  25.269  23.634  1.00  0.00     0.294 C 
BRANCH  10  11
ATOM     11  C   UNL A   1      32.446  23.728  23.528  1.00  0.00     0.189 C 
BRANCH  11  12
ATOM     12  C   UNL A   1      32.488  23.038  24.905  1.00  0.00     0.160 C 
BRANCH  12  13
ATOM     13  N   UNL A   1      33.608  22.105  25.005  1.00  0.00    -0.338 N 
ATOM     14  C   UNL A   1      33.500  20.740  24.822  1.00  0.00     0.049 A 
ATOM     15  C   UNL A   1      34.924  22.464  25.238  1.00  0.00     0.049 A 
ATOM     16  C   UNL A   1      32.376  19.921  24.623  1.00  0.00     0.027 A 
ATOM     17  C   UNL A   1      34.796  20.223  24.840  1.00  0.00     0.007 A 
ATOM     18  C   UNL A   1      35.690  21.302  25.122  1.00  0.00     0.007 A 
ATOM     19  C   UNL A   1      35.513  23.703  25.538  1.00  0.00     0.027 A 
ATOM     20  C   UNL A   1      32.582  18.560  24.394  1.00  0.00     0.002 A 
ATOM     21  C   UNL A   1      34.977  18.843  24.614  1.00  0.00     0.011 A 
ATOM     22  C   UNL A   1      37.090  21.388  25.301  1.00  0.00     0.011 A 
ATOM     23  C   UNL A   1      36.898  23.762  25.714  1.00  0.00     0.002 A 
ATOM     24  C   UNL A   1      33.866  18.026  24.383  1.00  0.00     0.001 A 
ATOM     25  C   UNL A   1      37.681  22.620  25.596  1.00  0.00     0.001 A 
ENDBRANCH  12  13
ENDBRANCH  11  12
BRANCH  11  26
ATOM     26  O   UNL A   1      31.267  23.344  22.803  1.00  0.00    -0.385 OA
ATOM     27  H   UNL A   1      31.411  22.481  22.385  1.00  0.00     0.211 HD
ENDBRANCH  11  26
ENDBRANCH  10  11
ENDBRANCH   7  10
ENDBRANCH   6   7
ENDBRANCH   5   6
ENDBRANCH   2   5
BRANCH   3  28
ATOM     28  C   UNL A   1      31.810  29.704  26.051  1.00  0.00     0.117 C 
BRANCH  28  29
ATOM     29  C   UNL A   1      32.241  30.971  26.788  1.00  0.00     0.042 C 
BRANCH  29  30
ATOM     30  C   UNL A   1      33.549  30.835  27.573  1.00  0.00     0.118 C 
BRANCH  30  31
ATOM     31  N   UNL A   1      34.284  32.073  27.741  1.00  0.00    -0.352 N 
ATOM     32  C   UNL A   1      35.610  32.382  27.894  1.00  0.00     0.251 C 
ATOM     33  H   UNL A   1      33.701  32.866  27.747  1.00  0.00     0.163 HD
ATOM     34  O   UNL A   1      35.900  33.569  27.717  1.00  0.00    -0.269 OA
BRANCH  32  35
ATOM     35  C   UNL A   1      36.672  31.435  28.334  1.00  0.00     0.039 A 
ATOM     36  C   UNL A   1      37.755  31.761  29.145  1.00  0.00     0.014 A 
ATOM     37  C   UNL A   1      36.613  30.136  27.786  1.00  0.00     0.014 A 
ATOM     38  C   UNL A   1      38.808  30.863  29.295  1.00  0.00     0.010 A 
ATOM     39  C   UNL A   1      37.657  29.228  27.947  1.00  0.00     0.010 A 
ATOM     40  C   UNL A   1      38.784  29.614  28.657  1.00  0.00    -0.014 A 
BRANCH  40  41
ATOM     41  C   UNL A   1      39.918  28.717  28.890  1.00  0.00     0.031 A 
ATOM     42  C   UNL A   1      40.242  28.569  30.332  1.00  0.00     0.074 A 
ATOM     43  C   UNL A   1      40.603  28.039  27.943  1.00  0.00     0.049 A 
ATOM     44  N   UNL A   1      41.227  29.109  30.969  1.00  0.00    -0.248 NA
ATOM     45  C   UNL A   1      39.252  27.918  31.204  1.00  0.00     0.031 C 
ATOM     46  C   UNL A   1      40.229  27.840  26.541  1.00  0.00     0.029 A 
ATOM     47  N   UNL A   1      41.759  27.311  28.053  1.00  0.00    -0.354 N 
ATOM     48  C   UNL A   1      41.128  28.642  32.277  1.00  0.00     0.074 A 
ATOM     49  C   UNL A   1      39.800  28.104  32.407  1.00  0.00     0.031 C 
ATOM     50  C   UNL A   1      40.996  26.860  26.003  1.00  0.00     0.029 A 
ATOM     51  C   UNL A   1      42.029  26.495  26.958  1.00  0.00     0.049 A 
ATOM     52  H   UNL A   1      42.349  27.362  28.839  1.00  0.00     0.167 HD
ATOM     53  C   UNL A   1      42.247  28.468  33.034  1.00  0.00     0.034 A 
ATOM     54  C   UNL A   1      43.028  25.586  26.835  1.00  0.00     0.034 A 
ATOM     55  C   UNL A   1      43.380  29.115  32.431  1.00  0.00     0.049 A 
ATOM     56  C   UNL A   1      44.101  25.932  27.788  1.00  0.00     0.074 A 
ATOM     57  C   UNL A   1      43.905  30.384  32.374  1.00  0.00     0.029 A 
ATOM     58  N   UNL A   1      43.949  28.386  31.423  1.00  0.00    -0.354 N 
ATOM     59  N   UNL A   1      44.857  26.985  27.668  1.00  0.00    -0.248 NA
ATOM     60  C   UNL A   1      44.144  25.264  29.085  1.00  0.00     0.031 C 
ATOM     61  C   UNL A   1      44.736  30.421  31.215  1.00  0.00     0.029 A 
ATOM     62  C   UNL A   1      44.737  29.162  30.619  1.00  0.00     0.049 A 
ATOM     63  H   UNL A   1      43.810  27.420  31.292  1.00  0.00     0.167 HD
ATOM     64  C   UNL A   1      45.095  27.362  28.972  1.00  0.00     0.074 A 
ATOM     65  C   UNL A   1      44.810  26.185  29.782  1.00  0.00     0.031 C 
ATOM     66  C   UNL A   1      45.158  28.674  29.322  1.00  0.00     0.034 A 
BRANCH  53  67
ATOM     67  C   UNL A   1      42.436  27.330  34.019  1.00  0.00     0.023 A 
ATOM     68  C   UNL A   1      43.255  26.217  33.757  1.00  0.00     0.031 A 
ATOM     69  C   UNL A   1      42.001  27.463  35.356  1.00  0.00     0.131 A 
ATOM     70  C   UNL A   1      43.599  25.297  34.755  1.00  0.00     0.055 A 
ATOM     71  C   UNL A   1      42.399  26.581  36.371  1.00  0.00     0.041 A 
ATOM     72  F   UNL A   1      41.218  28.486  35.730  1.00  0.00    -0.206 F 
ATOM     73  C   UNL A   1      43.205  25.489  36.073  1.00  0.00     0.022 A 
BRANCH  70  74
ATOM     74  S   UNL A   1      44.592  23.836  34.340  1.00  0.00     0.124 S 
ATOM     75  O   UNL A   1      45.376  24.312  33.208  1.00  0.00    -0.237 OA
ATOM     76  O   UNL A   1      45.333  23.625  35.583  1.00  0.00    -0.237 OA
ATOM     77  O   UNL A   1      43.589  22.817  34.040  1.00  0.00    -0.744 OA
ENDBRANCH  70  74
ENDBRANCH  53  67
BRANCH  54  78
ATOM     78  C   UNL A   1      43.003  24.244  26.207  1.00  0.00     0.023 A 
ATOM     79  C   UNL A   1      42.088  23.289  26.686  1.00  0.00     0.031 A 
ATOM     80  C   UNL A   1      44.088  23.778  25.440  1.00  0.00     0.131 A 
ATOM     81  C   UNL A   1      42.313  21.922  26.460  1.00  0.00     0.055 A 
ATOM     82  C   UNL A   1      44.295  22.414  25.195  1.00  0.00     0.041 A 
ATOM     83  F   UNL A   1      45.017  24.632  24.984  1.00  0.00    -0.206 F 
ATOM     84  C   UNL A   1      43.414  21.477  25.725  1.00  0.00     0.022 A 
BRANCH  81  85
ATOM     85  S   UNL A   1      41.242  20.674  27.226  1.00  0.00     0.124 S 
ATOM     86  O   UNL A   1      40.651  21.418  28.336  1.00  0.00    -0.237 OA
ATOM     87  O   UNL A   1      40.332  20.355  26.131  1.00  0.00    -0.237 OA
ATOM     88  O   UNL A   1      42.171  19.619  27.612  1.00  0.00    -0.744 OA
ENDBRANCH  81  85
ENDBRANCH  54  78
BRANCH  66  89
ATOM     89  C   UNL A   1      45.544  29.685  28.284  1.00  0.00     0.023 A 
ATOM     90  C   UNL A   1      46.921  29.809  28.041  1.00  0.00     0.031 A 
ATOM     91  C   UNL A   1      44.679  30.601  27.665  1.00  0.00     0.131 A 
ATOM     92  C   UNL A   1      47.412  30.862  27.269  1.00  0.00     0.055 A 
ATOM     93  C   UNL A   1      45.168  31.609  26.824  1.00  0.00     0.041 A 
ATOM     94  F   UNL A   1      43.360  30.594  27.906  1.00  0.00    -0.206 F 
ATOM     95  C   UNL A   1      46.542  31.756  26.642  1.00  0.00     0.022 A 
BRANCH  92  96
ATOM     96  S   UNL A   1      49.193  31.175  27.213  1.00  0.00     0.124 S 
ATOM     97  O   UNL A   1      49.687  30.026  26.462  1.00  0.00    -0.237 OA
ATOM     98  O   UNL A   1      49.259  32.458  26.516  1.00  0.00    -0.237 OA
ATOM     99  O   UNL A   1      49.589  31.220  28.618  1.00  0.00    -0.744 OA
ENDBRANCH  92  96
ENDBRANCH  66  89
ENDBRANCH  40  41
ENDBRANCH  32  35
ENDBRANCH  30  31
ENDBRANCH  29  30
ENDBRANCH  28  29
ENDBRANCH   3  28
TORSDOF 20
ENDMDL
MODEL 3
REMARK VINA RESULT:     -10.8      4.892     11.799
REMARK SMILES O=C(CC[NH2+]C[C@H](O)Cn1c2ccccc2c2ccccc21)NCCCNC(=O)c1ccc(-c2c3nc(c(-c4cc(S(=O)(=O)[O-])ccc4F)c4ccc([nH]4)c(-c4cc(S(=O)(=O)[O-])ccc4F)c4nc(c(-c5cc(S(=O)(=O)[O-])ccc5F)c5ccc2[nH]5)C=C4)C=C3)cc1
REMARK SMILES IDX 1 1 2 2 23 3 3 5 4 6 5 7 6 10 7 11 9 12 10 13 11 14 22 15
REMARK SMILES IDX 12 16 16 17 17 18 21 19 13 20 15 21 18 22 20 23 14 24 19 25
REMARK SMILES IDX 8 26 24 28 25 29 26 30 27 31 28 32 29 34 30 35 31 36 92 37
REMARK SMILES IDX 32 38 91 39 33 40 34 41 35 42 85 43 36 44 90 45 84 46 86 47
REMARK SMILES IDX 37 48 89 49 83 50 82 51 38 53 70 54 50 55 69 56 51 57 54 58
REMARK SMILES IDX 68 59 87 60 52 61 53 62 67 64 88 65 55 66 39 67 40 68 48 69
REMARK SMILES IDX 41 70 47 71 49 72 46 73 42 74 43 75 44 76 45 77 71 78 72 79
REMARK SMILES IDX 80 80 73 81 79 82 81 83 78 84 74 85 75 86 76 87 77 88 56 89
REMARK SMILES IDX 57 90 65 91 58 92 64 93 66 94 63 95 59 96 60 97 61 98 62 99
REMARK H PARENT 23 4 5 8 5 9 8 27 27 33 86 52 54 63
REMARK Flexibility Score: inf
ROOT
ATOM      1  O   UNL A   1      40.339  19.555  26.034  1.00  0.00    -0.275 OA
ATOM      2  C   UNL A   1      41.195  20.317  26.452  1.00  0.00     0.225 C 
ATOM      3  N   UNL A   1      42.321  19.926  27.147  1.00  0.00    -0.356 N 
ATOM      4  H   UNL A   1      42.989  20.614  27.372  1.00  0.00     0.163 HD
ENDROOT
BRANCH   2   5
ATOM      5  C   UNL A   1      41.077  21.823  26.324  1.00  0.00     0.161 C 
BRANCH   5   6
ATOM      6  C   UNL A   1      39.663  22.293  26.676  1.00  0.00     0.270 C 
BRANCH   6   7
ATOM      7  N   UNL A   1      38.796  22.359  25.490  1.00  0.00    -0.344 N 
ATOM      8  H   UNL A   1      39.324  22.026  24.682  1.00  0.00     0.346 HD
ATOM      9  H   UNL A   1      38.502  23.329  25.378  1.00  0.00     0.346 HD
BRANCH   7  10
ATOM     10  C   UNL A   1      37.581  21.543  25.623  1.00  0.00     0.294 C 
BRANCH  10  11
ATOM     11  C   UNL A   1      36.231  22.293  25.650  1.00  0.00     0.189 C 
BRANCH  11  12
ATOM     12  C   UNL A   1      35.072  21.414  26.158  1.00  0.00     0.160 C 
BRANCH  12  13
ATOM     13  N   UNL A   1      34.081  21.173  25.111  1.00  0.00    -0.338 N 
ATOM     14  C   UNL A   1      33.871  19.948  24.509  1.00  0.00     0.049 A 
ATOM     15  C   UNL A   1      33.192  22.115  24.626  1.00  0.00     0.049 A 
ATOM     16  C   UNL A   1      34.558  18.729  24.631  1.00  0.00     0.027 A 
ATOM     17  C   UNL A   1      32.751  20.085  23.688  1.00  0.00     0.007 A 
ATOM     18  C   UNL A   1      32.336  21.452  23.744  1.00  0.00     0.007 A 
ATOM     19  C   UNL A   1      33.058  23.489  24.882  1.00  0.00     0.027 A 
ATOM     20  C   UNL A   1      34.066  17.621  23.939  1.00  0.00     0.002 A 
ATOM     21  C   UNL A   1      32.278  18.952  22.993  1.00  0.00     0.011 A 
ATOM     22  C   UNL A   1      31.308  22.186  23.110  1.00  0.00     0.011 A 
ATOM     23  C   UNL A   1      32.037  24.195  24.240  1.00  0.00     0.002 A 
ATOM     24  C   UNL A   1      32.937  17.727  23.135  1.00  0.00     0.001 A 
ATOM     25  C   UNL A   1      31.169  23.554  23.365  1.00  0.00     0.001 A 
ENDBRANCH  12  13
ENDBRANCH  11  12
BRANCH  11  26
ATOM     26  O   UNL A   1      36.412  23.436  26.501  1.00  0.00    -0.385 OA
ATOM     27  H   UNL A   1      37.197  23.305  27.056  1.00  0.00     0.211 HD
ENDBRANCH  11  26
ENDBRANCH  10  11
ENDBRANCH   7  10
ENDBRANCH   6   7
ENDBRANCH   5   6
ENDBRANCH   2   5
BRANCH   3  28
ATOM     28  C   UNL A   1      42.577  18.560  27.566  1.00  0.00     0.117 C 
BRANCH  28  29
ATOM     29  C   UNL A   1      43.268  17.739  26.478  1.00  0.00     0.042 C 
BRANCH  29  30
ATOM     30  C   UNL A   1      44.535  18.380  25.906  1.00  0.00     0.118 C 
BRANCH  30  31
ATOM     31  N   UNL A   1      44.401  18.881  24.552  1.00  0.00    -0.352 N 
ATOM     32  C   UNL A   1      44.643  20.089  23.954  1.00  0.00     0.251 C 
ATOM     33  H   UNL A   1      44.058  18.203  23.925  1.00  0.00     0.163 HD
ATOM     34  O   UNL A   1      44.690  20.068  22.720  1.00  0.00    -0.269 OA
BRANCH  32  35
ATOM     35  C   UNL A   1      44.760  21.395  24.660  1.00  0.00     0.039 A 
ATOM     36  C   UNL A   1      45.510  21.624  25.810  1.00  0.00     0.014 A 
ATOM     37  C   UNL A   1      43.952  22.442  24.168  1.00  0.00     0.014 A 
ATOM     38  C   UNL A   1      45.357  22.814  26.515  1.00  0.00     0.010 A 
ATOM     39  C   UNL A   1      43.809  23.641  24.862  1.00  0.00     0.010 A 
ATOM     40  C   UNL A   1      44.469  23.805  26.071  1.00  0.00    -0.014 A 
BRANCH  40  41
ATOM     41  C   UNL A   1      44.389  25.039  26.855  1.00  0.00     0.031 A 
ATOM     42  C   UNL A   1      45.562  25.926  26.646  1.00  0.00     0.074 A 
ATOM     43  C   UNL A   1      43.368  25.403  27.662  1.00  0.00     0.049 A 
ATOM     44  N   UNL A   1      46.554  26.110  27.453  1.00  0.00    -0.248 NA
ATOM     45  C   UNL A   1      45.759  26.515  25.313  1.00  0.00     0.031 C 
ATOM     46  C   UNL A   1      42.034  24.802  27.741  1.00  0.00     0.029 A 
ATOM     47  N   UNL A   1      43.280  26.449  28.542  1.00  0.00    -0.354 N 
ATOM     48  C   UNL A   1      47.370  27.053  26.833  1.00  0.00     0.074 A 
ATOM     49  C   UNL A   1      46.952  27.096  25.457  1.00  0.00     0.031 C 
ATOM     50  C   UNL A   1      41.206  25.628  28.425  1.00  0.00     0.029 A 
ATOM     51  C   UNL A   1      41.989  26.717  28.987  1.00  0.00     0.049 A 
ATOM     52  H   UNL A   1      44.064  26.967  28.836  1.00  0.00     0.167 HD
ATOM     53  C   UNL A   1      48.105  27.925  27.579  1.00  0.00     0.034 A 
ATOM     54  C   UNL A   1      41.583  27.753  29.763  1.00  0.00     0.034 A 
ATOM     55  C   UNL A   1      48.154  27.509  28.954  1.00  0.00     0.049 A 
ATOM     56  C   UNL A   1      42.748  28.270  30.507  1.00  0.00     0.074 A 
ATOM     57  C   UNL A   1      48.876  26.621  29.716  1.00  0.00     0.029 A 
ATOM     58  N   UNL A   1      47.034  27.848  29.664  1.00  0.00    -0.354 N 
ATOM     59  N   UNL A   1      43.345  27.610  31.458  1.00  0.00    -0.248 NA
ATOM     60  C   UNL A   1      43.474  29.422  29.982  1.00  0.00     0.031 C 
ATOM     61  C   UNL A   1      48.086  26.352  30.872  1.00  0.00     0.029 A 
ATOM     62  C   UNL A   1      46.923  27.117  30.814  1.00  0.00     0.049 A 
ATOM     63  H   UNL A   1      46.388  28.535  29.382  1.00  0.00     0.167 HD
ATOM     64  C   UNL A   1      44.667  27.974  31.322  1.00  0.00     0.074 A 
ATOM     65  C   UNL A   1      44.661  29.210  30.551  1.00  0.00     0.031 C 
ATOM     66  C   UNL A   1      45.666  27.075  31.531  1.00  0.00     0.034 A 
BRANCH  53  67
ATOM     67  C   UNL A   1      48.350  29.371  27.195  1.00  0.00     0.023 A 
ATOM     68  C   UNL A   1      47.309  30.287  26.956  1.00  0.00     0.031 A 
ATOM     69  C   UNL A   1      49.639  29.934  27.314  1.00  0.00     0.131 A 
ATOM     70  C   UNL A   1      47.545  31.662  26.830  1.00  0.00     0.055 A 
ATOM     71  C   UNL A   1      49.869  31.316  27.255  1.00  0.00     0.041 A 
ATOM     72  F   UNL A   1      50.712  29.162  27.546  1.00  0.00    -0.206 F 
ATOM     73  C   UNL A   1      48.817  32.191  27.013  1.00  0.00     0.022 A 
BRANCH  70  74
ATOM     74  S   UNL A   1      46.175  32.786  26.442  1.00  0.00     0.124 S 
ATOM     75  O   UNL A   1      45.283  31.927  25.675  1.00  0.00    -0.237 OA
ATOM     76  O   UNL A   1      45.712  33.154  27.778  1.00  0.00    -0.237 OA
ATOM     77  O   UNL A   1      46.821  33.865  25.696  1.00  0.00    -0.744 OA
ENDBRANCH  70  74
ENDBRANCH  53  67
BRANCH  54  78
ATOM     78  C   UNL A   1      40.345  28.563  29.675  1.00  0.00     0.023 A 
ATOM     79  C   UNL A   1      39.685  28.922  30.863  1.00  0.00     0.031 A 
ATOM     80  C   UNL A   1      39.616  28.652  28.474  1.00  0.00     0.131 A 
ATOM     81  C   UNL A   1      38.328  29.278  30.836  1.00  0.00     0.055 A 
ATOM     82  C   UNL A   1      38.268  29.033  28.447  1.00  0.00     0.041 A 
ATOM     83  F   UNL A   1      40.175  28.289  27.309  1.00  0.00    -0.206 F 
ATOM     84  C   UNL A   1      37.612  29.328  29.637  1.00  0.00     0.022 A 
BRANCH  81  85
ATOM     85  S   UNL A   1      37.419  29.566  32.380  1.00  0.00     0.124 S 
ATOM     86  O   UNL A   1      36.134  30.059  31.890  1.00  0.00    -0.237 OA
ATOM     87  O   UNL A   1      37.397  28.229  32.964  1.00  0.00    -0.237 OA
ATOM     88  O   UNL A   1      38.236  30.554  33.076  1.00  0.00    -0.744 OA
ENDBRANCH  81  85
ENDBRANCH  54  78
BRANCH  66  89
ATOM     89  C   UNL A   1      45.414  25.907  32.437  1.00  0.00     0.023 A 
ATOM     90  C   UNL A   1      45.863  26.056  33.759  1.00  0.00     0.031 A 
ATOM     91  C   UNL A   1      44.921  24.652  32.044  1.00  0.00     0.131 A 
ATOM     92  C   UNL A   1      45.886  24.964  34.626  1.00  0.00     0.055 A 
ATOM     93  C   UNL A   1      44.871  23.578  32.941  1.00  0.00     0.041 A 
ATOM     94  F   UNL A   1      44.544  24.410  30.780  1.00  0.00    -0.206 F 
ATOM     95  C   UNL A   1      45.375  23.725  34.232  1.00  0.00     0.022 A 
BRANCH  92  96
ATOM     96  S   UNL A   1      46.736  25.103  36.217  1.00  0.00     0.124 S 
ATOM     97  O   UNL A   1      47.318  26.440  36.142  1.00  0.00    -0.237 OA
ATOM     98  O   UNL A   1      45.638  24.948  37.168  1.00  0.00    -0.237 OA
ATOM     99  O   UNL A   1      47.696  24.003  36.204  1.00  0.00    -0.744 OA
ENDBRANCH  92  96
ENDBRANCH  66  89
ENDBRANCH  40  41
ENDBRANCH  32  35
ENDBRANCH  30  31
ENDBRANCH  29  30
ENDBRANCH  28  29
ENDBRANCH   3  28
TORSDOF 20
ENDMDL
