MODEL 1
REMARK VINA RESULT:     -11.2      0.000      0.000
REMARK SMILES O=C(COC1CC[NH+](Cc2nccs2)CC1)NCCCNC(=O)c1ccc(-c2c3nc(c(-c4cc(S(=O)(=O)[O-])ccc4F)c4ccc([nH]4)c(-c4cc(S(=O)(=O)[O-])ccc4F)c4nc(c(-c5cc(S(=O)(=O)[O-])ccc5F)c5ccc2[nH]5)C=C4)C=C3)cc1
REMARK SMILES IDX 18 1 17 2 1 3 2 4 3 6 4 7 5 8 6 9 16 10 7 11 15 12 8 13 9 15
REMARK SMILES IDX 10 16 11 17 14 18 12 19 13 20 19 21 20 22 21 23 22 24 23 26
REMARK SMILES IDX 24 27 25 28 86 29 26 30 85 31 27 32 28 33 29 34 79 35 30 36
REMARK SMILES IDX 84 37 78 38 80 39 31 40 83 41 77 42 76 43 32 45 64 46 44 47
REMARK SMILES IDX 63 48 45 49 48 50 62 51 81 52 46 53 47 54 61 56 82 57 49 58
REMARK SMILES IDX 33 59 34 60 42 61 35 62 41 63 43 64 40 65 36 66 37 67 38 68
REMARK SMILES IDX 39 69 65 70 66 71 74 72 67 73 73 74 75 75 72 76 68 77 69 78
REMARK SMILES IDX 70 79 71 80 50 81 51 82 59 83 52 84 58 85 60 86 57 87 53 88
REMARK SMILES IDX 54 89 55 90 56 91
REMARK H PARENT 17 5 8 14 21 25 80 44 48 55
REMARK Flexibility Score: inf
ROOT
ATOM      1  C   UNL A   1      33.254  29.011  25.463  1.00  0.00     0.117 C 
ENDROOT
BRANCH   1   2
ATOM      2  N   UNL A   1      32.760  27.676  25.211  1.00  0.00    -0.354 N 
ATOM      3  O   UNL A   1      31.999  27.324  27.347  1.00  0.00    -0.272 OA
ATOM      4  C   UNL A   1      32.143  26.936  26.191  1.00  0.00     0.246 C 
ATOM      5  H   UNL A   1      32.869  27.286  24.312  1.00  0.00     0.163 HD
BRANCH   4   6
ATOM      6  C   UNL A   1      31.656  25.567  25.716  1.00  0.00     0.260 C 
BRANCH   6   7
ATOM      7  O   UNL A   1      32.416  24.413  26.020  1.00  0.00    -0.368 OA
BRANCH   7   8
ATOM      8  C   UNL A   1      31.927  23.468  26.980  1.00  0.00     0.130 C 
ATOM      9  C   UNL A   1      32.910  22.533  27.684  1.00  0.00     0.093 C 
ATOM     10  C   UNL A   1      30.919  22.580  26.242  1.00  0.00     0.093 C 
ATOM     11  C   UNL A   1      33.623  21.601  26.711  1.00  0.00     0.265 C 
ATOM     12  C   UNL A   1      31.645  21.667  25.248  1.00  0.00     0.265 C 
ATOM     13  N   UNL A   1      32.692  20.840  25.870  1.00  0.00    -0.329 N 
ATOM     14  H   UNL A   1      32.194  20.199  26.487  1.00  0.00     0.348 HD
BRANCH  13  15
ATOM     15  C   UNL A   1      33.445  20.050  24.856  1.00  0.00     0.331 C 
BRANCH  15  16
ATOM     16  C   UNL A   1      33.277  18.543  24.927  1.00  0.00     0.147 A 
ATOM     17  N   UNL A   1      32.282  17.916  25.525  1.00  0.00    -0.244 NA
ATOM     18  S   UNL A   1      34.478  17.508  24.243  1.00  0.00    -0.122 S 
ATOM     19  C   UNL A   1      32.508  16.555  25.523  1.00  0.00     0.123 A 
ATOM     20  C   UNL A   1      33.651  16.146  24.873  1.00  0.00     0.087 A 
ENDBRANCH  15  16
ENDBRANCH  13  15
ENDBRANCH   7   8
ENDBRANCH   6   7
ENDBRANCH   4   6
ENDBRANCH   1   2
BRANCH   1  21
ATOM     21  C   UNL A   1      32.148  30.057  25.528  1.00  0.00     0.042 C 
BRANCH  21  22
ATOM     22  C   UNL A   1      31.923  30.642  26.917  1.00  0.00     0.118 C 
BRANCH  22  23
ATOM     23  N   UNL A   1      31.958  32.098  26.931  1.00  0.00    -0.352 N 
ATOM     24  C   UNL A   1      32.878  32.952  27.489  1.00  0.00     0.251 C 
ATOM     25  H   UNL A   1      31.206  32.536  26.470  1.00  0.00     0.163 HD
ATOM     26  O   UNL A   1      32.637  34.153  27.528  1.00  0.00    -0.269 OA
BRANCH  24  27
ATOM     27  C   UNL A   1      34.133  32.419  28.063  1.00  0.00     0.039 A 
ATOM     28  C   UNL A   1      35.204  33.292  28.266  1.00  0.00     0.014 A 
ATOM     29  C   UNL A   1      34.256  31.069  28.405  1.00  0.00     0.014 A 
ATOM     30  C   UNL A   1      36.371  32.828  28.879  1.00  0.00     0.010 A 
ATOM     31  C   UNL A   1      35.386  30.628  29.089  1.00  0.00     0.010 A 
ATOM     32  C   UNL A   1      36.456  31.501  29.335  1.00  0.00    -0.014 A 
BRANCH  32  33
ATOM     33  C   UNL A   1      37.652  31.016  30.075  1.00  0.00     0.031 A 
ATOM     34  C   UNL A   1      38.614  30.064  29.416  1.00  0.00     0.074 A 
ATOM     35  C   UNL A   1      37.837  31.383  31.359  1.00  0.00     0.049 A 
ATOM     36  N   UNL A   1      39.666  29.471  29.918  1.00  0.00    -0.248 NA
ATOM     37  C   UNL A   1      38.337  29.711  28.015  1.00  0.00     0.031 C 
ATOM     38  C   UNL A   1      36.954  32.272  32.117  1.00  0.00     0.029 A 
ATOM     39  N   UNL A   1      38.821  31.053  32.256  1.00  0.00    -0.354 N 
ATOM     40  C   UNL A   1      40.172  28.668  28.901  1.00  0.00     0.074 A 
ATOM     41  C   UNL A   1      39.270  28.802  27.776  1.00  0.00     0.031 C 
ATOM     42  C   UNL A   1      37.451  32.437  33.354  1.00  0.00     0.029 A 
ATOM     43  C   UNL A   1      38.656  31.626  33.497  1.00  0.00     0.049 A 
ATOM     44  H   UNL A   1      39.576  30.461  32.034  1.00  0.00     0.167 HD
ATOM     45  C   UNL A   1      41.296  27.908  28.898  1.00  0.00     0.034 A 
ATOM     46  C   UNL A   1      39.381  31.501  34.628  1.00  0.00     0.034 A 
ATOM     47  C   UNL A   1      42.186  27.791  30.027  1.00  0.00     0.049 A 
ATOM     48  C   UNL A   1      40.603  30.617  34.613  1.00  0.00     0.074 A 
ATOM     49  C   UNL A   1      43.376  27.091  30.116  1.00  0.00     0.029 A 
ATOM     50  N   UNL A   1      41.981  28.380  31.269  1.00  0.00    -0.354 N 
ATOM     51  N   UNL A   1      41.095  29.902  33.626  1.00  0.00    -0.248 NA
ATOM     52  C   UNL A   1      41.375  30.531  35.859  1.00  0.00     0.031 C 
ATOM     53  C   UNL A   1      43.848  27.190  31.429  1.00  0.00     0.029 A 
ATOM     54  C   UNL A   1      43.004  28.028  32.138  1.00  0.00     0.049 A 
ATOM     55  H   UNL A   1      41.221  28.962  31.500  1.00  0.00     0.167 HD
ATOM     56  C   UNL A   1      42.255  29.313  34.126  1.00  0.00     0.074 A 
ATOM     57  C   UNL A   1      42.393  29.765  35.494  1.00  0.00     0.031 C 
ATOM     58  C   UNL A   1      43.130  28.481  33.504  1.00  0.00     0.034 A 
BRANCH  45  59
ATOM     59  C   UNL A   1      41.605  27.125  27.643  1.00  0.00     0.023 A 
ATOM     60  C   UNL A   1      41.377  25.740  27.562  1.00  0.00     0.031 A 
ATOM     61  C   UNL A   1      42.153  27.766  26.519  1.00  0.00     0.131 A 
ATOM     62  C   UNL A   1      41.768  25.030  26.415  1.00  0.00     0.055 A 
ATOM     63  C   UNL A   1      42.458  27.069  25.348  1.00  0.00     0.041 A 
ATOM     64  F   UNL A   1      42.416  29.083  26.542  1.00  0.00    -0.206 F 
ATOM     65  C   UNL A   1      42.281  25.690  25.297  1.00  0.00     0.022 A 
BRANCH  62  66
ATOM     66  S   UNL A   1      41.739  23.217  26.468  1.00  0.00     0.124 S 
ATOM     67  O   UNL A   1      40.323  22.938  26.245  1.00  0.00    -0.237 OA
ATOM     68  O   UNL A   1      42.641  22.855  25.382  1.00  0.00    -0.237 OA
ATOM     69  O   UNL A   1      42.223  22.906  27.812  1.00  0.00    -0.744 OA
ENDBRANCH  62  66
ENDBRANCH  45  59
BRANCH  46  70
ATOM     70  C   UNL A   1      38.970  32.212  35.873  1.00  0.00     0.023 A 
ATOM     71  C   UNL A   1      38.273  31.543  36.891  1.00  0.00     0.031 A 
ATOM     72  C   UNL A   1      39.227  33.585  36.044  1.00  0.00     0.131 A 
ATOM     73  C   UNL A   1      37.812  32.257  38.010  1.00  0.00     0.055 A 
ATOM     74  C   UNL A   1      38.819  34.276  37.185  1.00  0.00     0.041 A 
ATOM     75  F   UNL A   1      39.891  34.273  35.102  1.00  0.00    -0.206 F 
ATOM     76  C   UNL A   1      38.094  33.615  38.171  1.00  0.00     0.022 A 
BRANCH  73  77
ATOM     77  S   UNL A   1      36.749  31.403  39.207  1.00  0.00     0.124 S 
ATOM     78  O   UNL A   1      36.489  30.141  38.523  1.00  0.00    -0.237 OA
ATOM     79  O   UNL A   1      37.612  31.331  40.381  1.00  0.00    -0.237 OA
ATOM     80  O   UNL A   1      35.597  32.293  39.335  1.00  0.00    -0.744 OA
ENDBRANCH  73  77
ENDBRANCH  46  70
BRANCH  58  81
ATOM     81  C   UNL A   1      44.349  28.053  34.286  1.00  0.00     0.023 A 
ATOM     82  C   UNL A   1      44.382  26.855  35.021  1.00  0.00     0.031 A 
ATOM     83  C   UNL A   1      45.501  28.862  34.289  1.00  0.00     0.131 A 
ATOM     84  C   UNL A   1      45.523  26.527  35.770  1.00  0.00     0.055 A 
ATOM     85  C   UNL A   1      46.655  28.497  34.982  1.00  0.00     0.041 A 
ATOM     86  F   UNL A   1      45.525  30.019  33.607  1.00  0.00    -0.206 F 
ATOM     87  C   UNL A   1      46.666  27.329  35.739  1.00  0.00     0.022 A 
BRANCH  84  88
ATOM     88  S   UNL A   1      45.464  25.078  36.861  1.00  0.00     0.124 S 
ATOM     89  O   UNL A   1      44.581  25.538  37.927  1.00  0.00    -0.237 OA
ATOM     90  O   UNL A   1      44.919  24.048  35.982  1.00  0.00    -0.237 OA
ATOM     91  O   UNL A   1      46.859  24.884  37.250  1.00  0.00    -0.744 OA
ENDBRANCH  84  88
ENDBRANCH  58  81
ENDBRANCH  32  33
ENDBRANCH  24  27
ENDBRANCH  22  23
ENDBRANCH  21  22
ENDBRANCH   1  21
TORSDOF 17
ENDMDL
MODEL 2
REMARK VINA RESULT:     -11.1      2.259      2.911
REMARK SMILES O=C(COC1CC[NH+](Cc2nccs2)CC1)NCCCNC(=O)c1ccc(-c2c3nc(c(-c4cc(S(=O)(=O)[O-])ccc4F)c4ccc([nH]4)c(-c4cc(S(=O)(=O)[O-])ccc4F)c4nc(c(-c5cc(S(=O)(=O)[O-])ccc5F)c5ccc2[nH]5)C=C4)C=C3)cc1
REMARK SMILES IDX 18 1 17 2 1 3 2 4 3 6 4 7 5 8 6 9 16 10 7 11 15 12 8 13 9 15
REMARK SMILES IDX 10 16 11 17 14 18 12 19 13 20 19 21 20 22 21 23 22 24 23 26
REMARK SMILES IDX 24 27 25 28 86 29 26 30 85 31 27 32 28 33 29 34 79 35 30 36
REMARK SMILES IDX 84 37 78 38 80 39 31 40 83 41 77 42 76 43 32 45 64 46 44 47
REMARK SMILES IDX 63 48 45 49 48 50 62 51 81 52 46 53 47 54 61 56 82 57 49 58
REMARK SMILES IDX 33 59 34 60 42 61 35 62 41 63 43 64 40 65 36 66 37 67 38 68
REMARK SMILES IDX 39 69 65 70 66 71 74 72 67 73 73 74 75 75 72 76 68 77 69 78
REMARK SMILES IDX 70 79 71 80 50 81 51 82 59 83 52 84 58 85 60 86 57 87 53 88
REMARK SMILES IDX 54 89 55 90 56 91
REMARK H PARENT 17 5 8 14 21 25 80 44 48 55
REMARK Flexibility Score: inf
ROOT
ATOM      1  C   UNL A   1      31.798  30.149  26.952  1.00  0.00     0.117 C 
ENDROOT
BRANCH   1   2
ATOM      2  N   UNL A   1      31.708  29.357  25.747  1.00  0.00    -0.354 N 
ATOM      3  O   UNL A   1      33.922  28.751  25.725  1.00  0.00    -0.272 OA
ATOM      4  C   UNL A   1      32.798  28.694  25.235  1.00  0.00     0.246 C 
ATOM      5  H   UNL A   1      30.843  29.291  25.280  1.00  0.00     0.163 HD
BRANCH   4   6
ATOM      6  C   UNL A   1      32.489  27.880  23.978  1.00  0.00     0.260 C 
BRANCH   6   7
ATOM      7  O   UNL A   1      31.990  26.562  24.105  1.00  0.00    -0.368 OA
BRANCH   7   8
ATOM      8  C   UNL A   1      30.612  26.348  24.437  1.00  0.00     0.130 C 
ATOM      9  C   UNL A   1      30.239  25.895  25.848  1.00  0.00     0.093 C 
ATOM     10  C   UNL A   1      30.094  25.275  23.472  1.00  0.00     0.093 C 
ATOM     11  C   UNL A   1      30.825  24.532  26.193  1.00  0.00     0.265 C 
ATOM     12  C   UNL A   1      30.711  23.914  23.813  1.00  0.00     0.265 C 
ATOM     13  N   UNL A   1      30.481  23.500  25.208  1.00  0.00    -0.329 N 
ATOM     14  H   UNL A   1      29.475  23.348  25.278  1.00  0.00     0.348 HD
BRANCH  13  15
ATOM     15  C   UNL A   1      31.188  22.229  25.528  1.00  0.00     0.331 C 
BRANCH  15  16
ATOM     16  C   UNL A   1      32.581  22.371  26.114  1.00  0.00     0.147 A 
ATOM     17  N   UNL A   1      32.866  22.393  27.402  1.00  0.00    -0.244 NA
ATOM     18  S   UNL A   1      33.938  22.587  25.068  1.00  0.00    -0.122 S 
ATOM     19  C   UNL A   1      34.204  22.674  27.588  1.00  0.00     0.123 A 
ATOM     20  C   UNL A   1      34.945  22.813  26.436  1.00  0.00     0.087 A 
ENDBRANCH  15  16
ENDBRANCH  13  15
ENDBRANCH   7   8
ENDBRANCH   6   7
ENDBRANCH   4   6
ENDBRANCH   1   2
BRANCH   1  21
ATOM     21  C   UNL A   1      31.744  31.649  26.688  1.00  0.00     0.042 C 
BRANCH  21  22
ATOM     22  C   UNL A   1      32.949  32.419  27.213  1.00  0.00     0.118 C 
BRANCH  22  23
ATOM     23  N   UNL A   1      32.630  33.793  27.576  1.00  0.00    -0.352 N 
ATOM     24  C   UNL A   1      33.146  34.583  28.576  1.00  0.00     0.251 C 
ATOM     25  H   UNL A   1      31.940  34.221  27.020  1.00  0.00     0.163 HD
ATOM     26  O   UNL A   1      32.624  35.664  28.817  1.00  0.00    -0.269 OA
BRANCH  24  27
ATOM     27  C   UNL A   1      34.302  34.113  29.371  1.00  0.00     0.039 A 
ATOM     28  C   UNL A   1      34.071  33.270  30.460  1.00  0.00     0.014 A 
ATOM     29  C   UNL A   1      35.606  34.496  29.046  1.00  0.00     0.014 A 
ATOM     30  C   UNL A   1      35.151  32.751  31.176  1.00  0.00     0.010 A 
ATOM     31  C   UNL A   1      36.684  33.914  29.710  1.00  0.00     0.010 A 
ATOM     32  C   UNL A   1      36.470  33.034  30.781  1.00  0.00    -0.014 A 
BRANCH  32  33
ATOM     33  C   UNL A   1      37.633  32.415  31.472  1.00  0.00     0.031 A 
ATOM     34  C   UNL A   1      38.384  31.284  30.822  1.00  0.00     0.074 A 
ATOM     35  C   UNL A   1      37.972  32.828  32.709  1.00  0.00     0.049 A 
ATOM     36  N   UNL A   1      39.370  30.566  31.294  1.00  0.00    -0.248 NA
ATOM     37  C   UNL A   1      37.947  30.891  29.474  1.00  0.00     0.031 C 
ATOM     38  C   UNL A   1      37.297  33.892  33.458  1.00  0.00     0.029 A 
ATOM     39  N   UNL A   1      38.963  32.406  33.560  1.00  0.00    -0.354 N 
ATOM     40  C   UNL A   1      39.666  29.631  30.308  1.00  0.00     0.074 A 
ATOM     41  C   UNL A   1      38.709  29.833  29.241  1.00  0.00     0.031 C 
ATOM     42  C   UNL A   1      37.910  34.055  34.641  1.00  0.00     0.029 A 
ATOM     43  C   UNL A   1      38.985  33.075  34.763  1.00  0.00     0.049 A 
ATOM     44  H   UNL A   1      39.599  31.689  33.331  1.00  0.00     0.167 HD
ATOM     45  C   UNL A   1      40.658  28.705  30.286  1.00  0.00     0.034 A 
ATOM     46  C   UNL A   1      39.770  32.909  35.847  1.00  0.00     0.034 A 
ATOM     47  C   UNL A   1      41.606  28.521  31.357  1.00  0.00     0.049 A 
ATOM     48  C   UNL A   1      40.838  31.846  35.815  1.00  0.00     0.074 A 
ATOM     49  C   UNL A   1      42.679  27.650  31.417  1.00  0.00     0.029 A 
ATOM     50  N   UNL A   1      41.591  29.213  32.563  1.00  0.00    -0.354 N 
ATOM     51  N   UNL A   1      41.136  31.001  34.854  1.00  0.00    -0.248 NA
ATOM     52  C   UNL A   1      41.684  31.719  37.009  1.00  0.00     0.031 C 
ATOM     53  C   UNL A   1      43.263  27.756  32.684  1.00  0.00     0.029 A 
ATOM     54  C   UNL A   1      42.614  28.760  33.384  1.00  0.00     0.049 A 
ATOM     55  H   UNL A   1      40.949  29.920  32.800  1.00  0.00     0.167 HD
ATOM     56  C   UNL A   1      42.229  30.270  35.316  1.00  0.00     0.074 A 
ATOM     57  C   UNL A   1      42.541  30.780  36.634  1.00  0.00     0.031 C 
ATOM     58  C   UNL A   1      42.915  29.273  34.700  1.00  0.00     0.034 A 
BRANCH  45  59
ATOM     59  C   UNL A   1      40.744  27.804  29.075  1.00  0.00     0.023 A 
ATOM     60  C   UNL A   1      41.670  28.039  28.044  1.00  0.00     0.031 A 
ATOM     61  C   UNL A   1      39.875  26.708  28.939  1.00  0.00     0.131 A 
ATOM     62  C   UNL A   1      41.654  27.239  26.890  1.00  0.00     0.055 A 
ATOM     63  C   UNL A   1      39.923  25.862  27.829  1.00  0.00     0.041 A 
ATOM     64  F   UNL A   1      38.953  26.444  29.878  1.00  0.00    -0.206 F 
ATOM     65  C   UNL A   1      40.805  26.135  26.788  1.00  0.00     0.022 A 
BRANCH  62  66
ATOM     66  S   UNL A   1      42.648  27.757  25.464  1.00  0.00     0.124 S 
ATOM     67  O   UNL A   1      42.620  26.557  24.633  1.00  0.00    -0.237 OA
ATOM     68  O   UNL A   1      41.902  28.903  24.958  1.00  0.00    -0.237 OA
ATOM     69  O   UNL A   1      43.950  28.069  26.050  1.00  0.00    -0.744 OA
ENDBRANCH  62  66
ENDBRANCH  45  59
BRANCH  46  70
ATOM     70  C   UNL A   1      39.571  33.754  37.061  1.00  0.00     0.023 A 
ATOM     71  C   UNL A   1      38.928  33.244  38.200  1.00  0.00     0.031 A 
ATOM     72  C   UNL A   1      39.980  35.100  37.084  1.00  0.00     0.131 A 
ATOM     73  C   UNL A   1      38.666  34.087  39.292  1.00  0.00     0.055 A 
ATOM     74  C   UNL A   1      39.772  35.917  38.196  1.00  0.00     0.041 A 
ATOM     75  F   UNL A   1      40.601  35.638  36.023  1.00  0.00    -0.206 F 
ATOM     76  C   UNL A   1      39.098  35.415  39.305  1.00  0.00     0.022 A 
BRANCH  73  77
ATOM     77  S   UNL A   1      37.662  33.447  40.661  1.00  0.00     0.124 S 
ATOM     78  O   UNL A   1      36.428  33.079  39.976  1.00  0.00    -0.237 OA
ATOM     79  O   UNL A   1      38.481  32.341  41.146  1.00  0.00    -0.237 OA
ATOM     80  O   UNL A   1      37.557  34.588  41.568  1.00  0.00    -0.744 OA
ENDBRANCH  73  77
ENDBRANCH  46  70
BRANCH  58  81
ATOM     81  C   UNL A   1      44.113  28.709  35.427  1.00  0.00     0.023 A 
ATOM     82  C   UNL A   1      43.992  27.686  36.383  1.00  0.00     0.031 A 
ATOM     83  C   UNL A   1      45.401  29.206  35.150  1.00  0.00     0.131 A 
ATOM     84  C   UNL A   1      45.132  27.230  37.066  1.00  0.00     0.055 A 
ATOM     85  C   UNL A   1      46.536  28.703  35.784  1.00  0.00     0.041 A 
ATOM     86  F   UNL A   1      45.575  30.187  34.249  1.00  0.00    -0.206 F 
ATOM     87  C   UNL A   1      46.404  27.717  36.757  1.00  0.00     0.022 A 
BRANCH  84  88
ATOM     88  S   UNL A   1      44.919  26.052  38.428  1.00  0.00     0.124 S 
ATOM     89  O   UNL A   1      43.562  26.347  38.875  1.00  0.00    -0.237 OA
ATOM     90  O   UNL A   1      45.106  24.767  37.762  1.00  0.00    -0.237 OA
ATOM     91  O   UNL A   1      45.976  26.420  39.368  1.00  0.00    -0.744 OA
ENDBRANCH  84  88
ENDBRANCH  58  81
ENDBRANCH  32  33
ENDBRANCH  24  27
ENDBRANCH  22  23
ENDBRANCH  21  22
ENDBRANCH   1  21
TORSDOF 17
ENDMDL
MODEL 3
REMARK VINA RESULT:     -11.0      1.931      2.749
REMARK SMILES O=C(COC1CC[NH+](Cc2nccs2)CC1)NCCCNC(=O)c1ccc(-c2c3nc(c(-c4cc(S(=O)(=O)[O-])ccc4F)c4ccc([nH]4)c(-c4cc(S(=O)(=O)[O-])ccc4F)c4nc(c(-c5cc(S(=O)(=O)[O-])ccc5F)c5ccc2[nH]5)C=C4)C=C3)cc1
REMARK SMILES IDX 18 1 17 2 1 3 2 4 3 6 4 7 5 8 6 9 16 10 7 11 15 12 8 13 9 15
REMARK SMILES IDX 10 16 11 17 14 18 12 19 13 20 19 21 20 22 21 23 22 24 23 26
REMARK SMILES IDX 24 27 25 28 86 29 26 30 85 31 27 32 28 33 29 34 79 35 30 36
REMARK SMILES IDX 84 37 78 38 80 39 31 40 83 41 77 42 76 43 32 45 64 46 44 47
REMARK SMILES IDX 63 48 45 49 48 50 62 51 81 52 46 53 47 54 61 56 82 57 49 58
REMARK SMILES IDX 33 59 34 60 42 61 35 62 41 63 43 64 40 65 36 66 37 67 38 68
REMARK SMILES IDX 39 69 65 70 66 71 74 72 67 73 73 74 75 75 72 76 68 77 69 78
REMARK SMILES IDX 70 79 71 80 50 81 51 82 59 83 52 84 58 85 60 86 57 87 53 88
REMARK SMILES IDX 54 89 55 90 56 91
REMARK H PARENT 17 5 8 14 21 25 80 44 48 55
REMARK Flexibility Score: inf
ROOT
ATOM      1  C   UNL A   1      32.102  28.566  23.136  1.00  0.00     0.117 C 
ENDROOT
BRANCH   1   2
ATOM      2  N   UNL A   1      32.247  27.141  22.949  1.00  0.00    -0.354 N 
ATOM      3  O   UNL A   1      34.022  27.296  21.501  1.00  0.00    -0.272 OA
ATOM      4  C   UNL A   1      33.230  26.613  22.144  1.00  0.00     0.246 C 
ATOM      5  H   UNL A   1      31.625  26.531  23.409  1.00  0.00     0.163 HD
BRANCH   4   6
ATOM      6  C   UNL A   1      33.242  25.084  22.109  1.00  0.00     0.260 C 
BRANCH   6   7
ATOM      7  O   UNL A   1      34.273  24.380  22.773  1.00  0.00    -0.368 OA
BRANCH   7   8
ATOM      8  C   UNL A   1      34.234  22.949  22.838  1.00  0.00     0.130 C 
ATOM      9  C   UNL A   1      32.898  22.242  23.063  1.00  0.00     0.093 C 
ATOM     10  C   UNL A   1      35.155  22.541  23.994  1.00  0.00     0.093 C 
ATOM     11  C   UNL A   1      32.271  22.601  24.404  1.00  0.00     0.265 C 
ATOM     12  C   UNL A   1      34.525  22.931  25.336  1.00  0.00     0.265 C 
ATOM     13  N   UNL A   1      33.178  22.371  25.535  1.00  0.00    -0.329 N 
ATOM     14  H   UNL A   1      33.315  21.363  25.602  1.00  0.00     0.348 HD
BRANCH  13  15
ATOM     15  C   UNL A   1      32.559  22.862  26.798  1.00  0.00     0.331 C 
BRANCH  15  16
ATOM     16  C   UNL A   1      31.624  24.051  26.662  1.00  0.00     0.147 A 
ATOM     17  N   UNL A   1      30.317  24.015  26.841  1.00  0.00    -0.244 NA
ATOM     18  S   UNL A   1      32.247  25.587  26.179  1.00  0.00    -0.122 S 
ATOM     19  C   UNL A   1      29.758  25.231  26.504  1.00  0.00     0.123 A 
ATOM     20  C   UNL A   1      30.651  26.207  26.121  1.00  0.00     0.087 A 
ENDBRANCH  15  16
ENDBRANCH  13  15
ENDBRANCH   7   8
ENDBRANCH   6   7
ENDBRANCH   4   6
ENDBRANCH   1   2
BRANCH   1  21
ATOM     21  C   UNL A   1      33.211  29.175  23.984  1.00  0.00     0.042 C 
BRANCH  21  22
ATOM     22  C   UNL A   1      32.906  29.214  25.476  1.00  0.00     0.118 C 
BRANCH  22  23
ATOM     23  N   UNL A   1      32.486  30.531  25.935  1.00  0.00    -0.352 N 
ATOM     24  C   UNL A   1      33.030  31.342  26.903  1.00  0.00     0.251 C 
ATOM     25  H   UNL A   1      31.692  30.896  25.482  1.00  0.00     0.163 HD
ATOM     26  O   UNL A   1      32.427  32.350  27.251  1.00  0.00    -0.269 OA
BRANCH  24  27
ATOM     27  C   UNL A   1      34.316  30.980  27.538  1.00  0.00     0.039 A 
ATOM     28  C   UNL A   1      35.282  31.973  27.714  1.00  0.00     0.014 A 
ATOM     29  C   UNL A   1      34.571  29.673  27.962  1.00  0.00     0.014 A 
ATOM     30  C   UNL A   1      36.472  31.673  28.381  1.00  0.00     0.010 A 
ATOM     31  C   UNL A   1      35.721  29.395  28.697  1.00  0.00     0.010 A 
ATOM     32  C   UNL A   1      36.684  30.391  28.917  1.00  0.00    -0.014 A 
BRANCH  32  33
ATOM     33  C   UNL A   1      37.901  30.079  29.713  1.00  0.00     0.031 A 
ATOM     34  C   UNL A   1      38.935  29.128  29.172  1.00  0.00     0.074 A 
ATOM     35  C   UNL A   1      38.046  30.604  30.945  1.00  0.00     0.049 A 
ATOM     36  N   UNL A   1      40.020  28.672  29.743  1.00  0.00    -0.248 NA
ATOM     37  C   UNL A   1      38.699  28.596  27.821  1.00  0.00     0.031 C 
ATOM     38  C   UNL A   1      37.094  31.511  31.592  1.00  0.00     0.029 A 
ATOM     39  N   UNL A   1      39.040  30.450  31.879  1.00  0.00    -0.354 N 
ATOM     40  C   UNL A   1      40.592  27.794  28.828  1.00  0.00     0.074 A 
ATOM     41  C   UNL A   1      39.696  27.734  27.693  1.00  0.00     0.031 C 
ATOM     42  C   UNL A   1      37.564  31.853  32.803  1.00  0.00     0.029 A 
ATOM     43  C   UNL A   1      38.821  31.150  33.044  1.00  0.00     0.049 A 
ATOM     44  H   UNL A   1      39.837  29.891  31.729  1.00  0.00     0.167 HD
ATOM     45  C   UNL A   1      41.766  27.120  28.918  1.00  0.00     0.034 A 
ATOM     46  C   UNL A   1      39.539  31.208  34.184  1.00  0.00     0.034 A 
ATOM     47  C   UNL A   1      42.648  27.197  30.056  1.00  0.00     0.049 A 
ATOM     48  C   UNL A   1      40.820  30.416  34.277  1.00  0.00     0.074 A 
ATOM     49  C   UNL A   1      43.883  26.597  30.231  1.00  0.00     0.029 A 
ATOM     50  N   UNL A   1      42.388  27.910  31.221  1.00  0.00    -0.354 N 
ATOM     51  N   UNL A   1      41.372  29.628  33.381  1.00  0.00    -0.248 NA
ATOM     52  C   UNL A   1      41.581  30.530  35.527  1.00  0.00     0.031 C 
ATOM     53  C   UNL A   1      44.332  26.880  31.525  1.00  0.00     0.029 A 
ATOM     54  C   UNL A   1      43.423  27.733  32.129  1.00  0.00     0.049 A 
ATOM     55  H   UNL A   1      41.587  28.460  31.379  1.00  0.00     0.167 HD
ATOM     56  C   UNL A   1      42.563  29.184  33.950  1.00  0.00     0.074 A 
ATOM     57  C   UNL A   1      42.654  29.799  35.258  1.00  0.00     0.031 C 
ATOM     58  C   UNL A   1      43.501  28.349  33.433  1.00  0.00     0.034 A 
BRANCH  45  59
ATOM     59  C   UNL A   1      42.143  26.220  27.764  1.00  0.00     0.023 A 
ATOM     60  C   UNL A   1      41.669  24.899  27.671  1.00  0.00     0.031 A 
ATOM     61  C   UNL A   1      43.004  26.680  26.753  1.00  0.00     0.131 A 
ATOM     62  C   UNL A   1      42.120  24.063  26.637  1.00  0.00     0.055 A 
ATOM     63  C   UNL A   1      43.378  25.871  25.678  1.00  0.00     0.041 A 
ATOM     64  F   UNL A   1      43.509  27.924  26.797  1.00  0.00    -0.206 F 
ATOM     65  C   UNL A   1      42.949  24.548  25.625  1.00  0.00     0.022 A 
BRANCH  62  66
ATOM     66  S   UNL A   1      41.729  22.294  26.724  1.00  0.00     0.124 S 
ATOM     67  O   UNL A   1      42.655  21.838  27.756  1.00  0.00    -0.237 OA
ATOM     68  O   UNL A   1      40.317  22.300  27.088  1.00  0.00    -0.237 OA
ATOM     69  O   UNL A   1      42.024  21.812  25.376  1.00  0.00    -0.744 OA
ENDBRANCH  62  66
ENDBRANCH  45  59
BRANCH  46  70
ATOM     70  C   UNL A   1      39.066  32.028  35.337  1.00  0.00     0.023 A 
ATOM     71  C   UNL A   1      38.484  31.425  36.463  1.00  0.00     0.031 A 
ATOM     72  C   UNL A   1      39.144  33.432  35.310  1.00  0.00     0.131 A 
ATOM     73  C   UNL A   1      37.957  32.223  37.492  1.00  0.00     0.055 A 
ATOM     74  C   UNL A   1      38.674  34.219  36.363  1.00  0.00     0.041 A 
ATOM     75  F   UNL A   1      39.692  34.061  34.258  1.00  0.00    -0.206 F 
ATOM     76  C   UNL A   1      38.063  33.615  37.456  1.00  0.00     0.022 A 
BRANCH  73  77
ATOM     77  S   UNL A   1      37.041  31.416  38.834  1.00  0.00     0.124 S 
ATOM     78  O   UNL A   1      36.906  30.057  38.324  1.00  0.00    -0.237 OA
ATOM     79  O   UNL A   1      37.945  31.590  39.965  1.00  0.00    -0.237 OA
ATOM     80  O   UNL A   1      35.799  32.183  38.907  1.00  0.00    -0.744 OA
ENDBRANCH  73  77
ENDBRANCH  46  70
BRANCH  58  81
ATOM     81  C   UNL A   1      44.738  28.100  34.264  1.00  0.00     0.023 A 
ATOM     82  C   UNL A   1      44.831  27.021  35.159  1.00  0.00     0.031 A 
ATOM     83  C   UNL A   1      45.844  28.963  34.151  1.00  0.00     0.131 A 
ATOM     84  C   UNL A   1      45.985  26.862  35.944  1.00  0.00     0.055 A 
ATOM     85  C   UNL A   1      47.013  28.762  34.885  1.00  0.00     0.041 A 
ATOM     86  F   UNL A   1      45.809  30.014  33.314  1.00  0.00    -0.206 F 
ATOM     87  C   UNL A   1      47.084  27.713  35.797  1.00  0.00     0.022 A 
BRANCH  84  88
ATOM     88  S   UNL A   1      45.999  25.579  37.226  1.00  0.00     0.124 S 
ATOM     89  O   UNL A   1      44.817  24.795  36.883  1.00  0.00    -0.237 OA
ATOM     90  O   UNL A   1      47.284  24.926  37.000  1.00  0.00    -0.237 OA
ATOM     91  O   UNL A   1      45.900  26.337  38.471  1.00  0.00    -0.744 OA
ENDBRANCH  84  88
ENDBRANCH  58  81
ENDBRANCH  32  33
ENDBRANCH  24  27
ENDBRANCH  22  23
ENDBRANCH  21  22
ENDBRANCH   1  21
TORSDOF 17
ENDMDL
