MODEL 1
REMARK VINA RESULT:     -12.9      0.000      0.000
REMARK SMILES CCn1c(N2CCC(C(=O)NCCCNC(=O)c3ccc(-c4c5nc(c(-c6cc(S(=O)(=O)[O-])ccc6F)c6ccc([nH]6)c(-c6cc(S(=O)(=O)[O-])ccc6F)c6nc(c(-c7cc(S(=O)(=O)[O-])ccc7F)c7ccc4[nH]7)C=C6)C=C5)cc3)CC2)nc2cc(C)ccc21
REMARK SMILES IDX 13 1 12 2 11 3 9 4 10 5 8 7 5 8 6 9 82 10 7 11 81 12 4 13
REMARK SMILES IDX 3 14 90 15 83 16 84 17 89 18 85 19 88 20 86 21 87 22 2 23
REMARK SMILES IDX 1 24 14 25 15 26 16 27 17 29 18 30 19 31 80 32 20 33 79 34
REMARK SMILES IDX 21 35 22 36 23 37 73 38 24 39 78 40 72 41 74 42 25 43 77 44
REMARK SMILES IDX 71 45 70 46 26 48 58 49 38 50 57 51 39 52 42 53 56 54 75 55
REMARK SMILES IDX 40 56 41 57 55 59 76 60 43 61 27 62 28 63 36 64 29 65 35 66
REMARK SMILES IDX 37 67 34 68 30 69 31 70 32 71 33 72 59 73 60 74 68 75 61 76
REMARK SMILES IDX 67 77 69 78 66 79 62 80 63 81 64 82 65 83 44 84 45 85 53 86
REMARK SMILES IDX 46 87 52 88 54 89 51 90 47 91 48 92 49 93 50 94
REMARK H PARENT 11 6 15 28 74 47 42 58
REMARK Flexibility Score: inf
ROOT
ATOM      1  C   UNL A   1      37.446  21.353  25.052  1.00  0.00     0.042 C 
ENDROOT
BRANCH   1   2
ATOM      2  C   UNL A   1      36.295  21.972  24.260  1.00  0.00     0.117 C 
BRANCH   2   3
ATOM      3  N   UNL A   1      35.056  22.022  25.029  1.00  0.00    -0.356 N 
ATOM      4  C   UNL A   1      34.154  23.023  25.217  1.00  0.00     0.223 C 
ATOM      5  O   UNL A   1      33.170  22.790  25.924  1.00  0.00    -0.275 OA
ATOM      6  H   UNL A   1      34.832  21.183  25.494  1.00  0.00     0.163 HD
BRANCH   4   7
ATOM      7  C   UNL A   1      34.319  24.382  24.556  1.00  0.00     0.082 C 
ATOM      8  N   UNL A   1      32.982  26.683  23.550  1.00  0.00    -0.342 N 
ATOM      9  C   UNL A   1      33.559  25.789  22.563  1.00  0.00     0.120 C 
ATOM     10  C   UNL A   1      33.667  26.830  24.817  1.00  0.00     0.120 C 
ATOM     11  C   UNL A   1      33.744  24.393  23.134  1.00  0.00     0.035 C 
ATOM     12  C   UNL A   1      33.817  25.483  25.498  1.00  0.00     0.035 C 
BRANCH   8  13
ATOM     13  C   UNL A   1      31.889  27.419  23.227  1.00  0.00     0.206 A 
ATOM     14  N   UNL A   1      30.605  27.025  23.548  1.00  0.00    -0.310 N 
ATOM     15  C   UNL A   1      29.734  27.998  23.111  1.00  0.00     0.070 A 
ATOM     16  N   UNL A   1      31.880  28.601  22.648  1.00  0.00    -0.213 NA
ATOM     17  C   UNL A   1      30.552  28.951  22.517  1.00  0.00     0.091 A 
ATOM     18  C   UNL A   1      28.341  28.127  23.176  1.00  0.00     0.029 A 
ATOM     19  C   UNL A   1      29.958  30.069  21.900  1.00  0.00     0.034 A 
ATOM     20  C   UNL A   1      27.771  29.239  22.560  1.00  0.00     0.006 A 
ATOM     21  C   UNL A   1      28.553  30.187  21.894  1.00  0.00    -0.049 A 
ATOM     22  C   UNL A   1      27.866  31.340  21.223  1.00  0.00     0.044 C 
BRANCH  14  23
ATOM     23  C   UNL A   1      30.200  25.818  24.236  1.00  0.00     0.122 C 
ATOM     24  C   UNL A   1      30.105  25.967  25.744  1.00  0.00     0.028 C 
ENDBRANCH  14  23
ENDBRANCH   8  13
ENDBRANCH   4   7
ENDBRANCH   2   3
ENDBRANCH   1   2
BRANCH   1  25
ATOM     25  C   UNL A   1      38.339  22.377  25.751  1.00  0.00     0.118 C 
BRANCH  25  26
ATOM     26  N   UNL A   1      39.508  21.802  26.382  1.00  0.00    -0.352 N 
ATOM     27  C   UNL A   1      40.484  22.276  27.214  1.00  0.00     0.251 C 
ATOM     28  H   UNL A   1      39.628  20.851  26.161  1.00  0.00     0.163 HD
ATOM     29  O   UNL A   1      41.274  21.427  27.636  1.00  0.00    -0.269 OA
BRANCH  27  30
ATOM     30  C   UNL A   1      40.689  23.704  27.582  1.00  0.00     0.039 A 
ATOM     31  C   UNL A   1      41.790  24.224  28.262  1.00  0.00     0.014 A 
ATOM     32  C   UNL A   1      39.626  24.573  27.269  1.00  0.00     0.014 A 
ATOM     33  C   UNL A   1      41.780  25.538  28.723  1.00  0.00     0.010 A 
ATOM     34  C   UNL A   1      39.622  25.893  27.703  1.00  0.00     0.010 A 
ATOM     35  C   UNL A   1      40.675  26.355  28.485  1.00  0.00    -0.014 A 
BRANCH  35  36
ATOM     36  C   UNL A   1      40.682  27.702  29.048  1.00  0.00     0.031 A 
ATOM     37  C   UNL A   1      41.704  28.633  28.482  1.00  0.00     0.074 A 
ATOM     38  C   UNL A   1      39.763  28.122  29.940  1.00  0.00     0.049 A 
ATOM     39  N   UNL A   1      42.706  29.202  29.071  1.00  0.00    -0.248 NA
ATOM     40  C   UNL A   1      41.656  28.866  27.031  1.00  0.00     0.031 C 
ATOM     41  C   UNL A   1      38.531  27.443  30.362  1.00  0.00     0.029 A 
ATOM     42  N   UNL A   1      39.695  29.311  30.598  1.00  0.00    -0.354 N 
ATOM     43  C   UNL A   1      43.320  30.006  28.105  1.00  0.00     0.074 A 
ATOM     44  C   UNL A   1      42.719  29.648  26.847  1.00  0.00     0.031 C 
ATOM     45  C   UNL A   1      37.738  28.322  31.015  1.00  0.00     0.029 A 
ATOM     46  C   UNL A   1      38.470  29.562  31.195  1.00  0.00     0.049 A 
ATOM     47  H   UNL A   1      40.450  29.940  30.646  1.00  0.00     0.167 HD
ATOM     48  C   UNL A   1      44.152  31.039  28.426  1.00  0.00     0.034 A 
ATOM     49  C   UNL A   1      38.057  30.737  31.729  1.00  0.00     0.034 A 
ATOM     50  C   UNL A   1      44.561  30.983  29.797  1.00  0.00     0.049 A 
ATOM     51  C   UNL A   1      39.253  31.575  31.975  1.00  0.00     0.074 A 
ATOM     52  C   UNL A   1      45.359  30.154  30.551  1.00  0.00     0.029 A 
ATOM     53  N   UNL A   1      43.878  31.785  30.676  1.00  0.00    -0.354 N 
ATOM     54  N   UNL A   1      40.151  31.326  32.887  1.00  0.00    -0.248 NA
ATOM     55  C   UNL A   1      39.663  32.497  30.925  1.00  0.00     0.031 C 
ATOM     56  C   UNL A   1      44.808  30.209  31.858  1.00  0.00     0.029 A 
ATOM     57  C   UNL A   1      43.710  31.077  31.829  1.00  0.00     0.049 A 
ATOM     58  H   UNL A   1      43.566  32.702  30.506  1.00  0.00     0.167 HD
ATOM     59  C   UNL A   1      41.349  31.733  32.319  1.00  0.00     0.074 A 
ATOM     60  C   UNL A   1      40.975  32.542  31.164  1.00  0.00     0.031 C 
ATOM     61  C   UNL A   1      42.529  31.148  32.667  1.00  0.00     0.034 A 
BRANCH  48  62
ATOM     62  C   UNL A   1      44.330  32.306  27.620  1.00  0.00     0.023 A 
ATOM     63  C   UNL A   1      43.693  33.512  27.950  1.00  0.00     0.031 A 
ATOM     64  C   UNL A   1      45.364  32.399  26.658  1.00  0.00     0.131 A 
ATOM     65  C   UNL A   1      44.080  34.727  27.370  1.00  0.00     0.055 A 
ATOM     66  C   UNL A   1      45.797  33.622  26.131  1.00  0.00     0.041 A 
ATOM     67  F   UNL A   1      46.036  31.310  26.252  1.00  0.00    -0.206 F 
ATOM     68  C   UNL A   1      45.157  34.798  26.493  1.00  0.00     0.022 A 
BRANCH  65  69
ATOM     69  S   UNL A   1      43.192  36.254  27.777  1.00  0.00     0.124 S 
ATOM     70  O   UNL A   1      44.288  37.157  28.110  1.00  0.00    -0.237 OA
ATOM     71  O   UNL A   1      42.497  36.534  26.524  1.00  0.00    -0.237 OA
ATOM     72  O   UNL A   1      42.329  35.860  28.888  1.00  0.00    -0.744 OA
ENDBRANCH  65  69
ENDBRANCH  48  62
BRANCH  49  73
ATOM     73  C   UNL A   1      36.715  31.338  31.556  1.00  0.00     0.023 A 
ATOM     74  C   UNL A   1      36.197  31.502  30.256  1.00  0.00     0.031 A 
ATOM     75  C   UNL A   1      36.086  32.035  32.599  1.00  0.00     0.131 A 
ATOM     76  C   UNL A   1      35.132  32.378  30.022  1.00  0.00     0.055 A 
ATOM     77  C   UNL A   1      35.005  32.894  32.365  1.00  0.00     0.041 A 
ATOM     78  F   UNL A   1      36.552  31.948  33.854  1.00  0.00    -0.206 F 
ATOM     79  C   UNL A   1      34.533  33.081  31.068  1.00  0.00     0.022 A 
BRANCH  76  80
ATOM     80  S   UNL A   1      34.565  32.697  28.328  1.00  0.00     0.124 S 
ATOM     81  O   UNL A   1      33.610  33.787  28.524  1.00  0.00    -0.237 OA
ATOM     82  O   UNL A   1      35.811  33.064  27.665  1.00  0.00    -0.237 OA
ATOM     83  O   UNL A   1      33.973  31.426  27.919  1.00  0.00    -0.744 OA
ENDBRANCH  76  80
ENDBRANCH  49  73
BRANCH  61  84
ATOM     84  C   UNL A   1      42.558  30.184  33.822  1.00  0.00     0.023 A 
ATOM     85  C   UNL A   1      43.110  30.645  35.029  1.00  0.00     0.031 A 
ATOM     86  C   UNL A   1      42.521  28.800  33.584  1.00  0.00     0.131 A 
ATOM     87  C   UNL A   1      43.726  29.737  35.895  1.00  0.00     0.055 A 
ATOM     88  C   UNL A   1      43.116  27.900  34.460  1.00  0.00     0.041 A 
ATOM     89  F   UNL A   1      42.051  28.302  32.435  1.00  0.00    -0.206 F 
ATOM     90  C   UNL A   1      43.759  28.371  35.600  1.00  0.00     0.022 A 
BRANCH  87  91
ATOM     91  S   UNL A   1      44.712  30.337  37.291  1.00  0.00     0.124 S 
ATOM     92  O   UNL A   1      43.677  30.788  38.219  1.00  0.00    -0.237 OA
ATOM     93  O   UNL A   1      45.442  29.138  37.707  1.00  0.00    -0.237 OA
ATOM     94  O   UNL A   1      45.539  31.387  36.712  1.00  0.00    -0.744 OA
ENDBRANCH  87  91
ENDBRANCH  61  84
ENDBRANCH  35  36
ENDBRANCH  27  30
ENDBRANCH  25  26
ENDBRANCH   1  25
TORSDOF 15
ENDMDL
MODEL 2
REMARK VINA RESULT:     -12.8      3.392      8.883
REMARK SMILES CCn1c(N2CCC(C(=O)NCCCNC(=O)c3ccc(-c4c5nc(c(-c6cc(S(=O)(=O)[O-])ccc6F)c6ccc([nH]6)c(-c6cc(S(=O)(=O)[O-])ccc6F)c6nc(c(-c7cc(S(=O)(=O)[O-])ccc7F)c7ccc4[nH]7)C=C6)C=C5)cc3)CC2)nc2cc(C)ccc21
REMARK SMILES IDX 13 1 12 2 11 3 9 4 10 5 8 7 5 8 6 9 82 10 7 11 81 12 4 13
REMARK SMILES IDX 3 14 90 15 83 16 84 17 89 18 85 19 88 20 86 21 87 22 2 23
REMARK SMILES IDX 1 24 14 25 15 26 16 27 17 29 18 30 19 31 80 32 20 33 79 34
REMARK SMILES IDX 21 35 22 36 23 37 73 38 24 39 78 40 72 41 74 42 25 43 77 44
REMARK SMILES IDX 71 45 70 46 26 48 58 49 38 50 57 51 39 52 42 53 56 54 75 55
REMARK SMILES IDX 40 56 41 57 55 59 76 60 43 61 27 62 28 63 36 64 29 65 35 66
REMARK SMILES IDX 37 67 34 68 30 69 31 70 32 71 33 72 59 73 60 74 68 75 61 76
REMARK SMILES IDX 67 77 69 78 66 79 62 80 63 81 64 82 65 83 44 84 45 85 53 86
REMARK SMILES IDX 46 87 52 88 54 89 51 90 47 91 48 92 49 93 50 94
REMARK H PARENT 11 6 15 28 74 47 42 58
REMARK Flexibility Score: inf
ROOT
ATOM      1  C   UNL A   1      31.949  30.312  26.594  1.00  0.00     0.042 C 
ENDROOT
BRANCH   1   2
ATOM      2  C   UNL A   1      31.668  29.375  25.421  1.00  0.00     0.117 C 
BRANCH   2   3
ATOM      3  N   UNL A   1      30.657  29.909  24.513  1.00  0.00    -0.356 N 
ATOM      4  C   UNL A   1      30.427  29.684  23.192  1.00  0.00     0.223 C 
ATOM      5  O   UNL A   1      29.481  30.273  22.661  1.00  0.00    -0.275 OA
ATOM      6  H   UNL A   1      30.030  30.543  24.931  1.00  0.00     0.163 HD
BRANCH   4   7
ATOM      7  C   UNL A   1      31.276  28.714  22.386  1.00  0.00     0.082 C 
ATOM      8  N   UNL A   1      33.009  26.461  22.491  1.00  0.00    -0.342 N 
ATOM      9  C   UNL A   1      33.629  27.738  22.186  1.00  0.00     0.120 C 
ATOM     10  C   UNL A   1      31.664  26.225  22.010  1.00  0.00     0.120 C 
ATOM     11  C   UNL A   1      32.770  28.891  22.678  1.00  0.00     0.035 C 
ATOM     12  C   UNL A   1      30.721  27.292  22.531  1.00  0.00     0.035 C 
BRANCH   8  13
ATOM     13  C   UNL A   1      33.732  25.503  23.122  1.00  0.00     0.206 A 
ATOM     14  N   UNL A   1      33.768  25.382  24.498  1.00  0.00    -0.310 N 
ATOM     15  C   UNL A   1      34.561  24.302  24.815  1.00  0.00     0.070 A 
ATOM     16  N   UNL A   1      34.425  24.538  22.555  1.00  0.00    -0.213 NA
ATOM     17  C   UNL A   1      34.990  23.817  23.586  1.00  0.00     0.091 A 
ATOM     18  C   UNL A   1      34.934  23.721  26.033  1.00  0.00     0.029 A 
ATOM     19  C   UNL A   1      35.886  22.731  23.558  1.00  0.00     0.034 A 
ATOM     20  C   UNL A   1      35.822  22.648  25.986  1.00  0.00     0.006 A 
ATOM     21  C   UNL A   1      36.330  22.172  24.775  1.00  0.00    -0.049 A 
ATOM     22  C   UNL A   1      37.310  21.036  24.804  1.00  0.00     0.044 C 
BRANCH  14  23
ATOM     23  C   UNL A   1      33.095  26.213  25.472  1.00  0.00     0.122 C 
ATOM     24  C   UNL A   1      31.754  25.668  25.930  1.00  0.00     0.028 C 
ENDBRANCH  14  23
ENDBRANCH   8  13
ENDBRANCH   4   7
ENDBRANCH   2   3
ENDBRANCH   1   2
BRANCH   1  25
ATOM     25  C   UNL A   1      33.430  30.449  26.939  1.00  0.00     0.118 C 
BRANCH  25  26
ATOM     26  N   UNL A   1      33.699  31.375  28.019  1.00  0.00    -0.352 N 
ATOM     27  C   UNL A   1      34.810  31.727  28.732  1.00  0.00     0.251 C 
ATOM     28  H   UNL A   1      32.895  31.866  28.305  1.00  0.00     0.163 HD
ATOM     29  O   UNL A   1      34.656  32.662  29.522  1.00  0.00    -0.269 OA
BRANCH  27  30
ATOM     30  C   UNL A   1      36.132  31.042  28.668  1.00  0.00     0.039 A 
ATOM     31  C   UNL A   1      36.361  29.749  28.196  1.00  0.00     0.014 A 
ATOM     32  C   UNL A   1      37.216  31.759  29.207  1.00  0.00     0.014 A 
ATOM     33  C   UNL A   1      37.604  29.145  28.368  1.00  0.00     0.010 A 
ATOM     34  C   UNL A   1      38.467  31.171  29.356  1.00  0.00     0.010 A 
ATOM     35  C   UNL A   1      38.640  29.841  28.992  1.00  0.00    -0.014 A 
BRANCH  35  36
ATOM     36  C   UNL A   1      39.903  29.141  29.210  1.00  0.00     0.031 A 
ATOM     37  C   UNL A   1      40.214  28.796  30.629  1.00  0.00     0.074 A 
ATOM     38  C   UNL A   1      40.692  28.732  28.195  1.00  0.00     0.049 A 
ATOM     39  N   UNL A   1      41.189  29.207  31.376  1.00  0.00    -0.248 NA
ATOM     40  C   UNL A   1      39.232  27.963  31.339  1.00  0.00     0.031 C 
ATOM     41  C   UNL A   1      40.389  28.719  26.759  1.00  0.00     0.029 A 
ATOM     42  N   UNL A   1      41.918  28.145  28.253  1.00  0.00    -0.354 N 
ATOM     43  C   UNL A   1      41.044  28.550  32.602  1.00  0.00     0.074 A 
ATOM     44  C   UNL A   1      39.752  27.915  32.564  1.00  0.00     0.031 C 
ATOM     45  C   UNL A   1      41.297  27.949  26.118  1.00  0.00     0.029 A 
ATOM     46  C   UNL A   1      42.323  27.556  27.066  1.00  0.00     0.049 A 
ATOM     47  H   UNL A   1      42.470  28.138  29.067  1.00  0.00     0.167 HD
ATOM     48  C   UNL A   1      42.068  28.421  33.494  1.00  0.00     0.034 A 
ATOM     49  C   UNL A   1      43.386  26.733  26.895  1.00  0.00     0.034 A 
ATOM     50  C   UNL A   1      43.158  29.292  33.179  1.00  0.00     0.049 A 
ATOM     51  C   UNL A   1      44.294  26.910  28.051  1.00  0.00     0.074 A 
ATOM     52  C   UNL A   1      43.365  30.652  33.193  1.00  0.00     0.029 A 
ATOM     53  N   UNL A   1      44.212  28.738  32.497  1.00  0.00    -0.354 N 
ATOM     54  N   UNL A   1      44.996  27.984  28.277  1.00  0.00    -0.248 NA
ATOM     55  C   UNL A   1      44.123  26.019  29.189  1.00  0.00     0.031 C 
ATOM     56  C   UNL A   1      44.312  30.888  32.162  1.00  0.00     0.029 A 
ATOM     57  C   UNL A   1      44.636  29.655  31.582  1.00  0.00     0.049 A 
ATOM     58  H   UNL A   1      44.592  27.842  32.641  1.00  0.00     0.167 HD
ATOM     59  C   UNL A   1      45.014  28.106  29.659  1.00  0.00     0.074 A 
ATOM     60  C   UNL A   1      44.558  26.817  30.167  1.00  0.00     0.031 C 
ATOM     61  C   UNL A   1      45.123  29.325  30.258  1.00  0.00     0.034 A 
BRANCH  48  62
ATOM     62  C   UNL A   1      42.257  27.266  34.453  1.00  0.00     0.023 A 
ATOM     63  C   UNL A   1      43.015  26.129  34.133  1.00  0.00     0.031 A 
ATOM     64  C   UNL A   1      41.904  27.407  35.816  1.00  0.00     0.131 A 
ATOM     65  C   UNL A   1      43.406  25.211  35.115  1.00  0.00     0.055 A 
ATOM     66  C   UNL A   1      42.355  26.527  36.808  1.00  0.00     0.041 A 
ATOM     67  F   UNL A   1      41.168  28.447  36.240  1.00  0.00    -0.206 F 
ATOM     68  C   UNL A   1      43.118  25.423  36.459  1.00  0.00     0.022 A 
BRANCH  65  69
ATOM     69  S   UNL A   1      44.333  23.723  34.652  1.00  0.00     0.124 S 
ATOM     70  O   UNL A   1      44.619  23.132  35.954  1.00  0.00    -0.237 OA
ATOM     71  O   UNL A   1      43.357  23.011  33.832  1.00  0.00    -0.237 OA
ATOM     72  O   UNL A   1      45.483  24.252  33.923  1.00  0.00    -0.744 OA
ENDBRANCH  65  69
ENDBRANCH  48  62
BRANCH  49  73
ATOM     73  C   UNL A   1      43.394  25.492  26.088  1.00  0.00     0.023 A 
ATOM     74  C   UNL A   1      42.508  24.449  26.423  1.00  0.00     0.031 A 
ATOM     75  C   UNL A   1      44.454  25.190  25.219  1.00  0.00     0.131 A 
ATOM     76  C   UNL A   1      42.726  23.152  25.946  1.00  0.00     0.055 A 
ATOM     77  C   UNL A   1      44.657  23.896  24.725  1.00  0.00     0.041 A 
ATOM     78  F   UNL A   1      45.351  26.131  24.889  1.00  0.00    -0.206 F 
ATOM     79  C   UNL A   1      43.799  22.865  25.101  1.00  0.00     0.022 A 
BRANCH  76  80
ATOM     80  S   UNL A   1      41.669  21.784  26.497  1.00  0.00     0.124 S 
ATOM     81  O   UNL A   1      41.946  21.742  27.932  1.00  0.00    -0.237 OA
ATOM     82  O   UNL A   1      40.344  22.267  26.127  1.00  0.00    -0.237 OA
ATOM     83  O   UNL A   1      42.167  20.639  25.740  1.00  0.00    -0.744 OA
ENDBRANCH  76  80
ENDBRANCH  49  73
BRANCH  61  84
ATOM     84  C   UNL A   1      45.425  30.533  29.414  1.00  0.00     0.023 A 
ATOM     85  C   UNL A   1      46.713  31.085  29.519  1.00  0.00     0.031 A 
ATOM     86  C   UNL A   1      44.378  31.351  28.957  1.00  0.00     0.131 A 
ATOM     87  C   UNL A   1      46.895  32.454  29.301  1.00  0.00     0.055 A 
ATOM     88  C   UNL A   1      44.571  32.707  28.721  1.00  0.00     0.041 A 
ATOM     89  F   UNL A   1      43.122  30.898  28.879  1.00  0.00    -0.206 F 
ATOM     90  C   UNL A   1      45.823  33.272  28.933  1.00  0.00     0.022 A 
BRANCH  87  91
ATOM     91  S   UNL A   1      48.468  33.241  29.733  1.00  0.00     0.124 S 
ATOM     92  O   UNL A   1      48.884  33.808  28.451  1.00  0.00    -0.237 OA
ATOM     93  O   UNL A   1      48.069  34.221  30.746  1.00  0.00    -0.237 OA
ATOM     94  O   UNL A   1      49.286  32.144  30.232  1.00  0.00    -0.744 OA
ENDBRANCH  87  91
ENDBRANCH  61  84
ENDBRANCH  35  36
ENDBRANCH  27  30
ENDBRANCH  25  26
ENDBRANCH   1  25
TORSDOF 15
ENDMDL
MODEL 3
REMARK VINA RESULT:     -12.8      3.535      9.079
REMARK SMILES CCn1c(N2CCC(C(=O)NCCCNC(=O)c3ccc(-c4c5nc(c(-c6cc(S(=O)(=O)[O-])ccc6F)c6ccc([nH]6)c(-c6cc(S(=O)(=O)[O-])ccc6F)c6nc(c(-c7cc(S(=O)(=O)[O-])ccc7F)c7ccc4[nH]7)C=C6)C=C5)cc3)CC2)nc2cc(C)ccc21
REMARK SMILES IDX 13 1 12 2 11 3 9 4 10 5 8 7 5 8 6 9 82 10 7 11 81 12 4 13
REMARK SMILES IDX 3 14 90 15 83 16 84 17 89 18 85 19 88 20 86 21 87 22 2 23
REMARK SMILES IDX 1 24 14 25 15 26 16 27 17 29 18 30 19 31 80 32 20 33 79 34
REMARK SMILES IDX 21 35 22 36 23 37 73 38 24 39 78 40 72 41 74 42 25 43 77 44
REMARK SMILES IDX 71 45 70 46 26 48 58 49 38 50 57 51 39 52 42 53 56 54 75 55
REMARK SMILES IDX 40 56 41 57 55 59 76 60 43 61 27 62 28 63 36 64 29 65 35 66
REMARK SMILES IDX 37 67 34 68 30 69 31 70 32 71 33 72 59 73 60 74 68 75 61 76
REMARK SMILES IDX 67 77 69 78 66 79 62 80 63 81 64 82 65 83 44 84 45 85 53 86
REMARK SMILES IDX 46 87 52 88 54 89 51 90 47 91 48 92 49 93 50 94
REMARK H PARENT 11 6 15 28 74 47 42 58
REMARK Flexibility Score: inf
ROOT
ATOM      1  C   UNL A   1      32.022  29.795  26.900  1.00  0.00     0.042 C 
ENDROOT
BRANCH   1   2
ATOM      2  C   UNL A   1      31.556  29.197  25.574  1.00  0.00     0.117 C 
BRANCH   2   3
ATOM      3  N   UNL A   1      32.666  28.695  24.769  1.00  0.00    -0.356 N 
ATOM      4  C   UNL A   1      32.971  27.441  24.340  1.00  0.00     0.223 C 
ATOM      5  O   UNL A   1      33.986  27.295  23.654  1.00  0.00    -0.275 OA
ATOM      6  H   UNL A   1      33.307  29.387  24.487  1.00  0.00     0.163 HD
BRANCH   4   7
ATOM      7  C   UNL A   1      32.081  26.250  24.655  1.00  0.00     0.082 C 
ATOM      8  N   UNL A   1      31.952  23.421  24.931  1.00  0.00    -0.342 N 
ATOM      9  C   UNL A   1      31.306  23.985  23.760  1.00  0.00     0.120 C 
ATOM     10  C   UNL A   1      31.939  24.196  26.155  1.00  0.00     0.120 C 
ATOM     11  C   UNL A   1      31.878  25.353  23.428  1.00  0.00     0.035 C 
ATOM     12  C   UNL A   1      32.576  25.553  25.929  1.00  0.00     0.035 C 
BRANCH   8  13
ATOM     13  C   UNL A   1      32.455  22.163  24.875  1.00  0.00     0.206 A 
ATOM     14  N   UNL A   1      33.805  21.906  24.737  1.00  0.00    -0.310 N 
ATOM     15  C   UNL A   1      33.987  20.542  24.743  1.00  0.00     0.070 A 
ATOM     16  N   UNL A   1      31.781  21.040  25.006  1.00  0.00    -0.213 NA
ATOM     17  C   UNL A   1      32.704  20.023  24.873  1.00  0.00     0.091 A 
ATOM     18  C   UNL A   1      35.126  19.733  24.647  1.00  0.00     0.029 A 
ATOM     19  C   UNL A   1      32.529  18.627  24.848  1.00  0.00     0.034 A 
ATOM     20  C   UNL A   1      34.933  18.353  24.624  1.00  0.00     0.006 A 
ATOM     21  C   UNL A   1      33.655  17.793  24.685  1.00  0.00    -0.049 A 
ATOM     22  C   UNL A   1      33.521  16.299  24.619  1.00  0.00     0.044 C 
BRANCH  14  23
ATOM     23  C   UNL A   1      34.877  22.871  24.617  1.00  0.00     0.122 C 
ATOM     24  C   UNL A   1      35.590  23.168  25.924  1.00  0.00     0.028 C 
ENDBRANCH  14  23
ENDBRANCH   8  13
ENDBRANCH   4   7
ENDBRANCH   2   3
ENDBRANCH   1   2
BRANCH   1  25
ATOM     25  C   UNL A   1      33.387  30.476  26.827  1.00  0.00     0.118 C 
BRANCH  25  26
ATOM     26  N   UNL A   1      33.661  31.363  27.938  1.00  0.00    -0.352 N 
ATOM     27  C   UNL A   1      34.767  31.660  28.683  1.00  0.00     0.251 C 
ATOM     28  H   UNL A   1      32.866  31.868  28.223  1.00  0.00     0.163 HD
ATOM     29  O   UNL A   1      34.624  32.576  29.498  1.00  0.00    -0.269 OA
BRANCH  27  30
ATOM     30  C   UNL A   1      36.069  30.939  28.625  1.00  0.00     0.039 A 
ATOM     31  C   UNL A   1      36.243  29.589  28.316  1.00  0.00     0.014 A 
ATOM     32  C   UNL A   1      37.200  31.692  28.992  1.00  0.00     0.014 A 
ATOM     33  C   UNL A   1      37.484  28.981  28.485  1.00  0.00     0.010 A 
ATOM     34  C   UNL A   1      38.448  31.096  29.136  1.00  0.00     0.010 A 
ATOM     35  C   UNL A   1      38.572  29.725  28.942  1.00  0.00    -0.014 A 
BRANCH  35  36
ATOM     36  C   UNL A   1      39.835  29.027  29.168  1.00  0.00     0.031 A 
ATOM     37  C   UNL A   1      40.143  28.695  30.591  1.00  0.00     0.074 A 
ATOM     38  C   UNL A   1      40.625  28.609  28.158  1.00  0.00     0.049 A 
ATOM     39  N   UNL A   1      41.117  29.113  31.335  1.00  0.00    -0.248 NA
ATOM     40  C   UNL A   1      39.161  27.868  31.306  1.00  0.00     0.031 C 
ATOM     41  C   UNL A   1      40.324  28.583  26.722  1.00  0.00     0.029 A 
ATOM     42  N   UNL A   1      41.851  28.022  28.223  1.00  0.00    -0.354 N 
ATOM     43  C   UNL A   1      40.971  28.467  32.567  1.00  0.00     0.074 A 
ATOM     44  C   UNL A   1      39.679  27.832  32.533  1.00  0.00     0.031 C 
ATOM     45  C   UNL A   1      41.233  27.806  26.089  1.00  0.00     0.029 A 
ATOM     46  C   UNL A   1      42.258  27.422  27.042  1.00  0.00     0.049 A 
ATOM     47  H   UNL A   1      42.402  28.023  29.038  1.00  0.00     0.167 HD
ATOM     48  C   UNL A   1      41.994  28.346  33.462  1.00  0.00     0.034 A 
ATOM     49  C   UNL A   1      43.321  26.598  26.880  1.00  0.00     0.034 A 
ATOM     50  C   UNL A   1      43.084  29.214  33.140  1.00  0.00     0.049 A 
ATOM     51  C   UNL A   1      44.227  26.785  28.036  1.00  0.00     0.074 A 
ATOM     52  C   UNL A   1      43.292  30.575  33.142  1.00  0.00     0.029 A 
ATOM     53  N   UNL A   1      44.139  28.653  32.465  1.00  0.00    -0.354 N 
ATOM     54  N   UNL A   1      44.929  27.861  28.253  1.00  0.00    -0.248 NA
ATOM     55  C   UNL A   1      44.054  25.905  29.182  1.00  0.00     0.031 C 
ATOM     56  C   UNL A   1      44.239  30.801  32.110  1.00  0.00     0.029 A 
ATOM     57  C   UNL A   1      44.564  29.563  31.542  1.00  0.00     0.049 A 
ATOM     58  H   UNL A   1      44.518  27.759  32.617  1.00  0.00     0.167 HD
ATOM     59  C   UNL A   1      44.945  27.996  29.634  1.00  0.00     0.074 A 
ATOM     60  C   UNL A   1      44.488  26.711  30.153  1.00  0.00     0.031 C 
ATOM     61  C   UNL A   1      45.054  29.220  30.222  1.00  0.00     0.034 A 
BRANCH  48  62
ATOM     62  C   UNL A   1      42.181  27.200  34.432  1.00  0.00     0.023 A 
ATOM     63  C   UNL A   1      42.911  26.045  34.110  1.00  0.00     0.031 A 
ATOM     64  C   UNL A   1      41.858  27.365  35.800  1.00  0.00     0.131 A 
ATOM     65  C   UNL A   1      43.306  25.132  35.096  1.00  0.00     0.055 A 
ATOM     66  C   UNL A   1      42.314  26.489  36.793  1.00  0.00     0.041 A 
ATOM     67  F   UNL A   1      41.151  28.423  36.225  1.00  0.00    -0.206 F 
ATOM     68  C   UNL A   1      43.049  25.367  36.443  1.00  0.00     0.022 A 
BRANCH  65  69
ATOM     69  S   UNL A   1      44.196  23.622  34.634  1.00  0.00     0.124 S 
ATOM     70  O   UNL A   1      43.246  22.980  33.733  1.00  0.00    -0.237 OA
ATOM     71  O   UNL A   1      45.396  24.167  34.008  1.00  0.00    -0.237 OA
ATOM     72  O   UNL A   1      44.416  22.953  35.914  1.00  0.00    -0.744 OA
ENDBRANCH  65  69
ENDBRANCH  48  62
BRANCH  49  73
ATOM     73  C   UNL A   1      43.329  25.349  26.085  1.00  0.00     0.023 A 
ATOM     74  C   UNL A   1      42.434  24.314  26.420  1.00  0.00     0.031 A 
ATOM     75  C   UNL A   1      44.397  25.033  25.229  1.00  0.00     0.131 A 
ATOM     76  C   UNL A   1      42.650  23.011  25.957  1.00  0.00     0.055 A 
ATOM     77  C   UNL A   1      44.598  23.733  24.749  1.00  0.00     0.041 A 
ATOM     78  F   UNL A   1      45.302  25.967  24.899  1.00  0.00    -0.206 F 
ATOM     79  C   UNL A   1      43.730  22.711  25.126  1.00  0.00     0.022 A 
BRANCH  76  80
ATOM     80  S   UNL A   1      41.580  21.655  26.511  1.00  0.00     0.124 S 
ATOM     81  O   UNL A   1      40.253  22.135  26.128  1.00  0.00    -0.237 OA
ATOM     82  O   UNL A   1      42.094  20.536  25.729  1.00  0.00    -0.237 OA
ATOM     83  O   UNL A   1      41.822  21.593  27.950  1.00  0.00    -0.744 OA
ENDBRANCH  76  80
ENDBRANCH  49  73
BRANCH  61  84
ATOM     84  C   UNL A   1      45.356  30.421  29.367  1.00  0.00     0.023 A 
ATOM     85  C   UNL A   1      46.644  30.973  29.470  1.00  0.00     0.031 A 
ATOM     86  C   UNL A   1      44.310  31.233  28.900  1.00  0.00     0.131 A 
ATOM     87  C   UNL A   1      46.826  32.341  29.240  1.00  0.00     0.055 A 
ATOM     88  C   UNL A   1      44.503  32.587  28.652  1.00  0.00     0.041 A 
ATOM     89  F   UNL A   1      43.055  30.779  28.824  1.00  0.00    -0.206 F 
ATOM     90  C   UNL A   1      45.755  33.155  28.862  1.00  0.00     0.022 A 
BRANCH  87  91
ATOM     91  S   UNL A   1      48.398  33.133  29.667  1.00  0.00     0.124 S 
ATOM     92  O   UNL A   1      48.017  33.962  30.809  1.00  0.00    -0.237 OA
ATOM     93  O   UNL A   1      49.256  31.990  29.986  1.00  0.00    -0.237 OA
ATOM     94  O   UNL A   1      48.768  33.857  28.459  1.00  0.00    -0.744 OA
ENDBRANCH  87  91
ENDBRANCH  61  84
ENDBRANCH  35  36
ENDBRANCH  27  30
ENDBRANCH  25  26
ENDBRANCH   1  25
TORSDOF 15
ENDMDL
