MODEL 1
REMARK VINA RESULT:     -10.8      0.000      0.000
REMARK SMILES O=C(NCCCNC(=O)c1ccccc1NCCCO)c1ccc(-c2c3nc(c(-c4cc(S(=O)(=O)[O-])ccc4F)c4ccc([nH]4)c(-c4cc(S(=O)(=O)[O-])ccc4F)c4nc(c(-c5cc(S(=O)(=O)[O-])ccc5F)c5ccc2[nH]5)C=C4)C=C3)cc1
REMARK SMILES IDX 6 1 5 2 4 3 3 4 1 5 2 6 21 8 22 9 83 10 23 11 82 12 24 13
REMARK SMILES IDX 25 14 26 15 76 16 27 17 81 18 75 19 77 20 28 21 80 22 74 23
REMARK SMILES IDX 73 24 29 26 61 27 41 28 60 29 42 30 45 31 59 32 78 33 43 34
REMARK SMILES IDX 44 35 58 37 79 38 46 39 30 40 31 41 39 42 32 43 38 44 40 45
REMARK SMILES IDX 37 46 33 47 34 48 35 49 36 50 62 51 63 52 71 53 64 54 70 55
REMARK SMILES IDX 72 56 69 57 65 58 66 59 67 60 68 61 47 62 48 63 56 64 49 65
REMARK SMILES IDX 55 66 57 67 54 68 50 69 51 70 52 71 53 72 7 73 8 74 9 76
REMARK SMILES IDX 10 77 11 78 15 79 12 80 14 81 13 82 16 83 17 85 18 86 19 87
REMARK SMILES IDX 20 88
REMARK H PARENT 3 7 77 25 45 36 7 75 16 84 20 89
REMARK Flexibility Score: inf
ROOT
ATOM      1  C   UNL A   1      36.644  20.693  24.729  1.00  0.00     0.118 C 
ENDROOT
BRANCH   1   2
ATOM      2  C   UNL A   1      37.731  19.672  24.996  1.00  0.00     0.042 C 
BRANCH   2   3
ATOM      3  C   UNL A   1      38.928  20.215  25.758  1.00  0.00     0.118 C 
BRANCH   3   4
ATOM      4  N   UNL A   1      40.029  19.264  25.866  1.00  0.00    -0.352 N 
ATOM      5  O   UNL A   1      42.148  18.521  25.971  1.00  0.00    -0.269 OA
ATOM      6  C   UNL A   1      41.371  19.469  26.079  1.00  0.00     0.251 C 
ATOM      7  H   UNL A   1      39.767  18.319  25.769  1.00  0.00     0.163 HD
BRANCH   6   8
ATOM      8  C   UNL A   1      41.883  20.817  26.414  1.00  0.00     0.039 A 
ATOM      9  C   UNL A   1      42.254  21.138  27.721  1.00  0.00     0.014 A 
ATOM     10  C   UNL A   1      42.012  21.771  25.401  1.00  0.00     0.014 A 
ATOM     11  C   UNL A   1      42.573  22.449  28.051  1.00  0.00     0.010 A 
ATOM     12  C   UNL A   1      42.442  23.064  25.717  1.00  0.00     0.010 A 
ATOM     13  C   UNL A   1      42.691  23.423  27.052  1.00  0.00    -0.014 A 
BRANCH  13  14
ATOM     14  C   UNL A   1      43.127  24.799  27.407  1.00  0.00     0.031 A 
ATOM     15  C   UNL A   1      42.176  25.761  28.060  1.00  0.00     0.074 A 
ATOM     16  C   UNL A   1      44.387  25.179  27.120  1.00  0.00     0.049 A 
ATOM     17  N   UNL A   1      42.346  27.026  28.346  1.00  0.00    -0.248 NA
ATOM     18  C   UNL A   1      40.856  25.232  28.426  1.00  0.00     0.031 C 
ATOM     19  C   UNL A   1      45.402  24.324  26.496  1.00  0.00     0.029 A 
ATOM     20  N   UNL A   1      45.028  26.378  27.300  1.00  0.00    -0.354 N 
ATOM     21  C   UNL A   1      41.146  27.456  28.901  1.00  0.00     0.074 A 
ATOM     22  C   UNL A   1      40.248  26.318  28.876  1.00  0.00     0.031 C 
ATOM     23  C   UNL A   1      46.537  25.020  26.357  1.00  0.00     0.029 A 
ATOM     24  C   UNL A   1      46.308  26.391  26.797  1.00  0.00     0.049 A 
ATOM     25  H   UNL A   1      44.614  27.151  27.744  1.00  0.00     0.167 HD
ATOM     26  C   UNL A   1      40.830  28.684  29.386  1.00  0.00     0.034 A 
ATOM     27  C   UNL A   1      47.186  27.402  26.650  1.00  0.00     0.034 A 
ATOM     28  C   UNL A   1      41.746  29.802  29.386  1.00  0.00     0.049 A 
ATOM     29  C   UNL A   1      46.795  28.774  27.125  1.00  0.00     0.074 A 
ATOM     30  C   UNL A   1      41.550  31.078  29.883  1.00  0.00     0.029 A 
ATOM     31  N   UNL A   1      43.028  29.783  28.845  1.00  0.00    -0.354 N 
ATOM     32  N   UNL A   1      45.662  29.166  27.659  1.00  0.00    -0.248 NA
ATOM     33  C   UNL A   1      47.797  29.836  26.981  1.00  0.00     0.031 C 
ATOM     34  C   UNL A   1      42.673  31.851  29.564  1.00  0.00     0.029 A 
ATOM     35  C   UNL A   1      43.613  31.035  28.956  1.00  0.00     0.049 A 
ATOM     36  H   UNL A   1      43.456  28.994  28.440  1.00  0.00     0.167 HD
ATOM     37  C   UNL A   1      45.825  30.518  27.944  1.00  0.00     0.074 A 
ATOM     38  C   UNL A   1      47.165  30.872  27.519  1.00  0.00     0.031 C 
ATOM     39  C   UNL A   1      44.949  31.381  28.519  1.00  0.00     0.034 A 
BRANCH  26  40
ATOM     40  C   UNL A   1      39.417  28.890  29.888  1.00  0.00     0.023 A 
ATOM     41  C   UNL A   1      38.446  29.563  29.126  1.00  0.00     0.031 A 
ATOM     42  C   UNL A   1      39.051  28.459  31.177  1.00  0.00     0.131 A 
ATOM     43  C   UNL A   1      37.202  29.879  29.692  1.00  0.00     0.055 A 
ATOM     44  C   UNL A   1      37.776  28.689  31.699  1.00  0.00     0.041 A 
ATOM     45  F   UNL A   1      39.936  27.828  31.964  1.00  0.00    -0.206 F 
ATOM     46  C   UNL A   1      36.850  29.424  30.965  1.00  0.00     0.022 A 
BRANCH  43  47
ATOM     47  S   UNL A   1      36.133  31.060  28.824  1.00  0.00     0.124 S 
ATOM     48  O   UNL A   1      37.084  32.109  28.459  1.00  0.00    -0.237 OA
ATOM     49  O   UNL A   1      35.611  30.262  27.721  1.00  0.00    -0.237 OA
ATOM     50  O   UNL A   1      35.153  31.446  29.837  1.00  0.00    -0.744 OA
ENDBRANCH  43  47
ENDBRANCH  26  40
BRANCH  27  51
ATOM     51  C   UNL A   1      48.484  27.147  25.969  1.00  0.00     0.023 A 
ATOM     52  C   UNL A   1      48.637  27.341  24.589  1.00  0.00     0.031 A 
ATOM     53  C   UNL A   1      49.610  26.739  26.709  1.00  0.00     0.131 A 
ATOM     54  C   UNL A   1      49.885  27.111  23.989  1.00  0.00     0.055 A 
ATOM     55  C   UNL A   1      50.859  26.560  26.117  1.00  0.00     0.041 A 
ATOM     56  F   UNL A   1      49.517  26.551  28.036  1.00  0.00    -0.206 F 
ATOM     57  C   UNL A   1      51.000  26.740  24.745  1.00  0.00     0.022 A 
BRANCH  54  58
ATOM     58  S   UNL A   1      50.024  27.262  22.187  1.00  0.00     0.124 S 
ATOM     59  O   UNL A   1      51.386  26.798  21.955  1.00  0.00    -0.237 OA
ATOM     60  O   UNL A   1      48.957  26.382  21.726  1.00  0.00    -0.237 OA
ATOM     61  O   UNL A   1      49.800  28.687  21.948  1.00  0.00    -0.744 OA
ENDBRANCH  54  58
ENDBRANCH  27  51
BRANCH  39  62
ATOM     62  C   UNL A   1      45.432  32.785  28.785  1.00  0.00     0.023 A 
ATOM     63  C   UNL A   1      45.174  33.846  27.900  1.00  0.00     0.031 A 
ATOM     64  C   UNL A   1      46.136  33.065  29.970  1.00  0.00     0.131 A 
ATOM     65  C   UNL A   1      45.642  35.134  28.203  1.00  0.00     0.055 A 
ATOM     66  C   UNL A   1      46.551  34.357  30.291  1.00  0.00     0.041 A 
ATOM     67  F   UNL A   1      46.416  32.086  30.845  1.00  0.00    -0.206 F 
ATOM     68  C   UNL A   1      46.310  35.400  29.402  1.00  0.00     0.022 A 
BRANCH  65  69
ATOM     69  S   UNL A   1      45.416  36.459  26.985  1.00  0.00     0.124 S 
ATOM     70  O   UNL A   1      45.746  37.647  27.767  1.00  0.00    -0.237 OA
ATOM     71  O   UNL A   1      46.371  36.096  25.944  1.00  0.00    -0.237 OA
ATOM     72  O   UNL A   1      44.010  36.340  26.604  1.00  0.00    -0.744 OA
ENDBRANCH  65  69
ENDBRANCH  39  62
ENDBRANCH  13  14
ENDBRANCH   6   8
ENDBRANCH   3   4
ENDBRANCH   2   3
ENDBRANCH   1   2
BRANCH   1  73
ATOM     73  N   UNL A   1      35.862  21.072  25.888  1.00  0.00    -0.352 N 
ATOM     74  C   UNL A   1      34.499  21.203  25.980  1.00  0.00     0.253 C 
ATOM     75  H   UNL A   1      36.371  21.256  26.709  1.00  0.00     0.163 HD
ATOM     76  O   UNL A   1      33.991  21.458  27.070  1.00  0.00    -0.269 OA
BRANCH  74  77
ATOM     77  C   UNL A   1      33.644  21.132  24.770  1.00  0.00     0.062 A 
ATOM     78  C   UNL A   1      33.536  22.353  24.075  1.00  0.00     0.016 A 
ATOM     79  C   UNL A   1      32.969  19.965  24.329  1.00  0.00     0.047 A 
ATOM     80  C   UNL A   1      32.792  22.435  22.906  1.00  0.00     0.001 A 
ATOM     81  C   UNL A   1      32.261  20.083  23.122  1.00  0.00     0.026 A 
ATOM     82  C   UNL A   1      32.163  21.296  22.425  1.00  0.00     0.002 A 
BRANCH  79  83
ATOM     83  N   UNL A   1      33.041  18.766  25.027  1.00  0.00    -0.384 N 
ATOM     84  H   UNL A   1      33.156  18.833  26.002  1.00  0.00     0.160 HD
BRANCH  83  85
ATOM     85  C   UNL A   1      32.964  17.421  24.473  1.00  0.00     0.115 C 
BRANCH  85  86
ATOM     86  C   UNL A   1      34.328  16.888  24.020  1.00  0.00     0.049 C 
BRANCH  86  87
ATOM     87  C   UNL A   1      35.091  16.048  25.043  1.00  0.00     0.158 C 
BRANCH  87  88
ATOM     88  O   UNL A   1      34.382  14.861  25.367  1.00  0.00    -0.396 OA
ATOM     89  H   UNL A   1      33.429  15.016  25.267  1.00  0.00     0.210 HD
ENDBRANCH  87  88
ENDBRANCH  86  87
ENDBRANCH  85  86
ENDBRANCH  83  85
ENDBRANCH  79  83
ENDBRANCH  74  77
ENDBRANCH   1  73
TORSDOF 18
ENDMDL
MODEL 2
REMARK VINA RESULT:     -10.4      6.664     11.823
REMARK SMILES O=C(NCCCNC(=O)c1ccccc1NCCCO)c1ccc(-c2c3nc(c(-c4cc(S(=O)(=O)[O-])ccc4F)c4ccc([nH]4)c(-c4cc(S(=O)(=O)[O-])ccc4F)c4nc(c(-c5cc(S(=O)(=O)[O-])ccc5F)c5ccc2[nH]5)C=C4)C=C3)cc1
REMARK SMILES IDX 6 1 5 2 4 3 3 4 1 5 2 6 21 8 22 9 83 10 23 11 82 12 24 13
REMARK SMILES IDX 25 14 26 15 76 16 27 17 81 18 75 19 77 20 28 21 80 22 74 23
REMARK SMILES IDX 73 24 29 26 61 27 41 28 60 29 42 30 45 31 59 32 78 33 43 34
REMARK SMILES IDX 44 35 58 37 79 38 46 39 30 40 31 41 39 42 32 43 38 44 40 45
REMARK SMILES IDX 37 46 33 47 34 48 35 49 36 50 62 51 63 52 71 53 64 54 70 55
REMARK SMILES IDX 72 56 69 57 65 58 66 59 67 60 68 61 47 62 48 63 56 64 49 65
REMARK SMILES IDX 55 66 57 67 54 68 50 69 51 70 52 71 53 72 7 73 8 74 9 76
REMARK SMILES IDX 10 77 11 78 15 79 12 80 14 81 13 82 16 83 17 85 18 86 19 87
REMARK SMILES IDX 20 88
REMARK H PARENT 3 7 77 25 45 36 7 75 16 84 20 89
REMARK Flexibility Score: inf
ROOT
ATOM      1  C   UNL A   1      31.184  30.682  25.421  1.00  0.00     0.118 C 
ENDROOT
BRANCH   1   2
ATOM      2  C   UNL A   1      31.065  31.880  26.339  1.00  0.00     0.042 C 
BRANCH   2   3
ATOM      3  C   UNL A   1      32.392  32.395  26.873  1.00  0.00     0.118 C 
BRANCH   3   4
ATOM      4  N   UNL A   1      32.320  33.755  27.396  1.00  0.00    -0.352 N 
ATOM      5  O   UNL A   1      32.728  35.496  28.757  1.00  0.00    -0.269 OA
ATOM      6  C   UNL A   1      33.073  34.385  28.358  1.00  0.00     0.251 C 
ATOM      7  H   UNL A   1      31.615  34.313  26.994  1.00  0.00     0.163 HD
BRANCH   6   8
ATOM      8  C   UNL A   1      34.273  33.729  28.924  1.00  0.00     0.039 A 
ATOM      9  C   UNL A   1      34.174  32.510  29.597  1.00  0.00     0.014 A 
ATOM     10  C   UNL A   1      35.523  34.333  28.763  1.00  0.00     0.014 A 
ATOM     11  C   UNL A   1      35.276  31.992  30.265  1.00  0.00     0.010 A 
ATOM     12  C   UNL A   1      36.655  33.750  29.342  1.00  0.00     0.010 A 
ATOM     13  C   UNL A   1      36.534  32.593  30.128  1.00  0.00    -0.014 A 
BRANCH  13  14
ATOM     14  C   UNL A   1      37.723  31.973  30.769  1.00  0.00     0.031 A 
ATOM     15  C   UNL A   1      38.532  30.936  30.044  1.00  0.00     0.074 A 
ATOM     16  C   UNL A   1      38.059  32.344  32.019  1.00  0.00     0.049 A 
ATOM     17  N   UNL A   1      39.533  30.214  30.479  1.00  0.00    -0.248 NA
ATOM     18  C   UNL A   1      38.154  30.664  28.651  1.00  0.00     0.031 C 
ATOM     19  C   UNL A   1      37.353  33.352  32.815  1.00  0.00     0.029 A 
ATOM     20  N   UNL A   1      39.066  31.914  32.846  1.00  0.00    -0.354 N 
ATOM     21  C   UNL A   1      39.890  29.381  29.424  1.00  0.00     0.074 A 
ATOM     22  C   UNL A   1      38.970  29.668  28.341  1.00  0.00     0.031 C 
ATOM     23  C   UNL A   1      37.952  33.470  34.006  1.00  0.00     0.029 A 
ATOM     24  C   UNL A   1      39.028  32.489  34.095  1.00  0.00     0.049 A 
ATOM     25  H   UNL A   1      39.747  31.260  32.572  1.00  0.00     0.167 HD
ATOM     26  C   UNL A   1      40.893  28.468  29.370  1.00  0.00     0.034 A 
ATOM     27  C   UNL A   1      39.737  32.223  35.208  1.00  0.00     0.034 A 
ATOM     28  C   UNL A   1      41.787  28.198  30.472  1.00  0.00     0.049 A 
ATOM     29  C   UNL A   1      40.796  31.158  35.154  1.00  0.00     0.074 A 
ATOM     30  C   UNL A   1      42.860  27.325  30.520  1.00  0.00     0.029 A 
ATOM     31  N   UNL A   1      41.701  28.785  31.731  1.00  0.00    -0.354 N 
ATOM     32  N   UNL A   1      41.133  30.385  34.147  1.00  0.00    -0.248 NA
ATOM     33  C   UNL A   1      41.570  30.929  36.379  1.00  0.00     0.031 C 
ATOM     34  C   UNL A   1      43.363  27.318  31.826  1.00  0.00     0.029 A 
ATOM     35  C   UNL A   1      42.671  28.259  32.571  1.00  0.00     0.049 A 
ATOM     36  H   UNL A   1      41.046  29.473  31.988  1.00  0.00     0.167 HD
ATOM     37  C   UNL A   1      42.181  29.597  34.610  1.00  0.00     0.074 A 
ATOM     38  C   UNL A   1      42.418  29.987  35.986  1.00  0.00     0.031 C 
ATOM     39  C   UNL A   1      42.892  28.649  33.948  1.00  0.00     0.034 A 
BRANCH  26  40
ATOM     40  C   UNL A   1      41.023  27.655  28.100  1.00  0.00     0.023 A 
ATOM     41  C   UNL A   1      40.624  26.309  28.034  1.00  0.00     0.031 A 
ATOM     42  C   UNL A   1      41.612  28.217  26.952  1.00  0.00     0.131 A 
ATOM     43  C   UNL A   1      40.913  25.544  26.893  1.00  0.00     0.055 A 
ATOM     44  C   UNL A   1      41.807  27.477  25.784  1.00  0.00     0.041 A 
ATOM     45  F   UNL A   1      42.033  29.492  26.954  1.00  0.00    -0.206 F 
ATOM     46  C   UNL A   1      41.479  26.125  25.757  1.00  0.00     0.022 A 
BRANCH  43  47
ATOM     47  S   UNL A   1      40.726  23.741  26.992  1.00  0.00     0.124 S 
ATOM     48  O   UNL A   1      41.636  23.290  25.941  1.00  0.00    -0.237 OA
ATOM     49  O   UNL A   1      41.141  23.456  28.361  1.00  0.00    -0.237 OA
ATOM     50  O   UNL A   1      39.308  23.527  26.710  1.00  0.00    -0.744 OA
ENDBRANCH  43  47
ENDBRANCH  26  40
BRANCH  27  51
ATOM     51  C   UNL A   1      39.410  32.943  36.469  1.00  0.00     0.023 A 
ATOM     52  C   UNL A   1      38.541  32.393  37.422  1.00  0.00     0.031 A 
ATOM     53  C   UNL A   1      40.004  34.188  36.754  1.00  0.00     0.131 A 
ATOM     54  C   UNL A   1      38.278  33.094  38.609  1.00  0.00     0.055 A 
ATOM     55  C   UNL A   1      39.777  34.856  37.956  1.00  0.00     0.041 A 
ATOM     56  F   UNL A   1      40.852  34.751  35.878  1.00  0.00    -0.206 F 
ATOM     57  C   UNL A   1      38.903  34.313  38.890  1.00  0.00     0.022 A 
BRANCH  54  58
ATOM     58  S   UNL A   1      37.065  32.411  39.771  1.00  0.00     0.124 S 
ATOM     59  O   UNL A   1      37.765  31.234  40.272  1.00  0.00    -0.237 OA
ATOM     60  O   UNL A   1      36.897  33.510  40.715  1.00  0.00    -0.237 OA
ATOM     61  O   UNL A   1      35.904  32.136  38.927  1.00  0.00    -0.744 OA
ENDBRANCH  54  58
ENDBRANCH  27  51
BRANCH  39  62
ATOM     62  C   UNL A   1      44.042  28.005  34.682  1.00  0.00     0.023 A 
ATOM     63  C   UNL A   1      43.909  26.779  35.355  1.00  0.00     0.031 A 
ATOM     64  C   UNL A   1      45.305  28.625  34.675  1.00  0.00     0.131 A 
ATOM     65  C   UNL A   1      45.016  26.223  36.016  1.00  0.00     0.055 A 
ATOM     66  C   UNL A   1      46.414  28.041  35.287  1.00  0.00     0.041 A 
ATOM     67  F   UNL A   1      45.484  29.802  34.054  1.00  0.00    -0.206 F 
ATOM     68  C   UNL A   1      46.272  26.836  35.967  1.00  0.00     0.022 A 
BRANCH  65  69
ATOM     69  S   UNL A   1      44.789  24.709  36.989  1.00  0.00     0.124 S 
ATOM     70  O   UNL A   1      43.444  24.298  36.598  1.00  0.00    -0.237 OA
ATOM     71  O   UNL A   1      45.878  23.863  36.513  1.00  0.00    -0.237 OA
ATOM     72  O   UNL A   1      44.919  25.167  38.371  1.00  0.00    -0.744 OA
ENDBRANCH  65  69
ENDBRANCH  39  62
ENDBRANCH  13  14
ENDBRANCH   6   8
ENDBRANCH   3   4
ENDBRANCH   2   3
ENDBRANCH   1   2
BRANCH   1  73
ATOM     73  N   UNL A   1      32.500  30.081  25.365  1.00  0.00    -0.352 N 
ATOM     74  C   UNL A   1      32.819  28.767  25.130  1.00  0.00     0.253 C 
ATOM     75  H   UNL A   1      33.259  30.690  25.512  1.00  0.00     0.163 HD
ATOM     76  O   UNL A   1      34.001  28.441  25.039  1.00  0.00    -0.269 OA
BRANCH  74  77
ATOM     77  C   UNL A   1      31.764  27.725  25.077  1.00  0.00     0.062 A 
ATOM     78  C   UNL A   1      31.496  27.120  26.321  1.00  0.00     0.016 A 
ATOM     79  C   UNL A   1      31.077  27.337  23.899  1.00  0.00     0.047 A 
ATOM     80  C   UNL A   1      30.512  26.148  26.434  1.00  0.00     0.001 A 
ATOM     81  C   UNL A   1      30.063  26.378  24.066  1.00  0.00     0.026 A 
ATOM     82  C   UNL A   1      29.790  25.784  25.306  1.00  0.00     0.002 A 
BRANCH  79  83
ATOM     83  N   UNL A   1      31.359  27.901  22.662  1.00  0.00    -0.384 N 
ATOM     84  H   UNL A   1      30.627  28.397  22.229  1.00  0.00     0.160 HD
BRANCH  83  85
ATOM     85  C   UNL A   1      32.620  27.840  21.934  1.00  0.00     0.115 C 
BRANCH  85  86
ATOM     86  C   UNL A   1      33.278  26.458  22.007  1.00  0.00     0.049 C 
BRANCH  86  87
ATOM     87  C   UNL A   1      32.693  25.388  21.086  1.00  0.00     0.158 C 
BRANCH  87  88
ATOM     88  O   UNL A   1      31.778  25.951  20.158  1.00  0.00    -0.396 OA
ATOM     89  H   UNL A   1      31.150  26.522  20.629  1.00  0.00     0.210 HD
ENDBRANCH  87  88
ENDBRANCH  86  87
ENDBRANCH  85  86
ENDBRANCH  83  85
ENDBRANCH  79  83
ENDBRANCH  74  77
ENDBRANCH   1  73
TORSDOF 18
ENDMDL
MODEL 3
REMARK VINA RESULT:     -10.4      7.014     12.233
REMARK SMILES O=C(NCCCNC(=O)c1ccccc1NCCCO)c1ccc(-c2c3nc(c(-c4cc(S(=O)(=O)[O-])ccc4F)c4ccc([nH]4)c(-c4cc(S(=O)(=O)[O-])ccc4F)c4nc(c(-c5cc(S(=O)(=O)[O-])ccc5F)c5ccc2[nH]5)C=C4)C=C3)cc1
REMARK SMILES IDX 6 1 5 2 4 3 3 4 1 5 2 6 21 8 22 9 83 10 23 11 82 12 24 13
REMARK SMILES IDX 25 14 26 15 76 16 27 17 81 18 75 19 77 20 28 21 80 22 74 23
REMARK SMILES IDX 73 24 29 26 61 27 41 28 60 29 42 30 45 31 59 32 78 33 43 34
REMARK SMILES IDX 44 35 58 37 79 38 46 39 30 40 31 41 39 42 32 43 38 44 40 45
REMARK SMILES IDX 37 46 33 47 34 48 35 49 36 50 62 51 63 52 71 53 64 54 70 55
REMARK SMILES IDX 72 56 69 57 65 58 66 59 67 60 68 61 47 62 48 63 56 64 49 65
REMARK SMILES IDX 55 66 57 67 54 68 50 69 51 70 52 71 53 72 7 73 8 74 9 76
REMARK SMILES IDX 10 77 11 78 15 79 12 80 14 81 13 82 16 83 17 85 18 86 19 87
REMARK SMILES IDX 20 88
REMARK H PARENT 3 7 77 25 45 36 7 75 16 84 20 89
REMARK Flexibility Score: inf
ROOT
ATOM      1  C   UNL A   1      31.459  30.608  25.956  1.00  0.00     0.118 C 
ENDROOT
BRANCH   1   2
ATOM      2  C   UNL A   1      31.736  31.519  27.135  1.00  0.00     0.042 C 
BRANCH   2   3
ATOM      3  C   UNL A   1      32.856  32.520  26.906  1.00  0.00     0.118 C 
BRANCH   3   4
ATOM      4  N   UNL A   1      32.613  33.818  27.524  1.00  0.00    -0.352 N 
ATOM      5  O   UNL A   1      32.731  35.460  29.054  1.00  0.00    -0.269 OA
ATOM      6  C   UNL A   1      33.211  34.420  28.605  1.00  0.00     0.251 C 
ATOM      7  H   UNL A   1      31.902  34.350  27.098  1.00  0.00     0.163 HD
BRANCH   6   8
ATOM      8  C   UNL A   1      34.406  33.818  29.237  1.00  0.00     0.039 A 
ATOM      9  C   UNL A   1      34.282  32.768  30.149  1.00  0.00     0.014 A 
ATOM     10  C   UNL A   1      35.675  34.298  28.899  1.00  0.00     0.014 A 
ATOM     11  C   UNL A   1      35.393  32.326  30.857  1.00  0.00     0.010 A 
ATOM     12  C   UNL A   1      36.806  33.773  29.533  1.00  0.00     0.010 A 
ATOM     13  C   UNL A   1      36.670  32.808  30.543  1.00  0.00    -0.014 A 
BRANCH  13  14
ATOM     14  C   UNL A   1      37.861  32.257  31.241  1.00  0.00     0.031 A 
ATOM     15  C   UNL A   1      38.665  31.147  30.626  1.00  0.00     0.074 A 
ATOM     16  C   UNL A   1      38.201  32.755  32.445  1.00  0.00     0.049 A 
ATOM     17  N   UNL A   1      39.667  30.474  31.132  1.00  0.00    -0.248 NA
ATOM     18  C   UNL A   1      38.284  30.733  29.270  1.00  0.00     0.031 C 
ATOM     19  C   UNL A   1      37.499  33.842  33.134  1.00  0.00     0.029 A 
ATOM     20  N   UNL A   1      39.210  32.412  33.309  1.00  0.00    -0.354 N 
ATOM     21  C   UNL A   1      40.020  29.535  30.168  1.00  0.00     0.074 A 
ATOM     22  C   UNL A   1      39.097  29.709  29.064  1.00  0.00     0.031 C 
ATOM     23  C   UNL A   1      38.102  34.083  34.304  1.00  0.00     0.029 A 
ATOM     24  C   UNL A   1      39.176  33.114  34.491  1.00  0.00     0.049 A 
ATOM     25  H   UNL A   1      39.889  31.732  33.103  1.00  0.00     0.167 HD
ATOM     26  C   UNL A   1      41.022  28.619  30.206  1.00  0.00     0.034 A 
ATOM     27  C   UNL A   1      39.888  32.965  35.624  1.00  0.00     0.034 A 
ATOM     28  C   UNL A   1      41.919  28.464  31.328  1.00  0.00     0.049 A 
ATOM     29  C   UNL A   1      40.946  31.898  35.678  1.00  0.00     0.074 A 
ATOM     30  C   UNL A   1      42.991  27.599  31.463  1.00  0.00     0.029 A 
ATOM     31  N   UNL A   1      41.838  29.179  32.519  1.00  0.00    -0.354 N 
ATOM     32  N   UNL A   1      41.279  31.024  34.757  1.00  0.00    -0.248 NA
ATOM     33  C   UNL A   1      41.724  31.797  36.918  1.00  0.00     0.031 C 
ATOM     34  C   UNL A   1      43.498  27.727  32.761  1.00  0.00     0.029 A 
ATOM     35  C   UNL A   1      42.809  28.743  33.407  1.00  0.00     0.049 A 
ATOM     36  H   UNL A   1      41.184  29.891  32.705  1.00  0.00     0.167 HD
ATOM     37  C   UNL A   1      42.327  30.286  35.296  1.00  0.00     0.074 A 
ATOM     38  C   UNL A   1      42.569  30.817  36.623  1.00  0.00     0.031 C 
ATOM     39  C   UNL A   1      43.035  29.273  34.734  1.00  0.00     0.034 A 
BRANCH  26  40
ATOM     40  C   UNL A   1      41.146  27.678  29.028  1.00  0.00     0.023 A 
ATOM     41  C   UNL A   1      42.133  27.846  28.041  1.00  0.00     0.031 A 
ATOM     42  C   UNL A   1      40.225  26.628  28.856  1.00  0.00     0.131 A 
ATOM     43  C   UNL A   1      42.112  27.055  26.882  1.00  0.00     0.055 A 
ATOM     44  C   UNL A   1      40.270  25.779  27.747  1.00  0.00     0.041 A 
ATOM     45  F   UNL A   1      39.246  26.424  29.751  1.00  0.00    -0.206 F 
ATOM     46  C   UNL A   1      41.202  26.005  26.740  1.00  0.00     0.022 A 
BRANCH  43  47
ATOM     47  S   UNL A   1      43.154  27.548  25.481  1.00  0.00     0.124 S 
ATOM     48  O   UNL A   1      44.150  28.395  26.135  1.00  0.00    -0.237 OA
ATOM     49  O   UNL A   1      43.637  26.266  24.981  1.00  0.00    -0.237 OA
ATOM     50  O   UNL A   1      42.230  28.257  24.598  1.00  0.00    -0.744 OA
ENDBRANCH  43  47
ENDBRANCH  26  40
BRANCH  27  51
ATOM     51  C   UNL A   1      39.567  33.813  36.804  1.00  0.00     0.023 A 
ATOM     52  C   UNL A   1      38.941  33.280  37.940  1.00  0.00     0.031 A 
ATOM     53  C   UNL A   1      39.923  35.175  36.822  1.00  0.00     0.131 A 
ATOM     54  C   UNL A   1      38.676  34.109  39.041  1.00  0.00     0.055 A 
ATOM     55  C   UNL A   1      39.703  35.982  37.937  1.00  0.00     0.041 A 
ATOM     56  F   UNL A   1      40.535  35.729  35.763  1.00  0.00    -0.206 F 
ATOM     57  C   UNL A   1      39.068  35.450  39.055  1.00  0.00     0.022 A 
BRANCH  54  58
ATOM     58  S   UNL A   1      37.766  33.418  40.450  1.00  0.00     0.124 S 
ATOM     59  O   UNL A   1      37.451  34.618  41.216  1.00  0.00    -0.237 OA
ATOM     60  O   UNL A   1      36.642  32.761  39.792  1.00  0.00    -0.237 OA
ATOM     61  O   UNL A   1      38.735  32.517  41.070  1.00  0.00    -0.744 OA
ENDBRANCH  54  58
ENDBRANCH  27  51
BRANCH  39  62
ATOM     62  C   UNL A   1      44.186  28.708  35.528  1.00  0.00     0.023 A 
ATOM     63  C   UNL A   1      44.023  27.642  36.429  1.00  0.00     0.031 A 
ATOM     64  C   UNL A   1      45.479  29.232  35.348  1.00  0.00     0.131 A 
ATOM     65  C   UNL A   1      45.132  27.151  37.136  1.00  0.00     0.055 A 
ATOM     66  C   UNL A   1      46.586  28.705  36.013  1.00  0.00     0.041 A 
ATOM     67  F   UNL A   1      45.688  30.257  34.506  1.00  0.00    -0.206 F 
ATOM     68  C   UNL A   1      46.415  27.663  36.917  1.00  0.00     0.022 A 
BRANCH  65  69
ATOM     69  S   UNL A   1      44.876  25.867  38.391  1.00  0.00     0.124 S 
ATOM     70  O   UNL A   1      44.467  26.655  39.550  1.00  0.00    -0.237 OA
ATOM     71  O   UNL A   1      43.840  25.038  37.786  1.00  0.00    -0.237 OA
ATOM     72  O   UNL A   1      46.188  25.233  38.506  1.00  0.00    -0.744 OA
ENDBRANCH  65  69
ENDBRANCH  39  62
ENDBRANCH  13  14
ENDBRANCH   6   8
ENDBRANCH   3   4
ENDBRANCH   2   3
ENDBRANCH   1   2
BRANCH   1  73
ATOM     73  N   UNL A   1      32.637  30.090  25.293  1.00  0.00    -0.352 N 
ATOM     74  C   UNL A   1      32.814  28.848  24.735  1.00  0.00     0.253 C 
ATOM     75  H   UNL A   1      33.405  30.703  25.236  1.00  0.00     0.163 HD
ATOM     76  O   UNL A   1      33.861  28.600  24.139  1.00  0.00    -0.269 OA
BRANCH  74  77
ATOM     77  C   UNL A   1      31.803  27.779  24.920  1.00  0.00     0.062 A 
ATOM     78  C   UNL A   1      32.048  26.947  26.030  1.00  0.00     0.016 A 
ATOM     79  C   UNL A   1      30.686  27.574  24.071  1.00  0.00     0.047 A 
ATOM     80  C   UNL A   1      31.172  25.919  26.348  1.00  0.00     0.001 A 
ATOM     81  C   UNL A   1      29.804  26.548  24.452  1.00  0.00     0.026 A 
ATOM     82  C   UNL A   1      30.044  25.727  25.562  1.00  0.00     0.002 A 
BRANCH  79  83
ATOM     83  N   UNL A   1      30.454  28.367  22.954  1.00  0.00    -0.384 N 
ATOM     84  H   UNL A   1      31.221  28.515  22.355  1.00  0.00     0.160 HD
BRANCH  83  85
ATOM     85  C   UNL A   1      29.200  29.004  22.573  1.00  0.00     0.115 C 
BRANCH  85  86
ATOM     86  C   UNL A   1      29.395  30.438  22.069  1.00  0.00     0.049 C 
BRANCH  86  87
ATOM     87  C   UNL A   1      28.823  31.542  22.957  1.00  0.00     0.158 C 
BRANCH  87  88
ATOM     88  O   UNL A   1      29.328  32.816  22.586  1.00  0.00    -0.396 OA
ATOM     89  H   UNL A   1      29.867  32.729  21.784  1.00  0.00     0.210 HD
ENDBRANCH  87  88
ENDBRANCH  86  87
ENDBRANCH  85  86
ENDBRANCH  83  85
ENDBRANCH  79  83
ENDBRANCH  74  77
ENDBRANCH   1  73
TORSDOF 18
ENDMDL
