MODEL 1
REMARK VINA RESULT:     -12.5      0.000      0.000
REMARK SMILES CC[C@H]1CCCCN1S(=O)(=O)c1ccc2oc(C(=O)NCCCNC(=O)c3ccc(-c4c5nc(c(-c6cc(S(=O)(=O)[O-])ccc6F)c6ccc([nH]6)c(-c6cc(S(=O)(=O)[O-])ccc6F)c6nc(c(-c7cc(S(=O)(=O)[O-])ccc7F)c7ccc4[nH]7)C=C6)C=C5)cc3)c(C)c2c1
REMARK SMILES IDX 22 1 21 2 20 3 18 4 19 5 17 7 12 8 13 9 93 10 14 11 92 12
REMARK SMILES IDX 15 13 90 14 16 15 91 16 9 17 10 18 11 19 8 20 3 21 4 22 5 23
REMARK SMILES IDX 7 24 6 25 2 26 1 27 23 28 24 29 25 30 26 32 27 33 28 34
REMARK SMILES IDX 89 35 29 36 88 37 30 38 31 39 32 40 82 41 33 42 87 43 81 44
REMARK SMILES IDX 83 45 34 46 86 47 80 48 79 49 35 51 67 52 47 53 66 54 48 55
REMARK SMILES IDX 51 56 65 57 84 58 49 59 50 60 64 62 85 63 52 64 36 65 37 66
REMARK SMILES IDX 45 67 38 68 44 69 46 70 43 71 39 72 40 73 41 74 42 75 68 76
REMARK SMILES IDX 69 77 77 78 70 79 76 80 78 81 75 82 71 83 72 84 73 85 74 86
REMARK SMILES IDX 53 87 54 88 62 89 55 90 61 91 63 92 60 93 56 94 57 95 58 96
REMARK SMILES IDX 59 97
REMARK H PARENT 20 6 24 31 83 50 51 61
REMARK Flexibility Score: inf
ROOT
ATOM      1  C   UNL A   1      38.241  19.897  24.809  1.00  0.00     0.042 C 
ENDROOT
BRANCH   1   2
ATOM      2  C   UNL A   1      36.772  20.211  24.964  1.00  0.00     0.118 C 
BRANCH   2   3
ATOM      3  N   UNL A   1      35.860  19.096  24.989  1.00  0.00    -0.349 N 
ATOM      4  C   UNL A   1      34.476  19.097  24.963  1.00  0.00     0.287 C 
ATOM      5  O   UNL A   1      33.952  17.978  24.950  1.00  0.00    -0.266 OA
ATOM      6  H   UNL A   1      36.280  18.206  25.030  1.00  0.00     0.163 HD
BRANCH   4   7
ATOM      7  C   UNL A   1      33.690  20.330  25.005  1.00  0.00     0.195 A 
ATOM      8  C   UNL A   1      31.019  24.029  24.920  1.00  0.00     0.083 A 
ATOM      9  C   UNL A   1      31.044  23.755  23.548  1.00  0.00     0.025 A 
ATOM     10  C   UNL A   1      31.555  23.131  25.840  1.00  0.00     0.034 A 
ATOM     11  C   UNL A   1      31.665  22.582  23.065  1.00  0.00     0.049 A 
ATOM     12  C   UNL A   1      32.362  22.106  25.354  1.00  0.00     0.025 A 
ATOM     13  C   UNL A   1      32.343  21.808  24.009  1.00  0.00     0.135 A 
ATOM     14  C   UNL A   1      33.394  21.328  25.935  1.00  0.00     0.008 A 
ATOM     15  O   UNL A   1      33.088  20.689  23.800  1.00  0.00    -0.451 OA
ATOM     16  C   UNL A   1      33.980  21.702  27.254  1.00  0.00     0.049 C 
BRANCH   8  17
ATOM     17  S   UNL A   1      30.296  25.497  25.617  1.00  0.00     0.243 S 
ATOM     18  O   UNL A   1      29.558  25.052  26.778  1.00  0.00    -0.207 OA
ATOM     19  O   UNL A   1      29.639  26.218  24.543  1.00  0.00    -0.207 OA
BRANCH  17  20
ATOM     20  N   UNL A   1      31.624  26.478  26.154  1.00  0.00    -0.195 NA
ATOM     21  C   UNL A   1      32.793  26.523  25.199  1.00  0.00     0.073 C 
ATOM     22  C   UNL A   1      34.024  27.121  25.901  1.00  0.00     0.020 C 
ATOM     23  C   UNL A   1      33.773  28.448  26.606  1.00  0.00     0.003 C 
ATOM     24  C   UNL A   1      31.334  27.786  26.788  1.00  0.00     0.103 C 
ATOM     25  C   UNL A   1      32.552  28.363  27.496  1.00  0.00     0.017 C 
BRANCH  21  26
ATOM     26  C   UNL A   1      32.503  27.124  23.802  1.00  0.00     0.017 C 
ATOM     27  C   UNL A   1      33.269  26.605  22.594  1.00  0.00     0.005 C 
ENDBRANCH  21  26
ENDBRANCH  17  20
ENDBRANCH   8  17
ENDBRANCH   4   7
ENDBRANCH   2   3
ENDBRANCH   1   2
BRANCH   1  28
ATOM     28  C   UNL A   1      39.046  19.940  26.090  1.00  0.00     0.118 C 
BRANCH  28  29
ATOM     29  N   UNL A   1      40.279  19.161  26.030  1.00  0.00    -0.352 N 
ATOM     30  C   UNL A   1      41.604  19.523  26.119  1.00  0.00     0.251 C 
ATOM     31  H   UNL A   1      40.135  18.195  25.902  1.00  0.00     0.163 HD
ATOM     32  O   UNL A   1      42.462  18.676  25.876  1.00  0.00    -0.269 OA
BRANCH  30  33
ATOM     33  C   UNL A   1      42.009  20.910  26.454  1.00  0.00     0.039 A 
ATOM     34  C   UNL A   1      42.414  21.211  27.761  1.00  0.00     0.014 A 
ATOM     35  C   UNL A   1      41.984  21.925  25.502  1.00  0.00     0.014 A 
ATOM     36  C   UNL A   1      42.877  22.496  28.071  1.00  0.00     0.010 A 
ATOM     37  C   UNL A   1      42.580  23.150  25.770  1.00  0.00     0.010 A 
ATOM     38  C   UNL A   1      43.016  23.462  27.063  1.00  0.00    -0.014 A 
BRANCH  38  39
ATOM     39  C   UNL A   1      43.563  24.820  27.330  1.00  0.00     0.031 A 
ATOM     40  C   UNL A   1      42.648  25.907  27.840  1.00  0.00     0.074 A 
ATOM     41  C   UNL A   1      44.846  25.104  27.029  1.00  0.00     0.049 A 
ATOM     42  N   UNL A   1      42.882  27.184  28.002  1.00  0.00    -0.248 NA
ATOM     43  C   UNL A   1      41.269  25.509  28.161  1.00  0.00     0.031 C 
ATOM     44  C   UNL A   1      45.817  24.156  26.478  1.00  0.00     0.029 A 
ATOM     45  N   UNL A   1      45.553  26.275  27.133  1.00  0.00    -0.354 N 
ATOM     46  C   UNL A   1      41.673  27.742  28.407  1.00  0.00     0.074 A 
ATOM     47  C   UNL A   1      40.693  26.679  28.383  1.00  0.00     0.031 C 
ATOM     48  C   UNL A   1      47.001  24.773  26.330  1.00  0.00     0.029 A 
ATOM     49  C   UNL A   1      46.861  26.171  26.722  1.00  0.00     0.049 A 
ATOM     50  H   UNL A   1      45.160  27.113  27.471  1.00  0.00     0.167 HD
ATOM     51  C   UNL A   1      41.410  29.014  28.799  1.00  0.00     0.034 A 
ATOM     52  C   UNL A   1      47.837  27.099  26.661  1.00  0.00     0.034 A 
ATOM     53  C   UNL A   1      42.409  30.052  28.851  1.00  0.00     0.049 A 
ATOM     54  C   UNL A   1      47.528  28.507  27.103  1.00  0.00     0.074 A 
ATOM     55  C   UNL A   1      42.277  31.358  29.290  1.00  0.00     0.029 A 
ATOM     56  N   UNL A   1      43.731  29.900  28.450  1.00  0.00    -0.354 N 
ATOM     57  N   UNL A   1      46.390  29.008  27.529  1.00  0.00    -0.248 NA
ATOM     58  C   UNL A   1      48.636  29.469  27.066  1.00  0.00     0.031 C 
ATOM     59  C   UNL A   1      43.499  32.011  29.095  1.00  0.00     0.029 A 
ATOM     60  C   UNL A   1      44.418  31.094  28.608  1.00  0.00     0.049 A 
ATOM     61  H   UNL A   1      44.123  29.066  28.104  1.00  0.00     0.167 HD
ATOM     62  C   UNL A   1      46.658  30.337  27.844  1.00  0.00     0.074 A 
ATOM     63  C   UNL A   1      48.064  30.553  27.569  1.00  0.00     0.031 C 
ATOM     64  C   UNL A   1      45.819  31.293  28.323  1.00  0.00     0.034 A 
BRANCH  51  65
ATOM     65  C   UNL A   1      39.984  29.340  29.182  1.00  0.00     0.023 A 
ATOM     66  C   UNL A   1      39.591  29.469  30.527  1.00  0.00     0.031 A 
ATOM     67  C   UNL A   1      38.989  29.470  28.197  1.00  0.00     0.131 A 
ATOM     68  C   UNL A   1      38.235  29.615  30.853  1.00  0.00     0.055 A 
ATOM     69  C   UNL A   1      37.653  29.713  28.525  1.00  0.00     0.041 A 
ATOM     70  F   UNL A   1      39.293  29.337  26.896  1.00  0.00    -0.206 F 
ATOM     71  C   UNL A   1      37.265  29.766  29.860  1.00  0.00     0.022 A 
BRANCH  68  72
ATOM     72  S   UNL A   1      37.739  29.425  32.588  1.00  0.00     0.124 S 
ATOM     73  O   UNL A   1      37.798  27.974  32.753  1.00  0.00    -0.237 OA
ATOM     74  O   UNL A   1      38.760  30.190  33.294  1.00  0.00    -0.237 OA
ATOM     75  O   UNL A   1      36.393  29.993  32.625  1.00  0.00    -0.744 OA
ENDBRANCH  68  72
ENDBRANCH  51  65
BRANCH  52  76
ATOM     76  C   UNL A   1      49.198  26.734  26.172  1.00  0.00     0.023 A 
ATOM     77  C   UNL A   1      49.646  27.154  24.910  1.00  0.00     0.031 A 
ATOM     78  C   UNL A   1      50.061  25.939  26.947  1.00  0.00     0.131 A 
ATOM     79  C   UNL A   1      50.903  26.742  24.440  1.00  0.00     0.055 A 
ATOM     80  C   UNL A   1      51.331  25.574  26.496  1.00  0.00     0.041 A 
ATOM     81  F   UNL A   1      49.687  25.519  28.166  1.00  0.00    -0.206 F 
ATOM     82  C   UNL A   1      51.753  25.966  25.230  1.00  0.00     0.022 A 
BRANCH  79  83
ATOM     83  S   UNL A   1      51.382  27.179  22.745  1.00  0.00     0.124 S 
ATOM     84  O   UNL A   1      52.567  26.354  22.550  1.00  0.00    -0.237 OA
ATOM     85  O   UNL A   1      50.196  26.790  21.987  1.00  0.00    -0.237 OA
ATOM     86  O   UNL A   1      51.626  28.618  22.821  1.00  0.00    -0.744 OA
ENDBRANCH  79  83
ENDBRANCH  52  76
BRANCH  64  87
ATOM     87  C   UNL A   1      46.422  32.642  28.627  1.00  0.00     0.023 A 
ATOM     88  C   UNL A   1      46.524  33.647  27.650  1.00  0.00     0.031 A 
ATOM     89  C   UNL A   1      46.909  32.920  29.917  1.00  0.00     0.131 A 
ATOM     90  C   UNL A   1      47.153  34.862  27.961  1.00  0.00     0.055 A 
ATOM     91  C   UNL A   1      47.477  34.153  30.238  1.00  0.00     0.041 A 
ATOM     92  F   UNL A   1      46.839  31.996  30.888  1.00  0.00    -0.206 F 
ATOM     93  C   UNL A   1      47.614  35.128  29.254  1.00  0.00     0.022 A 
BRANCH  90  94
ATOM     94  S   UNL A   1      47.448  36.056  26.629  1.00  0.00     0.124 S 
ATOM     95  O   UNL A   1      46.264  36.904  26.715  1.00  0.00    -0.237 OA
ATOM     96  O   UNL A   1      48.707  36.673  27.035  1.00  0.00    -0.237 OA
ATOM     97  O   UNL A   1      47.526  35.220  25.431  1.00  0.00    -0.744 OA
ENDBRANCH  90  94
ENDBRANCH  64  87
ENDBRANCH  38  39
ENDBRANCH  30  33
ENDBRANCH  28  29
ENDBRANCH   1  28
TORSDOF 16
ENDMDL
MODEL 2
REMARK VINA RESULT:     -12.4      1.509      2.074
REMARK SMILES CC[C@H]1CCCCN1S(=O)(=O)c1ccc2oc(C(=O)NCCCNC(=O)c3ccc(-c4c5nc(c(-c6cc(S(=O)(=O)[O-])ccc6F)c6ccc([nH]6)c(-c6cc(S(=O)(=O)[O-])ccc6F)c6nc(c(-c7cc(S(=O)(=O)[O-])ccc7F)c7ccc4[nH]7)C=C6)C=C5)cc3)c(C)c2c1
REMARK SMILES IDX 22 1 21 2 20 3 18 4 19 5 17 7 12 8 13 9 93 10 14 11 92 12
REMARK SMILES IDX 15 13 90 14 16 15 91 16 9 17 10 18 11 19 8 20 3 21 4 22 5 23
REMARK SMILES IDX 7 24 6 25 2 26 1 27 23 28 24 29 25 30 26 32 27 33 28 34
REMARK SMILES IDX 89 35 29 36 88 37 30 38 31 39 32 40 82 41 33 42 87 43 81 44
REMARK SMILES IDX 83 45 34 46 86 47 80 48 79 49 35 51 67 52 47 53 66 54 48 55
REMARK SMILES IDX 51 56 65 57 84 58 49 59 50 60 64 62 85 63 52 64 36 65 37 66
REMARK SMILES IDX 45 67 38 68 44 69 46 70 43 71 39 72 40 73 41 74 42 75 68 76
REMARK SMILES IDX 69 77 77 78 70 79 76 80 78 81 75 82 71 83 72 84 73 85 74 86
REMARK SMILES IDX 53 87 54 88 62 89 55 90 61 91 63 92 60 93 56 94 57 95 58 96
REMARK SMILES IDX 59 97
REMARK H PARENT 20 6 24 31 83 50 51 61
REMARK Flexibility Score: inf
ROOT
ATOM      1  C   UNL A   1      38.300  19.549  24.996  1.00  0.00     0.042 C 
ENDROOT
BRANCH   1   2
ATOM      2  C   UNL A   1      37.078  20.422  24.836  1.00  0.00     0.118 C 
BRANCH   2   3
ATOM      3  N   UNL A   1      35.803  19.839  25.170  1.00  0.00    -0.349 N 
ATOM      4  C   UNL A   1      34.532  20.359  25.004  1.00  0.00     0.287 C 
ATOM      5  O   UNL A   1      33.611  19.611  25.344  1.00  0.00    -0.266 OA
ATOM      6  H   UNL A   1      35.842  18.942  25.576  1.00  0.00     0.163 HD
BRANCH   4   7
ATOM      7  C   UNL A   1      34.297  21.717  24.512  1.00  0.00     0.195 A 
ATOM      8  C   UNL A   1      33.268  25.843  22.856  1.00  0.00     0.083 A 
ATOM      9  C   UNL A   1      32.910  25.073  21.743  1.00  0.00     0.025 A 
ATOM     10  C   UNL A   1      33.597  25.240  24.068  1.00  0.00     0.034 A 
ATOM     11  C   UNL A   1      32.931  23.663  21.814  1.00  0.00     0.049 A 
ATOM     12  C   UNL A   1      33.841  23.870  24.068  1.00  0.00     0.025 A 
ATOM     13  C   UNL A   1      33.439  23.110  22.991  1.00  0.00     0.135 A 
ATOM     14  C   UNL A   1      34.595  23.020  24.915  1.00  0.00     0.008 A 
ATOM     15  O   UNL A   1      33.646  21.797  23.282  1.00  0.00    -0.451 OA
ATOM     16  C   UNL A   1      35.531  23.589  25.926  1.00  0.00     0.049 C 
BRANCH   8  17
ATOM     17  S   UNL A   1      33.311  27.621  22.849  1.00  0.00     0.243 S 
ATOM     18  O   UNL A   1      34.006  27.987  21.635  1.00  0.00    -0.207 OA
ATOM     19  O   UNL A   1      33.791  28.056  24.147  1.00  0.00    -0.207 OA
BRANCH  17  20
ATOM     20  N   UNL A   1      31.660  28.141  22.713  1.00  0.00    -0.195 NA
ATOM     21  C   UNL A   1      30.700  27.411  23.622  1.00  0.00     0.073 C 
ATOM     22  C   UNL A   1      29.250  27.695  23.192  1.00  0.00     0.020 C 
ATOM     23  C   UNL A   1      28.914  29.171  23.022  1.00  0.00     0.003 C 
ATOM     24  C   UNL A   1      31.377  29.592  22.603  1.00  0.00     0.103 C 
ATOM     25  C   UNL A   1      29.945  29.863  22.159  1.00  0.00     0.017 C 
BRANCH  21  26
ATOM     26  C   UNL A   1      30.954  27.567  25.141  1.00  0.00     0.017 C 
ATOM     27  C   UNL A   1      30.668  26.396  26.069  1.00  0.00     0.005 C 
ENDBRANCH  21  26
ENDBRANCH  17  20
ENDBRANCH   8  17
ENDBRANCH   4   7
ENDBRANCH   2   3
ENDBRANCH   1   2
BRANCH   1  28
ATOM     28  C   UNL A   1      39.325  20.054  25.987  1.00  0.00     0.118 C 
BRANCH  28  29
ATOM     29  N   UNL A   1      40.561  19.278  25.993  1.00  0.00    -0.352 N 
ATOM     30  C   UNL A   1      41.881  19.647  26.128  1.00  0.00     0.251 C 
ATOM     31  H   UNL A   1      40.426  18.310  25.880  1.00  0.00     0.163 HD
ATOM     32  O   UNL A   1      42.751  18.798  25.938  1.00  0.00    -0.269 OA
BRANCH  30  33
ATOM     33  C   UNL A   1      42.268  21.042  26.450  1.00  0.00     0.039 A 
ATOM     34  C   UNL A   1      42.565  21.385  27.775  1.00  0.00     0.014 A 
ATOM     35  C   UNL A   1      42.331  22.025  25.466  1.00  0.00     0.014 A 
ATOM     36  C   UNL A   1      43.011  22.677  28.080  1.00  0.00     0.010 A 
ATOM     37  C   UNL A   1      42.914  23.255  25.742  1.00  0.00     0.010 A 
ATOM     38  C   UNL A   1      43.242  23.608  27.056  1.00  0.00    -0.014 A 
BRANCH  38  39
ATOM     39  C   UNL A   1      43.776  24.971  27.322  1.00  0.00     0.031 A 
ATOM     40  C   UNL A   1      42.871  26.027  27.908  1.00  0.00     0.074 A 
ATOM     41  C   UNL A   1      45.034  25.289  26.956  1.00  0.00     0.049 A 
ATOM     42  N   UNL A   1      43.088  27.305  28.085  1.00  0.00    -0.248 NA
ATOM     43  C   UNL A   1      41.520  25.593  28.296  1.00  0.00     0.031 C 
ATOM     44  C   UNL A   1      45.991  24.373  26.330  1.00  0.00     0.029 A 
ATOM     45  N   UNL A   1      45.723  26.471  27.047  1.00  0.00    -0.354 N 
ATOM     46  C   UNL A   1      41.893  27.829  28.571  1.00  0.00     0.074 A 
ATOM     47  C   UNL A   1      40.934  26.746  28.578  1.00  0.00     0.031 C 
ATOM     48  C   UNL A   1      47.152  25.018  26.130  1.00  0.00     0.029 A 
ATOM     49  C   UNL A   1      47.008  26.404  26.561  1.00  0.00     0.049 A 
ATOM     50  H   UNL A   1      45.333  27.293  27.426  1.00  0.00     0.167 HD
ATOM     51  C   UNL A   1      41.627  29.086  29.005  1.00  0.00     0.034 A 
ATOM     52  C   UNL A   1      47.960  27.354  26.466  1.00  0.00     0.034 A 
ATOM     53  C   UNL A   1      42.607  30.143  29.025  1.00  0.00     0.049 A 
ATOM     54  C   UNL A   1      47.648  28.745  26.957  1.00  0.00     0.074 A 
ATOM     55  C   UNL A   1      42.474  31.436  29.500  1.00  0.00     0.029 A 
ATOM     56  N   UNL A   1      43.907  30.028  28.547  1.00  0.00    -0.354 N 
ATOM     57  N   UNL A   1      46.527  29.212  27.458  1.00  0.00    -0.248 NA
ATOM     58  C   UNL A   1      48.733  29.730  26.880  1.00  0.00     0.031 C 
ATOM     59  C   UNL A   1      43.670  32.119  29.252  1.00  0.00     0.029 A 
ATOM     60  C   UNL A   1      44.578  31.233  28.694  1.00  0.00     0.049 A 
ATOM     61  H   UNL A   1      44.296  29.210  28.161  1.00  0.00     0.167 HD
ATOM     62  C   UNL A   1      46.786  30.540  27.787  1.00  0.00     0.074 A 
ATOM     63  C   UNL A   1      48.170  30.791  27.439  1.00  0.00     0.031 C 
ATOM     64  C   UNL A   1      45.957  31.467  28.334  1.00  0.00     0.034 A 
BRANCH  51  65
ATOM     65  C   UNL A   1      40.219  29.374  29.476  1.00  0.00     0.023 A 
ATOM     66  C   UNL A   1      39.908  29.502  30.842  1.00  0.00     0.031 A 
ATOM     67  C   UNL A   1      39.161  29.466  28.554  1.00  0.00     0.131 A 
ATOM     68  C   UNL A   1      38.571  29.611  31.252  1.00  0.00     0.055 A 
ATOM     69  C   UNL A   1      37.842  29.673  28.964  1.00  0.00     0.041 A 
ATOM     70  F   UNL A   1      39.386  29.332  27.237  1.00  0.00    -0.206 F 
ATOM     71  C   UNL A   1      37.537  29.726  30.321  1.00  0.00     0.022 A 
BRANCH  68  72
ATOM     72  S   UNL A   1      38.191  29.421  33.016  1.00  0.00     0.124 S 
ATOM     73  O   UNL A   1      39.529  29.318  33.594  1.00  0.00    -0.237 OA
ATOM     74  O   UNL A   1      37.459  30.645  33.314  1.00  0.00    -0.237 OA
ATOM     75  O   UNL A   1      37.403  28.191  33.067  1.00  0.00    -0.744 OA
ENDBRANCH  68  72
ENDBRANCH  51  65
BRANCH  52  76
ATOM     76  C   UNL A   1      49.298  27.027  25.894  1.00  0.00     0.023 A 
ATOM     77  C   UNL A   1      49.627  27.395  24.580  1.00  0.00     0.031 A 
ATOM     78  C   UNL A   1      50.258  26.322  26.641  1.00  0.00     0.131 A 
ATOM     79  C   UNL A   1      50.865  27.019  24.036  1.00  0.00     0.055 A 
ATOM     80  C   UNL A   1      51.508  25.994  26.113  1.00  0.00     0.041 A 
ATOM     81  F   UNL A   1      49.999  25.956  27.907  1.00  0.00    -0.206 F 
ATOM     82  C   UNL A   1      51.813  26.332  24.798  1.00  0.00     0.022 A 
BRANCH  79  83
ATOM     83  S   UNL A   1      51.191  27.379  22.288  1.00  0.00     0.124 S 
ATOM     84  O   UNL A   1      50.081  26.700  21.632  1.00  0.00    -0.237 OA
ATOM     85  O   UNL A   1      51.153  28.838  22.269  1.00  0.00    -0.237 OA
ATOM     86  O   UNL A   1      52.509  26.789  22.060  1.00  0.00    -0.744 OA
ENDBRANCH  79  83
ENDBRANCH  52  76
BRANCH  64  87
ATOM     87  C   UNL A   1      46.548  32.821  28.635  1.00  0.00     0.023 A 
ATOM     88  C   UNL A   1      46.568  33.852  27.679  1.00  0.00     0.031 A 
ATOM     89  C   UNL A   1      47.111  33.079  29.898  1.00  0.00     0.131 A 
ATOM     90  C   UNL A   1      47.190  35.073  27.982  1.00  0.00     0.055 A 
ATOM     91  C   UNL A   1      47.671  34.316  30.215  1.00  0.00     0.041 A 
ATOM     92  F   UNL A   1      47.121  32.130  30.848  1.00  0.00    -0.206 F 
ATOM     93  C   UNL A   1      47.726  35.317  29.250  1.00  0.00     0.022 A 
BRANCH  90  94
ATOM     94  S   UNL A   1      47.375  36.305  26.664  1.00  0.00     0.124 S 
ATOM     95  O   UNL A   1      48.678  35.957  26.106  1.00  0.00    -0.237 OA
ATOM     96  O   UNL A   1      46.222  36.029  25.814  1.00  0.00    -0.237 OA
ATOM     97  O   UNL A   1      47.327  37.580  27.379  1.00  0.00    -0.744 OA
ENDBRANCH  90  94
ENDBRANCH  64  87
ENDBRANCH  38  39
ENDBRANCH  30  33
ENDBRANCH  28  29
ENDBRANCH   1  28
TORSDOF 16
ENDMDL
MODEL 3
REMARK VINA RESULT:     -12.4      1.594      2.155
REMARK SMILES CC[C@H]1CCCCN1S(=O)(=O)c1ccc2oc(C(=O)NCCCNC(=O)c3ccc(-c4c5nc(c(-c6cc(S(=O)(=O)[O-])ccc6F)c6ccc([nH]6)c(-c6cc(S(=O)(=O)[O-])ccc6F)c6nc(c(-c7cc(S(=O)(=O)[O-])ccc7F)c7ccc4[nH]7)C=C6)C=C5)cc3)c(C)c2c1
REMARK SMILES IDX 22 1 21 2 20 3 18 4 19 5 17 7 12 8 13 9 93 10 14 11 92 12
REMARK SMILES IDX 15 13 90 14 16 15 91 16 9 17 10 18 11 19 8 20 3 21 4 22 5 23
REMARK SMILES IDX 7 24 6 25 2 26 1 27 23 28 24 29 25 30 26 32 27 33 28 34
REMARK SMILES IDX 89 35 29 36 88 37 30 38 31 39 32 40 82 41 33 42 87 43 81 44
REMARK SMILES IDX 83 45 34 46 86 47 80 48 79 49 35 51 67 52 47 53 66 54 48 55
REMARK SMILES IDX 51 56 65 57 84 58 49 59 50 60 64 62 85 63 52 64 36 65 37 66
REMARK SMILES IDX 45 67 38 68 44 69 46 70 43 71 39 72 40 73 41 74 42 75 68 76
REMARK SMILES IDX 69 77 77 78 70 79 76 80 78 81 75 82 71 83 72 84 73 85 74 86
REMARK SMILES IDX 53 87 54 88 62 89 55 90 61 91 63 92 60 93 56 94 57 95 58 96
REMARK SMILES IDX 59 97
REMARK H PARENT 20 6 24 31 83 50 51 61
REMARK Flexibility Score: inf
ROOT
ATOM      1  C   UNL A   1      37.775  19.260  24.772  1.00  0.00     0.042 C 
ENDROOT
BRANCH   1   2
ATOM      2  C   UNL A   1      36.347  19.689  25.017  1.00  0.00     0.118 C 
BRANCH   2   3
ATOM      3  N   UNL A   1      35.312  18.732  24.721  1.00  0.00    -0.349 N 
ATOM      4  C   UNL A   1      33.954  18.936  24.551  1.00  0.00     0.287 C 
ATOM      5  O   UNL A   1      33.305  17.927  24.257  1.00  0.00    -0.266 OA
ATOM      6  H   UNL A   1      35.613  17.799  24.626  1.00  0.00     0.163 HD
BRANCH   4   7
ATOM      7  C   UNL A   1      33.323  20.240  24.757  1.00  0.00     0.195 A 
ATOM      8  C   UNL A   1      31.590  24.369  25.639  1.00  0.00     0.083 A 
ATOM      9  C   UNL A   1      31.765  23.928  26.955  1.00  0.00     0.025 A 
ATOM     10  C   UNL A   1      32.100  23.641  24.565  1.00  0.00     0.034 A 
ATOM     11  C   UNL A   1      32.416  22.702  27.217  1.00  0.00     0.049 A 
ATOM     12  C   UNL A   1      32.527  22.339  24.807  1.00  0.00     0.025 A 
ATOM     13  C   UNL A   1      32.747  21.927  26.103  1.00  0.00     0.135 A 
ATOM     14  C   UNL A   1      32.662  21.195  23.982  1.00  0.00     0.008 A 
ATOM     15  O   UNL A   1      33.297  20.683  26.079  1.00  0.00    -0.451 OA
ATOM     16  C   UNL A   1      32.079  21.172  22.610  1.00  0.00     0.049 C 
BRANCH   8  17
ATOM     17  S   UNL A   1      30.748  25.875  25.210  1.00  0.00     0.243 S 
ATOM     18  O   UNL A   1      30.398  26.495  26.469  1.00  0.00    -0.207 OA
ATOM     19  O   UNL A   1      29.732  25.549  24.228  1.00  0.00    -0.207 OA
BRANCH  17  20
ATOM     20  N   UNL A   1      31.925  26.874  24.416  1.00  0.00    -0.195 NA
ATOM     21  C   UNL A   1      31.392  27.644  23.231  1.00  0.00     0.073 C 
ATOM     22  C   UNL A   1      32.560  28.217  22.408  1.00  0.00     0.020 C 
ATOM     23  C   UNL A   1      33.587  28.996  23.218  1.00  0.00     0.003 C 
ATOM     24  C   UNL A   1      32.872  27.657  25.246  1.00  0.00     0.103 C 
ATOM     25  C   UNL A   1      34.034  28.204  24.427  1.00  0.00     0.017 C 
BRANCH  21  26
ATOM     26  C   UNL A   1      30.268  28.664  23.535  1.00  0.00     0.017 C 
ATOM     27  C   UNL A   1      29.896  29.699  22.484  1.00  0.00     0.005 C 
ENDBRANCH  21  26
ENDBRANCH  17  20
ENDBRANCH   8  17
ENDBRANCH   4   7
ENDBRANCH   2   3
ENDBRANCH   1   2
BRANCH   1  28
ATOM     28  C   UNL A   1      38.801  19.888  25.688  1.00  0.00     0.118 C 
BRANCH  28  29
ATOM     29  N   UNL A   1      40.032  19.112  25.804  1.00  0.00    -0.352 N 
ATOM     30  C   UNL A   1      41.329  19.476  26.091  1.00  0.00     0.251 C 
ATOM     31  H   UNL A   1      39.912  18.148  25.649  1.00  0.00     0.163 HD
ATOM     32  O   UNL A   1      42.216  18.633  25.970  1.00  0.00    -0.269 OA
BRANCH  30  33
ATOM     33  C   UNL A   1      41.676  20.861  26.493  1.00  0.00     0.039 A 
ATOM     34  C   UNL A   1      42.405  21.074  27.669  1.00  0.00     0.014 A 
ATOM     35  C   UNL A   1      41.280  21.959  25.734  1.00  0.00     0.014 A 
ATOM     36  C   UNL A   1      42.810  22.369  28.017  1.00  0.00     0.010 A 
ATOM     37  C   UNL A   1      41.806  23.217  25.996  1.00  0.00     0.010 A 
ATOM     38  C   UNL A   1      42.561  23.446  27.153  1.00  0.00    -0.014 A 
BRANCH  38  39
ATOM     39  C   UNL A   1      43.026  24.828  27.447  1.00  0.00     0.031 A 
ATOM     40  C   UNL A   1      42.088  25.807  28.113  1.00  0.00     0.074 A 
ATOM     41  C   UNL A   1      44.244  25.234  27.037  1.00  0.00     0.049 A 
ATOM     42  N   UNL A   1      42.238  27.088  28.329  1.00  0.00    -0.248 NA
ATOM     43  C   UNL A   1      40.785  25.278  28.545  1.00  0.00     0.031 C 
ATOM     44  C   UNL A   1      45.222  24.401  26.333  1.00  0.00     0.029 A 
ATOM     45  N   UNL A   1      44.866  26.452  27.141  1.00  0.00    -0.354 N 
ATOM     46  C   UNL A   1      41.039  27.521  28.888  1.00  0.00     0.074 A 
ATOM     47  C   UNL A   1      40.148  26.382  28.897  1.00  0.00     0.031 C 
ATOM     48  C   UNL A   1      46.333  25.121  26.105  1.00  0.00     0.029 A 
ATOM     49  C   UNL A   1      46.128  26.480  26.595  1.00  0.00     0.049 A 
ATOM     50  H   UNL A   1      44.447  27.235  27.569  1.00  0.00     0.167 HD
ATOM     51  C   UNL A   1      40.721  28.743  29.382  1.00  0.00     0.034 A 
ATOM     52  C   UNL A   1      47.017  27.488  26.494  1.00  0.00     0.034 A 
ATOM     53  C   UNL A   1      41.637  29.857  29.397  1.00  0.00     0.049 A 
ATOM     54  C   UNL A   1      46.647  28.840  27.051  1.00  0.00     0.074 A 
ATOM     55  C   UNL A   1      41.451  31.122  29.927  1.00  0.00     0.029 A 
ATOM     56  N   UNL A   1      42.917  29.837  28.857  1.00  0.00    -0.354 N 
ATOM     57  N   UNL A   1      45.526  29.221  27.620  1.00  0.00    -0.248 NA
ATOM     58  C   UNL A   1      47.668  29.891  26.963  1.00  0.00     0.031 C 
ATOM     59  C   UNL A   1      42.591  31.884  29.651  1.00  0.00     0.029 A 
ATOM     60  C   UNL A   1      43.522  31.074  29.019  1.00  0.00     0.049 A 
ATOM     61  H   UNL A   1      43.334  29.059  28.422  1.00  0.00     0.167 HD
ATOM     62  C   UNL A   1      45.721  30.549  27.987  1.00  0.00     0.074 A 
ATOM     63  C   UNL A   1      47.070  30.896  27.587  1.00  0.00     0.031 C 
ATOM     64  C   UNL A   1      44.866  31.404  28.606  1.00  0.00     0.034 A 
BRANCH  51  65
ATOM     65  C   UNL A   1      39.323  28.929  29.926  1.00  0.00     0.023 A 
ATOM     66  C   UNL A   1      38.279  29.433  29.128  1.00  0.00     0.031 A 
ATOM     67  C   UNL A   1      39.036  28.651  31.275  1.00  0.00     0.131 A 
ATOM     68  C   UNL A   1      37.038  29.741  29.704  1.00  0.00     0.055 A 
ATOM     69  C   UNL A   1      37.769  28.868  31.819  1.00  0.00     0.041 A 
ATOM     70  F   UNL A   1      39.992  28.187  32.096  1.00  0.00    -0.206 F 
ATOM     71  C   UNL A   1      36.766  29.436  31.039  1.00  0.00     0.022 A 
BRANCH  68  72
ATOM     72  S   UNL A   1      35.851  30.707  28.730  1.00  0.00     0.124 S 
ATOM     73  O   UNL A   1      36.741  31.503  27.888  1.00  0.00    -0.237 OA
ATOM     74  O   UNL A   1      35.084  29.671  28.049  1.00  0.00    -0.237 OA
ATOM     75  O   UNL A   1      35.117  31.468  29.740  1.00  0.00    -0.744 OA
ENDBRANCH  68  72
ENDBRANCH  51  65
BRANCH  52  76
ATOM     76  C   UNL A   1      48.343  27.264  25.849  1.00  0.00     0.023 A 
ATOM     77  C   UNL A   1      48.511  27.446  24.467  1.00  0.00     0.031 A 
ATOM     78  C   UNL A   1      49.455  26.841  26.598  1.00  0.00     0.131 A 
ATOM     79  C   UNL A   1      49.748  27.163  23.869  1.00  0.00     0.055 A 
ATOM     80  C   UNL A   1      50.698  26.610  26.006  1.00  0.00     0.041 A 
ATOM     81  F   UNL A   1      49.352  26.662  27.925  1.00  0.00    -0.206 F 
ATOM     82  C   UNL A   1      50.847  26.760  24.631  1.00  0.00     0.022 A 
BRANCH  79  83
ATOM     83  S   UNL A   1      49.883  27.264  22.063  1.00  0.00     0.124 S 
ATOM     84  O   UNL A   1      49.664  28.686  21.827  1.00  0.00    -0.237 OA
ATOM     85  O   UNL A   1      51.240  26.777  21.833  1.00  0.00    -0.237 OA
ATOM     86  O   UNL A   1      48.818  26.381  21.593  1.00  0.00    -0.744 OA
ENDBRANCH  79  83
ENDBRANCH  52  76
BRANCH  64  87
ATOM     87  C   UNL A   1      45.391  32.780  28.932  1.00  0.00     0.023 A 
ATOM     88  C   UNL A   1      45.104  33.895  28.124  1.00  0.00     0.031 A 
ATOM     89  C   UNL A   1      46.201  32.975  30.065  1.00  0.00     0.131 A 
ATOM     90  C   UNL A   1      45.670  35.142  28.429  1.00  0.00     0.055 A 
ATOM     91  C   UNL A   1      46.709  34.230  30.399  1.00  0.00     0.041 A 
ATOM     92  F   UNL A   1      46.509  31.946  30.870  1.00  0.00    -0.206 F 
ATOM     93  C   UNL A   1      46.456  35.320  29.571  1.00  0.00     0.022 A 
BRANCH  90  94
ATOM     94  S   UNL A   1      45.444  36.509  27.259  1.00  0.00     0.124 S 
ATOM     95  O   UNL A   1      45.392  37.664  28.150  1.00  0.00    -0.237 OA
ATOM     96  O   UNL A   1      46.633  36.402  26.421  1.00  0.00    -0.237 OA
ATOM     97  O   UNL A   1      44.184  36.184  26.591  1.00  0.00    -0.744 OA
ENDBRANCH  90  94
ENDBRANCH  64  87
ENDBRANCH  38  39
ENDBRANCH  30  33
ENDBRANCH  28  29
ENDBRANCH   1  28
TORSDOF 16
ENDMDL
