MODEL 1
REMARK VINA RESULT:     -11.9      0.000      0.000
REMARK SMILES CC[NH2+][C@@]1(C(=O)NCCCNC(=O)c2ccc(-c3c4nc(c(-c5cc(S(=O)(=O)[O-])ccc5F)c5ccc([nH]5)c(-c5cc(S(=O)(=O)[O-])ccc5F)c5nc(c(-c6cc(S(=O)(=O)[O-])ccc6F)c6ccc3[nH]6)C=C5)C=C4)cc2)CCC[C@@H](Sc2ncc(C)cn2)C1
REMARK SMILES IDX 9 1 8 2 7 3 5 4 6 5 4 7 77 8 89 9 78 10 80 11 79 12 3 13
REMARK SMILES IDX 2 16 1 17 81 18 82 19 83 20 88 21 84 22 87 23 85 24 86 25
REMARK SMILES IDX 10 26 11 27 12 28 13 30 14 31 15 32 76 33 16 34 75 35 17 36
REMARK SMILES IDX 18 37 19 38 69 39 20 40 74 41 68 42 70 43 21 44 73 45 67 46
REMARK SMILES IDX 66 47 22 49 54 50 34 51 53 52 35 53 38 54 52 55 71 56 36 57
REMARK SMILES IDX 37 58 51 60 72 61 39 62 23 63 24 64 32 65 25 66 31 67 33 68
REMARK SMILES IDX 30 69 26 70 27 71 28 72 29 73 55 74 56 75 64 76 57 77 63 78
REMARK SMILES IDX 65 79 62 80 58 81 59 82 60 83 61 84 40 85 41 86 49 87 42 88
REMARK SMILES IDX 48 89 50 90 47 91 43 92 44 93 45 94 46 95
REMARK H PARENT 7 6 3 14 3 15 11 29 70 48 38 59
REMARK Flexibility Score: inf
ROOT
ATOM      1  C   UNL A   1      31.489  28.438  25.930  1.00  0.00     0.042 C 
ENDROOT
BRANCH   1   2
ATOM      2  C   UNL A   1      31.977  27.333  26.865  1.00  0.00     0.118 C 
BRANCH   2   3
ATOM      3  N   UNL A   1      31.036  26.240  26.957  1.00  0.00    -0.351 N 
ATOM      4  C   UNL A   1      30.942  24.990  26.443  1.00  0.00     0.281 C 
ATOM      5  O   UNL A   1      29.850  24.461  26.715  1.00  0.00    -0.268 OA
ATOM      6  H   UNL A   1      30.270  26.460  27.536  1.00  0.00     0.163 HD
BRANCH   4   7
ATOM      7  C   UNL A   1      32.033  24.222  25.552  1.00  0.00     0.176 C 
ATOM      8  C   UNL A   1      33.524  24.390  25.933  1.00  0.00     0.079 C 
ATOM      9  C   UNL A   1      31.796  24.522  24.052  1.00  0.00     0.094 C 
ATOM     10  C   UNL A   1      34.362  25.473  25.249  1.00  0.00     0.008 C 
ATOM     11  C   UNL A   1      32.414  25.845  23.621  1.00  0.00     0.061 C 
ATOM     12  C   UNL A   1      33.925  25.890  23.846  1.00  0.00     0.015 C 
BRANCH   7  13
ATOM     13  N   UNL A   1      31.712  22.748  25.690  1.00  0.00    -0.334 N 
ATOM     14  H   UNL A   1      31.276  22.607  26.601  1.00  0.00     0.347 HD
ATOM     15  H   UNL A   1      31.107  22.522  24.900  1.00  0.00     0.347 HD
BRANCH  13  16
ATOM     16  C   UNL A   1      32.851  21.834  25.591  1.00  0.00     0.257 C 
ATOM     17  C   UNL A   1      32.824  21.134  24.240  1.00  0.00     0.071 C 
ENDBRANCH  13  16
ENDBRANCH   7  13
BRANCH  11  18
ATOM     18  S   UNL A   1      31.866  26.396  21.964  1.00  0.00    -0.083 SA
BRANCH  18  19
ATOM     19  C   UNL A   1      30.641  27.581  22.403  1.00  0.00     0.187 A 
ATOM     20  N   UNL A   1      29.593  27.159  23.126  1.00  0.00    -0.231 NA
ATOM     21  N   UNL A   1      30.804  28.827  21.931  1.00  0.00    -0.231 NA
ATOM     22  C   UNL A   1      28.661  28.085  23.411  1.00  0.00     0.119 A 
ATOM     23  C   UNL A   1      29.844  29.712  22.244  1.00  0.00     0.119 A 
ATOM     24  C   UNL A   1      28.727  29.395  22.988  1.00  0.00    -0.014 A 
ATOM     25  C   UNL A   1      27.682  30.400  23.312  1.00  0.00     0.048 C 
ENDBRANCH  18  19
ENDBRANCH  11  18
ENDBRANCH   4   7
ENDBRANCH   2   3
ENDBRANCH   1   2
BRANCH   1  26
ATOM     26  C   UNL A   1      32.576  29.425  25.549  1.00  0.00     0.118 C 
BRANCH  26  27
ATOM     27  N   UNL A   1      32.226  30.786  25.931  1.00  0.00    -0.352 N 
ATOM     28  C   UNL A   1      32.737  31.594  26.920  1.00  0.00     0.251 C 
ATOM     29  H   UNL A   1      31.509  31.194  25.394  1.00  0.00     0.163 HD
ATOM     30  O   UNL A   1      32.113  32.598  27.249  1.00  0.00    -0.269 OA
BRANCH  28  31
ATOM     31  C   UNL A   1      34.010  31.248  27.593  1.00  0.00     0.039 A 
ATOM     32  C   UNL A   1      34.940  32.257  27.857  1.00  0.00     0.014 A 
ATOM     33  C   UNL A   1      34.300  29.930  27.947  1.00  0.00     0.014 A 
ATOM     34  C   UNL A   1      36.121  31.951  28.540  1.00  0.00     0.010 A 
ATOM     35  C   UNL A   1      35.412  29.648  28.732  1.00  0.00     0.010 A 
ATOM     36  C   UNL A   1      36.346  30.652  29.024  1.00  0.00    -0.014 A 
BRANCH  36  37
ATOM     37  C   UNL A   1      37.557  30.307  29.813  1.00  0.00     0.031 A 
ATOM     38  C   UNL A   1      38.597  29.390  29.224  1.00  0.00     0.074 A 
ATOM     39  C   UNL A   1      37.684  30.758  31.077  1.00  0.00     0.049 A 
ATOM     40  N   UNL A   1      39.669  28.886  29.781  1.00  0.00    -0.248 NA
ATOM     41  C   UNL A   1      38.382  28.952  27.836  1.00  0.00     0.031 C 
ATOM     42  C   UNL A   1      36.718  31.615  31.770  1.00  0.00     0.029 A 
ATOM     43  N   UNL A   1      38.670  30.556  32.010  1.00  0.00    -0.354 N 
ATOM     44  C   UNL A   1      40.241  28.058  28.820  1.00  0.00     0.074 A 
ATOM     45  C   UNL A   1      39.357  28.071  27.674  1.00  0.00     0.031 C 
ATOM     46  C   UNL A   1      37.176  31.891  33.001  1.00  0.00     0.029 A 
ATOM     47  C   UNL A   1      38.436  31.187  33.209  1.00  0.00     0.049 A 
ATOM     48  H   UNL A   1      39.470  30.009  31.835  1.00  0.00     0.167 HD
ATOM     49  C   UNL A   1      41.410  27.373  28.876  1.00  0.00     0.034 A 
ATOM     50  C   UNL A   1      39.148  31.184  34.354  1.00  0.00     0.034 A 
ATOM     51  C   UNL A   1      42.285  27.387  30.022  1.00  0.00     0.049 A 
ATOM     52  C   UNL A   1      40.429  30.390  34.404  1.00  0.00     0.074 A 
ATOM     53  C   UNL A   1      43.519  26.782  30.172  1.00  0.00     0.029 A 
ATOM     54  N   UNL A   1      42.013  28.036  31.221  1.00  0.00    -0.354 N 
ATOM     55  N   UNL A   1      40.985  29.656  33.467  1.00  0.00    -0.248 NA
ATOM     56  C   UNL A   1      41.183  30.429  35.663  1.00  0.00     0.031 C 
ATOM     57  C   UNL A   1      43.956  26.998  31.482  1.00  0.00     0.029 A 
ATOM     58  C   UNL A   1      43.038  27.813  32.126  1.00  0.00     0.049 A 
ATOM     59  H   UNL A   1      41.209  28.575  31.401  1.00  0.00     0.167 HD
ATOM     60  C   UNL A   1      42.167  29.171  34.017  1.00  0.00     0.074 A 
ATOM     61  C   UNL A   1      42.253  29.713  35.357  1.00  0.00     0.031 C 
ATOM     62  C   UNL A   1      43.101  28.353  33.465  1.00  0.00     0.034 A 
BRANCH  49  63
ATOM     63  C   UNL A   1      41.788  26.538  27.674  1.00  0.00     0.023 A 
ATOM     64  C   UNL A   1      41.425  25.183  27.569  1.00  0.00     0.031 A 
ATOM     65  C   UNL A   1      42.547  27.095  26.630  1.00  0.00     0.131 A 
ATOM     66  C   UNL A   1      41.889  24.413  26.492  1.00  0.00     0.055 A 
ATOM     67  C   UNL A   1      42.930  26.345  25.516  1.00  0.00     0.041 A 
ATOM     68  F   UNL A   1      42.945  28.376  26.680  1.00  0.00    -0.206 F 
ATOM     69  C   UNL A   1      42.615  24.992  25.450  1.00  0.00     0.022 A 
BRANCH  66  70
ATOM     70  S   UNL A   1      41.661  22.615  26.553  1.00  0.00     0.124 S 
ATOM     71  O   UNL A   1      42.315  22.193  25.316  1.00  0.00    -0.237 OA
ATOM     72  O   UNL A   1      42.341  22.251  27.791  1.00  0.00    -0.237 OA
ATOM     73  O   UNL A   1      40.209  22.452  26.567  1.00  0.00    -0.744 OA
ENDBRANCH  66  70
ENDBRANCH  49  63
BRANCH  50  74
ATOM     74  C   UNL A   1      38.668  31.939  35.549  1.00  0.00     0.023 A 
ATOM     75  C   UNL A   1      38.145  31.268  36.667  1.00  0.00     0.031 A 
ATOM     76  C   UNL A   1      38.683  33.345  35.574  1.00  0.00     0.131 A 
ATOM     77  C   UNL A   1      37.615  32.001  37.740  1.00  0.00     0.055 A 
ATOM     78  C   UNL A   1      38.209  34.070  36.670  1.00  0.00     0.041 A 
ATOM     79  F   UNL A   1      39.171  34.038  34.534  1.00  0.00    -0.206 F 
ATOM     80  C   UNL A   1      37.657  33.397  37.755  1.00  0.00     0.022 A 
BRANCH  77  81
ATOM     81  S   UNL A   1      36.775  31.104  39.075  1.00  0.00     0.124 S 
ATOM     82  O   UNL A   1      35.531  31.854  39.201  1.00  0.00    -0.237 OA
ATOM     83  O   UNL A   1      36.662  29.762  38.513  1.00  0.00    -0.237 OA
ATOM     84  O   UNL A   1      37.698  31.230  40.201  1.00  0.00    -0.744 OA
ENDBRANCH  77  81
ENDBRANCH  50  74
BRANCH  62  85
ATOM     85  C   UNL A   1      44.315  28.033  34.304  1.00  0.00     0.023 A 
ATOM     86  C   UNL A   1      44.364  26.898  35.132  1.00  0.00     0.031 A 
ATOM     87  C   UNL A   1      45.435  28.883  34.280  1.00  0.00     0.131 A 
ATOM     88  C   UNL A   1      45.485  26.676  35.947  1.00  0.00     0.055 A 
ATOM     89  C   UNL A   1      46.575  28.619  35.039  1.00  0.00     0.041 A 
ATOM     90  F   UNL A   1      45.441  29.985  33.511  1.00  0.00    -0.206 F 
ATOM     91  C   UNL A   1      46.598  27.518  35.889  1.00  0.00     0.022 A 
BRANCH  88  92
ATOM     92  S   UNL A   1      45.426  25.327  37.158  1.00  0.00     0.124 S 
ATOM     93  O   UNL A   1      46.562  25.643  38.016  1.00  0.00    -0.237 OA
ATOM     94  O   UNL A   1      44.107  25.502  37.756  1.00  0.00    -0.237 OA
ATOM     95  O   UNL A   1      45.581  24.126  36.339  1.00  0.00    -0.744 OA
ENDBRANCH  88  92
ENDBRANCH  62  85
ENDBRANCH  36  37
ENDBRANCH  28  31
ENDBRANCH  26  27
ENDBRANCH   1  26
TORSDOF 17
ENDMDL
MODEL 2
REMARK VINA RESULT:     -11.7      2.272      4.113
REMARK SMILES CC[NH2+][C@@]1(C(=O)NCCCNC(=O)c2ccc(-c3c4nc(c(-c5cc(S(=O)(=O)[O-])ccc5F)c5ccc([nH]5)c(-c5cc(S(=O)(=O)[O-])ccc5F)c5nc(c(-c6cc(S(=O)(=O)[O-])ccc6F)c6ccc3[nH]6)C=C5)C=C4)cc2)CCC[C@@H](Sc2ncc(C)cn2)C1
REMARK SMILES IDX 9 1 8 2 7 3 5 4 6 5 4 7 77 8 89 9 78 10 80 11 79 12 3 13
REMARK SMILES IDX 2 16 1 17 81 18 82 19 83 20 88 21 84 22 87 23 85 24 86 25
REMARK SMILES IDX 10 26 11 27 12 28 13 30 14 31 15 32 76 33 16 34 75 35 17 36
REMARK SMILES IDX 18 37 19 38 69 39 20 40 74 41 68 42 70 43 21 44 73 45 67 46
REMARK SMILES IDX 66 47 22 49 54 50 34 51 53 52 35 53 38 54 52 55 71 56 36 57
REMARK SMILES IDX 37 58 51 60 72 61 39 62 23 63 24 64 32 65 25 66 31 67 33 68
REMARK SMILES IDX 30 69 26 70 27 71 28 72 29 73 55 74 56 75 64 76 57 77 63 78
REMARK SMILES IDX 65 79 62 80 58 81 59 82 60 83 61 84 40 85 41 86 49 87 42 88
REMARK SMILES IDX 48 89 50 90 47 91 43 92 44 93 45 94 46 95
REMARK H PARENT 7 6 3 14 3 15 11 29 70 48 38 59
REMARK Flexibility Score: inf
ROOT
ATOM      1  C   UNL A   1      31.712  31.413  26.503  1.00  0.00     0.042 C 
ENDROOT
BRANCH   1   2
ATOM      2  C   UNL A   1      31.890  29.931  26.180  1.00  0.00     0.118 C 
BRANCH   2   3
ATOM      3  N   UNL A   1      32.802  29.718  25.079  1.00  0.00    -0.351 N 
ATOM      4  C   UNL A   1      32.744  29.105  23.873  1.00  0.00     0.281 C 
ATOM      5  O   UNL A   1      33.856  29.072  23.319  1.00  0.00    -0.268 OA
ATOM      6  H   UNL A   1      33.686  30.117  25.249  1.00  0.00     0.163 HD
BRANCH   4   7
ATOM      7  C   UNL A   1      31.458  28.439  23.182  1.00  0.00     0.176 C 
ATOM      8  C   UNL A   1      30.265  28.059  24.093  1.00  0.00     0.079 C 
ATOM      9  C   UNL A   1      31.892  27.248  22.294  1.00  0.00     0.094 C 
ATOM     10  C   UNL A   1      30.162  26.638  24.652  1.00  0.00     0.008 C 
ATOM     11  C   UNL A   1      32.091  25.968  23.097  1.00  0.00     0.061 C 
ATOM     12  C   UNL A   1      30.824  25.532  23.831  1.00  0.00     0.015 C 
BRANCH   7  13
ATOM     13  N   UNL A   1      30.943  29.467  22.196  1.00  0.00    -0.334 N 
ATOM     14  H   UNL A   1      31.273  30.384  22.499  1.00  0.00     0.347 HD
ATOM     15  H   UNL A   1      31.298  29.178  21.285  1.00  0.00     0.347 HD
BRANCH  13  16
ATOM     16  C   UNL A   1      29.488  29.540  22.050  1.00  0.00     0.257 C 
ATOM     17  C   UNL A   1      29.066  30.994  21.899  1.00  0.00     0.071 C 
ENDBRANCH  13  16
ENDBRANCH   7  13
BRANCH  11  18
ATOM     18  S   UNL A   1      32.929  24.643  22.153  1.00  0.00    -0.083 SA
BRANCH  18  19
ATOM     19  C   UNL A   1      34.280  24.285  23.224  1.00  0.00     0.187 A 
ATOM     20  N   UNL A   1      35.171  23.367  22.821  1.00  0.00    -0.231 NA
ATOM     21  N   UNL A   1      34.297  24.914  24.410  1.00  0.00    -0.231 NA
ATOM     22  C   UNL A   1      36.167  23.095  23.681  1.00  0.00     0.119 A 
ATOM     23  C   UNL A   1      35.315  24.605  25.231  1.00  0.00     0.119 A 
ATOM     24  C   UNL A   1      36.292  23.684  24.921  1.00  0.00    -0.014 A 
ATOM     25  C   UNL A   1      37.402  23.364  25.857  1.00  0.00     0.048 C 
ENDBRANCH  18  19
ENDBRANCH  11  18
ENDBRANCH   4   7
ENDBRANCH   2   3
ENDBRANCH   1   2
BRANCH   1  26
ATOM     26  C   UNL A   1      32.953  32.052  27.094  1.00  0.00     0.118 C 
BRANCH  26  27
ATOM     27  N   UNL A   1      32.734  33.455  27.420  1.00  0.00    -0.352 N 
ATOM     28  C   UNL A   1      33.244  34.224  28.440  1.00  0.00     0.251 C 
ATOM     29  H   UNL A   1      32.123  33.930  26.811  1.00  0.00     0.163 HD
ATOM     30  O   UNL A   1      32.716  35.302  28.692  1.00  0.00    -0.269 OA
BRANCH  28  31
ATOM     31  C   UNL A   1      34.399  33.750  29.236  1.00  0.00     0.039 A 
ATOM     32  C   UNL A   1      34.188  32.829  30.265  1.00  0.00     0.014 A 
ATOM     33  C   UNL A   1      35.687  34.224  28.986  1.00  0.00     0.014 A 
ATOM     34  C   UNL A   1      35.278  32.334  30.988  1.00  0.00     0.010 A 
ATOM     35  C   UNL A   1      36.779  33.642  29.618  1.00  0.00     0.010 A 
ATOM     36  C   UNL A   1      36.587  32.701  30.640  1.00  0.00    -0.014 A 
BRANCH  36  37
ATOM     37  C   UNL A   1      37.772  32.141  31.341  1.00  0.00     0.031 A 
ATOM     38  C   UNL A   1      38.570  31.038  30.698  1.00  0.00     0.074 A 
ATOM     39  C   UNL A   1      38.081  32.572  32.581  1.00  0.00     0.049 A 
ATOM     40  N   UNL A   1      39.569  30.345  31.183  1.00  0.00    -0.248 NA
ATOM     41  C   UNL A   1      38.167  30.635  29.341  1.00  0.00     0.031 C 
ATOM     42  C   UNL A   1      37.352  33.603  33.325  1.00  0.00     0.029 A 
ATOM     43  N   UNL A   1      39.083  32.195  33.440  1.00  0.00    -0.354 N 
ATOM     44  C   UNL A   1      39.897  29.415  30.201  1.00  0.00     0.074 A 
ATOM     45  C   UNL A   1      38.943  29.584  29.127  1.00  0.00     0.031 C 
ATOM     46  C   UNL A   1      37.950  33.799  34.509  1.00  0.00     0.029 A 
ATOM     47  C   UNL A   1      39.069  32.871  34.638  1.00  0.00     0.049 A 
ATOM     48  H   UNL A   1      39.750  31.506  33.218  1.00  0.00     0.167 HD
ATOM     49  C   UNL A   1      40.916  28.521  30.184  1.00  0.00     0.034 A 
ATOM     50  C   UNL A   1      39.856  32.744  35.725  1.00  0.00     0.034 A 
ATOM     51  C   UNL A   1      41.867  28.381  31.260  1.00  0.00     0.049 A 
ATOM     52  C   UNL A   1      40.965  31.723  35.696  1.00  0.00     0.074 A 
ATOM     53  C   UNL A   1      42.974  27.555  31.329  1.00  0.00     0.029 A 
ATOM     54  N   UNL A   1      41.819  29.081  32.460  1.00  0.00    -0.354 N 
ATOM     55  N   UNL A   1      41.296  30.888  34.738  1.00  0.00    -0.248 NA
ATOM     56  C   UNL A   1      41.810  31.630  36.893  1.00  0.00     0.031 C 
ATOM     57  C   UNL A   1      43.547  27.697  32.597  1.00  0.00     0.029 A 
ATOM     58  C   UNL A   1      42.853  28.677  33.289  1.00  0.00     0.049 A 
ATOM     59  H   UNL A   1      41.148  29.764  32.688  1.00  0.00     0.167 HD
ATOM     60  C   UNL A   1      42.406  30.192  35.207  1.00  0.00     0.074 A 
ATOM     61  C   UNL A   1      42.699  30.722  36.523  1.00  0.00     0.031 C 
ATOM     62  C   UNL A   1      43.123  29.207  34.606  1.00  0.00     0.034 A 
BRANCH  49  63
ATOM     63  C   UNL A   1      41.034  27.619  28.978  1.00  0.00     0.023 A 
ATOM     64  C   UNL A   1      42.033  27.809  28.005  1.00  0.00     0.031 A 
ATOM     65  C   UNL A   1      40.119  26.571  28.779  1.00  0.00     0.131 A 
ATOM     66  C   UNL A   1      42.042  27.022  26.844  1.00  0.00     0.055 A 
ATOM     67  C   UNL A   1      40.188  25.733  27.664  1.00  0.00     0.041 A 
ATOM     68  F   UNL A   1      39.128  26.351  29.658  1.00  0.00    -0.206 F 
ATOM     69  C   UNL A   1      41.144  25.965  26.681  1.00  0.00     0.022 A 
BRANCH  66  70
ATOM     70  S   UNL A   1      43.145  27.496  25.485  1.00  0.00     0.124 S 
ATOM     71  O   UNL A   1      42.226  28.199  24.592  1.00  0.00    -0.237 OA
ATOM     72  O   UNL A   1      44.138  28.325  26.159  1.00  0.00    -0.237 OA
ATOM     73  O   UNL A   1      43.637  26.218  24.979  1.00  0.00    -0.744 OA
ENDBRANCH  66  70
ENDBRANCH  49  63
BRANCH  50  74
ATOM     74  C   UNL A   1      39.623  33.588  36.935  1.00  0.00     0.023 A 
ATOM     75  C   UNL A   1      38.950  33.075  38.055  1.00  0.00     0.031 A 
ATOM     76  C   UNL A   1      40.031  34.933  36.971  1.00  0.00     0.131 A 
ATOM     77  C   UNL A   1      38.661  33.914  39.144  1.00  0.00     0.055 A 
ATOM     78  C   UNL A   1      39.795  35.747  38.081  1.00  0.00     0.041 A 
ATOM     79  F   UNL A   1      40.678  35.475  35.928  1.00  0.00    -0.206 F 
ATOM     80  C   UNL A   1      39.092  35.242  39.170  1.00  0.00     0.022 A 
BRANCH  77  81
ATOM     81  S   UNL A   1      37.623  33.270  40.485  1.00  0.00     0.124 S 
ATOM     82  O   UNL A   1      38.460  32.203  41.023  1.00  0.00    -0.237 OA
ATOM     83  O   UNL A   1      37.459  34.447  41.333  1.00  0.00    -0.237 OA
ATOM     84  O   UNL A   1      36.412  32.828  39.796  1.00  0.00    -0.744 OA
ENDBRANCH  77  81
ENDBRANCH  50  74
BRANCH  62  85
ATOM     85  C   UNL A   1      44.318  28.672  35.357  1.00  0.00     0.023 A 
ATOM     86  C   UNL A   1      44.189  27.668  36.333  1.00  0.00     0.031 A 
ATOM     87  C   UNL A   1      45.602  29.180  35.096  1.00  0.00     0.131 A 
ATOM     88  C   UNL A   1      45.316  27.249  37.056  1.00  0.00     0.055 A 
ATOM     89  C   UNL A   1      46.730  28.709  35.768  1.00  0.00     0.041 A 
ATOM     90  F   UNL A   1      45.783  30.143  34.177  1.00  0.00    -0.206 F 
ATOM     91  C   UNL A   1      46.589  27.748  36.764  1.00  0.00     0.022 A 
BRANCH  88  92
ATOM     92  S   UNL A   1      45.082  26.115  38.451  1.00  0.00     0.124 S 
ATOM     93  O   UNL A   1      45.172  24.812  37.801  1.00  0.00    -0.237 OA
ATOM     94  O   UNL A   1      46.192  26.467  39.330  1.00  0.00    -0.237 OA
ATOM     95  O   UNL A   1      43.756  26.465  38.958  1.00  0.00    -0.744 OA
ENDBRANCH  88  92
ENDBRANCH  62  85
ENDBRANCH  36  37
ENDBRANCH  28  31
ENDBRANCH  26  27
ENDBRANCH   1  26
TORSDOF 17
ENDMDL
MODEL 3
REMARK VINA RESULT:     -11.6      2.252      3.042
REMARK SMILES CC[NH2+][C@@]1(C(=O)NCCCNC(=O)c2ccc(-c3c4nc(c(-c5cc(S(=O)(=O)[O-])ccc5F)c5ccc([nH]5)c(-c5cc(S(=O)(=O)[O-])ccc5F)c5nc(c(-c6cc(S(=O)(=O)[O-])ccc6F)c6ccc3[nH]6)C=C5)C=C4)cc2)CCC[C@@H](Sc2ncc(C)cn2)C1
REMARK SMILES IDX 9 1 8 2 7 3 5 4 6 5 4 7 77 8 89 9 78 10 80 11 79 12 3 13
REMARK SMILES IDX 2 16 1 17 81 18 82 19 83 20 88 21 84 22 87 23 85 24 86 25
REMARK SMILES IDX 10 26 11 27 12 28 13 30 14 31 15 32 76 33 16 34 75 35 17 36
REMARK SMILES IDX 18 37 19 38 69 39 20 40 74 41 68 42 70 43 21 44 73 45 67 46
REMARK SMILES IDX 66 47 22 49 54 50 34 51 53 52 35 53 38 54 52 55 71 56 36 57
REMARK SMILES IDX 37 58 51 60 72 61 39 62 23 63 24 64 32 65 25 66 31 67 33 68
REMARK SMILES IDX 30 69 26 70 27 71 28 72 29 73 55 74 56 75 64 76 57 77 63 78
REMARK SMILES IDX 65 79 62 80 58 81 59 82 60 83 61 84 40 85 41 86 49 87 42 88
REMARK SMILES IDX 48 89 50 90 47 91 43 92 44 93 45 94 46 95
REMARK H PARENT 7 6 3 14 3 15 11 29 70 48 38 59
REMARK Flexibility Score: inf
ROOT
ATOM      1  C   UNL A   1      31.591  31.854  26.522  1.00  0.00     0.042 C 
ENDROOT
BRANCH   1   2
ATOM      2  C   UNL A   1      31.824  30.442  25.991  1.00  0.00     0.118 C 
BRANCH   2   3
ATOM      3  N   UNL A   1      31.715  29.443  27.030  1.00  0.00    -0.351 N 
ATOM      4  C   UNL A   1      31.828  28.095  27.099  1.00  0.00     0.281 C 
ATOM      5  O   UNL A   1      31.509  27.663  28.220  1.00  0.00    -0.268 OA
ATOM      6  H   UNL A   1      31.503  29.842  27.905  1.00  0.00     0.163 HD
BRANCH   4   7
ATOM      7  C   UNL A   1      32.272  27.096  25.925  1.00  0.00     0.176 C 
ATOM      8  C   UNL A   1      33.456  27.522  25.023  1.00  0.00     0.079 C 
ATOM      9  C   UNL A   1      31.038  26.689  25.084  1.00  0.00     0.094 C 
ATOM     10  C   UNL A   1      33.179  28.253  23.707  1.00  0.00     0.008 C 
ATOM     11  C   UNL A   1      30.687  27.730  24.028  1.00  0.00     0.061 C 
ATOM     12  C   UNL A   1      31.830  27.979  23.045  1.00  0.00     0.015 C 
BRANCH   7  13
ATOM     13  N   UNL A   1      32.689  25.813  26.613  1.00  0.00    -0.334 N 
ATOM     14  H   UNL A   1      33.418  26.043  27.289  1.00  0.00     0.347 HD
ATOM     15  H   UNL A   1      31.840  25.434  27.031  1.00  0.00     0.347 HD
BRANCH  13  16
ATOM     16  C   UNL A   1      33.206  24.757  25.740  1.00  0.00     0.257 C 
ATOM     17  C   UNL A   1      33.718  23.602  26.589  1.00  0.00     0.071 C 
ENDBRANCH  13  16
ENDBRANCH   7  13
BRANCH  11  18
ATOM     18  S   UNL A   1      29.051  27.456  23.255  1.00  0.00    -0.083 SA
BRANCH  18  19
ATOM     19  C   UNL A   1      28.692  29.077  22.669  1.00  0.00     0.187 A 
ATOM     20  N   UNL A   1      29.362  29.515  21.592  1.00  0.00    -0.231 NA
ATOM     21  N   UNL A   1      27.810  29.798  23.379  1.00  0.00    -0.231 NA
ATOM     22  C   UNL A   1      29.087  30.770  21.197  1.00  0.00     0.119 A 
ATOM     23  C   UNL A   1      27.572  31.045  22.941  1.00  0.00     0.119 A 
ATOM     24  C   UNL A   1      28.194  31.599  21.842  1.00  0.00    -0.014 A 
ATOM     25  C   UNL A   1      27.909  32.985  21.388  1.00  0.00     0.048 C 
ENDBRANCH  18  19
ENDBRANCH  11  18
ENDBRANCH   4   7
ENDBRANCH   2   3
ENDBRANCH   1   2
BRANCH   1  26
ATOM     26  C   UNL A   1      32.760  32.396  27.322  1.00  0.00     0.118 C 
BRANCH  26  27
ATOM     27  N   UNL A   1      32.600  33.812  27.622  1.00  0.00    -0.352 N 
ATOM     28  C   UNL A   1      33.158  34.582  28.615  1.00  0.00     0.251 C 
ATOM     29  H   UNL A   1      31.993  34.296  27.016  1.00  0.00     0.163 HD
ATOM     30  O   UNL A   1      32.675  35.684  28.855  1.00  0.00    -0.269 OA
BRANCH  28  31
ATOM     31  C   UNL A   1      34.311  34.082  29.398  1.00  0.00     0.039 A 
ATOM     32  C   UNL A   1      34.084  33.225  30.479  1.00  0.00     0.014 A 
ATOM     33  C   UNL A   1      35.614  34.470  29.086  1.00  0.00     0.014 A 
ATOM     34  C   UNL A   1      35.168  32.705  31.191  1.00  0.00     0.010 A 
ATOM     35  C   UNL A   1      36.692  33.858  29.713  1.00  0.00     0.010 A 
ATOM     36  C   UNL A   1      36.483  32.980  30.785  1.00  0.00    -0.014 A 
BRANCH  36  37
ATOM     37  C   UNL A   1      37.658  32.388  31.477  1.00  0.00     0.031 A 
ATOM     38  C   UNL A   1      38.408  31.250  30.837  1.00  0.00     0.074 A 
ATOM     39  C   UNL A   1      38.000  32.824  32.706  1.00  0.00     0.049 A 
ATOM     40  N   UNL A   1      39.390  30.529  31.317  1.00  0.00    -0.248 NA
ATOM     41  C   UNL A   1      37.972  30.844  29.492  1.00  0.00     0.031 C 
ATOM     42  C   UNL A   1      37.318  33.889  33.447  1.00  0.00     0.029 A 
ATOM     43  N   UNL A   1      39.001  32.424  33.556  1.00  0.00    -0.354 N 
ATOM     44  C   UNL A   1      39.671  29.575  30.344  1.00  0.00     0.074 A 
ATOM     45  C   UNL A   1      38.707  29.763  29.281  1.00  0.00     0.031 C 
ATOM     46  C   UNL A   1      37.940  34.080  34.620  1.00  0.00     0.029 A 
ATOM     47  C   UNL A   1      39.028  33.115  34.745  1.00  0.00     0.049 A 
ATOM     48  H   UNL A   1      39.640  31.709  33.334  1.00  0.00     0.167 HD
ATOM     49  C   UNL A   1      40.658  28.647  30.324  1.00  0.00     0.034 A 
ATOM     50  C   UNL A   1      39.826  32.975  35.822  1.00  0.00     0.034 A 
ATOM     51  C   UNL A   1      41.619  28.488  31.388  1.00  0.00     0.049 A 
ATOM     52  C   UNL A   1      40.898  31.915  35.792  1.00  0.00     0.074 A 
ATOM     53  C   UNL A   1      42.698  27.624  31.453  1.00  0.00     0.029 A 
ATOM     54  N   UNL A   1      41.613  29.204  32.579  1.00  0.00    -0.354 N 
ATOM     55  N   UNL A   1      41.186  31.057  34.840  1.00  0.00    -0.248 NA
ATOM     56  C   UNL A   1      41.757  31.809  36.977  1.00  0.00     0.031 C 
ATOM     57  C   UNL A   1      43.294  27.762  32.710  1.00  0.00     0.029 A 
ATOM     58  C   UNL A   1      42.645  28.775  33.399  1.00  0.00     0.049 A 
ATOM     59  H   UNL A   1      40.969  29.913  32.807  1.00  0.00     0.167 HD
ATOM     60  C   UNL A   1      42.279  30.330  35.302  1.00  0.00     0.074 A 
ATOM     61  C   UNL A   1      42.609  30.866  36.607  1.00  0.00     0.031 C 
ATOM     62  C   UNL A   1      42.952  29.312  34.704  1.00  0.00     0.034 A 
BRANCH  49  63
ATOM     63  C   UNL A   1      40.727  27.725  29.128  1.00  0.00     0.023 A 
ATOM     64  C   UNL A   1      41.673  27.911  28.103  1.00  0.00     0.031 A 
ATOM     65  C   UNL A   1      39.817  26.663  28.994  1.00  0.00     0.131 A 
ATOM     66  C   UNL A   1      41.634  27.104  26.957  1.00  0.00     0.055 A 
ATOM     67  C   UNL A   1      39.841  25.806  27.891  1.00  0.00     0.041 A 
ATOM     68  F   UNL A   1      38.875  26.446  29.926  1.00  0.00    -0.206 F 
ATOM     69  C   UNL A   1      40.743  26.034  26.857  1.00  0.00     0.022 A 
BRANCH  66  70
ATOM     70  S   UNL A   1      42.660  27.570  25.536  1.00  0.00     0.124 S 
ATOM     71  O   UNL A   1      42.703  26.319  24.782  1.00  0.00    -0.237 OA
ATOM     72  O   UNL A   1      41.892  28.652  24.932  1.00  0.00    -0.237 OA
ATOM     73  O   UNL A   1      43.928  27.966  26.142  1.00  0.00    -0.744 OA
ENDBRANCH  66  70
ENDBRANCH  49  63
BRANCH  50  74
ATOM     74  C   UNL A   1      39.640  33.842  37.024  1.00  0.00     0.023 A 
ATOM     75  C   UNL A   1      39.003  33.354  38.176  1.00  0.00     0.031 A 
ATOM     76  C   UNL A   1      40.058  35.184  37.022  1.00  0.00     0.131 A 
ATOM     77  C   UNL A   1      38.756  34.214  39.258  1.00  0.00     0.055 A 
ATOM     78  C   UNL A   1      39.865  36.020  38.124  1.00  0.00     0.041 A 
ATOM     79  F   UNL A   1      40.672  35.704  35.948  1.00  0.00    -0.206 F 
ATOM     80  C   UNL A   1      39.197  35.539  39.246  1.00  0.00     0.022 A 
BRANCH  77  81
ATOM     81  S   UNL A   1      37.761  33.601  40.646  1.00  0.00     0.124 S 
ATOM     82  O   UNL A   1      36.727  32.839  39.957  1.00  0.00    -0.237 OA
ATOM     83  O   UNL A   1      38.739  32.822  41.399  1.00  0.00    -0.237 OA
ATOM     84  O   UNL A   1      37.304  34.824  41.303  1.00  0.00    -0.744 OA
ENDBRANCH  77  81
ENDBRANCH  50  74
BRANCH  62  85
ATOM     85  C   UNL A   1      44.139  28.746  35.445  1.00  0.00     0.023 A 
ATOM     86  C   UNL A   1      44.005  27.676  36.348  1.00  0.00     0.031 A 
ATOM     87  C   UNL A   1      45.420  29.290  35.250  1.00  0.00     0.131 A 
ATOM     88  C   UNL A   1      45.123  27.226  37.067  1.00  0.00     0.055 A 
ATOM     89  C   UNL A   1      46.540  28.792  35.916  1.00  0.00     0.041 A 
ATOM     90  F   UNL A   1      45.605  30.317  34.404  1.00  0.00    -0.206 F 
ATOM     91  C   UNL A   1      46.393  27.763  36.840  1.00  0.00     0.022 A 
BRANCH  88  92
ATOM     92  S   UNL A   1      44.876  25.995  38.376  1.00  0.00     0.124 S 
ATOM     93  O   UNL A   1      44.005  26.710  39.302  1.00  0.00    -0.237 OA
ATOM     94  O   UNL A   1      44.265  24.886  37.652  1.00  0.00    -0.237 OA
ATOM     95  O   UNL A   1      46.230  25.743  38.868  1.00  0.00    -0.744 OA
ENDBRANCH  88  92
ENDBRANCH  62  85
ENDBRANCH  36  37
ENDBRANCH  28  31
ENDBRANCH  26  27
ENDBRANCH   1  26
TORSDOF 17
ENDMDL
