MODEL 1
REMARK VINA RESULT:     -12.4      0.000      0.000
REMARK SMILES Cc1nn(C)c2nc(C3CC3)c(Cl)c(C(=O)NCCCNC(=O)c3ccc(-c4c5nc(c(-c6cc(S(=O)(=O)[O-])ccc6F)c6ccc([nH]6)c(-c6cc(S(=O)(=O)[O-])ccc6F)c6nc(c(-c7cc(S(=O)(=O)[O-])ccc7F)c7ccc4[nH]7)C=C6)C=C5)cc3)c12
REMARK SMILES IDX 20 1 19 2 18 3 17 4 15 5 16 6 14 8 1 9 2 10 3 11 87 12 4 13
REMARK SMILES IDX 6 14 5 15 7 16 12 17 8 18 13 19 9 20 10 21 11 22 21 23 22 24
REMARK SMILES IDX 23 26 24 27 25 28 86 29 26 30 85 31 27 32 28 33 29 34 79 35
REMARK SMILES IDX 30 36 84 37 78 38 80 39 31 40 83 41 77 42 76 43 32 45 64 46
REMARK SMILES IDX 44 47 63 48 45 49 48 50 62 51 81 52 46 53 47 54 61 56 82 57
REMARK SMILES IDX 49 58 33 59 34 60 42 61 35 62 41 63 43 64 40 65 36 66 37 67
REMARK SMILES IDX 38 68 39 69 65 70 66 71 74 72 67 73 73 74 75 75 72 76 68 77
REMARK SMILES IDX 69 78 70 79 71 80 50 81 51 82 59 83 52 84 58 85 60 86 57 87
REMARK SMILES IDX 53 88 54 89 55 90 56 91
REMARK H PARENT 17 7 21 25 80 44 48 55
REMARK Flexibility Score: inf
ROOT
ATOM      1  C   UNL A   1      33.575  30.335  26.792  1.00  0.00     0.118 C 
ENDROOT
BRANCH   1   2
ATOM      2  C   UNL A   1      32.377  29.490  27.270  1.00  0.00     0.042 C 
BRANCH   2   3
ATOM      3  C   UNL A   1      32.491  27.960  27.198  1.00  0.00     0.118 C 
BRANCH   3   4
ATOM      4  N   UNL A   1      31.250  27.208  27.018  1.00  0.00    -0.352 N 
ATOM      5  C   UNL A   1      30.947  26.083  26.262  1.00  0.00     0.253 C 
ATOM      6  O   UNL A   1      29.870  25.530  26.471  1.00  0.00    -0.269 OA
ATOM      7  H   UNL A   1      30.488  27.565  27.528  1.00  0.00     0.163 HD
BRANCH   5   8
ATOM      8  C   UNL A   1      31.815  25.563  25.171  1.00  0.00     0.073 A 
ATOM      9  C   UNL A   1      29.451  27.452  23.435  1.00  0.00     0.069 C 
ATOM     10  C   UNL A   1      30.687  26.732  23.035  1.00  0.00     0.070 A 
ATOM     11  N   UNL A   1      30.999  26.709  21.727  1.00  0.00    -0.176 NA
ATOM     12  C   UNL A   1      31.609  25.973  23.828  1.00  0.00     0.056 A 
ATOM     13  N   UNL A   1      32.105  25.951  21.671  1.00  0.00    -0.250 N 
ATOM     14  C   UNL A   1      32.538  25.530  22.895  1.00  0.00     0.158 A 
ATOM     15  C   UNL A   1      32.676  25.595  20.396  1.00  0.00     0.176 C 
ATOM     16  N   UNL A   1      33.658  24.829  23.128  1.00  0.00    -0.231 NA
ATOM     17  C   UNL A   1      32.816  24.593  25.373  1.00  0.00     0.076 A 
ATOM     18  C   UNL A   1      33.815  24.387  24.401  1.00  0.00     0.065 A 
ATOM     19  Cl  UNL A   1      32.631  23.459  26.682  1.00  0.00    -0.081 Cl
BRANCH  18  20
ATOM     20  C   UNL A   1      35.217  23.828  24.657  1.00  0.00     0.040 C 
ATOM     21  C   UNL A   1      35.481  22.341  24.566  1.00  0.00     0.011 C 
ATOM     22  C   UNL A   1      36.190  23.297  23.646  1.00  0.00     0.011 C 
ENDBRANCH  18  20
ENDBRANCH   5   8
ENDBRANCH   3   4
ENDBRANCH   2   3
ENDBRANCH   1   2
BRANCH   1  23
ATOM     23  N   UNL A   1      33.671  31.615  27.476  1.00  0.00    -0.352 N 
ATOM     24  C   UNL A   1      34.480  32.104  28.472  1.00  0.00     0.251 C 
ATOM     25  H   UNL A   1      33.012  32.274  27.155  1.00  0.00     0.163 HD
ATOM     26  O   UNL A   1      34.144  33.184  28.966  1.00  0.00    -0.269 OA
BRANCH  24  27
ATOM     27  C   UNL A   1      35.713  31.443  28.988  1.00  0.00     0.039 A 
ATOM     28  C   UNL A   1      35.904  31.443  30.383  1.00  0.00     0.014 A 
ATOM     29  C   UNL A   1      36.744  30.967  28.178  1.00  0.00     0.014 A 
ATOM     30  C   UNL A   1      37.077  30.937  30.960  1.00  0.00     0.010 A 
ATOM     31  C   UNL A   1      37.922  30.455  28.759  1.00  0.00     0.010 A 
ATOM     32  C   UNL A   1      38.093  30.414  30.155  1.00  0.00    -0.014 A 
BRANCH  32  33
ATOM     33  C   UNL A   1      39.191  29.661  30.819  1.00  0.00     0.031 A 
ATOM     34  C   UNL A   1      39.384  28.272  30.295  1.00  0.00     0.074 A 
ATOM     35  C   UNL A   1      40.243  30.228  31.456  1.00  0.00     0.049 A 
ATOM     36  N   UNL A   1      40.027  28.028  29.190  1.00  0.00    -0.248 NA
ATOM     37  C   UNL A   1      38.641  27.123  30.810  1.00  0.00     0.031 C 
ATOM     38  C   UNL A   1      40.875  31.475  31.013  1.00  0.00     0.029 A 
ATOM     39  N   UNL A   1      41.117  29.727  32.402  1.00  0.00    -0.354 N 
ATOM     40  C   UNL A   1      39.764  26.718  28.837  1.00  0.00     0.074 A 
ATOM     41  C   UNL A   1      38.898  26.195  29.872  1.00  0.00     0.031 C 
ATOM     42  C   UNL A   1      42.112  31.549  31.551  1.00  0.00     0.029 A 
ATOM     43  C   UNL A   1      42.312  30.446  32.494  1.00  0.00     0.049 A 
ATOM     44  H   UNL A   1      40.918  28.939  32.956  1.00  0.00     0.167 HD
ATOM     45  C   UNL A   1      40.271  26.142  27.715  1.00  0.00     0.034 A 
ATOM     46  C   UNL A   1      43.531  29.905  32.787  1.00  0.00     0.034 A 
ATOM     47  C   UNL A   1      41.151  26.968  26.941  1.00  0.00     0.049 A 
ATOM     48  C   UNL A   1      43.822  29.139  31.520  1.00  0.00     0.074 A 
ATOM     49  C   UNL A   1      41.069  27.796  25.843  1.00  0.00     0.029 A 
ATOM     50  N   UNL A   1      42.463  27.069  27.346  1.00  0.00    -0.354 N 
ATOM     51  N   UNL A   1      44.236  29.636  30.386  1.00  0.00    -0.248 NA
ATOM     52  C   UNL A   1      43.270  27.786  31.431  1.00  0.00     0.031 C 
ATOM     53  C   UNL A   1      42.177  28.694  25.962  1.00  0.00     0.029 A 
ATOM     54  C   UNL A   1      42.834  28.374  27.147  1.00  0.00     0.049 A 
ATOM     55  H   UNL A   1      43.024  26.346  27.707  1.00  0.00     0.167 HD
ATOM     56  C   UNL A   1      43.754  28.772  29.403  1.00  0.00     0.074 A 
ATOM     57  C   UNL A   1      43.183  27.646  30.117  1.00  0.00     0.031 C 
ATOM     58  C   UNL A   1      43.677  29.092  28.078  1.00  0.00     0.034 A 
BRANCH  45  59
ATOM     59  C   UNL A   1      40.109  24.722  27.341  1.00  0.00     0.023 A 
ATOM     60  C   UNL A   1      41.269  23.943  27.244  1.00  0.00     0.031 A 
ATOM     61  C   UNL A   1      38.904  24.193  26.864  1.00  0.00     0.131 A 
ATOM     62  C   UNL A   1      41.224  22.690  26.628  1.00  0.00     0.055 A 
ATOM     63  C   UNL A   1      38.858  22.928  26.267  1.00  0.00     0.041 A 
ATOM     64  F   UNL A   1      37.772  24.913  26.918  1.00  0.00    -0.206 F 
ATOM     65  C   UNL A   1      40.026  22.176  26.132  1.00  0.00     0.022 A 
BRANCH  62  66
ATOM     66  S   UNL A   1      42.786  21.800  26.419  1.00  0.00     0.124 S 
ATOM     67  O   UNL A   1      42.424  20.451  26.832  1.00  0.00    -0.237 OA
ATOM     68  O   UNL A   1      43.043  21.989  24.996  1.00  0.00    -0.237 OA
ATOM     69  O   UNL A   1      43.700  22.507  27.318  1.00  0.00    -0.744 OA
ENDBRANCH  62  66
ENDBRANCH  45  59
BRANCH  46  70
ATOM     70  C   UNL A   1      43.735  29.305  34.150  1.00  0.00     0.023 A 
ATOM     71  C   UNL A   1      42.806  28.348  34.608  1.00  0.00     0.031 A 
ATOM     72  C   UNL A   1      44.760  29.654  35.049  1.00  0.00     0.131 A 
ATOM     73  C   UNL A   1      42.977  27.703  35.846  1.00  0.00     0.055 A 
ATOM     74  C   UNL A   1      44.955  28.983  36.264  1.00  0.00     0.041 A 
ATOM     75  F   UNL A   1      45.618  30.649  34.780  1.00  0.00    -0.206 F 
ATOM     76  C   UNL A   1      44.072  27.987  36.661  1.00  0.00     0.022 A 
BRANCH  73  77
ATOM     77  S   UNL A   1      41.775  26.445  36.358  1.00  0.00     0.124 S 
ATOM     78  O   UNL A   1      40.953  27.181  37.314  1.00  0.00    -0.237 OA
ATOM     79  O   UNL A   1      41.129  26.094  35.098  1.00  0.00    -0.237 OA
ATOM     80  O   UNL A   1      42.610  25.393  36.934  1.00  0.00    -0.744 OA
ENDBRANCH  73  77
ENDBRANCH  46  70
BRANCH  58  81
ATOM     81  C   UNL A   1      44.315  30.377  27.664  1.00  0.00     0.023 A 
ATOM     82  C   UNL A   1      43.772  31.598  28.091  1.00  0.00     0.031 A 
ATOM     83  C   UNL A   1      45.499  30.402  26.908  1.00  0.00     0.131 A 
ATOM     84  C   UNL A   1      44.432  32.798  27.793  1.00  0.00     0.055 A 
ATOM     85  C   UNL A   1      46.167  31.597  26.633  1.00  0.00     0.041 A 
ATOM     86  F   UNL A   1      46.051  29.267  26.446  1.00  0.00    -0.206 F 
ATOM     87  C   UNL A   1      45.636  32.802  27.083  1.00  0.00     0.022 A 
BRANCH  84  88
ATOM     88  S   UNL A   1      43.734  34.357  28.396  1.00  0.00     0.124 S 
ATOM     89  O   UNL A   1      42.528  33.916  29.090  1.00  0.00    -0.237 OA
ATOM     90  O   UNL A   1      44.801  34.883  29.240  1.00  0.00    -0.237 OA
ATOM     91  O   UNL A   1      43.493  35.120  27.171  1.00  0.00    -0.744 OA
ENDBRANCH  84  88
ENDBRANCH  58  81
ENDBRANCH  32  33
ENDBRANCH  24  27
ENDBRANCH   1  23
TORSDOF 14
ENDMDL
MODEL 2
REMARK VINA RESULT:     -12.4      3.051      8.032
REMARK SMILES Cc1nn(C)c2nc(C3CC3)c(Cl)c(C(=O)NCCCNC(=O)c3ccc(-c4c5nc(c(-c6cc(S(=O)(=O)[O-])ccc6F)c6ccc([nH]6)c(-c6cc(S(=O)(=O)[O-])ccc6F)c6nc(c(-c7cc(S(=O)(=O)[O-])ccc7F)c7ccc4[nH]7)C=C6)C=C5)cc3)c12
REMARK SMILES IDX 20 1 19 2 18 3 17 4 15 5 16 6 14 8 1 9 2 10 3 11 87 12 4 13
REMARK SMILES IDX 6 14 5 15 7 16 12 17 8 18 13 19 9 20 10 21 11 22 21 23 22 24
REMARK SMILES IDX 23 26 24 27 25 28 86 29 26 30 85 31 27 32 28 33 29 34 79 35
REMARK SMILES IDX 30 36 84 37 78 38 80 39 31 40 83 41 77 42 76 43 32 45 64 46
REMARK SMILES IDX 44 47 63 48 45 49 48 50 62 51 81 52 46 53 47 54 61 56 82 57
REMARK SMILES IDX 49 58 33 59 34 60 42 61 35 62 41 63 43 64 40 65 36 66 37 67
REMARK SMILES IDX 38 68 39 69 65 70 66 71 74 72 67 73 73 74 75 75 72 76 68 77
REMARK SMILES IDX 69 78 70 79 71 80 50 81 51 82 59 83 52 84 58 85 60 86 57 87
REMARK SMILES IDX 53 88 54 89 55 90 56 91
REMARK H PARENT 17 7 21 25 80 44 48 55
REMARK Flexibility Score: inf
ROOT
ATOM      1  C   UNL A   1      39.053  21.755  25.794  1.00  0.00     0.118 C 
ENDROOT
BRANCH   1   2
ATOM      2  C   UNL A   1      38.329  22.907  26.517  1.00  0.00     0.042 C 
BRANCH   2   3
ATOM      3  C   UNL A   1      37.269  23.703  25.738  1.00  0.00     0.118 C 
BRANCH   3   4
ATOM      4  N   UNL A   1      37.092  23.369  24.326  1.00  0.00    -0.352 N 
ATOM      5  C   UNL A   1      36.018  22.833  23.627  1.00  0.00     0.253 C 
ATOM      6  O   UNL A   1      36.066  22.862  22.399  1.00  0.00    -0.269 OA
ATOM      7  H   UNL A   1      37.879  23.560  23.767  1.00  0.00     0.163 HD
BRANCH   5   8
ATOM      8  C   UNL A   1      34.859  22.163  24.278  1.00  0.00     0.073 A 
ATOM      9  C   UNL A   1      34.032  25.543  24.529  1.00  0.00     0.069 C 
ATOM     10  C   UNL A   1      33.316  24.283  24.853  1.00  0.00     0.070 A 
ATOM     11  N   UNL A   1      32.103  24.383  25.424  1.00  0.00    -0.176 NA
ATOM     12  C   UNL A   1      33.740  22.920  24.713  1.00  0.00     0.056 A 
ATOM     13  N   UNL A   1      31.743  23.110  25.648  1.00  0.00    -0.250 N 
ATOM     14  C   UNL A   1      32.656  22.200  25.200  1.00  0.00     0.158 A 
ATOM     15  C   UNL A   1      30.530  22.816  26.370  1.00  0.00     0.176 C 
ATOM     16  N   UNL A   1      32.509  20.867  25.228  1.00  0.00    -0.231 NA
ATOM     17  C   UNL A   1      34.827  20.787  24.575  1.00  0.00     0.076 A 
ATOM     18  C   UNL A   1      33.604  20.151  24.872  1.00  0.00     0.065 A 
ATOM     19  Cl  UNL A   1      36.330  19.956  24.864  1.00  0.00    -0.081 Cl
BRANCH  18  20
ATOM     20  C   UNL A   1      33.294  18.665  24.676  1.00  0.00     0.040 C 
ATOM     21  C   UNL A   1      32.657  18.174  23.394  1.00  0.00     0.011 C 
ATOM     22  C   UNL A   1      34.021  17.685  23.802  1.00  0.00     0.011 C 
ENDBRANCH  18  20
ENDBRANCH   5   8
ENDBRANCH   3   4
ENDBRANCH   2   3
ENDBRANCH   1   2
BRANCH   1  23
ATOM     23  N   UNL A   1      40.142  21.194  26.579  1.00  0.00    -0.352 N 
ATOM     24  C   UNL A   1      41.303  21.710  27.102  1.00  0.00     0.251 C 
ATOM     25  H   UNL A   1      40.022  20.236  26.776  1.00  0.00     0.163 HD
ATOM     26  O   UNL A   1      42.114  20.890  27.542  1.00  0.00    -0.269 OA
BRANCH  24  27
ATOM     27  C   UNL A   1      41.647  23.159  27.182  1.00  0.00     0.039 A 
ATOM     28  C   UNL A   1      41.012  23.913  28.187  1.00  0.00     0.014 A 
ATOM     29  C   UNL A   1      42.430  23.831  26.243  1.00  0.00     0.014 A 
ATOM     30  C   UNL A   1      41.191  25.300  28.282  1.00  0.00     0.010 A 
ATOM     31  C   UNL A   1      42.612  25.225  26.342  1.00  0.00     0.010 A 
ATOM     32  C   UNL A   1      42.014  25.971  27.373  1.00  0.00    -0.014 A 
BRANCH  32  33
ATOM     33  C   UNL A   1      42.374  27.385  27.670  1.00  0.00     0.031 A 
ATOM     34  C   UNL A   1      41.205  28.319  27.702  1.00  0.00     0.074 A 
ATOM     35  C   UNL A   1      43.490  27.777  28.328  1.00  0.00     0.049 A 
ATOM     36  N   UNL A   1      40.416  28.413  28.732  1.00  0.00    -0.248 NA
ATOM     37  C   UNL A   1      40.689  28.979  26.503  1.00  0.00     0.031 C 
ATOM     38  C   UNL A   1      44.087  27.012  29.429  1.00  0.00     0.029 A 
ATOM     39  N   UNL A   1      44.147  28.992  28.370  1.00  0.00    -0.354 N 
ATOM     40  C   UNL A   1      39.292  29.111  28.333  1.00  0.00     0.074 A 
ATOM     41  C   UNL A   1      39.505  29.441  26.940  1.00  0.00     0.031 C 
ATOM     42  C   UNL A   1      44.887  27.833  30.142  1.00  0.00     0.029 A 
ATOM     43  C   UNL A   1      44.988  29.134  29.477  1.00  0.00     0.049 A 
ATOM     44  H   UNL A   1      44.033  29.691  27.687  1.00  0.00     0.167 HD
ATOM     45  C   UNL A   1      38.253  29.373  29.169  1.00  0.00     0.034 A 
ATOM     46  C   UNL A   1      45.232  30.308  30.131  1.00  0.00     0.034 A 
ATOM     47  C   UNL A   1      38.420  28.926  30.521  1.00  0.00     0.049 A 
ATOM     48  C   UNL A   1      43.909  30.539  30.817  1.00  0.00     0.074 A 
ATOM     49  C   UNL A   1      38.072  27.832  31.284  1.00  0.00     0.029 A 
ATOM     50  N   UNL A   1      39.158  29.714  31.374  1.00  0.00    -0.354 N 
ATOM     51  N   UNL A   1      43.477  29.945  31.897  1.00  0.00    -0.248 NA
ATOM     52  C   UNL A   1      42.873  31.217  30.035  1.00  0.00     0.031 C 
ATOM     53  C   UNL A   1      39.016  27.804  32.359  1.00  0.00     0.029 A 
ATOM     54  C   UNL A   1      39.898  28.862  32.154  1.00  0.00     0.049 A 
ATOM     55  H   UNL A   1      39.155  30.698  31.416  1.00  0.00     0.167 HD
ATOM     56  C   UNL A   1      42.086  29.945  31.791  1.00  0.00     0.074 A 
ATOM     57  C   UNL A   1      41.782  30.758  30.629  1.00  0.00     0.031 C 
ATOM     58  C   UNL A   1      41.266  29.145  32.532  1.00  0.00     0.034 A 
BRANCH  45  59
ATOM     59  C   UNL A   1      37.076  30.198  28.829  1.00  0.00     0.023 A 
ATOM     60  C   UNL A   1      35.982  29.553  28.238  1.00  0.00     0.031 A 
ATOM     61  C   UNL A   1      37.094  31.597  28.855  1.00  0.00     0.131 A 
ATOM     62  C   UNL A   1      34.966  30.299  27.638  1.00  0.00     0.055 A 
ATOM     63  C   UNL A   1      36.064  32.344  28.272  1.00  0.00     0.041 A 
ATOM     64  F   UNL A   1      38.132  32.259  29.393  1.00  0.00    -0.206 F 
ATOM     65  C   UNL A   1      34.999  31.694  27.644  1.00  0.00     0.022 A 
BRANCH  62  66
ATOM     66  S   UNL A   1      33.655  29.395  26.778  1.00  0.00     0.124 S 
ATOM     67  O   UNL A   1      32.679  30.446  26.524  1.00  0.00    -0.237 OA
ATOM     68  O   UNL A   1      34.367  28.884  25.612  1.00  0.00    -0.237 OA
ATOM     69  O   UNL A   1      33.247  28.384  27.754  1.00  0.00    -0.744 OA
ENDBRANCH  62  66
ENDBRANCH  45  59
BRANCH  46  70
ATOM     70  C   UNL A   1      45.951  31.400  29.389  1.00  0.00     0.023 A 
ATOM     71  C   UNL A   1      45.392  31.872  28.183  1.00  0.00     0.031 A 
ATOM     72  C   UNL A   1      47.179  31.972  29.769  1.00  0.00     0.131 A 
ATOM     73  C   UNL A   1      45.981  32.936  27.476  1.00  0.00     0.055 A 
ATOM     74  C   UNL A   1      47.745  33.059  29.089  1.00  0.00     0.041 A 
ATOM     75  F   UNL A   1      47.871  31.508  30.819  1.00  0.00    -0.206 F 
ATOM     76  C   UNL A   1      47.135  33.560  27.946  1.00  0.00     0.022 A 
BRANCH  73  77
ATOM     77  S   UNL A   1      45.188  33.531  25.957  1.00  0.00     0.124 S 
ATOM     78  O   UNL A   1      44.064  34.301  26.482  1.00  0.00    -0.237 OA
ATOM     79  O   UNL A   1      46.252  34.305  25.327  1.00  0.00    -0.237 OA
ATOM     80  O   UNL A   1      44.827  32.300  25.258  1.00  0.00    -0.744 OA
ENDBRANCH  73  77
ENDBRANCH  46  70
BRANCH  58  81
ATOM     81  C   UNL A   1      41.907  28.366  33.632  1.00  0.00     0.023 A 
ATOM     82  C   UNL A   1      42.740  27.278  33.327  1.00  0.00     0.031 A 
ATOM     83  C   UNL A   1      41.761  28.736  34.980  1.00  0.00     0.131 A 
ATOM     84  C   UNL A   1      43.427  26.616  34.353  1.00  0.00     0.055 A 
ATOM     85  C   UNL A   1      42.466  28.090  35.997  1.00  0.00     0.041 A 
ATOM     86  F   UNL A   1      40.956  29.751  35.337  1.00  0.00    -0.206 F 
ATOM     87  C   UNL A   1      43.311  27.028  35.683  1.00  0.00     0.022 A 
BRANCH  84  88
ATOM     88  S   UNL A   1      44.530  25.243  33.926  1.00  0.00     0.124 S 
ATOM     89  O   UNL A   1      44.001  24.149  34.735  1.00  0.00    -0.237 OA
ATOM     90  O   UNL A   1      44.348  25.119  32.484  1.00  0.00    -0.237 OA
ATOM     91  O   UNL A   1      45.849  25.728  34.335  1.00  0.00    -0.744 OA
ENDBRANCH  84  88
ENDBRANCH  58  81
ENDBRANCH  32  33
ENDBRANCH  24  27
ENDBRANCH   1  23
TORSDOF 14
ENDMDL
MODEL 3
REMARK VINA RESULT:     -12.1      2.394      8.047
REMARK SMILES Cc1nn(C)c2nc(C3CC3)c(Cl)c(C(=O)NCCCNC(=O)c3ccc(-c4c5nc(c(-c6cc(S(=O)(=O)[O-])ccc6F)c6ccc([nH]6)c(-c6cc(S(=O)(=O)[O-])ccc6F)c6nc(c(-c7cc(S(=O)(=O)[O-])ccc7F)c7ccc4[nH]7)C=C6)C=C5)cc3)c12
REMARK SMILES IDX 20 1 19 2 18 3 17 4 15 5 16 6 14 8 1 9 2 10 3 11 87 12 4 13
REMARK SMILES IDX 6 14 5 15 7 16 12 17 8 18 13 19 9 20 10 21 11 22 21 23 22 24
REMARK SMILES IDX 23 26 24 27 25 28 86 29 26 30 85 31 27 32 28 33 29 34 79 35
REMARK SMILES IDX 30 36 84 37 78 38 80 39 31 40 83 41 77 42 76 43 32 45 64 46
REMARK SMILES IDX 44 47 63 48 45 49 48 50 62 51 81 52 46 53 47 54 61 56 82 57
REMARK SMILES IDX 49 58 33 59 34 60 42 61 35 62 41 63 43 64 40 65 36 66 37 67
REMARK SMILES IDX 38 68 39 69 65 70 66 71 74 72 67 73 73 74 75 75 72 76 68 77
REMARK SMILES IDX 69 78 70 79 71 80 50 81 51 82 59 83 52 84 58 85 60 86 57 87
REMARK SMILES IDX 53 88 54 89 55 90 56 91
REMARK H PARENT 17 7 21 25 80 44 48 55
REMARK Flexibility Score: inf
ROOT
ATOM      1  C   UNL A   1      37.754  22.332  25.039  1.00  0.00     0.118 C 
ENDROOT
BRANCH   1   2
ATOM      2  C   UNL A   1      36.403  22.483  25.765  1.00  0.00     0.042 C 
BRANCH   2   3
ATOM      3  C   UNL A   1      35.737  23.868  25.782  1.00  0.00     0.118 C 
BRANCH   3   4
ATOM      4  N   UNL A   1      34.430  23.969  26.429  1.00  0.00    -0.352 N 
ATOM      5  C   UNL A   1      33.215  24.484  25.993  1.00  0.00     0.253 C 
ATOM      6  O   UNL A   1      32.218  24.237  26.667  1.00  0.00    -0.269 OA
ATOM      7  H   UNL A   1      34.405  23.603  27.343  1.00  0.00     0.163 HD
BRANCH   5   8
ATOM      8  C   UNL A   1      33.072  25.372  24.808  1.00  0.00     0.073 A 
ATOM      9  C   UNL A   1      33.453  22.220  23.362  1.00  0.00     0.069 C 
ATOM     10  C   UNL A   1      33.152  23.571  22.820  1.00  0.00     0.070 A 
ATOM     11  N   UNL A   1      33.046  23.698  21.486  1.00  0.00    -0.176 NA
ATOM     12  C   UNL A   1      33.010  24.826  23.500  1.00  0.00     0.056 A 
ATOM     13  N   UNL A   1      32.837  25.010  21.301  1.00  0.00    -0.250 N 
ATOM     14  C   UNL A   1      32.757  25.718  22.466  1.00  0.00     0.158 A 
ATOM     15  C   UNL A   1      32.791  25.557  19.968  1.00  0.00     0.176 C 
ATOM     16  N   UNL A   1      32.477  27.026  22.568  1.00  0.00    -0.231 NA
ATOM     17  C   UNL A   1      33.070  26.778  24.890  1.00  0.00     0.076 A 
ATOM     18  C   UNL A   1      32.600  27.554  23.812  1.00  0.00     0.065 A 
ATOM     19  Cl  UNL A   1      33.925  27.542  26.201  1.00  0.00    -0.081 Cl
BRANCH  18  20
ATOM     20  C   UNL A   1      32.022  28.968  23.906  1.00  0.00     0.040 C 
ATOM     21  C   UNL A   1      30.549  29.181  24.182  1.00  0.00     0.011 C 
ATOM     22  C   UNL A   1      31.586  29.698  25.143  1.00  0.00     0.011 C 
ENDBRANCH  18  20
ENDBRANCH   5   8
ENDBRANCH   3   4
ENDBRANCH   2   3
ENDBRANCH   1   2
BRANCH   1  23
ATOM     23  N   UNL A   1      38.723  21.565  25.806  1.00  0.00    -0.352 N 
ATOM     24  C   UNL A   1      39.845  21.897  26.526  1.00  0.00     0.251 C 
ATOM     25  H   UNL A   1      38.535  20.597  25.810  1.00  0.00     0.163 HD
ATOM     26  O   UNL A   1      40.562  20.958  26.882  1.00  0.00    -0.269 OA
BRANCH  24  27
ATOM     27  C   UNL A   1      40.251  23.280  26.907  1.00  0.00     0.039 A 
ATOM     28  C   UNL A   1      41.588  23.645  26.665  1.00  0.00     0.014 A 
ATOM     29  C   UNL A   1      39.440  24.168  27.615  1.00  0.00     0.014 A 
ATOM     30  C   UNL A   1      42.094  24.886  27.077  1.00  0.00     0.010 A 
ATOM     31  C   UNL A   1      39.948  25.416  28.026  1.00  0.00     0.010 A 
ATOM     32  C   UNL A   1      41.271  25.799  27.744  1.00  0.00    -0.014 A 
BRANCH  32  33
ATOM     33  C   UNL A   1      41.776  27.187  27.928  1.00  0.00     0.031 A 
ATOM     34  C   UNL A   1      40.707  28.234  27.896  1.00  0.00     0.074 A 
ATOM     35  C   UNL A   1      42.936  27.513  28.544  1.00  0.00     0.049 A 
ATOM     36  N   UNL A   1      39.948  28.486  28.923  1.00  0.00    -0.248 NA
ATOM     37  C   UNL A   1      40.240  28.850  26.655  1.00  0.00     0.031 C 
ATOM     38  C   UNL A   1      43.471  26.778  29.695  1.00  0.00     0.029 A 
ATOM     39  N   UNL A   1      43.712  28.655  28.486  1.00  0.00    -0.354 N 
ATOM     40  C   UNL A   1      38.893  29.262  28.481  1.00  0.00     0.074 A 
ATOM     41  C   UNL A   1      39.116  29.461  27.064  1.00  0.00     0.031 C 
ATOM     42  C   UNL A   1      44.361  27.566  30.336  1.00  0.00     0.029 A 
ATOM     43  C   UNL A   1      44.581  28.795  29.571  1.00  0.00     0.049 A 
ATOM     44  H   UNL A   1      43.657  29.308  27.751  1.00  0.00     0.167 HD
ATOM     45  C   UNL A   1      37.899  29.690  29.302  1.00  0.00     0.034 A 
ATOM     46  C   UNL A   1      44.952  29.985  30.130  1.00  0.00     0.034 A 
ATOM     47  C   UNL A   1      38.042  29.333  30.684  1.00  0.00     0.049 A 
ATOM     48  C   UNL A   1      43.670  30.401  30.808  1.00  0.00     0.074 A 
ATOM     49  C   UNL A   1      37.599  28.342  31.532  1.00  0.00     0.029 A 
ATOM     50  N   UNL A   1      38.870  30.105  31.467  1.00  0.00    -0.354 N 
ATOM     51  N   UNL A   1      43.198  29.938  31.934  1.00  0.00    -0.248 NA
ATOM     52  C   UNL A   1      42.695  31.118  29.984  1.00  0.00     0.031 C 
ATOM     53  C   UNL A   1      38.553  28.301  32.598  1.00  0.00     0.029 A 
ATOM     54  C   UNL A   1      39.533  29.245  32.304  1.00  0.00     0.049 A 
ATOM     55  H   UNL A   1      38.966  31.085  31.433  1.00  0.00     0.167 HD
ATOM     56  C   UNL A   1      41.813  30.070  31.839  1.00  0.00     0.074 A 
ATOM     57  C   UNL A   1      41.573  30.819  30.621  1.00  0.00     0.031 C 
ATOM     58  C   UNL A   1      40.928  29.416  32.647  1.00  0.00     0.034 A 
BRANCH  45  59
ATOM     59  C   UNL A   1      36.806  30.602  28.909  1.00  0.00     0.023 A 
ATOM     60  C   UNL A   1      36.429  31.592  29.826  1.00  0.00     0.031 A 
ATOM     61  C   UNL A   1      35.994  30.381  27.791  1.00  0.00     0.131 A 
ATOM     62  C   UNL A   1      35.236  32.296  29.649  1.00  0.00     0.055 A 
ATOM     63  C   UNL A   1      34.810  31.102  27.605  1.00  0.00     0.041 A 
ATOM     64  F   UNL A   1      36.306  29.428  26.897  1.00  0.00    -0.206 F 
ATOM     65  C   UNL A   1      34.417  32.056  28.546  1.00  0.00     0.022 A 
BRANCH  62  66
ATOM     66  S   UNL A   1      34.749  33.464  30.944  1.00  0.00     0.124 S 
ATOM     67  O   UNL A   1      34.353  32.569  32.024  1.00  0.00    -0.237 OA
ATOM     68  O   UNL A   1      35.987  34.208  31.148  1.00  0.00    -0.237 OA
ATOM     69  O   UNL A   1      33.660  34.219  30.324  1.00  0.00    -0.744 OA
ENDBRANCH  62  66
ENDBRANCH  45  59
BRANCH  46  70
ATOM     70  C   UNL A   1      45.764  30.939  29.299  1.00  0.00     0.023 A 
ATOM     71  C   UNL A   1      45.133  31.597  28.223  1.00  0.00     0.031 A 
ATOM     72  C   UNL A   1      47.136  31.204  29.470  1.00  0.00     0.131 A 
ATOM     73  C   UNL A   1      45.821  32.549  27.450  1.00  0.00     0.055 A 
ATOM     74  C   UNL A   1      47.810  32.183  28.728  1.00  0.00     0.041 A 
ATOM     75  F   UNL A   1      47.871  30.535  30.370  1.00  0.00    -0.206 F 
ATOM     76  C   UNL A   1      47.148  32.876  27.723  1.00  0.00     0.022 A 
BRANCH  73  77
ATOM     77  S   UNL A   1      44.940  33.398  26.110  1.00  0.00     0.124 S 
ATOM     78  O   UNL A   1      43.890  34.105  26.836  1.00  0.00    -0.237 OA
ATOM     79  O   UNL A   1      45.984  34.232  25.524  1.00  0.00    -0.237 OA
ATOM     80  O   UNL A   1      44.481  32.302  25.258  1.00  0.00    -0.744 OA
ENDBRANCH  73  77
ENDBRANCH  46  70
BRANCH  58  81
ATOM     81  C   UNL A   1      41.506  28.663  33.799  1.00  0.00     0.023 A 
ATOM     82  C   UNL A   1      42.261  27.502  33.569  1.00  0.00     0.031 A 
ATOM     83  C   UNL A   1      41.379  29.124  35.121  1.00  0.00     0.131 A 
ATOM     84  C   UNL A   1      42.893  26.857  34.640  1.00  0.00     0.055 A 
ATOM     85  C   UNL A   1      42.030  28.492  36.182  1.00  0.00     0.041 A 
ATOM     86  F   UNL A   1      40.646  30.213  35.407  1.00  0.00    -0.206 F 
ATOM     87  C   UNL A   1      42.799  27.357  35.942  1.00  0.00     0.022 A 
BRANCH  84  88
ATOM     88  S   UNL A   1      43.899  25.386  34.309  1.00  0.00     0.124 S 
ATOM     89  O   UNL A   1      44.004  25.397  32.853  1.00  0.00    -0.237 OA
ATOM     90  O   UNL A   1      45.130  25.666  35.041  1.00  0.00    -0.237 OA
ATOM     91  O   UNL A   1      43.097  24.294  34.859  1.00  0.00    -0.744 OA
ENDBRANCH  84  88
ENDBRANCH  58  81
ENDBRANCH  32  33
ENDBRANCH  24  27
ENDBRANCH   1  23
TORSDOF 14
ENDMDL
