MODEL 1
REMARK VINA RESULT:     -11.7      0.000      0.000
REMARK SMILES O=C(CSc1nc2cccnc2n1CC(F)(F)F)NCCCNC(=O)c1ccc(-c2c3nc(c(-c4cc(S(=O)(=O)[O-])ccc4F)c4ccc([nH]4)c(-c4cc(S(=O)(=O)[O-])ccc4F)c4nc(c(-c5cc(S(=O)(=O)[O-])ccc5F)c5ccc2[nH]5)C=C4)C=C3)cc1
REMARK SMILES IDX 20 1 19 2 1 3 2 4 3 6 4 7 5 8 6 9 13 10 7 11 12 12 8 13
REMARK SMILES IDX 11 14 9 15 10 16 14 17 15 18 16 19 17 20 18 21 21 22 22 23
REMARK SMILES IDX 23 24 24 25 25 27 26 28 27 29 88 30 28 31 87 32 29 33 30 34
REMARK SMILES IDX 31 35 81 36 32 37 86 38 80 39 82 40 33 41 85 42 79 43 78 44
REMARK SMILES IDX 34 46 66 47 46 48 65 49 47 50 50 51 64 52 83 53 48 54 49 55
REMARK SMILES IDX 63 57 84 58 51 59 35 60 36 61 44 62 37 63 43 64 45 65 42 66
REMARK SMILES IDX 38 67 39 68 40 69 41 70 67 71 68 72 76 73 69 74 75 75 77 76
REMARK SMILES IDX 74 77 70 78 71 79 72 80 73 81 52 82 53 83 61 84 54 85 60 86
REMARK SMILES IDX 62 87 59 88 55 89 56 90 57 91 58 92
REMARK H PARENT 19 5 23 26 82 45 50 56
REMARK Flexibility Score: inf
ROOT
ATOM      1  C   UNL A   1      35.799  23.529  23.650  1.00  0.00     0.117 C 
ENDROOT
BRANCH   1   2
ATOM      2  N   UNL A   1      34.370  23.607  23.899  1.00  0.00    -0.355 N 
ATOM      3  O   UNL A   1      33.803  24.738  21.976  1.00  0.00    -0.274 OA
ATOM      4  C   UNL A   1      33.479  24.201  23.033  1.00  0.00     0.230 C 
ATOM      5  H   UNL A   1      34.020  23.215  24.732  1.00  0.00     0.163 HD
BRANCH   4   6
ATOM      6  C   UNL A   1      32.036  24.184  23.500  1.00  0.00     0.178 C 
BRANCH   6   7
ATOM      7  S   UNL A   1      31.669  25.500  24.678  1.00  0.00    -0.078 SA
BRANCH   7   8
ATOM      8  C   UNL A   1      30.795  26.689  23.774  1.00  0.00     0.171 A 
ATOM      9  N   UNL A   1      29.500  26.857  23.940  1.00  0.00    -0.221 NA
ATOM     10  N   UNL A   1      31.337  27.647  22.950  1.00  0.00    -0.294 N 
ATOM     11  C   UNL A   1      29.182  27.971  23.214  1.00  0.00     0.109 A 
ATOM     12  C   UNL A   1      30.307  28.482  22.583  1.00  0.00     0.160 A 
ATOM     13  C   UNL A   1      27.966  28.640  23.033  1.00  0.00     0.034 A 
ATOM     14  N   UNL A   1      30.378  29.568  21.785  1.00  0.00    -0.237 NA
ATOM     15  C   UNL A   1      27.977  29.773  22.219  1.00  0.00     0.022 A 
ATOM     16  C   UNL A   1      29.176  30.177  21.636  1.00  0.00     0.113 A 
BRANCH  10  17
ATOM     17  C   UNL A   1      32.688  27.808  22.466  1.00  0.00     0.241 C 
BRANCH  17  18
ATOM     18  C   UNL A   1      33.631  28.477  23.437  1.00  0.00     0.406 C 
ATOM     19  F   UNL A   1      33.034  29.461  24.137  1.00  0.00    -0.169 F 
ATOM     20  F   UNL A   1      34.071  27.568  24.344  1.00  0.00    -0.169 F 
ATOM     21  F   UNL A   1      34.721  28.991  22.830  1.00  0.00    -0.169 F 
ENDBRANCH  17  18
ENDBRANCH  10  17
ENDBRANCH   7   8
ENDBRANCH   6   7
ENDBRANCH   4   6
ENDBRANCH   1   2
BRANCH   1  22
ATOM     22  C   UNL A   1      36.506  22.483  24.518  1.00  0.00     0.042 C 
BRANCH  22  23
ATOM     23  C   UNL A   1      37.374  23.096  25.606  1.00  0.00     0.118 C 
BRANCH  23  24
ATOM     24  N   UNL A   1      38.430  22.207  26.082  1.00  0.00    -0.352 N 
ATOM     25  C   UNL A   1      39.682  22.526  26.574  1.00  0.00     0.251 C 
ATOM     26  H   UNL A   1      38.220  21.246  26.046  1.00  0.00     0.163 HD
ATOM     27  O   UNL A   1      40.543  21.660  26.628  1.00  0.00    -0.269 OA
BRANCH  25  28
ATOM     28  C   UNL A   1      39.976  23.903  27.036  1.00  0.00     0.039 A 
ATOM     29  C   UNL A   1      39.671  24.999  26.220  1.00  0.00     0.014 A 
ATOM     30  C   UNL A   1      40.612  24.108  28.259  1.00  0.00     0.014 A 
ATOM     31  C   UNL A   1      39.975  26.284  26.665  1.00  0.00     0.010 A 
ATOM     32  C   UNL A   1      40.790  25.374  28.759  1.00  0.00     0.010 A 
ATOM     33  C   UNL A   1      40.532  26.461  27.941  1.00  0.00    -0.014 A 
BRANCH  33  34
ATOM     34  C   UNL A   1      40.741  27.792  28.488  1.00  0.00     0.031 A 
ATOM     35  C   UNL A   1      41.923  28.474  27.914  1.00  0.00     0.074 A 
ATOM     36  C   UNL A   1      39.844  28.444  29.259  1.00  0.00     0.049 A 
ATOM     37  N   UNL A   1      43.098  28.572  28.441  1.00  0.00    -0.248 NA
ATOM     38  C   UNL A   1      41.859  28.912  26.509  1.00  0.00     0.031 C 
ATOM     39  C   UNL A   1      38.469  28.035  29.578  1.00  0.00     0.029 A 
ATOM     40  N   UNL A   1      39.937  29.668  29.848  1.00  0.00    -0.354 N 
ATOM     41  C   UNL A   1      43.829  29.348  27.548  1.00  0.00     0.074 A 
ATOM     42  C   UNL A   1      43.123  29.287  26.294  1.00  0.00     0.031 C 
ATOM     43  C   UNL A   1      37.795  29.083  30.102  1.00  0.00     0.029 A 
ATOM     44  C   UNL A   1      38.732  30.168  30.329  1.00  0.00     0.049 A 
ATOM     45  H   UNL A   1      40.787  30.160  29.926  1.00  0.00     0.167 HD
ATOM     46  C   UNL A   1      44.738  30.257  28.001  1.00  0.00     0.034 A 
ATOM     47  C   UNL A   1      38.521  31.391  30.871  1.00  0.00     0.034 A 
ATOM     48  C   UNL A   1      44.930  30.121  29.419  1.00  0.00     0.049 A 
ATOM     49  C   UNL A   1      39.823  31.907  31.342  1.00  0.00     0.074 A 
ATOM     50  C   UNL A   1      45.576  29.247  30.265  1.00  0.00     0.029 A 
ATOM     51  N   UNL A   1      44.007  30.811  30.162  1.00  0.00    -0.354 N 
ATOM     52  N   UNL A   1      40.489  31.385  32.334  1.00  0.00    -0.248 NA
ATOM     53  C   UNL A   1      40.578  32.818  30.488  1.00  0.00     0.031 C 
ATOM     54  C   UNL A   1      44.896  29.331  31.514  1.00  0.00     0.029 A 
ATOM     55  C   UNL A   1      43.882  30.283  31.417  1.00  0.00     0.049 A 
ATOM     56  H   UNL A   1      43.499  31.588  29.833  1.00  0.00     0.167 HD
ATOM     57  C   UNL A   1      41.807  31.531  31.956  1.00  0.00     0.074 A 
ATOM     58  C   UNL A   1      41.810  32.574  30.940  1.00  0.00     0.031 C 
ATOM     59  C   UNL A   1      42.725  30.567  32.243  1.00  0.00     0.034 A 
BRANCH  46  60
ATOM     60  C   UNL A   1      45.061  31.562  27.308  1.00  0.00     0.023 A 
ATOM     61  C   UNL A   1      44.221  32.688  27.380  1.00  0.00     0.031 A 
ATOM     62  C   UNL A   1      46.342  31.785  26.767  1.00  0.00     0.131 A 
ATOM     63  C   UNL A   1      44.621  33.939  26.897  1.00  0.00     0.055 A 
ATOM     64  C   UNL A   1      46.771  33.052  26.350  1.00  0.00     0.041 A 
ATOM     65  F   UNL A   1      47.234  30.784  26.677  1.00  0.00    -0.206 F 
ATOM     66  C   UNL A   1      45.906  34.139  26.409  1.00  0.00     0.022 A 
BRANCH  63  67
ATOM     67  S   UNL A   1      43.462  35.334  26.933  1.00  0.00     0.124 S 
ATOM     68  O   UNL A   1      42.758  35.177  25.665  1.00  0.00    -0.237 OA
ATOM     69  O   UNL A   1      42.685  35.037  28.134  1.00  0.00    -0.237 OA
ATOM     70  O   UNL A   1      44.337  36.499  27.035  1.00  0.00    -0.744 OA
ENDBRANCH  63  67
ENDBRANCH  46  60
BRANCH  47  71
ATOM     71  C   UNL A   1      37.349  32.284  30.741  1.00  0.00     0.023 A 
ATOM     72  C   UNL A   1      36.692  32.743  31.895  1.00  0.00     0.031 A 
ATOM     73  C   UNL A   1      36.663  32.392  29.516  1.00  0.00     0.131 A 
ATOM     74  C   UNL A   1      35.367  33.198  31.819  1.00  0.00     0.055 A 
ATOM     75  C   UNL A   1      35.348  32.859  29.441  1.00  0.00     0.041 A 
ATOM     76  F   UNL A   1      37.230  31.961  28.378  1.00  0.00    -0.206 F 
ATOM     77  C   UNL A   1      34.685  33.245  30.601  1.00  0.00     0.022 A 
BRANCH  74  78
ATOM     78  S   UNL A   1      34.472  33.659  33.327  1.00  0.00     0.124 S 
ATOM     79  O   UNL A   1      34.365  35.111  33.197  1.00  0.00    -0.237 OA
ATOM     80  O   UNL A   1      33.224  32.922  33.171  1.00  0.00    -0.237 OA
ATOM     81  O   UNL A   1      35.354  33.201  34.398  1.00  0.00    -0.744 OA
ENDBRANCH  74  78
ENDBRANCH  47  71
BRANCH  59  82
ATOM     82  C   UNL A   1      42.456  29.645  33.395  1.00  0.00     0.023 A 
ATOM     83  C   UNL A   1      43.114  29.953  34.595  1.00  0.00     0.031 A 
ATOM     84  C   UNL A   1      41.741  28.437  33.325  1.00  0.00     0.131 A 
ATOM     85  C   UNL A   1      43.103  29.051  35.659  1.00  0.00     0.055 A 
ATOM     86  C   UNL A   1      41.676  27.564  34.417  1.00  0.00     0.041 A 
ATOM     87  F   UNL A   1      41.146  28.040  32.191  1.00  0.00    -0.206 F 
ATOM     88  C   UNL A   1      42.374  27.861  35.585  1.00  0.00     0.022 A 
BRANCH  85  89
ATOM     89  S   UNL A   1      44.141  29.356  37.108  1.00  0.00     0.124 S 
ATOM     90  O   UNL A   1      44.164  28.047  37.756  1.00  0.00    -0.237 OA
ATOM     91  O   UNL A   1      45.400  29.778  36.500  1.00  0.00    -0.237 OA
ATOM     92  O   UNL A   1      43.428  30.400  37.841  1.00  0.00    -0.744 OA
ENDBRANCH  85  89
ENDBRANCH  59  82
ENDBRANCH  33  34
ENDBRANCH  25  28
ENDBRANCH  23  24
ENDBRANCH  22  23
ENDBRANCH   1  22
TORSDOF 17
ENDMDL
MODEL 2
REMARK VINA RESULT:     -11.7      3.244      9.006
REMARK SMILES O=C(CSc1nc2cccnc2n1CC(F)(F)F)NCCCNC(=O)c1ccc(-c2c3nc(c(-c4cc(S(=O)(=O)[O-])ccc4F)c4ccc([nH]4)c(-c4cc(S(=O)(=O)[O-])ccc4F)c4nc(c(-c5cc(S(=O)(=O)[O-])ccc5F)c5ccc2[nH]5)C=C4)C=C3)cc1
REMARK SMILES IDX 20 1 19 2 1 3 2 4 3 6 4 7 5 8 6 9 13 10 7 11 12 12 8 13
REMARK SMILES IDX 11 14 9 15 10 16 14 17 15 18 16 19 17 20 18 21 21 22 22 23
REMARK SMILES IDX 23 24 24 25 25 27 26 28 27 29 88 30 28 31 87 32 29 33 30 34
REMARK SMILES IDX 31 35 81 36 32 37 86 38 80 39 82 40 33 41 85 42 79 43 78 44
REMARK SMILES IDX 34 46 66 47 46 48 65 49 47 50 50 51 64 52 83 53 48 54 49 55
REMARK SMILES IDX 63 57 84 58 51 59 35 60 36 61 44 62 37 63 43 64 45 65 42 66
REMARK SMILES IDX 38 67 39 68 40 69 41 70 67 71 68 72 76 73 69 74 75 75 77 76
REMARK SMILES IDX 74 77 70 78 71 79 72 80 73 81 52 82 53 83 61 84 54 85 60 86
REMARK SMILES IDX 62 87 59 88 55 89 56 90 57 91 58 92
REMARK H PARENT 19 5 23 26 82 45 50 56
REMARK Flexibility Score: inf
ROOT
ATOM      1  C   UNL A   1      34.338  29.042  27.347  1.00  0.00     0.117 C 
ENDROOT
BRANCH   1   2
ATOM      2  N   UNL A   1      33.851  28.162  26.299  1.00  0.00    -0.355 N 
ATOM      3  O   UNL A   1      32.012  27.359  27.428  1.00  0.00    -0.274 OA
ATOM      4  C   UNL A   1      32.715  27.392  26.420  1.00  0.00     0.230 C 
ATOM      5  H   UNL A   1      34.360  28.112  25.458  1.00  0.00     0.163 HD
BRANCH   4   6
ATOM      6  C   UNL A   1      32.400  26.535  25.210  1.00  0.00     0.178 C 
BRANCH   6   7
ATOM      7  S   UNL A   1      33.879  25.844  24.442  1.00  0.00    -0.078 SA
BRANCH   7   8
ATOM      8  C   UNL A   1      33.700  24.127  24.573  1.00  0.00     0.171 A 
ATOM      9  N   UNL A   1      32.742  23.489  23.933  1.00  0.00    -0.221 NA
ATOM     10  N   UNL A   1      34.573  23.261  25.188  1.00  0.00    -0.294 N 
ATOM     11  C   UNL A   1      33.003  22.160  24.120  1.00  0.00     0.109 A 
ATOM     12  C   UNL A   1      34.136  21.988  24.901  1.00  0.00     0.160 A 
ATOM     13  C   UNL A   1      32.343  21.016  23.657  1.00  0.00     0.034 A 
ATOM     14  N   UNL A   1      34.694  20.824  25.293  1.00  0.00    -0.237 NA
ATOM     15  C   UNL A   1      32.876  19.780  24.028  1.00  0.00     0.022 A 
ATOM     16  C   UNL A   1      34.017  19.746  24.825  1.00  0.00     0.113 A 
BRANCH  10  17
ATOM     17  C   UNL A   1      35.719  23.527  26.025  1.00  0.00     0.241 C 
BRANCH  17  18
ATOM     18  C   UNL A   1      37.051  23.435  25.322  1.00  0.00     0.406 C 
ATOM     19  F   UNL A   1      37.947  24.319  25.803  1.00  0.00    -0.169 F 
ATOM     20  F   UNL A   1      37.583  22.202  25.514  1.00  0.00    -0.169 F 
ATOM     21  F   UNL A   1      36.948  23.620  23.990  1.00  0.00    -0.169 F 
ENDBRANCH  17  18
ENDBRANCH  10  17
ENDBRANCH   7   8
ENDBRANCH   6   7
ENDBRANCH   4   6
ENDBRANCH   1   2
BRANCH   1  22
ATOM     22  C   UNL A   1      33.567  30.363  27.431  1.00  0.00     0.042 C 
BRANCH  22  23
ATOM     23  C   UNL A   1      34.470  31.569  27.651  1.00  0.00     0.118 C 
BRANCH  23  24
ATOM     24  N   UNL A   1      34.392  32.117  29.002  1.00  0.00    -0.352 N 
ATOM     25  C   UNL A   1      35.182  31.838  30.102  1.00  0.00     0.251 C 
ATOM     26  H   UNL A   1      33.677  32.777  29.150  1.00  0.00     0.163 HD
ATOM     27  O   UNL A   1      34.785  32.143  31.217  1.00  0.00    -0.269 OA
BRANCH  25  28
ATOM     28  C   UNL A   1      36.497  31.179  29.932  1.00  0.00     0.039 A 
ATOM     29  C   UNL A   1      37.642  31.947  29.684  1.00  0.00     0.014 A 
ATOM     30  C   UNL A   1      36.590  29.789  29.957  1.00  0.00     0.014 A 
ATOM     31  C   UNL A   1      38.867  31.305  29.506  1.00  0.00     0.010 A 
ATOM     32  C   UNL A   1      37.811  29.161  29.917  1.00  0.00     0.010 A 
ATOM     33  C   UNL A   1      38.940  29.909  29.629  1.00  0.00    -0.014 A 
BRANCH  33  34
ATOM     34  C   UNL A   1      40.220  29.221  29.579  1.00  0.00     0.031 A 
ATOM     35  C   UNL A   1      40.819  29.013  30.917  1.00  0.00     0.074 A 
ATOM     36  C   UNL A   1      40.717  28.625  28.474  1.00  0.00     0.049 A 
ATOM     37  N   UNL A   1      41.741  29.722  31.478  1.00  0.00    -0.248 NA
ATOM     38  C   UNL A   1      40.178  28.044  31.822  1.00  0.00     0.031 C 
ATOM     39  C   UNL A   1      40.044  28.422  27.184  1.00  0.00     0.029 A 
ATOM     40  N   UNL A   1      41.904  27.981  28.297  1.00  0.00    -0.354 N 
ATOM     41  C   UNL A   1      41.994  29.091  32.690  1.00  0.00     0.074 A 
ATOM     42  C   UNL A   1      40.846  28.264  32.958  1.00  0.00     0.031 C 
ATOM     43  C   UNL A   1      40.734  27.521  26.449  1.00  0.00     0.029 A 
ATOM     44  C   UNL A   1      41.983  27.230  27.129  1.00  0.00     0.049 A 
ATOM     45  H   UNL A   1      42.645  28.042  28.943  1.00  0.00     0.167 HD
ATOM     46  C   UNL A   1      43.262  29.019  33.184  1.00  0.00     0.034 A 
ATOM     47  C   UNL A   1      43.003  26.423  26.752  1.00  0.00     0.034 A 
ATOM     48  C   UNL A   1      44.160  29.824  32.400  1.00  0.00     0.049 A 
ATOM     49  C   UNL A   1      44.211  26.848  27.489  1.00  0.00     0.074 A 
ATOM     50  C   UNL A   1      44.433  31.164  32.249  1.00  0.00     0.029 A 
ATOM     51  N   UNL A   1      44.651  29.173  31.298  1.00  0.00    -0.354 N 
ATOM     52  N   UNL A   1      44.808  27.992  27.297  1.00  0.00    -0.248 NA
ATOM     53  C   UNL A   1      44.585  26.141  28.710  1.00  0.00     0.031 C 
ATOM     54  C   UNL A   1      44.971  31.313  30.938  1.00  0.00     0.029 A 
ATOM     55  C   UNL A   1      45.056  30.058  30.336  1.00  0.00     0.049 A 
ATOM     56  H   UNL A   1      44.706  28.194  31.210  1.00  0.00     0.167 HD
ATOM     57  C   UNL A   1      45.253  28.344  28.554  1.00  0.00     0.074 A 
ATOM     58  C   UNL A   1      45.270  27.108  29.325  1.00  0.00     0.031 C 
ATOM     59  C   UNL A   1      45.237  29.644  28.959  1.00  0.00     0.034 A 
BRANCH  46  60
ATOM     60  C   UNL A   1      43.792  27.874  34.016  1.00  0.00     0.023 A 
ATOM     61  C   UNL A   1      44.000  27.976  35.404  1.00  0.00     0.031 A 
ATOM     62  C   UNL A   1      43.864  26.573  33.479  1.00  0.00     0.131 A 
ATOM     63  C   UNL A   1      44.307  26.859  36.189  1.00  0.00     0.055 A 
ATOM     64  C   UNL A   1      44.099  25.444  34.274  1.00  0.00     0.041 A 
ATOM     65  F   UNL A   1      43.655  26.358  32.170  1.00  0.00    -0.206 F 
ATOM     66  C   UNL A   1      44.327  25.583  35.639  1.00  0.00     0.022 A 
BRANCH  63  67
ATOM     67  S   UNL A   1      44.654  27.065  37.957  1.00  0.00     0.124 S 
ATOM     68  O   UNL A   1      44.703  28.516  38.090  1.00  0.00    -0.237 OA
ATOM     69  O   UNL A   1      43.495  26.409  38.560  1.00  0.00    -0.237 OA
ATOM     70  O   UNL A   1      45.922  26.365  38.138  1.00  0.00    -0.744 OA
ENDBRANCH  63  67
ENDBRANCH  46  60
BRANCH  47  71
ATOM     71  C   UNL A   1      42.959  25.124  26.046  1.00  0.00     0.023 A 
ATOM     72  C   UNL A   1      42.067  24.128  26.478  1.00  0.00     0.031 A 
ATOM     73  C   UNL A   1      44.016  24.731  25.204  1.00  0.00     0.131 A 
ATOM     74  C   UNL A   1      42.297  22.784  26.148  1.00  0.00     0.055 A 
ATOM     75  C   UNL A   1      44.233  23.392  24.864  1.00  0.00     0.041 A 
ATOM     76  F   UNL A   1      44.909  25.631  24.766  1.00  0.00    -0.206 F 
ATOM     77  C   UNL A   1      43.383  22.407  25.356  1.00  0.00     0.022 A 
BRANCH  74  78
ATOM     78  S   UNL A   1      41.227  21.483  26.820  1.00  0.00     0.124 S 
ATOM     79  O   UNL A   1      40.751  20.813  25.611  1.00  0.00    -0.237 OA
ATOM     80  O   UNL A   1      42.163  20.718  27.634  1.00  0.00    -0.237 OA
ATOM     81  O   UNL A   1      40.205  22.228  27.551  1.00  0.00    -0.744 OA
ENDBRANCH  74  78
ENDBRANCH  47  71
BRANCH  59  82
ATOM     82  C   UNL A   1      45.264  30.718  27.913  1.00  0.00     0.023 A 
ATOM     83  C   UNL A   1      46.521  31.278  27.639  1.00  0.00     0.031 A 
ATOM     84  C   UNL A   1      44.135  31.304  27.316  1.00  0.00     0.131 A 
ATOM     85  C   UNL A   1      46.627  32.420  26.845  1.00  0.00     0.055 A 
ATOM     86  C   UNL A   1      44.251  32.411  26.466  1.00  0.00     0.041 A 
ATOM     87  F   UNL A   1      42.896  30.871  27.585  1.00  0.00    -0.206 F 
ATOM     88  C   UNL A   1      45.501  32.984  26.242  1.00  0.00     0.022 A 
BRANCH  85  89
ATOM     89  S   UNL A   1      48.221  33.262  26.689  1.00  0.00     0.124 S 
ATOM     90  O   UNL A   1      47.984  34.172  25.571  1.00  0.00    -0.237 OA
ATOM     91  O   UNL A   1      48.361  33.897  27.997  1.00  0.00    -0.237 OA
ATOM     92  O   UNL A   1      49.168  32.182  26.421  1.00  0.00    -0.744 OA
ENDBRANCH  85  89
ENDBRANCH  59  82
ENDBRANCH  33  34
ENDBRANCH  25  28
ENDBRANCH  23  24
ENDBRANCH  22  23
ENDBRANCH   1  22
TORSDOF 17
ENDMDL
MODEL 3
REMARK VINA RESULT:     -11.6      3.436      8.928
REMARK SMILES O=C(CSc1nc2cccnc2n1CC(F)(F)F)NCCCNC(=O)c1ccc(-c2c3nc(c(-c4cc(S(=O)(=O)[O-])ccc4F)c4ccc([nH]4)c(-c4cc(S(=O)(=O)[O-])ccc4F)c4nc(c(-c5cc(S(=O)(=O)[O-])ccc5F)c5ccc2[nH]5)C=C4)C=C3)cc1
REMARK SMILES IDX 20 1 19 2 1 3 2 4 3 6 4 7 5 8 6 9 13 10 7 11 12 12 8 13
REMARK SMILES IDX 11 14 9 15 10 16 14 17 15 18 16 19 17 20 18 21 21 22 22 23
REMARK SMILES IDX 23 24 24 25 25 27 26 28 27 29 88 30 28 31 87 32 29 33 30 34
REMARK SMILES IDX 31 35 81 36 32 37 86 38 80 39 82 40 33 41 85 42 79 43 78 44
REMARK SMILES IDX 34 46 66 47 46 48 65 49 47 50 50 51 64 52 83 53 48 54 49 55
REMARK SMILES IDX 63 57 84 58 51 59 35 60 36 61 44 62 37 63 43 64 45 65 42 66
REMARK SMILES IDX 38 67 39 68 40 69 41 70 67 71 68 72 76 73 69 74 75 75 77 76
REMARK SMILES IDX 74 77 70 78 71 79 72 80 73 81 52 82 53 83 61 84 54 85 60 86
REMARK SMILES IDX 62 87 59 88 55 89 56 90 57 91 58 92
REMARK H PARENT 19 5 23 26 82 45 50 56
REMARK Flexibility Score: inf
ROOT
ATOM      1  C   UNL A   1      32.679  30.081  26.130  1.00  0.00     0.117 C 
ENDROOT
BRANCH   1   2
ATOM      2  N   UNL A   1      33.369  29.317  25.106  1.00  0.00    -0.355 N 
ATOM      3  O   UNL A   1      31.601  29.132  23.644  1.00  0.00    -0.274 OA
ATOM      4  C   UNL A   1      32.774  28.908  23.933  1.00  0.00     0.230 C 
ATOM      5  H   UNL A   1      34.312  29.078  25.258  1.00  0.00     0.163 HD
BRANCH   4   6
ATOM      6  C   UNL A   1      33.675  28.107  23.013  1.00  0.00     0.178 C 
BRANCH   6   7
ATOM      7  S   UNL A   1      32.874  26.625  22.369  1.00  0.00    -0.078 SA
BRANCH   7   8
ATOM      8  C   UNL A   1      33.597  25.307  23.227  1.00  0.00     0.171 A 
ATOM      9  N   UNL A   1      34.483  24.522  22.651  1.00  0.00    -0.221 NA
ATOM     10  N   UNL A   1      33.465  25.038  24.569  1.00  0.00    -0.294 N 
ATOM     11  C   UNL A   1      34.962  23.721  23.651  1.00  0.00     0.109 A 
ATOM     12  C   UNL A   1      34.342  24.017  24.856  1.00  0.00     0.160 A 
ATOM     13  C   UNL A   1      35.934  22.714  23.642  1.00  0.00     0.034 A 
ATOM     14  N   UNL A   1      34.556  23.435  26.054  1.00  0.00    -0.237 NA
ATOM     15  C   UNL A   1      36.202  22.076  24.854  1.00  0.00     0.022 A 
ATOM     16  C   UNL A   1      35.501  22.464  25.993  1.00  0.00     0.113 A 
BRANCH  10  17
ATOM     17  C   UNL A   1      32.583  25.616  25.555  1.00  0.00     0.241 C 
BRANCH  17  18
ATOM     18  C   UNL A   1      31.264  24.900  25.720  1.00  0.00     0.406 C 
ATOM     19  F   UNL A   1      31.050  23.990  24.750  1.00  0.00    -0.169 F 
ATOM     20  F   UNL A   1      31.257  24.222  26.895  1.00  0.00    -0.169 F 
ATOM     21  F   UNL A   1      30.214  25.747  25.744  1.00  0.00    -0.169 F 
ENDBRANCH  17  18
ENDBRANCH  10  17
ENDBRANCH   7   8
ENDBRANCH   6   7
ENDBRANCH   4   6
ENDBRANCH   1   2
BRANCH   1  22
ATOM     22  C   UNL A   1      33.511  30.273  27.402  1.00  0.00     0.042 C 
BRANCH  22  23
ATOM     23  C   UNL A   1      34.279  31.587  27.423  1.00  0.00     0.118 C 
BRANCH  23  24
ATOM     24  N   UNL A   1      34.224  32.274  28.710  1.00  0.00    -0.352 N 
ATOM     25  C   UNL A   1      34.985  32.059  29.845  1.00  0.00     0.251 C 
ATOM     26  H   UNL A   1      33.553  32.990  28.779  1.00  0.00     0.163 HD
ATOM     27  O   UNL A   1      34.598  32.501  30.917  1.00  0.00    -0.269 OA
BRANCH  25  28
ATOM     28  C   UNL A   1      36.256  31.304  29.762  1.00  0.00     0.039 A 
ATOM     29  C   UNL A   1      37.469  31.983  29.593  1.00  0.00     0.014 A 
ATOM     30  C   UNL A   1      36.243  29.910  29.791  1.00  0.00     0.014 A 
ATOM     31  C   UNL A   1      38.652  31.252  29.498  1.00  0.00     0.010 A 
ATOM     32  C   UNL A   1      37.414  29.193  29.833  1.00  0.00     0.010 A 
ATOM     33  C   UNL A   1      38.613  29.855  29.623  1.00  0.00    -0.014 A 
BRANCH  33  34
ATOM     34  C   UNL A   1      39.839  29.073  29.658  1.00  0.00     0.031 A 
ATOM     35  C   UNL A   1      40.302  28.785  31.035  1.00  0.00     0.074 A 
ATOM     36  C   UNL A   1      40.384  28.471  28.580  1.00  0.00     0.049 A 
ATOM     37  N   UNL A   1      41.222  29.407  31.694  1.00  0.00    -0.248 NA
ATOM     38  C   UNL A   1      39.516  27.844  31.850  1.00  0.00     0.031 C 
ATOM     39  C   UNL A   1      39.812  28.354  27.231  1.00  0.00     0.029 A 
ATOM     40  N   UNL A   1      41.532  27.744  28.482  1.00  0.00    -0.354 N 
ATOM     41  C   UNL A   1      41.322  28.726  32.902  1.00  0.00     0.074 A 
ATOM     42  C   UNL A   1      40.098  27.982  33.044  1.00  0.00     0.031 C 
ATOM     43  C   UNL A   1      40.495  27.423  26.528  1.00  0.00     0.029 A 
ATOM     44  C   UNL A   1      41.656  27.021  27.301  1.00  0.00     0.049 A 
ATOM     45  H   UNL A   1      42.217  27.731  29.190  1.00  0.00     0.167 HD
ATOM     46  C   UNL A   1      42.534  28.545  33.498  1.00  0.00     0.034 A 
ATOM     47  C   UNL A   1      42.644  26.149  26.985  1.00  0.00     0.034 A 
ATOM     48  C   UNL A   1      43.553  29.301  32.820  1.00  0.00     0.049 A 
ATOM     49  C   UNL A   1      43.811  26.461  27.835  1.00  0.00     0.074 A 
ATOM     50  C   UNL A   1      43.936  30.620  32.736  1.00  0.00     0.029 A 
ATOM     51  N   UNL A   1      44.088  28.644  31.742  1.00  0.00    -0.354 N 
ATOM     52  N   UNL A   1      44.504  27.561  27.732  1.00  0.00    -0.248 NA
ATOM     53  C   UNL A   1      44.024  25.696  29.059  1.00  0.00     0.031 C 
ATOM     54  C   UNL A   1      44.594  30.762  31.481  1.00  0.00     0.029 A 
ATOM     55  C   UNL A   1      44.638  29.521  30.848  1.00  0.00     0.049 A 
ATOM     56  H   UNL A   1      44.079  27.666  31.626  1.00  0.00     0.167 HD
ATOM     57  C   UNL A   1      44.863  27.845  29.032  1.00  0.00     0.074 A 
ATOM     58  C   UNL A   1      44.723  26.591  29.760  1.00  0.00     0.031 C 
ATOM     59  C   UNL A   1      44.908  29.131  29.478  1.00  0.00     0.034 A 
BRANCH  46  60
ATOM     60  C   UNL A   1      42.905  27.341  34.334  1.00  0.00     0.023 A 
ATOM     61  C   UNL A   1      43.539  26.208  33.793  1.00  0.00     0.031 A 
ATOM     62  C   UNL A   1      42.858  27.406  35.741  1.00  0.00     0.131 A 
ATOM     63  C   UNL A   1      44.046  25.187  34.606  1.00  0.00     0.055 A 
ATOM     64  C   UNL A   1      43.429  26.421  36.557  1.00  0.00     0.041 A 
ATOM     65  F   UNL A   1      42.299  28.458  36.362  1.00  0.00    -0.206 F 
ATOM     66  C   UNL A   1      44.024  25.299  35.991  1.00  0.00     0.022 A 
BRANCH  63  67
ATOM     67  S   UNL A   1      44.772  23.707  33.851  1.00  0.00     0.124 S 
ATOM     68  O   UNL A   1      46.200  23.987  33.944  1.00  0.00    -0.237 OA
ATOM     69  O   UNL A   1      44.270  22.654  34.732  1.00  0.00    -0.237 OA
ATOM     70  O   UNL A   1      44.210  23.703  32.503  1.00  0.00    -0.744 OA
ENDBRANCH  63  67
ENDBRANCH  46  60
BRANCH  47  71
ATOM     71  C   UNL A   1      42.565  24.877  26.235  1.00  0.00     0.023 A 
ATOM     72  C   UNL A   1      41.748  23.837  26.712  1.00  0.00     0.031 A 
ATOM     73  C   UNL A   1      43.544  24.548  25.278  1.00  0.00     0.131 A 
ATOM     74  C   UNL A   1      41.982  22.515  26.307  1.00  0.00     0.055 A 
ATOM     75  C   UNL A   1      43.764  23.231  24.865  1.00  0.00     0.041 A 
ATOM     76  F   UNL A   1      44.364  25.492  24.791  1.00  0.00    -0.206 F 
ATOM     77  C   UNL A   1      42.994  22.202  25.398  1.00  0.00     0.022 A 
BRANCH  74  78
ATOM     78  S   UNL A   1      41.020  21.156  27.028  1.00  0.00     0.124 S 
ATOM     79  O   UNL A   1      40.596  21.717  28.309  1.00  0.00    -0.237 OA
ATOM     80  O   UNL A   1      39.964  20.982  26.039  1.00  0.00    -0.237 OA
ATOM     81  O   UNL A   1      41.990  20.068  27.124  1.00  0.00    -0.744 OA
ENDBRANCH  74  78
ENDBRANCH  47  71
BRANCH  59  82
ATOM     82  C   UNL A   1      45.103  30.228  28.474  1.00  0.00     0.023 A 
ATOM     83  C   UNL A   1      46.434  30.541  28.158  1.00  0.00     0.031 A 
ATOM     84  C   UNL A   1      44.089  31.053  27.958  1.00  0.00     0.131 A 
ATOM     85  C   UNL A   1      46.732  31.676  27.404  1.00  0.00     0.055 A 
ATOM     86  C   UNL A   1      44.387  32.154  27.147  1.00  0.00     0.041 A 
ATOM     87  F   UNL A   1      42.801  30.861  28.274  1.00  0.00    -0.206 F 
ATOM     88  C   UNL A   1      45.716  32.480  26.881  1.00  0.00     0.022 A 
BRANCH  85  89
ATOM     89  S   UNL A   1      48.453  32.194  27.198  1.00  0.00     0.124 S 
ATOM     90  O   UNL A   1      48.871  32.441  28.575  1.00  0.00    -0.237 OA
ATOM     91  O   UNL A   1      49.051  31.023  26.560  1.00  0.00    -0.237 OA
ATOM     92  O   UNL A   1      48.367  33.382  26.352  1.00  0.00    -0.744 OA
ENDBRANCH  85  89
ENDBRANCH  59  82
ENDBRANCH  33  34
ENDBRANCH  25  28
ENDBRANCH  23  24
ENDBRANCH  22  23
ENDBRANCH   1  22
TORSDOF 17
ENDMDL
