MODEL 1
REMARK VINA RESULT:     -10.9      0.000      0.000
REMARK SMILES CC(C)C[C@H](NC(=O)CNC(=O)[C@@H]([NH3+])C(C)C)C(=O)NCCCNC(=O)c1ccc(-c2c3nc(c(-c4cc(S(=O)(=O)[O-])ccc4F)c4ccc([nH]4)c(-c4cc(S(=O)(=O)[O-])ccc4F)c4nc(c(-c5cc(S(=O)(=O)[O-])ccc5F)c5ccc2[nH]5)C=C4)C=C3)cc1
REMARK SMILES IDX 21 1 20 2 18 3 19 4 5 6 4 7 2 8 1 9 3 10 6 11 7 12 8 14 9 15
REMARK SMILES IDX 10 16 11 17 12 19 13 20 14 21 15 25 16 26 17 27 22 28 23 29
REMARK SMILES IDX 24 30 25 31 26 33 27 34 28 35 89 36 29 37 88 38 30 39 31 40
REMARK SMILES IDX 32 41 82 42 33 43 87 44 81 45 83 46 34 47 86 48 80 49 79 50
REMARK SMILES IDX 35 52 67 53 47 54 66 55 48 56 51 57 65 58 84 59 49 60 50 61
REMARK SMILES IDX 64 63 85 64 52 65 36 66 37 67 45 68 38 69 44 70 46 71 43 72
REMARK SMILES IDX 39 73 40 74 41 75 42 76 68 77 69 78 77 79 70 80 76 81 78 82
REMARK SMILES IDX 75 83 71 84 72 85 73 86 74 87 53 88 54 89 62 90 55 91 61 92
REMARK SMILES IDX 63 93 60 94 56 95 57 96 58 97 59 98
REMARK H PARENT 20 5 6 13 10 18 14 22 14 23 14 24 24 32 83 51 51 62
REMARK Flexibility Score: inf
ROOT
ATOM      1  C   UNL A   1      31.880  28.281  24.580  1.00  0.00     0.117 C 
ENDROOT
BRANCH   1   2
ATOM      2  N   UNL A   1      30.538  27.821  24.249  1.00  0.00    -0.354 N 
ATOM      3  C   UNL A   1      30.060  26.541  24.209  1.00  0.00     0.242 C 
ATOM      4  O   UNL A   1      28.861  26.355  24.005  1.00  0.00    -0.273 OA
ATOM      5  H   UNL A   1      29.889  28.527  24.025  1.00  0.00     0.163 HD
BRANCH   3   6
ATOM      6  C   UNL A   1      31.028  25.385  24.496  1.00  0.00     0.171 C 
BRANCH   6   7
ATOM      7  C   UNL A   1      31.235  24.554  23.216  1.00  0.00     0.038 C 
BRANCH   7   8
ATOM      8  C   UNL A   1      32.502  24.766  22.364  1.00  0.00    -0.015 C 
ATOM      9  C   UNL A   1      33.583  25.543  23.112  1.00  0.00     0.007 C 
ATOM     10  C   UNL A   1      33.051  23.389  21.963  1.00  0.00     0.007 C 
ENDBRANCH   7   8
ENDBRANCH   6   7
BRANCH   6  11
ATOM     11  N   UNL A   1      30.448  24.645  25.638  1.00  0.00    -0.343 N 
ATOM     12  C   UNL A   1      30.874  23.669  26.473  1.00  0.00     0.240 C 
ATOM     13  H   UNL A   1      29.528  24.933  25.839  1.00  0.00     0.164 HD
ATOM     14  O   UNL A   1      30.091  23.329  27.368  1.00  0.00    -0.273 OA
BRANCH  12  15
ATOM     15  C   UNL A   1      32.261  23.037  26.392  1.00  0.00     0.216 C 
BRANCH  15  16
ATOM     16  N   UNL A   1      32.348  21.942  25.446  1.00  0.00    -0.342 N 
ATOM     17  C   UNL A   1      33.438  21.285  24.961  1.00  0.00     0.278 C 
ATOM     18  H   UNL A   1      31.484  21.623  25.099  1.00  0.00     0.164 HD
ATOM     19  O   UNL A   1      33.242  20.398  24.124  1.00  0.00    -0.268 OA
BRANCH  17  20
ATOM     20  C   UNL A   1      34.884  21.610  25.428  1.00  0.00     0.273 C 
BRANCH  20  21
ATOM     21  N   UNL A   1      35.772  20.425  25.385  1.00  0.00    -0.347 N 
ATOM     22  H   UNL A   1      36.084  20.269  24.427  1.00  0.00     0.345 HD
ATOM     23  H   UNL A   1      35.262  19.606  25.714  1.00  0.00     0.345 HD
ATOM     24  H   UNL A   1      36.582  20.585  25.984  1.00  0.00     0.345 HD
ENDBRANCH  20  21
BRANCH  20  25
ATOM     25  C   UNL A   1      35.432  22.815  24.639  1.00  0.00     0.051 C 
ATOM     26  C   UNL A   1      35.853  23.920  25.617  1.00  0.00     0.014 C 
ATOM     27  C   UNL A   1      36.634  22.438  23.767  1.00  0.00     0.014 C 
ENDBRANCH  20  25
ENDBRANCH  17  20
ENDBRANCH  15  16
ENDBRANCH  12  15
ENDBRANCH   6  11
ENDBRANCH   3   6
ENDBRANCH   1   2
BRANCH   1  28
ATOM     28  C   UNL A   1      31.988  28.703  26.024  1.00  0.00     0.042 C 
BRANCH  28  29
ATOM     29  C   UNL A   1      33.279  29.436  26.305  1.00  0.00     0.118 C 
BRANCH  29  30
ATOM     30  N   UNL A   1      33.057  30.839  26.636  1.00  0.00    -0.352 N 
ATOM     31  C   UNL A   1      33.770  31.637  27.495  1.00  0.00     0.251 C 
ATOM     32  H   UNL A   1      32.295  31.270  26.184  1.00  0.00     0.163 HD
ATOM     33  O   UNL A   1      33.323  32.726  27.842  1.00  0.00    -0.269 OA
BRANCH  31  34
ATOM     34  C   UNL A   1      35.063  31.143  28.003  1.00  0.00     0.039 A 
ATOM     35  C   UNL A   1      36.175  31.981  27.985  1.00  0.00     0.014 A 
ATOM     36  C   UNL A   1      35.145  29.860  28.555  1.00  0.00     0.014 A 
ATOM     37  C   UNL A   1      37.362  31.541  28.566  1.00  0.00     0.010 A 
ATOM     38  C   UNL A   1      36.277  29.488  29.258  1.00  0.00     0.010 A 
ATOM     39  C   UNL A   1      37.413  30.304  29.232  1.00  0.00    -0.014 A 
BRANCH  39  40
ATOM     40  C   UNL A   1      38.670  29.808  29.840  1.00  0.00     0.031 A 
ATOM     41  C   UNL A   1      39.082  30.313  31.198  1.00  0.00     0.074 A 
ATOM     42  C   UNL A   1      39.446  28.943  29.159  1.00  0.00     0.049 A 
ATOM     43  N   UNL A   1      40.149  30.032  31.898  1.00  0.00    -0.248 NA
ATOM     44  C   UNL A   1      38.197  31.304  31.835  1.00  0.00     0.031 C 
ATOM     45  C   UNL A   1      39.175  28.442  27.809  1.00  0.00     0.029 A 
ATOM     46  N   UNL A   1      40.617  28.325  29.513  1.00  0.00    -0.354 N 
ATOM     47  C   UNL A   1      40.069  30.821  33.041  1.00  0.00     0.074 A 
ATOM     48  C   UNL A   1      38.903  31.660  32.895  1.00  0.00     0.031 C 
ATOM     49  C   UNL A   1      40.124  27.555  27.470  1.00  0.00     0.029 A 
ATOM     50  C   UNL A   1      41.091  27.454  28.558  1.00  0.00     0.049 A 
ATOM     51  H   UNL A   1      41.075  28.489  30.367  1.00  0.00     0.167 HD
ATOM     52  C   UNL A   1      40.870  30.815  34.135  1.00  0.00     0.034 A 
ATOM     53  C   UNL A   1      42.178  26.660  28.571  1.00  0.00     0.034 A 
ATOM     54  C   UNL A   1      42.012  29.948  34.268  1.00  0.00     0.049 A 
ATOM     55  C   UNL A   1      43.046  26.655  29.805  1.00  0.00     0.074 A 
ATOM     56  C   UNL A   1      42.875  29.814  35.340  1.00  0.00     0.029 A 
ATOM     57  N   UNL A   1      42.450  29.060  33.292  1.00  0.00    -0.354 N 
ATOM     58  N   UNL A   1      42.925  27.364  30.905  1.00  0.00    -0.248 NA
ATOM     59  C   UNL A   1      44.179  25.725  29.806  1.00  0.00     0.031 C 
ATOM     60  C   UNL A   1      43.870  28.895  34.988  1.00  0.00     0.029 A 
ATOM     61  C   UNL A   1      43.582  28.391  33.730  1.00  0.00     0.049 A 
ATOM     62  H   UNL A   1      42.019  28.926  32.417  1.00  0.00     0.167 HD
ATOM     63  C   UNL A   1      43.949  26.935  31.746  1.00  0.00     0.074 A 
ATOM     64  C   UNL A   1      44.657  25.893  31.030  1.00  0.00     0.031 C 
ATOM     65  C   UNL A   1      44.277  27.359  32.994  1.00  0.00     0.034 A 
BRANCH  52  66
ATOM     66  C   UNL A   1      40.535  31.784  35.245  1.00  0.00     0.023 A 
ATOM     67  C   UNL A   1      39.517  31.517  36.179  1.00  0.00     0.031 A 
ATOM     68  C   UNL A   1      41.205  33.016  35.343  1.00  0.00     0.131 A 
ATOM     69  C   UNL A   1      39.139  32.499  37.108  1.00  0.00     0.055 A 
ATOM     70  C   UNL A   1      40.886  33.951  36.330  1.00  0.00     0.041 A 
ATOM     71  F   UNL A   1      42.167  33.343  34.466  1.00  0.00    -0.206 F 
ATOM     72  C   UNL A   1      39.836  33.703  37.209  1.00  0.00     0.022 A 
BRANCH  69  73
ATOM     73  S   UNL A   1      37.622  32.243  38.070  1.00  0.00     0.124 S 
ATOM     74  O   UNL A   1      36.684  33.126  37.380  1.00  0.00    -0.237 OA
ATOM     75  O   UNL A   1      37.385  30.813  37.914  1.00  0.00    -0.237 OA
ATOM     76  O   UNL A   1      37.994  32.672  39.417  1.00  0.00    -0.744 OA
ENDBRANCH  69  73
ENDBRANCH  52  66
BRANCH  53  77
ATOM     77  C   UNL A   1      42.499  25.791  27.402  1.00  0.00     0.023 A 
ATOM     78  C   UNL A   1      42.049  24.462  27.342  1.00  0.00     0.031 A 
ATOM     79  C   UNL A   1      43.295  26.265  26.344  1.00  0.00     0.131 A 
ATOM     80  C   UNL A   1      42.445  23.635  26.279  1.00  0.00     0.055 A 
ATOM     81  C   UNL A   1      43.639  25.456  25.260  1.00  0.00     0.041 A 
ATOM     82  F   UNL A   1      43.743  27.530  26.346  1.00  0.00    -0.206 F 
ATOM     83  C   UNL A   1      43.226  24.128  25.231  1.00  0.00     0.022 A 
BRANCH  80  84
ATOM     84  S   UNL A   1      41.999  21.878  26.333  1.00  0.00     0.124 S 
ATOM     85  O   UNL A   1      40.574  21.923  26.028  1.00  0.00    -0.237 OA
ATOM     86  O   UNL A   1      42.860  21.315  25.298  1.00  0.00    -0.237 OA
ATOM     87  O   UNL A   1      42.333  21.485  27.701  1.00  0.00    -0.744 OA
ENDBRANCH  80  84
ENDBRANCH  53  77
BRANCH  65  88
ATOM     88  C   UNL A   1      45.421  26.647  33.675  1.00  0.00     0.023 A 
ATOM     89  C   UNL A   1      45.215  25.503  34.466  1.00  0.00     0.031 A 
ATOM     90  C   UNL A   1      46.731  27.146  33.562  1.00  0.00     0.131 A 
ATOM     91  C   UNL A   1      46.287  24.948  35.181  1.00  0.00     0.055 A 
ATOM     92  C   UNL A   1      47.806  26.542  34.214  1.00  0.00     0.041 A 
ATOM     93  F   UNL A   1      46.987  28.236  32.820  1.00  0.00    -0.206 F 
ATOM     94  C   UNL A   1      47.583  25.449  35.045  1.00  0.00     0.022 A 
BRANCH  91  95
ATOM     95  S   UNL A   1      45.935  23.650  36.397  1.00  0.00     0.124 S 
ATOM     96  O   UNL A   1      45.425  24.422  37.525  1.00  0.00    -0.237 OA
ATOM     97  O   UNL A   1      44.958  22.823  35.697  1.00  0.00    -0.237 OA
ATOM     98  O   UNL A   1      47.237  23.023  36.614  1.00  0.00    -0.744 OA
ENDBRANCH  91  95
ENDBRANCH  65  88
ENDBRANCH  39  40
ENDBRANCH  31  34
ENDBRANCH  29  30
ENDBRANCH  28  29
ENDBRANCH   1  28
TORSDOF 21
ENDMDL
MODEL 2
REMARK VINA RESULT:     -10.1      2.194      2.537
REMARK SMILES CC(C)C[C@H](NC(=O)CNC(=O)[C@@H]([NH3+])C(C)C)C(=O)NCCCNC(=O)c1ccc(-c2c3nc(c(-c4cc(S(=O)(=O)[O-])ccc4F)c4ccc([nH]4)c(-c4cc(S(=O)(=O)[O-])ccc4F)c4nc(c(-c5cc(S(=O)(=O)[O-])ccc5F)c5ccc2[nH]5)C=C4)C=C3)cc1
REMARK SMILES IDX 21 1 20 2 18 3 19 4 5 6 4 7 2 8 1 9 3 10 6 11 7 12 8 14 9 15
REMARK SMILES IDX 10 16 11 17 12 19 13 20 14 21 15 25 16 26 17 27 22 28 23 29
REMARK SMILES IDX 24 30 25 31 26 33 27 34 28 35 89 36 29 37 88 38 30 39 31 40
REMARK SMILES IDX 32 41 82 42 33 43 87 44 81 45 83 46 34 47 86 48 80 49 79 50
REMARK SMILES IDX 35 52 67 53 47 54 66 55 48 56 51 57 65 58 84 59 49 60 50 61
REMARK SMILES IDX 64 63 85 64 52 65 36 66 37 67 45 68 38 69 44 70 46 71 43 72
REMARK SMILES IDX 39 73 40 74 41 75 42 76 68 77 69 78 77 79 70 80 76 81 78 82
REMARK SMILES IDX 75 83 71 84 72 85 73 86 74 87 53 88 54 89 62 90 55 91 61 92
REMARK SMILES IDX 63 93 60 94 56 95 57 96 58 97 59 98
REMARK H PARENT 20 5 6 13 10 18 14 22 14 23 14 24 24 32 83 51 51 62
REMARK Flexibility Score: inf
ROOT
ATOM      1  C   UNL A   1      31.834  28.493  27.017  1.00  0.00     0.117 C 
ENDROOT
BRANCH   1   2
ATOM      2  N   UNL A   1      31.424  28.781  25.650  1.00  0.00    -0.354 N 
ATOM      3  C   UNL A   1      31.219  27.907  24.619  1.00  0.00     0.242 C 
ATOM      4  O   UNL A   1      30.773  28.332  23.553  1.00  0.00    -0.273 OA
ATOM      5  H   UNL A   1      31.275  29.732  25.440  1.00  0.00     0.163 HD
BRANCH   3   6
ATOM      6  C   UNL A   1      31.483  26.414  24.856  1.00  0.00     0.171 C 
BRANCH   6   7
ATOM      7  C   UNL A   1      31.682  25.702  23.505  1.00  0.00     0.038 C 
BRANCH   7   8
ATOM      8  C   UNL A   1      33.087  25.221  23.094  1.00  0.00    -0.015 C 
ATOM      9  C   UNL A   1      33.039  24.000  22.177  1.00  0.00     0.007 C 
ATOM     10  C   UNL A   1      33.800  26.372  22.370  1.00  0.00     0.007 C 
ENDBRANCH   7   8
ENDBRANCH   6   7
BRANCH   6  11
ATOM     11  N   UNL A   1      30.343  25.924  25.661  1.00  0.00    -0.343 N 
ATOM     12  C   UNL A   1      30.093  24.828  26.415  1.00  0.00     0.240 C 
ATOM     13  H   UNL A   1      29.581  26.548  25.647  1.00  0.00     0.164 HD
ATOM     14  O   UNL A   1      29.001  24.794  26.994  1.00  0.00    -0.273 OA
BRANCH  12  15
ATOM     15  C   UNL A   1      31.098  23.697  26.617  1.00  0.00     0.216 C 
BRANCH  15  16
ATOM     16  N   UNL A   1      31.125  22.739  25.528  1.00  0.00    -0.342 N 
ATOM     17  C   UNL A   1      32.132  21.933  25.093  1.00  0.00     0.278 C 
ATOM     18  H   UNL A   1      30.284  22.660  25.023  1.00  0.00     0.164 HD
ATOM     19  O   UNL A   1      31.908  21.224  24.107  1.00  0.00    -0.268 OA
BRANCH  17  20
ATOM     20  C   UNL A   1      33.518  21.878  25.793  1.00  0.00     0.273 C 
BRANCH  20  21
ATOM     21  N   UNL A   1      33.558  20.889  26.895  1.00  0.00    -0.347 N 
ATOM     22  H   UNL A   1      33.116  21.286  27.724  1.00  0.00     0.345 HD
ATOM     23  H   UNL A   1      34.527  20.653  27.106  1.00  0.00     0.345 HD
ATOM     24  H   UNL A   1      33.056  20.047  26.614  1.00  0.00     0.345 HD
ENDBRANCH  20  21
BRANCH  20  25
ATOM     25  C   UNL A   1      34.628  21.670  24.743  1.00  0.00     0.051 C 
ATOM     26  C   UNL A   1      35.544  22.901  24.716  1.00  0.00     0.014 C 
ATOM     27  C   UNL A   1      35.474  20.427  25.034  1.00  0.00     0.014 C 
ENDBRANCH  20  25
ENDBRANCH  17  20
ENDBRANCH  15  16
ENDBRANCH  12  15
ENDBRANCH   6  11
ENDBRANCH   3   6
ENDBRANCH   1   2
BRANCH   1  28
ATOM     28  C   UNL A   1      33.335  28.399  27.144  1.00  0.00     0.042 C 
BRANCH  28  29
ATOM     29  C   UNL A   1      34.036  29.542  26.448  1.00  0.00     0.118 C 
BRANCH  29  30
ATOM     30  N   UNL A   1      33.839  30.813  27.136  1.00  0.00    -0.352 N 
ATOM     31  C   UNL A   1      34.561  31.341  28.177  1.00  0.00     0.251 C 
ATOM     32  H   UNL A   1      33.089  31.363  26.813  1.00  0.00     0.163 HD
ATOM     33  O   UNL A   1      34.133  32.309  28.797  1.00  0.00    -0.269 OA
BRANCH  31  34
ATOM     34  C   UNL A   1      35.840  30.704  28.538  1.00  0.00     0.039 A 
ATOM     35  C   UNL A   1      37.027  31.181  27.988  1.00  0.00     0.014 A 
ATOM     36  C   UNL A   1      35.856  29.668  29.479  1.00  0.00     0.014 A 
ATOM     37  C   UNL A   1      38.237  30.643  28.420  1.00  0.00     0.010 A 
ATOM     38  C   UNL A   1      37.060  29.243  30.009  1.00  0.00     0.010 A 
ATOM     39  C   UNL A   1      38.264  29.691  29.455  1.00  0.00    -0.014 A 
BRANCH  39  40
ATOM     40  C   UNL A   1      39.538  29.091  29.916  1.00  0.00     0.031 A 
ATOM     41  C   UNL A   1      40.217  29.653  31.138  1.00  0.00     0.074 A 
ATOM     42  C   UNL A   1      40.091  28.080  29.221  1.00  0.00     0.049 A 
ATOM     43  N   UNL A   1      41.344  29.298  31.696  1.00  0.00    -0.248 NA
ATOM     44  C   UNL A   1      39.565  30.800  31.794  1.00  0.00     0.031 C 
ATOM     45  C   UNL A   1      39.552  27.505  27.985  1.00  0.00     0.029 A 
ATOM     46  N   UNL A   1      41.225  27.349  29.458  1.00  0.00    -0.354 N 
ATOM     47  C   UNL A   1      41.539  30.185  32.750  1.00  0.00     0.074 A 
ATOM     48  C   UNL A   1      40.467  31.151  32.693  1.00  0.00     0.031 C 
ATOM     49  C   UNL A   1      40.326  26.477  27.603  1.00  0.00     0.029 A 
ATOM     50  C   UNL A   1      41.437  26.346  28.539  1.00  0.00     0.049 A 
ATOM     51  H   UNL A   1      41.830  27.524  30.213  1.00  0.00     0.167 HD
ATOM     52  C   UNL A   1      42.499  30.169  33.706  1.00  0.00     0.034 A 
ATOM     53  C   UNL A   1      42.416  25.423  28.472  1.00  0.00     0.034 A 
ATOM     54  C   UNL A   1      43.542  29.176  33.757  1.00  0.00     0.049 A 
ATOM     55  C   UNL A   1      43.464  25.411  29.557  1.00  0.00     0.074 A 
ATOM     56  C   UNL A   1      44.545  29.024  34.697  1.00  0.00     0.029 A 
ATOM     57  N   UNL A   1      43.714  28.160  32.824  1.00  0.00    -0.354 N 
ATOM     58  N   UNL A   1      43.603  26.221  30.582  1.00  0.00    -0.248 NA
ATOM     59  C   UNL A   1      44.469  24.347  29.485  1.00  0.00     0.031 C 
ATOM     60  C   UNL A   1      45.360  27.959  34.298  1.00  0.00     0.029 A 
ATOM     61  C   UNL A   1      44.818  27.391  33.155  1.00  0.00     0.049 A 
ATOM     62  H   UNL A   1      43.135  28.009  32.042  1.00  0.00     0.167 HD
ATOM     63  C   UNL A   1      44.693  25.737  31.301  1.00  0.00     0.074 A 
ATOM     64  C   UNL A   1      45.154  24.555  30.600  1.00  0.00     0.031 C 
ATOM     65  C   UNL A   1      45.264  26.220  32.435  1.00  0.00     0.034 A 
BRANCH  52  66
ATOM     66  C   UNL A   1      42.459  31.264  34.748  1.00  0.00     0.023 A 
ATOM     67  C   UNL A   1      43.167  32.469  34.584  1.00  0.00     0.031 A 
ATOM     68  C   UNL A   1      41.746  31.082  35.945  1.00  0.00     0.131 A 
ATOM     69  C   UNL A   1      43.221  33.402  35.630  1.00  0.00     0.055 A 
ATOM     70  C   UNL A   1      41.727  32.057  36.946  1.00  0.00     0.041 A 
ATOM     71  F   UNL A   1      41.072  29.944  36.175  1.00  0.00    -0.206 F 
ATOM     72  C   UNL A   1      42.482  33.217  36.799  1.00  0.00     0.022 A 
BRANCH  69  73
ATOM     73  S   UNL A   1      44.397  34.777  35.506  1.00  0.00     0.124 S 
ATOM     74  O   UNL A   1      45.608  34.180  36.064  1.00  0.00    -0.237 OA
ATOM     75  O   UNL A   1      44.419  35.046  34.073  1.00  0.00    -0.237 OA
ATOM     76  O   UNL A   1      43.791  35.822  36.329  1.00  0.00    -0.744 OA
ENDBRANCH  69  73
ENDBRANCH  52  66
BRANCH  53  77
ATOM     77  C   UNL A   1      42.443  24.424  27.365  1.00  0.00     0.023 A 
ATOM     78  C   UNL A   1      41.717  23.225  27.452  1.00  0.00     0.031 A 
ATOM     79  C   UNL A   1      43.229  24.636  26.218  1.00  0.00     0.131 A 
ATOM     80  C   UNL A   1      41.836  22.258  26.441  1.00  0.00     0.055 A 
ATOM     81  C   UNL A   1      43.300  23.695  25.188  1.00  0.00     0.041 A 
ATOM     82  F   UNL A   1      43.935  25.768  26.078  1.00  0.00    -0.206 F 
ATOM     83  C   UNL A   1      42.612  22.491  25.304  1.00  0.00     0.022 A 
BRANCH  80  84
ATOM     84  S   UNL A   1      41.033  20.650  26.680  1.00  0.00     0.124 S 
ATOM     85  O   UNL A   1      39.788  20.827  25.941  1.00  0.00    -0.237 OA
ATOM     86  O   UNL A   1      42.005  19.735  26.090  1.00  0.00    -0.237 OA
ATOM     87  O   UNL A   1      40.889  20.553  28.131  1.00  0.00    -0.744 OA
ENDBRANCH  80  84
ENDBRANCH  53  77
BRANCH  65  88
ATOM     88  C   UNL A   1      46.414  25.427  33.008  1.00  0.00     0.023 A 
ATOM     89  C   UNL A   1      46.208  24.375  33.917  1.00  0.00     0.031 A 
ATOM     90  C   UNL A   1      47.738  25.757  32.668  1.00  0.00     0.131 A 
ATOM     91  C   UNL A   1      47.308  23.749  34.520  1.00  0.00     0.055 A 
ATOM     92  C   UNL A   1      48.828  25.078  33.213  1.00  0.00     0.041 A 
ATOM     93  F   UNL A   1      47.995  26.754  31.805  1.00  0.00    -0.206 F 
ATOM     94  C   UNL A   1      48.616  24.081  34.160  1.00  0.00     0.022 A 
BRANCH  91  95
ATOM     95  S   UNL A   1      47.006  22.591  35.883  1.00  0.00     0.124 S 
ATOM     96  O   UNL A   1      48.330  22.011  36.086  1.00  0.00    -0.237 OA
ATOM     97  O   UNL A   1      46.529  23.474  36.942  1.00  0.00    -0.237 OA
ATOM     98  O   UNL A   1      46.005  21.676  35.339  1.00  0.00    -0.744 OA
ENDBRANCH  91  95
ENDBRANCH  65  88
ENDBRANCH  39  40
ENDBRANCH  31  34
ENDBRANCH  29  30
ENDBRANCH  28  29
ENDBRANCH   1  28
TORSDOF 21
ENDMDL
MODEL 3
REMARK VINA RESULT:      -9.0      8.926     14.397
REMARK SMILES CC(C)C[C@H](NC(=O)CNC(=O)[C@@H]([NH3+])C(C)C)C(=O)NCCCNC(=O)c1ccc(-c2c3nc(c(-c4cc(S(=O)(=O)[O-])ccc4F)c4ccc([nH]4)c(-c4cc(S(=O)(=O)[O-])ccc4F)c4nc(c(-c5cc(S(=O)(=O)[O-])ccc5F)c5ccc2[nH]5)C=C4)C=C3)cc1
REMARK SMILES IDX 21 1 20 2 18 3 19 4 5 6 4 7 2 8 1 9 3 10 6 11 7 12 8 14 9 15
REMARK SMILES IDX 10 16 11 17 12 19 13 20 14 21 15 25 16 26 17 27 22 28 23 29
REMARK SMILES IDX 24 30 25 31 26 33 27 34 28 35 89 36 29 37 88 38 30 39 31 40
REMARK SMILES IDX 32 41 82 42 33 43 87 44 81 45 83 46 34 47 86 48 80 49 79 50
REMARK SMILES IDX 35 52 67 53 47 54 66 55 48 56 51 57 65 58 84 59 49 60 50 61
REMARK SMILES IDX 64 63 85 64 52 65 36 66 37 67 45 68 38 69 44 70 46 71 43 72
REMARK SMILES IDX 39 73 40 74 41 75 42 76 68 77 69 78 77 79 70 80 76 81 78 82
REMARK SMILES IDX 75 83 71 84 72 85 73 86 74 87 53 88 54 89 62 90 55 91 61 92
REMARK SMILES IDX 63 93 60 94 56 95 57 96 58 97 59 98
REMARK H PARENT 20 5 6 13 10 18 14 22 14 23 14 24 24 32 83 51 51 62
REMARK Flexibility Score: inf
ROOT
ATOM      1  C   UNL A   1      45.184  38.510  27.119  1.00  0.00     0.117 C 
ENDROOT
BRANCH   1   2
ATOM      2  N   UNL A   1      43.879  38.763  26.524  1.00  0.00    -0.354 N 
ATOM      3  C   UNL A   1      42.789  39.368  27.083  1.00  0.00     0.242 C 
ATOM      4  O   UNL A   1      41.798  39.583  26.385  1.00  0.00    -0.273 OA
ATOM      5  H   UNL A   1      43.768  38.456  25.594  1.00  0.00     0.163 HD
BRANCH   3   6
ATOM      6  C   UNL A   1      42.870  39.824  28.547  1.00  0.00     0.171 C 
BRANCH   6   7
ATOM      7  C   UNL A   1      43.485  38.703  29.405  1.00  0.00     0.038 C 
BRANCH   7   8
ATOM      8  C   UNL A   1      44.527  39.052  30.485  1.00  0.00    -0.015 C 
ATOM      9  C   UNL A   1      45.094  40.460  30.313  1.00  0.00     0.007 C 
ATOM     10  C   UNL A   1      43.853  38.942  31.861  1.00  0.00     0.007 C 
ENDBRANCH   7   8
ENDBRANCH   6   7
BRANCH   6  11
ATOM     11  N   UNL A   1      41.495  40.221  28.923  1.00  0.00    -0.343 N 
ATOM     12  C   UNL A   1      40.940  40.960  29.912  1.00  0.00     0.240 C 
ATOM     13  H   UNL A   1      40.820  39.860  28.303  1.00  0.00     0.164 HD
ATOM     14  O   UNL A   1      39.713  41.110  29.865  1.00  0.00    -0.273 OA
BRANCH  12  15
ATOM     15  C   UNL A   1      41.750  41.642  31.011  1.00  0.00     0.216 C 
BRANCH  15  16
ATOM     16  N   UNL A   1      42.386  42.874  30.587  1.00  0.00    -0.342 N 
ATOM     17  C   UNL A   1      43.169  43.743  31.285  1.00  0.00     0.278 C 
ATOM     18  H   UNL A   1      42.227  43.122  29.648  1.00  0.00     0.164 HD
ATOM     19  O   UNL A   1      43.563  44.753  30.694  1.00  0.00    -0.268 OA
BRANCH  17  20
ATOM     20  C   UNL A   1      43.574  43.498  32.764  1.00  0.00     0.273 C 
BRANCH  20  21
ATOM     21  N   UNL A   1      44.715  44.343  33.186  1.00  0.00    -0.347 N 
ATOM     22  H   UNL A   1      44.552  44.686  34.133  1.00  0.00     0.345 HD
ATOM     23  H   UNL A   1      44.805  45.135  32.550  1.00  0.00     0.345 HD
ATOM     24  H   UNL A   1      45.572  43.792  33.169  1.00  0.00     0.345 HD
ENDBRANCH  20  21
BRANCH  20  25
ATOM     25  C   UNL A   1      42.339  43.636  33.677  1.00  0.00     0.051 C 
ATOM     26  C   UNL A   1      42.651  43.037  35.055  1.00  0.00     0.014 C 
ATOM     27  C   UNL A   1      41.910  45.095  33.854  1.00  0.00     0.014 C 
ENDBRANCH  20  25
ENDBRANCH  17  20
ENDBRANCH  15  16
ENDBRANCH  12  15
ENDBRANCH   6  11
ENDBRANCH   3   6
ENDBRANCH   1   2
BRANCH   1  28
ATOM     28  C   UNL A   1      46.132  37.863  26.140  1.00  0.00     0.042 C 
BRANCH  28  29
ATOM     29  C   UNL A   1      46.381  36.409  26.469  1.00  0.00     0.118 C 
BRANCH  29  30
ATOM     30  N   UNL A   1      45.580  35.511  25.645  1.00  0.00    -0.352 N 
ATOM     31  C   UNL A   1      44.590  34.647  26.040  1.00  0.00     0.251 C 
ATOM     32  H   UNL A   1      45.775  35.528  24.680  1.00  0.00     0.163 HD
ATOM     33  O   UNL A   1      44.170  33.794  25.264  1.00  0.00    -0.269 OA
BRANCH  31  34
ATOM     34  C   UNL A   1      44.070  34.754  27.414  1.00  0.00     0.039 A 
ATOM     35  C   UNL A   1      43.029  35.636  27.690  1.00  0.00     0.014 A 
ATOM     36  C   UNL A   1      44.585  33.924  28.416  1.00  0.00     0.014 A 
ATOM     37  C   UNL A   1      42.473  35.650  28.967  1.00  0.00     0.010 A 
ATOM     38  C   UNL A   1      43.936  33.837  29.634  1.00  0.00     0.010 A 
ATOM     39  C   UNL A   1      42.903  34.730  29.940  1.00  0.00    -0.014 A 
BRANCH  39  40
ATOM     40  C   UNL A   1      42.341  34.740  31.311  1.00  0.00     0.031 A 
ATOM     41  C   UNL A   1      40.865  34.508  31.504  1.00  0.00     0.074 A 
ATOM     42  C   UNL A   1      43.145  34.992  32.361  1.00  0.00     0.049 A 
ATOM     43  N   UNL A   1      40.165  34.500  32.608  1.00  0.00    -0.248 NA
ATOM     44  C   UNL A   1      40.060  34.302  30.288  1.00  0.00     0.031 C 
ATOM     45  C   UNL A   1      44.576  35.298  32.281  1.00  0.00     0.029 A 
ATOM     46  N   UNL A   1      42.875  35.023  33.704  1.00  0.00    -0.354 N 
ATOM     47  C   UNL A   1      38.844  34.308  32.215  1.00  0.00     0.074 A 
ATOM     48  C   UNL A   1      38.829  34.301  30.770  1.00  0.00     0.031 C 
ATOM     49  C   UNL A   1      45.068  35.433  33.523  1.00  0.00     0.029 A 
ATOM     50  C   UNL A   1      43.983  35.266  34.484  1.00  0.00     0.049 A 
ATOM     51  H   UNL A   1      41.975  34.885  34.076  1.00  0.00     0.167 HD
ATOM     52  C   UNL A   1      37.749  34.109  32.988  1.00  0.00     0.034 A 
ATOM     53  C   UNL A   1      44.104  35.335  35.824  1.00  0.00     0.034 A 
ATOM     54  C   UNL A   1      37.796  34.093  34.428  1.00  0.00     0.049 A 
ATOM     55  C   UNL A   1      42.876  35.093  36.666  1.00  0.00     0.074 A 
ATOM     56  C   UNL A   1      36.768  33.859  35.323  1.00  0.00     0.029 A 
ATOM     57  N   UNL A   1      38.939  34.319  35.186  1.00  0.00    -0.354 N 
ATOM     58  N   UNL A   1      41.643  34.854  36.282  1.00  0.00    -0.248 NA
ATOM     59  C   UNL A   1      43.065  35.107  38.120  1.00  0.00     0.031 C 
ATOM     60  C   UNL A   1      37.274  34.007  36.618  1.00  0.00     0.029 A 
ATOM     61  C   UNL A   1      38.637  34.249  36.536  1.00  0.00     0.049 A 
ATOM     62  H   UNL A   1      39.833  34.501  34.816  1.00  0.00     0.167 HD
ATOM     63  C   UNL A   1      40.915  34.649  37.452  1.00  0.00     0.074 A 
ATOM     64  C   UNL A   1      41.857  34.774  38.547  1.00  0.00     0.031 C 
ATOM     65  C   UNL A   1      39.592  34.384  37.612  1.00  0.00     0.034 A 
BRANCH  52  66
ATOM     66  C   UNL A   1      36.427  33.913  32.281  1.00  0.00     0.023 A 
ATOM     67  C   UNL A   1      35.517  34.972  32.105  1.00  0.00     0.031 A 
ATOM     68  C   UNL A   1      36.046  32.640  31.823  1.00  0.00     0.131 A 
ATOM     69  C   UNL A   1      34.243  34.724  31.571  1.00  0.00     0.055 A 
ATOM     70  C   UNL A   1      34.812  32.419  31.207  1.00  0.00     0.041 A 
ATOM     71  F   UNL A   1      36.858  31.583  31.985  1.00  0.00    -0.206 F 
ATOM     72  C   UNL A   1      33.896  33.459  31.094  1.00  0.00     0.022 A 
BRANCH  69  73
ATOM     73  S   UNL A   1      32.996  36.037  31.660  1.00  0.00     0.124 S 
ATOM     74  O   UNL A   1      33.707  37.069  32.411  1.00  0.00    -0.237 OA
ATOM     75  O   UNL A   1      32.744  36.331  30.254  1.00  0.00    -0.237 OA
ATOM     76  O   UNL A   1      31.887  35.409  32.375  1.00  0.00    -0.744 OA
ENDBRANCH  69  73
ENDBRANCH  52  66
BRANCH  53  77
ATOM     77  C   UNL A   1      45.426  35.620  36.454  1.00  0.00     0.023 A 
ATOM     78  C   UNL A   1      46.338  34.587  36.723  1.00  0.00     0.031 A 
ATOM     79  C   UNL A   1      45.780  36.927  36.833  1.00  0.00     0.131 A 
ATOM     80  C   UNL A   1      47.533  34.866  37.404  1.00  0.00     0.055 A 
ATOM     81  C   UNL A   1      46.996  37.208  37.460  1.00  0.00     0.041 A 
ATOM     82  F   UNL A   1      44.950  37.953  36.591  1.00  0.00    -0.206 F 
ATOM     83  C   UNL A   1      47.873  36.172  37.763  1.00  0.00     0.022 A 
BRANCH  80  84
ATOM     84  S   UNL A   1      48.595  33.481  37.898  1.00  0.00     0.124 S 
ATOM     85  O   UNL A   1      47.746  32.334  37.599  1.00  0.00    -0.237 OA
ATOM     86  O   UNL A   1      49.755  33.666  37.032  1.00  0.00    -0.237 OA
ATOM     87  O   UNL A   1      48.835  33.727  39.319  1.00  0.00    -0.744 OA
ENDBRANCH  80  84
ENDBRANCH  53  77
BRANCH  65  88
ATOM     88  C   UNL A   1      39.111  34.156  39.024  1.00  0.00     0.023 A 
ATOM     89  C   UNL A   1      38.877  32.865  39.528  1.00  0.00     0.031 A 
ATOM     90  C   UNL A   1      38.845  35.252  39.866  1.00  0.00     0.131 A 
ATOM     91  C   UNL A   1      38.312  32.705  40.801  1.00  0.00     0.055 A 
ATOM     92  C   UNL A   1      38.356  35.082  41.160  1.00  0.00     0.041 A 
ATOM     93  F   UNL A   1      39.050  36.509  39.438  1.00  0.00    -0.206 F 
ATOM     94  C   UNL A   1      38.067  33.803  41.627  1.00  0.00     0.022 A 
BRANCH  91  95
ATOM     95  S   UNL A   1      37.772  31.049  41.306  1.00  0.00     0.124 S 
ATOM     96  O   UNL A   1      39.000  30.486  41.861  1.00  0.00    -0.237 OA
ATOM     97  O   UNL A   1      36.716  31.345  42.269  1.00  0.00    -0.237 OA
ATOM     98  O   UNL A   1      37.321  30.440  40.057  1.00  0.00    -0.744 OA
ENDBRANCH  91  95
ENDBRANCH  65  88
ENDBRANCH  39  40
ENDBRANCH  31  34
ENDBRANCH  29  30
ENDBRANCH  28  29
ENDBRANCH   1  28
TORSDOF 21
ENDMDL
