MODEL 1
REMARK VINA RESULT:     -13.5      0.000      0.000
REMARK SMILES Cc1nc(-c2ccccc2Cl)nc2sc(C(=O)NCCCNC(=O)c3ccc(-c4c5nc(c(-c6cc(S(=O)(=O)[O-])ccc6F)c6ccc([nH]6)c(-c6cc(S(=O)(=O)[O-])ccc6F)c6nc(c(-c7cc(S(=O)(=O)[O-])ccc7F)c7ccc4[nH]7)C=C6)C=C5)cc3)c(N)c12
REMARK SMILES IDX 21 1 20 2 19 3 18 4 16 5 17 6 15 8 1 9 2 10 3 11 90 12 4 13
REMARK SMILES IDX 13 14 88 15 12 16 14 17 5 18 6 19 10 20 7 21 9 22 11 23 8 24
REMARK SMILES IDX 89 25 22 28 23 29 24 31 25 32 26 33 87 34 27 35 86 36 28 37
REMARK SMILES IDX 29 38 30 39 80 40 31 41 85 42 79 43 81 44 32 45 84 46 78 47
REMARK SMILES IDX 77 48 33 50 65 51 45 52 64 53 46 54 49 55 63 56 82 57 47 58
REMARK SMILES IDX 48 59 62 61 83 62 50 63 34 64 35 65 43 66 36 67 42 68 44 69
REMARK SMILES IDX 41 70 37 71 38 72 39 73 40 74 66 75 67 76 75 77 68 78 74 79
REMARK SMILES IDX 76 80 73 81 69 82 70 83 71 84 72 85 51 86 52 87 60 88 53 89
REMARK SMILES IDX 59 90 61 91 58 92 54 93 55 94 56 95 57 96
REMARK H PARENT 18 7 89 26 89 27 22 30 81 49 49 60
REMARK Flexibility Score: inf
ROOT
ATOM      1  C   UNL A   1      35.060  29.165  27.591  1.00  0.00     0.118 C 
ENDROOT
BRANCH   1   2
ATOM      2  C   UNL A   1      34.187  29.827  26.546  1.00  0.00     0.042 C 
BRANCH   2   3
ATOM      3  C   UNL A   1      32.690  29.746  26.884  1.00  0.00     0.118 C 
BRANCH   3   4
ATOM      4  N   UNL A   1      31.841  29.633  25.702  1.00  0.00    -0.351 N 
ATOM      5  C   UNL A   1      31.465  28.537  24.943  1.00  0.00     0.263 C 
ATOM      6  O   UNL A   1      30.550  28.731  24.137  1.00  0.00    -0.268 OA
ATOM      7  H   UNL A   1      31.468  30.488  25.388  1.00  0.00     0.163 HD
BRANCH   5   8
ATOM      8  C   UNL A   1      32.068  27.218  25.117  1.00  0.00     0.118 A 
ATOM      9  C   UNL A   1      31.354  23.066  27.118  1.00  0.00     0.067 C 
ATOM     10  C   UNL A   1      32.528  23.735  26.476  1.00  0.00     0.052 A 
ATOM     11  N   UNL A   1      33.708  23.037  26.480  1.00  0.00    -0.233 NA
ATOM     12  C   UNL A   1      32.501  25.018  25.887  1.00  0.00     0.056 A 
ATOM     13  C   UNL A   1      34.778  23.557  25.851  1.00  0.00     0.162 A 
ATOM     14  C   UNL A   1      33.661  25.368  25.225  1.00  0.00     0.130 A 
ATOM     15  C   UNL A   1      31.555  26.110  25.791  1.00  0.00     0.067 A 
ATOM     16  N   UNL A   1      34.811  24.702  25.180  1.00  0.00    -0.217 NA
ATOM     17  S   UNL A   1      33.518  26.781  24.341  1.00  0.00    -0.108 S 
BRANCH  13  18
ATOM     18  C   UNL A   1      36.059  22.861  25.871  1.00  0.00     0.038 A 
ATOM     19  C   UNL A   1      37.214  23.570  26.270  1.00  0.00     0.013 A 
ATOM     20  C   UNL A   1      36.226  21.579  25.329  1.00  0.00     0.052 A 
ATOM     21  C   UNL A   1      38.490  23.027  26.115  1.00  0.00     0.001 A 
ATOM     22  C   UNL A   1      37.507  21.036  25.172  1.00  0.00     0.021 A 
ATOM     23  Cl  UNL A   1      34.888  20.643  24.755  1.00  0.00    -0.084 Cl
ATOM     24  C   UNL A   1      38.636  21.762  25.556  1.00  0.00     0.002 A 
ENDBRANCH  13  18
BRANCH  15  25
ATOM     25  N   UNL A   1      30.321  26.111  26.344  1.00  0.00    -0.397 N 
ATOM     26  H   UNL A   1      29.970  25.292  26.763  1.00  0.00     0.156 HD
ATOM     27  H   UNL A   1      29.774  26.928  26.326  1.00  0.00     0.156 HD
ENDBRANCH  15  25
ENDBRANCH   5   8
ENDBRANCH   3   4
ENDBRANCH   2   3
ENDBRANCH   1   2
BRANCH   1  28
ATOM     28  N   UNL A   1      35.236  30.003  28.774  1.00  0.00    -0.352 N 
ATOM     29  C   UNL A   1      36.267  29.960  29.696  1.00  0.00     0.251 C 
ATOM     30  H   UNL A   1      34.539  30.679  28.934  1.00  0.00     0.163 HD
ATOM     31  O   UNL A   1      36.132  30.461  30.798  1.00  0.00    -0.269 OA
BRANCH  29  32
ATOM     32  C   UNL A   1      37.514  29.269  29.312  1.00  0.00     0.039 A 
ATOM     33  C   UNL A   1      38.200  29.625  28.149  1.00  0.00     0.014 A 
ATOM     34  C   UNL A   1      38.023  28.303  30.175  1.00  0.00     0.014 A 
ATOM     35  C   UNL A   1      39.457  29.071  27.910  1.00  0.00     0.010 A 
ATOM     36  C   UNL A   1      39.313  27.864  30.010  1.00  0.00     0.010 A 
ATOM     37  C   UNL A   1      40.025  28.211  28.861  1.00  0.00    -0.014 A 
BRANCH  37  38
ATOM     38  C   UNL A   1      41.409  27.750  28.730  1.00  0.00     0.031 A 
ATOM     39  C   UNL A   1      41.613  26.476  27.974  1.00  0.00     0.074 A 
ATOM     40  C   UNL A   1      42.458  28.551  29.017  1.00  0.00     0.049 A 
ATOM     41  N   UNL A   1      42.200  25.396  28.374  1.00  0.00    -0.248 NA
ATOM     42  C   UNL A   1      41.029  26.361  26.627  1.00  0.00     0.031 C 
ATOM     43  C   UNL A   1      42.432  29.941  29.484  1.00  0.00     0.029 A 
ATOM     44  N   UNL A   1      43.784  28.335  28.798  1.00  0.00    -0.354 N 
ATOM     45  C   UNL A   1      42.224  24.527  27.285  1.00  0.00     0.074 A 
ATOM     46  C   UNL A   1      41.370  25.117  26.285  1.00  0.00     0.031 C 
ATOM     47  C   UNL A   1      43.635  30.513  29.263  1.00  0.00     0.029 A 
ATOM     48  C   UNL A   1      44.558  29.492  28.807  1.00  0.00     0.049 A 
ATOM     49  H   UNL A   1      44.162  27.438  28.648  1.00  0.00     0.167 HD
ATOM     50  C   UNL A   1      43.081  23.468  27.215  1.00  0.00     0.034 A 
ATOM     51  C   UNL A   1      45.856  29.610  28.431  1.00  0.00     0.034 A 
ATOM     52  C   UNL A   1      43.676  23.181  28.494  1.00  0.00     0.049 A 
ATOM     53  C   UNL A   1      46.449  28.256  28.543  1.00  0.00     0.074 A 
ATOM     54  C   UNL A   1      43.181  22.812  29.728  1.00  0.00     0.029 A 
ATOM     55  N   UNL A   1      44.948  23.650  28.732  1.00  0.00    -0.354 N 
ATOM     56  N   UNL A   1      46.557  27.611  29.673  1.00  0.00    -0.248 NA
ATOM     57  C   UNL A   1      46.498  27.424  27.350  1.00  0.00     0.031 C 
ATOM     58  C   UNL A   1      43.956  23.555  30.668  1.00  0.00     0.029 A 
ATOM     59  C   UNL A   1      44.919  24.274  29.956  1.00  0.00     0.049 A 
ATOM     60  H   UNL A   1      45.728  23.557  28.139  1.00  0.00     0.167 HD
ATOM     61  C   UNL A   1      46.245  26.296  29.365  1.00  0.00     0.074 A 
ATOM     62  C   UNL A   1      46.329  26.221  27.908  1.00  0.00     0.031 C 
ATOM     63  C   UNL A   1      45.677  25.466  30.288  1.00  0.00     0.034 A 
BRANCH  50  64
ATOM     64  C   UNL A   1      43.598  22.850  25.941  1.00  0.00     0.023 A 
ATOM     65  C   UNL A   1      43.624  21.444  25.823  1.00  0.00     0.031 A 
ATOM     66  C   UNL A   1      44.299  23.568  24.948  1.00  0.00     0.131 A 
ATOM     67  C   UNL A   1      44.343  20.822  24.785  1.00  0.00     0.055 A 
ATOM     68  C   UNL A   1      44.959  22.949  23.884  1.00  0.00     0.041 A 
ATOM     69  F   UNL A   1      44.463  24.897  25.016  1.00  0.00    -0.206 F 
ATOM     70  C   UNL A   1      45.000  21.567  23.806  1.00  0.00     0.022 A 
BRANCH  67  71
ATOM     71  S   UNL A   1      44.523  19.016  24.802  1.00  0.00     0.124 S 
ATOM     72  O   UNL A   1      44.797  18.728  23.399  1.00  0.00    -0.237 OA
ATOM     73  O   UNL A   1      45.633  18.830  25.729  1.00  0.00    -0.237 OA
ATOM     74  O   UNL A   1      43.225  18.550  25.289  1.00  0.00    -0.744 OA
ENDBRANCH  67  71
ENDBRANCH  50  64
BRANCH  51  75
ATOM     75  C   UNL A   1      46.516  30.754  27.745  1.00  0.00     0.023 A 
ATOM     76  C   UNL A   1      45.799  31.634  26.909  1.00  0.00     0.031 A 
ATOM     77  C   UNL A   1      47.827  31.150  28.099  1.00  0.00     0.131 A 
ATOM     78  C   UNL A   1      46.384  32.845  26.473  1.00  0.00     0.055 A 
ATOM     79  C   UNL A   1      48.407  32.342  27.655  1.00  0.00     0.041 A 
ATOM     80  F   UNL A   1      48.562  30.435  28.965  1.00  0.00    -0.206 F 
ATOM     81  C   UNL A   1      47.681  33.202  26.849  1.00  0.00     0.022 A 
BRANCH  78  82
ATOM     82  S   UNL A   1      45.408  34.047  25.516  1.00  0.00     0.124 S 
ATOM     83  O   UNL A   1      44.632  33.179  24.638  1.00  0.00    -0.237 OA
ATOM     84  O   UNL A   1      44.663  34.751  26.554  1.00  0.00    -0.237 OA
ATOM     85  O   UNL A   1      46.430  34.852  24.845  1.00  0.00    -0.744 OA
ENDBRANCH  78  82
ENDBRANCH  51  75
BRANCH  63  86
ATOM     86  C   UNL A   1      45.620  25.920  31.734  1.00  0.00     0.023 A 
ATOM     87  C   UNL A   1      44.459  26.407  32.378  1.00  0.00     0.031 A 
ATOM     88  C   UNL A   1      46.758  25.692  32.525  1.00  0.00     0.131 A 
ATOM     89  C   UNL A   1      44.471  26.648  33.768  1.00  0.00     0.055 A 
ATOM     90  C   UNL A   1      46.761  25.912  33.902  1.00  0.00     0.041 A 
ATOM     91  F   UNL A   1      47.879  25.196  31.975  1.00  0.00    -0.206 F 
ATOM     92  C   UNL A   1      45.616  26.393  34.529  1.00  0.00     0.022 A 
BRANCH  89  93
ATOM     93  S   UNL A   1      42.982  27.272  34.615  1.00  0.00     0.124 S 
ATOM     94  O   UNL A   1      42.160  26.078  34.772  1.00  0.00    -0.237 OA
ATOM     95  O   UNL A   1      43.525  27.844  35.844  1.00  0.00    -0.237 OA
ATOM     96  O   UNL A   1      42.443  28.260  33.677  1.00  0.00    -0.744 OA
ENDBRANCH  89  93
ENDBRANCH  63  86
ENDBRANCH  37  38
ENDBRANCH  29  32
ENDBRANCH   1  28
TORSDOF 15
ENDMDL
MODEL 2
REMARK VINA RESULT:     -13.4      1.511      1.965
REMARK SMILES Cc1nc(-c2ccccc2Cl)nc2sc(C(=O)NCCCNC(=O)c3ccc(-c4c5nc(c(-c6cc(S(=O)(=O)[O-])ccc6F)c6ccc([nH]6)c(-c6cc(S(=O)(=O)[O-])ccc6F)c6nc(c(-c7cc(S(=O)(=O)[O-])ccc7F)c7ccc4[nH]7)C=C6)C=C5)cc3)c(N)c12
REMARK SMILES IDX 21 1 20 2 19 3 18 4 16 5 17 6 15 8 1 9 2 10 3 11 90 12 4 13
REMARK SMILES IDX 13 14 88 15 12 16 14 17 5 18 6 19 10 20 7 21 9 22 11 23 8 24
REMARK SMILES IDX 89 25 22 28 23 29 24 31 25 32 26 33 87 34 27 35 86 36 28 37
REMARK SMILES IDX 29 38 30 39 80 40 31 41 85 42 79 43 81 44 32 45 84 46 78 47
REMARK SMILES IDX 77 48 33 50 65 51 45 52 64 53 46 54 49 55 63 56 82 57 47 58
REMARK SMILES IDX 48 59 62 61 83 62 50 63 34 64 35 65 43 66 36 67 42 68 44 69
REMARK SMILES IDX 41 70 37 71 38 72 39 73 40 74 66 75 67 76 75 77 68 78 74 79
REMARK SMILES IDX 76 80 73 81 69 82 70 83 71 84 72 85 51 86 52 87 60 88 53 89
REMARK SMILES IDX 59 90 61 91 58 92 54 93 55 94 56 95 57 96
REMARK H PARENT 18 7 89 26 89 27 22 30 81 49 49 60
REMARK Flexibility Score: inf
ROOT
ATOM      1  C   UNL A   1      34.874  28.948  27.237  1.00  0.00     0.118 C 
ENDROOT
BRANCH   1   2
ATOM      2  C   UNL A   1      33.568  29.042  26.476  1.00  0.00     0.042 C 
BRANCH   2   3
ATOM      3  C   UNL A   1      33.392  27.906  25.456  1.00  0.00     0.118 C 
BRANCH   3   4
ATOM      4  N   UNL A   1      32.352  28.180  24.469  1.00  0.00    -0.351 N 
ATOM      5  C   UNL A   1      31.376  27.368  23.914  1.00  0.00     0.263 C 
ATOM      6  O   UNL A   1      30.495  27.950  23.273  1.00  0.00    -0.268 OA
ATOM      7  H   UNL A   1      32.341  29.107  24.138  1.00  0.00     0.163 HD
BRANCH   5   8
ATOM      8  C   UNL A   1      31.351  25.922  24.114  1.00  0.00     0.118 A 
ATOM      9  C   UNL A   1      29.836  22.626  27.046  1.00  0.00     0.067 C 
ATOM     10  C   UNL A   1      30.779  22.647  25.885  1.00  0.00     0.052 A 
ATOM     11  N   UNL A   1      31.407  21.466  25.585  1.00  0.00    -0.233 NA
ATOM     12  C   UNL A   1      31.064  23.785  25.099  1.00  0.00     0.056 A 
ATOM     13  C   UNL A   1      32.209  21.405  24.506  1.00  0.00     0.162 A 
ATOM     14  C   UNL A   1      31.848  23.533  23.990  1.00  0.00     0.130 A 
ATOM     15  C   UNL A   1      30.753  25.198  25.145  1.00  0.00     0.067 A 
ATOM     16  N   UNL A   1      32.446  22.394  23.652  1.00  0.00    -0.217 NA
ATOM     17  S   UNL A   1      31.971  24.841  22.955  1.00  0.00    -0.108 S 
BRANCH  13  18
ATOM     18  C   UNL A   1      32.925  20.177  24.182  1.00  0.00     0.038 A 
ATOM     19  C   UNL A   1      32.250  19.164  23.463  1.00  0.00     0.013 A 
ATOM     20  C   UNL A   1      34.185  19.880  24.716  1.00  0.00     0.052 A 
ATOM     21  C   UNL A   1      32.806  17.894  23.303  1.00  0.00     0.001 A 
ATOM     22  C   UNL A   1      34.741  18.604  24.556  1.00  0.00     0.021 A 
ATOM     23  Cl  UNL A   1      35.077  21.023  25.661  1.00  0.00    -0.084 Cl
ATOM     24  C   UNL A   1      34.049  17.613  23.859  1.00  0.00     0.002 A 
ENDBRANCH  13  18
BRANCH  15  25
ATOM     25  N   UNL A   1      30.017  25.793  26.111  1.00  0.00    -0.397 N 
ATOM     26  H   UNL A   1      30.455  26.369  26.777  1.00  0.00     0.156 HD
ATOM     27  H   UNL A   1      29.045  25.648  26.149  1.00  0.00     0.156 HD
ENDBRANCH  15  25
ENDBRANCH   5   8
ENDBRANCH   3   4
ENDBRANCH   2   3
ENDBRANCH   1   2
BRANCH   1  28
ATOM     28  N   UNL A   1      35.010  30.009  28.232  1.00  0.00    -0.352 N 
ATOM     29  C   UNL A   1      36.036  30.188  29.143  1.00  0.00     0.251 C 
ATOM     30  H   UNL A   1      34.287  30.675  28.256  1.00  0.00     0.163 HD
ATOM     31  O   UNL A   1      35.875  30.889  30.125  1.00  0.00    -0.269 OA
BRANCH  29  32
ATOM     32  C   UNL A   1      37.311  29.483  28.901  1.00  0.00     0.039 A 
ATOM     33  C   UNL A   1      38.088  29.777  27.779  1.00  0.00     0.014 A 
ATOM     34  C   UNL A   1      37.750  28.571  29.856  1.00  0.00     0.014 A 
ATOM     35  C   UNL A   1      39.361  29.218  27.675  1.00  0.00     0.010 A 
ATOM     36  C   UNL A   1      39.050  28.131  29.821  1.00  0.00     0.010 A 
ATOM     37  C   UNL A   1      39.852  28.417  28.716  1.00  0.00    -0.014 A 
BRANCH  37  38
ATOM     38  C   UNL A   1      41.242  27.958  28.723  1.00  0.00     0.031 A 
ATOM     39  C   UNL A   1      41.536  26.723  27.932  1.00  0.00     0.074 A 
ATOM     40  C   UNL A   1      42.250  28.739  29.171  1.00  0.00     0.049 A 
ATOM     41  N   UNL A   1      42.075  25.622  28.341  1.00  0.00    -0.248 NA
ATOM     42  C   UNL A   1      41.113  26.680  26.522  1.00  0.00     0.031 C 
ATOM     43  C   UNL A   1      42.166  30.104  29.703  1.00  0.00     0.029 A 
ATOM     44  N   UNL A   1      43.592  28.529  29.098  1.00  0.00    -0.354 N 
ATOM     45  C   UNL A   1      42.227  24.809  27.219  1.00  0.00     0.074 A 
ATOM     46  C   UNL A   1      41.494  25.453  26.159  1.00  0.00     0.031 C 
ATOM     47  C   UNL A   1      43.386  30.681  29.653  1.00  0.00     0.029 A 
ATOM     48  C   UNL A   1      44.358  29.680  29.256  1.00  0.00     0.049 A 
ATOM     49  H   UNL A   1      43.987  27.640  28.946  1.00  0.00     0.167 HD
ATOM     50  C   UNL A   1      43.088  23.752  27.196  1.00  0.00     0.034 A 
ATOM     51  C   UNL A   1      45.691  29.813  29.040  1.00  0.00     0.034 A 
ATOM     52  C   UNL A   1      43.531  23.398  28.519  1.00  0.00     0.049 A 
ATOM     53  C   UNL A   1      46.269  28.452  29.151  1.00  0.00     0.074 A 
ATOM     54  C   UNL A   1      42.896  22.968  29.667  1.00  0.00     0.029 A 
ATOM     55  N   UNL A   1      44.765  23.849  28.927  1.00  0.00    -0.354 N 
ATOM     56  N   UNL A   1      46.246  27.750  30.251  1.00  0.00    -0.248 NA
ATOM     57  C   UNL A   1      46.458  27.683  27.931  1.00  0.00     0.031 C 
ATOM     58  C   UNL A   1      43.554  23.659  30.727  1.00  0.00     0.029 A 
ATOM     59  C   UNL A   1      44.593  24.409  30.170  1.00  0.00     0.049 A 
ATOM     60  H   UNL A   1      45.609  23.783  28.425  1.00  0.00     0.167 HD
ATOM     61  C   UNL A   1      45.975  26.454  29.842  1.00  0.00     0.074 A 
ATOM     62  C   UNL A   1      46.228  26.453  28.403  1.00  0.00     0.031 C 
ATOM     63  C   UNL A   1      45.304  25.580  30.649  1.00  0.00     0.034 A 
BRANCH  50  64
ATOM     64  C   UNL A   1      43.751  23.198  25.961  1.00  0.00     0.023 A 
ATOM     65  C   UNL A   1      43.622  21.823  25.672  1.00  0.00     0.031 A 
ATOM     66  C   UNL A   1      44.711  23.903  25.201  1.00  0.00     0.131 A 
ATOM     67  C   UNL A   1      44.437  21.211  24.701  1.00  0.00     0.055 A 
ATOM     68  C   UNL A   1      45.473  23.305  24.196  1.00  0.00     0.041 A 
ATOM     69  F   UNL A   1      45.025  25.179  25.464  1.00  0.00    -0.206 F 
ATOM     70  C   UNL A   1      45.354  21.947  23.952  1.00  0.00     0.022 A 
BRANCH  67  71
ATOM     71  S   UNL A   1      44.381  19.406  24.520  1.00  0.00     0.124 S 
ATOM     72  O   UNL A   1      43.033  19.099  24.984  1.00  0.00    -0.237 OA
ATOM     73  O   UNL A   1      44.627  19.236  23.093  1.00  0.00    -0.237 OA
ATOM     74  O   UNL A   1      45.459  18.943  25.393  1.00  0.00    -0.744 OA
ENDBRANCH  67  71
ENDBRANCH  50  64
BRANCH  51  75
ATOM     75  C   UNL A   1      46.424  30.988  28.495  1.00  0.00     0.023 A 
ATOM     76  C   UNL A   1      45.916  31.749  27.423  1.00  0.00     0.031 A 
ATOM     77  C   UNL A   1      47.529  31.534  29.189  1.00  0.00     0.131 A 
ATOM     78  C   UNL A   1      46.498  32.994  27.089  1.00  0.00     0.055 A 
ATOM     79  C   UNL A   1      48.109  32.759  28.847  1.00  0.00     0.041 A 
ATOM     80  F   UNL A   1      48.030  30.940  30.282  1.00  0.00    -0.206 F 
ATOM     81  C   UNL A   1      47.586  33.502  27.802  1.00  0.00     0.022 A 
BRANCH  78  82
ATOM     82  S   UNL A   1      45.752  34.043  25.801  1.00  0.00     0.124 S 
ATOM     83  O   UNL A   1      46.929  34.590  25.136  1.00  0.00    -0.237 OA
ATOM     84  O   UNL A   1      44.959  33.089  25.033  1.00  0.00    -0.237 OA
ATOM     85  O   UNL A   1      44.969  35.011  26.568  1.00  0.00    -0.744 OA
ENDBRANCH  78  82
ENDBRANCH  51  75
BRANCH  63  86
ATOM     86  C   UNL A   1      45.078  25.960  32.100  1.00  0.00     0.023 A 
ATOM     87  C   UNL A   1      43.906  26.577  32.595  1.00  0.00     0.031 A 
ATOM     88  C   UNL A   1      46.032  25.525  33.034  1.00  0.00     0.131 A 
ATOM     89  C   UNL A   1      43.728  26.740  33.985  1.00  0.00     0.055 A 
ATOM     90  C   UNL A   1      45.844  25.668  34.408  1.00  0.00     0.041 A 
ATOM     91  F   UNL A   1      47.149  24.900  32.624  1.00  0.00    -0.206 F 
ATOM     92  C   UNL A   1      44.690  26.279  34.889  1.00  0.00     0.022 A 
BRANCH  89  93
ATOM     93  S   UNL A   1      42.222  27.530  34.642  1.00  0.00     0.124 S 
ATOM     94  O   UNL A   1      41.420  26.399  35.095  1.00  0.00    -0.237 OA
ATOM     95  O   UNL A   1      42.745  28.406  35.686  1.00  0.00    -0.237 OA
ATOM     96  O   UNL A   1      41.673  28.236  33.482  1.00  0.00    -0.744 OA
ENDBRANCH  89  93
ENDBRANCH  63  86
ENDBRANCH  37  38
ENDBRANCH  29  32
ENDBRANCH   1  28
TORSDOF 15
ENDMDL
MODEL 3
REMARK VINA RESULT:     -13.0      4.364     10.446
REMARK SMILES Cc1nc(-c2ccccc2Cl)nc2sc(C(=O)NCCCNC(=O)c3ccc(-c4c5nc(c(-c6cc(S(=O)(=O)[O-])ccc6F)c6ccc([nH]6)c(-c6cc(S(=O)(=O)[O-])ccc6F)c6nc(c(-c7cc(S(=O)(=O)[O-])ccc7F)c7ccc4[nH]7)C=C6)C=C5)cc3)c(N)c12
REMARK SMILES IDX 21 1 20 2 19 3 18 4 16 5 17 6 15 8 1 9 2 10 3 11 90 12 4 13
REMARK SMILES IDX 13 14 88 15 12 16 14 17 5 18 6 19 10 20 7 21 9 22 11 23 8 24
REMARK SMILES IDX 89 25 22 28 23 29 24 31 25 32 26 33 87 34 27 35 86 36 28 37
REMARK SMILES IDX 29 38 30 39 80 40 31 41 85 42 79 43 81 44 32 45 84 46 78 47
REMARK SMILES IDX 77 48 33 50 65 51 45 52 64 53 46 54 49 55 63 56 82 57 47 58
REMARK SMILES IDX 48 59 62 61 83 62 50 63 34 64 35 65 43 66 36 67 42 68 44 69
REMARK SMILES IDX 41 70 37 71 38 72 39 73 40 74 66 75 67 76 75 77 68 78 74 79
REMARK SMILES IDX 76 80 73 81 69 82 70 83 71 84 72 85 51 86 52 87 60 88 53 89
REMARK SMILES IDX 59 90 61 91 58 92 54 93 55 94 56 95 57 96
REMARK H PARENT 18 7 89 26 89 27 22 30 81 49 49 60
REMARK Flexibility Score: inf
ROOT
ATOM      1  C   UNL A   1      37.539  24.242  26.130  1.00  0.00     0.118 C 
ENDROOT
BRANCH   1   2
ATOM      2  C   UNL A   1      36.580  23.167  25.661  1.00  0.00     0.042 C 
BRANCH   2   3
ATOM      3  C   UNL A   1      35.110  23.522  25.938  1.00  0.00     0.118 C 
BRANCH   3   4
ATOM      4  N   UNL A   1      34.211  22.379  25.807  1.00  0.00    -0.351 N 
ATOM      5  C   UNL A   1      33.051  22.203  25.071  1.00  0.00     0.263 C 
ATOM      6  O   UNL A   1      32.640  21.041  24.988  1.00  0.00    -0.268 OA
ATOM      7  H   UNL A   1      34.477  21.593  26.336  1.00  0.00     0.163 HD
BRANCH   5   8
ATOM      8  C   UNL A   1      32.381  23.305  24.387  1.00  0.00     0.118 A 
ATOM      9  C   UNL A   1      32.390  25.732  20.403  1.00  0.00     0.067 C 
ATOM     10  C   UNL A   1      31.750  25.913  21.743  1.00  0.00     0.052 A 
ATOM     11  N   UNL A   1      31.015  27.057  21.920  1.00  0.00    -0.233 NA
ATOM     12  C   UNL A   1      31.859  25.004  22.818  1.00  0.00     0.056 A 
ATOM     13  C   UNL A   1      30.354  27.238  23.078  1.00  0.00     0.162 A 
ATOM     14  C   UNL A   1      31.062  25.305  23.905  1.00  0.00     0.130 A 
ATOM     15  C   UNL A   1      32.613  23.802  23.105  1.00  0.00     0.067 A 
ATOM     16  N   UNL A   1      30.313  26.388  24.097  1.00  0.00    -0.217 NA
ATOM     17  S   UNL A   1      31.031  24.094  25.059  1.00  0.00    -0.108 S 
BRANCH  13  18
ATOM     18  C   UNL A   1      29.597  28.462  23.316  1.00  0.00     0.038 A 
ATOM     19  C   UNL A   1      28.296  28.573  22.777  1.00  0.00     0.013 A 
ATOM     20  C   UNL A   1      30.174  29.602  23.890  1.00  0.00     0.052 A 
ATOM     21  C   UNL A   1      27.605  29.786  22.791  1.00  0.00     0.001 A 
ATOM     22  C   UNL A   1      29.480  30.819  23.902  1.00  0.00     0.021 A 
ATOM     23  Cl  UNL A   1      31.782  29.596  24.530  1.00  0.00    -0.084 Cl
ATOM     24  C   UNL A   1      28.203  30.912  23.347  1.00  0.00     0.002 A 
ENDBRANCH  13  18
BRANCH  15  25
ATOM     25  N   UNL A   1      33.506  23.234  22.263  1.00  0.00    -0.397 N 
ATOM     26  H   UNL A   1      34.254  22.707  22.623  1.00  0.00     0.156 HD
ATOM     27  H   UNL A   1      33.408  23.351  21.291  1.00  0.00     0.156 HD
ENDBRANCH  15  25
ENDBRANCH   5   8
ENDBRANCH   3   4
ENDBRANCH   2   3
ENDBRANCH   1   2
BRANCH   1  28
ATOM     28  N   UNL A   1      38.921  23.769  26.167  1.00  0.00    -0.352 N 
ATOM     29  C   UNL A   1      40.042  24.466  26.579  1.00  0.00     0.251 C 
ATOM     30  H   UNL A   1      39.071  22.845  25.862  1.00  0.00     0.163 HD
ATOM     31  O   UNL A   1      41.155  24.097  26.250  1.00  0.00    -0.269 OA
BRANCH  29  32
ATOM     32  C   UNL A   1      39.845  25.676  27.402  1.00  0.00     0.039 A 
ATOM     33  C   UNL A   1      39.315  25.586  28.691  1.00  0.00     0.014 A 
ATOM     34  C   UNL A   1      40.266  26.898  26.886  1.00  0.00     0.014 A 
ATOM     35  C   UNL A   1      39.304  26.723  29.497  1.00  0.00     0.010 A 
ATOM     36  C   UNL A   1      40.380  27.981  27.723  1.00  0.00     0.010 A 
ATOM     37  C   UNL A   1      39.866  27.916  29.019  1.00  0.00    -0.014 A 
BRANCH  37  38
ATOM     38  C   UNL A   1      40.030  29.077  29.895  1.00  0.00     0.031 A 
ATOM     39  C   UNL A   1      38.805  29.900  30.139  1.00  0.00     0.074 A 
ATOM     40  C   UNL A   1      41.130  29.244  30.661  1.00  0.00     0.049 A 
ATOM     41  N   UNL A   1      38.638  31.164  29.929  1.00  0.00    -0.248 NA
ATOM     42  C   UNL A   1      37.588  29.218  30.611  1.00  0.00     0.031 C 
ATOM     43  C   UNL A   1      42.299  28.364  30.766  1.00  0.00     0.029 A 
ATOM     44  N   UNL A   1      41.363  30.167  31.633  1.00  0.00    -0.354 N 
ATOM     45  C   UNL A   1      37.366  31.483  30.401  1.00  0.00     0.074 A 
ATOM     46  C   UNL A   1      36.718  30.227  30.680  1.00  0.00     0.031 C 
ATOM     47  C   UNL A   1      42.971  28.642  31.904  1.00  0.00     0.029 A 
ATOM     48  C   UNL A   1      42.387  29.823  32.511  1.00  0.00     0.049 A 
ATOM     49  H   UNL A   1      40.853  31.006  31.708  1.00  0.00     0.167 HD
ATOM     50  C   UNL A   1      36.997  32.763  30.694  1.00  0.00     0.034 A 
ATOM     51  C   UNL A   1      42.709  30.441  33.675  1.00  0.00     0.034 A 
ATOM     52  C   UNL A   1      37.923  33.722  30.151  1.00  0.00     0.049 A 
ATOM     53  C   UNL A   1      42.178  31.822  33.576  1.00  0.00     0.074 A 
ATOM     54  C   UNL A   1      38.344  34.041  28.875  1.00  0.00     0.029 A 
ATOM     55  N   UNL A   1      38.871  34.252  30.995  1.00  0.00    -0.354 N 
ATOM     56  N   UNL A   1      42.591  32.688  32.691  1.00  0.00    -0.248 NA
ATOM     57  C   UNL A   1      40.868  32.099  34.146  1.00  0.00     0.031 C 
ATOM     58  C   UNL A   1      39.746  34.270  29.001  1.00  0.00     0.029 A 
ATOM     59  C   UNL A   1      40.081  34.147  30.352  1.00  0.00     0.049 A 
ATOM     60  H   UNL A   1      38.712  34.633  31.888  1.00  0.00     0.167 HD
ATOM     61  C   UNL A   1      41.446  33.348  32.275  1.00  0.00     0.074 A 
ATOM     62  C   UNL A   1      40.439  33.024  33.283  1.00  0.00     0.031 C 
ATOM     63  C   UNL A   1      41.340  33.862  31.014  1.00  0.00     0.034 A 
BRANCH  50  64
ATOM     64  C   UNL A   1      35.946  33.157  31.701  1.00  0.00     0.023 A 
ATOM     65  C   UNL A   1      34.849  33.936  31.278  1.00  0.00     0.031 A 
ATOM     66  C   UNL A   1      36.107  33.019  33.098  1.00  0.00     0.131 A 
ATOM     67  C   UNL A   1      34.001  34.555  32.216  1.00  0.00     0.055 A 
ATOM     68  C   UNL A   1      35.226  33.583  34.024  1.00  0.00     0.041 A 
ATOM     69  F   UNL A   1      37.178  32.417  33.633  1.00  0.00    -0.206 F 
ATOM     70  C   UNL A   1      34.175  34.372  33.587  1.00  0.00     0.022 A 
BRANCH  67  71
ATOM     71  S   UNL A   1      32.739  35.717  31.625  1.00  0.00     0.124 S 
ATOM     72  O   UNL A   1      33.405  37.001  31.804  1.00  0.00    -0.237 OA
ATOM     73  O   UNL A   1      32.542  35.279  30.248  1.00  0.00    -0.237 OA
ATOM     74  O   UNL A   1      31.607  35.474  32.519  1.00  0.00    -0.744 OA
ENDBRANCH  67  71
ENDBRANCH  50  64
BRANCH  51  75
ATOM     75  C   UNL A   1      43.206  29.829  34.937  1.00  0.00     0.023 A 
ATOM     76  C   UNL A   1      42.572  28.715  35.523  1.00  0.00     0.031 A 
ATOM     77  C   UNL A   1      44.472  30.181  35.460  1.00  0.00     0.131 A 
ATOM     78  C   UNL A   1      43.199  28.003  36.572  1.00  0.00     0.055 A 
ATOM     79  C   UNL A   1      45.083  29.482  36.506  1.00  0.00     0.041 A 
ATOM     80  F   UNL A   1      45.204  31.164  34.915  1.00  0.00    -0.206 F 
ATOM     81  C   UNL A   1      44.453  28.379  37.058  1.00  0.00     0.022 A 
BRANCH  78  82
ATOM     82  S   UNL A   1      42.447  26.480  37.229  1.00  0.00     0.124 S 
ATOM     83  O   UNL A   1      42.799  25.502  36.205  1.00  0.00    -0.237 OA
ATOM     84  O   UNL A   1      43.107  26.331  38.521  1.00  0.00    -0.237 OA
ATOM     85  O   UNL A   1      41.025  26.812  37.304  1.00  0.00    -0.744 OA
ENDBRANCH  78  82
ENDBRANCH  51  75
BRANCH  63  86
ATOM     86  C   UNL A   1      42.586  33.926  30.151  1.00  0.00     0.023 A 
ATOM     87  C   UNL A   1      42.991  32.915  29.248  1.00  0.00     0.031 A 
ATOM     88  C   UNL A   1      43.293  35.139  30.133  1.00  0.00     0.131 A 
ATOM     89  C   UNL A   1      44.073  33.143  28.373  1.00  0.00     0.055 A 
ATOM     90  C   UNL A   1      44.350  35.369  29.252  1.00  0.00     0.041 A 
ATOM     91  F   UNL A   1      42.932  36.148  30.942  1.00  0.00    -0.206 F 
ATOM     92  C   UNL A   1      44.745  34.369  28.369  1.00  0.00     0.022 A 
BRANCH  89  93
ATOM     93  S   UNL A   1      44.607  31.852  27.201  1.00  0.00     0.124 S 
ATOM     94  O   UNL A   1      46.060  31.864  27.327  1.00  0.00    -0.237 OA
ATOM     95  O   UNL A   1      43.929  30.660  27.701  1.00  0.00    -0.237 OA
ATOM     96  O   UNL A   1      44.106  32.334  25.911  1.00  0.00    -0.744 OA
ENDBRANCH  89  93
ENDBRANCH  63  86
ENDBRANCH  37  38
ENDBRANCH  29  32
ENDBRANCH   1  28
TORSDOF 15
ENDMDL
