MODEL 1
REMARK VINA RESULT:     -12.7      0.000      0.000
REMARK SMILES CCn1ccc(NC(=O)[C@H]2[C@@H](C(=O)NCCCNC(=O)c3ccc(-c4c5nc(c(-c6cc(S(=O)(=O)[O-])ccc6F)c6ccc([nH]6)c(-c6cc(S(=O)(=O)[O-])ccc6F)c6nc(c(-c7cc(S(=O)(=O)[O-])ccc7F)c7ccc4[nH]7)C=C6)C=C5)cc3)[C@H]3C=C[C@@H]2C3)n1
REMARK SMILES IDX 16 1 15 2 14 3 12 4 13 5 11 7 10 8 87 9 84 10 86 11 88 12
REMARK SMILES IDX 85 13 8 14 7 15 9 17 6 18 3 19 4 20 89 21 5 22 2 23 1 24
REMARK SMILES IDX 17 25 18 26 19 27 20 29 21 30 22 31 83 32 23 33 82 34 24 35
REMARK SMILES IDX 25 36 26 37 76 38 27 39 81 40 75 41 77 42 28 43 80 44 74 45
REMARK SMILES IDX 73 46 29 48 61 49 41 50 60 51 42 52 45 53 59 54 78 55 43 56
REMARK SMILES IDX 44 57 58 59 79 60 46 61 30 62 31 63 39 64 32 65 38 66 40 67
REMARK SMILES IDX 37 68 33 69 34 70 35 71 36 72 62 73 63 74 71 75 64 76 70 77
REMARK SMILES IDX 72 78 69 79 65 80 66 81 67 82 68 83 47 84 48 85 56 86 49 87
REMARK SMILES IDX 55 88 57 89 54 90 50 91 51 92 52 93 53 94
REMARK H PARENT 14 6 7 16 18 28 77 47 45 58
REMARK Flexibility Score: inf
ROOT
ATOM      1  C   UNL A   1      33.736  28.804  27.205  1.00  0.00     0.042 C 
ENDROOT
BRANCH   1   2
ATOM      2  C   UNL A   1      33.490  27.732  26.145  1.00  0.00     0.117 C 
BRANCH   2   3
ATOM      3  N   UNL A   1      32.563  26.683  26.545  1.00  0.00    -0.356 N 
ATOM      4  C   UNL A   1      32.516  25.341  26.334  1.00  0.00     0.224 C 
ATOM      5  O   UNL A   1      31.635  24.727  26.953  1.00  0.00    -0.275 OA
ATOM      6  H   UNL A   1      31.808  27.017  27.083  1.00  0.00     0.163 HD
BRANCH   4   7
ATOM      7  C   UNL A   1      33.350  24.546  25.317  1.00  0.00     0.098 C 
ATOM      8  C   UNL A   1      32.843  23.256  24.585  1.00  0.00     0.099 C 
ATOM      9  C   UNL A   1      33.884  22.209  25.087  1.00  0.00     0.025 C 
ATOM     10  C   UNL A   1      34.728  24.116  25.899  1.00  0.00     0.025 C 
ATOM     11  C   UNL A   1      33.976  22.066  26.586  1.00  0.00    -0.027 C 
ATOM     12  C   UNL A   1      35.168  23.047  24.898  1.00  0.00     0.017 C 
ATOM     13  C   UNL A   1      34.526  23.192  27.065  1.00  0.00    -0.027 C 
BRANCH   8  14
ATOM     14  C   UNL A   1      31.326  23.096  24.583  1.00  0.00     0.230 C 
ATOM     15  N   UNL A   1      30.502  23.847  23.818  1.00  0.00    -0.309 N 
ATOM     16  H   UNL A   1      29.629  23.433  23.633  1.00  0.00     0.171 HD
ATOM     17  O   UNL A   1      30.792  22.259  25.319  1.00  0.00    -0.274 OA
BRANCH  15  18
ATOM     18  C   UNL A   1      30.671  25.078  23.259  1.00  0.00     0.154 A 
ATOM     19  N   UNL A   1      30.346  27.145  22.983  1.00  0.00    -0.271 N 
ATOM     20  C   UNL A   1      31.297  26.827  22.061  1.00  0.00     0.111 A 
ATOM     21  N   UNL A   1      29.968  26.102  23.739  1.00  0.00    -0.155 NA
ATOM     22  C   UNL A   1      31.581  25.499  22.269  1.00  0.00     0.068 A 
BRANCH  19  23
ATOM     23  C   UNL A   1      29.837  28.470  23.273  1.00  0.00     0.141 C 
ATOM     24  C   UNL A   1      30.845  29.272  24.075  1.00  0.00     0.029 C 
ENDBRANCH  19  23
ENDBRANCH  15  18
ENDBRANCH   8  14
ENDBRANCH   4   7
ENDBRANCH   2   3
ENDBRANCH   1   2
BRANCH   1  25
ATOM     25  C   UNL A   1      35.200  29.122  27.389  1.00  0.00     0.118 C 
BRANCH  25  26
ATOM     26  N   UNL A   1      35.473  29.873  28.615  1.00  0.00    -0.352 N 
ATOM     27  C   UNL A   1      36.572  29.719  29.452  1.00  0.00     0.251 C 
ATOM     28  H   UNL A   1      34.812  30.555  28.872  1.00  0.00     0.163 HD
ATOM     29  O   UNL A   1      36.558  30.112  30.596  1.00  0.00    -0.269 OA
BRANCH  27  30
ATOM     30  C   UNL A   1      37.740  29.020  28.878  1.00  0.00     0.039 A 
ATOM     31  C   UNL A   1      38.414  29.538  27.774  1.00  0.00     0.014 A 
ATOM     32  C   UNL A   1      38.253  27.950  29.602  1.00  0.00     0.014 A 
ATOM     33  C   UNL A   1      39.684  29.042  27.481  1.00  0.00     0.010 A 
ATOM     34  C   UNL A   1      39.570  27.598  29.422  1.00  0.00     0.010 A 
ATOM     35  C   UNL A   1      40.288  28.106  28.342  1.00  0.00    -0.014 A 
BRANCH  35  36
ATOM     36  C   UNL A   1      41.702  27.751  28.187  1.00  0.00     0.031 A 
ATOM     37  C   UNL A   1      41.977  26.496  27.433  1.00  0.00     0.074 A 
ATOM     38  C   UNL A   1      42.735  28.551  28.533  1.00  0.00     0.049 A 
ATOM     39  N   UNL A   1      42.382  25.372  27.922  1.00  0.00    -0.248 NA
ATOM     40  C   UNL A   1      41.639  26.428  26.004  1.00  0.00     0.031 C 
ATOM     41  C   UNL A   1      42.699  29.923  29.048  1.00  0.00     0.029 A 
ATOM     42  N   UNL A   1      44.071  28.324  28.393  1.00  0.00    -0.354 N 
ATOM     43  C   UNL A   1      42.596  24.526  26.839  1.00  0.00     0.074 A 
ATOM     44  C   UNL A   1      41.935  25.154  25.724  1.00  0.00     0.031 C 
ATOM     45  C   UNL A   1      43.921  30.485  28.937  1.00  0.00     0.029 A 
ATOM     46  C   UNL A   1      44.864  29.458  28.534  1.00  0.00     0.049 A 
ATOM     47  H   UNL A   1      44.446  27.432  28.208  1.00  0.00     0.167 HD
ATOM     48  C   UNL A   1      43.492  23.501  26.915  1.00  0.00     0.034 A 
ATOM     49  C   UNL A   1      46.203  29.567  28.349  1.00  0.00     0.034 A 
ATOM     50  C   UNL A   1      43.869  23.245  28.292  1.00  0.00     0.049 A 
ATOM     51  C   UNL A   1      46.772  28.214  28.560  1.00  0.00     0.074 A 
ATOM     52  C   UNL A   1      43.168  22.956  29.448  1.00  0.00     0.029 A 
ATOM     53  N   UNL A   1      45.108  23.672  28.721  1.00  0.00    -0.354 N 
ATOM     54  N   UNL A   1      46.740  27.604  29.713  1.00  0.00    -0.248 NA
ATOM     55  C   UNL A   1      46.927  27.339  27.408  1.00  0.00     0.031 C 
ATOM     56  C   UNL A   1      43.806  23.732  30.463  1.00  0.00     0.029 A 
ATOM     57  C   UNL A   1      44.912  24.365  29.891  1.00  0.00     0.049 A 
ATOM     58  H   UNL A   1      45.970  23.511  28.274  1.00  0.00     0.167 HD
ATOM     59  C   UNL A   1      46.405  26.293  29.417  1.00  0.00     0.074 A 
ATOM     60  C   UNL A   1      46.652  26.163  27.981  1.00  0.00     0.031 C 
ATOM     61  C   UNL A   1      45.693  25.521  30.294  1.00  0.00     0.034 A 
BRANCH  48  62
ATOM     62  C   UNL A   1      44.311  22.960  25.760  1.00  0.00     0.023 A 
ATOM     63  C   UNL A   1      44.316  21.561  25.575  1.00  0.00     0.031 A 
ATOM     64  C   UNL A   1      45.292  23.674  25.037  1.00  0.00     0.131 A 
ATOM     65  C   UNL A   1      45.322  20.932  24.823  1.00  0.00     0.055 A 
ATOM     66  C   UNL A   1      46.248  23.047  24.229  1.00  0.00     0.041 A 
ATOM     67  F   UNL A   1      45.446  24.998  25.136  1.00  0.00    -0.206 F 
ATOM     68  C   UNL A   1      46.293  21.666  24.149  1.00  0.00     0.022 A 
BRANCH  65  69
ATOM     69  S   UNL A   1      45.459  19.128  24.916  1.00  0.00     0.124 S 
ATOM     70  O   UNL A   1      46.695  18.967  25.673  1.00  0.00    -0.237 OA
ATOM     71  O   UNL A   1      44.226  18.770  25.610  1.00  0.00    -0.237 OA
ATOM     72  O   UNL A   1      45.527  18.720  23.515  1.00  0.00    -0.744 OA
ENDBRANCH  65  69
ENDBRANCH  48  62
BRANCH  49  73
ATOM     73  C   UNL A   1      46.938  30.719  27.765  1.00  0.00     0.023 A 
ATOM     74  C   UNL A   1      46.306  31.729  27.015  1.00  0.00     0.031 A 
ATOM     75  C   UNL A   1      48.278  30.959  28.152  1.00  0.00     0.131 A 
ATOM     76  C   UNL A   1      47.005  32.914  26.687  1.00  0.00     0.055 A 
ATOM     77  C   UNL A   1      48.966  32.126  27.817  1.00  0.00     0.041 A 
ATOM     78  F   UNL A   1      48.939  30.101  28.945  1.00  0.00    -0.206 F 
ATOM     79  C   UNL A   1      48.326  33.116  27.091  1.00  0.00     0.022 A 
BRANCH  76  80
ATOM     80  S   UNL A   1      46.158  34.273  25.817  1.00  0.00     0.124 S 
ATOM     81  O   UNL A   1      45.161  33.562  25.025  1.00  0.00    -0.237 OA
ATOM     82  O   UNL A   1      45.653  35.086  26.917  1.00  0.00    -0.237 OA
ATOM     83  O   UNL A   1      47.227  34.899  25.038  1.00  0.00    -0.744 OA
ENDBRANCH  76  80
ENDBRANCH  49  73
BRANCH  61  84
ATOM     84  C   UNL A   1      45.514  26.015  31.720  1.00  0.00     0.023 A 
ATOM     85  C   UNL A   1      44.374  26.698  32.205  1.00  0.00     0.031 A 
ATOM     86  C   UNL A   1      46.508  25.675  32.657  1.00  0.00     0.131 A 
ATOM     87  C   UNL A   1      44.274  27.032  33.571  1.00  0.00     0.055 A 
ATOM     88  C   UNL A   1      46.395  25.985  34.012  1.00  0.00     0.041 A 
ATOM     89  F   UNL A   1      47.605  25.001  32.273  1.00  0.00    -0.206 F 
ATOM     90  C   UNL A   1      45.280  26.674  34.473  1.00  0.00     0.022 A 
BRANCH  87  91
ATOM     91  S   UNL A   1      42.843  27.971  34.199  1.00  0.00     0.124 S 
ATOM     92  O   UNL A   1      42.522  27.310  35.459  1.00  0.00    -0.237 OA
ATOM     93  O   UNL A   1      43.377  29.326  34.306  1.00  0.00    -0.237 OA
ATOM     94  O   UNL A   1      41.838  27.798  33.148  1.00  0.00    -0.744 OA
ENDBRANCH  87  91
ENDBRANCH  61  84
ENDBRANCH  35  36
ENDBRANCH  27  30
ENDBRANCH  25  26
ENDBRANCH   1  25
TORSDOF 16
ENDMDL
MODEL 2
REMARK VINA RESULT:     -12.5      1.483      1.832
REMARK SMILES CCn1ccc(NC(=O)[C@H]2[C@@H](C(=O)NCCCNC(=O)c3ccc(-c4c5nc(c(-c6cc(S(=O)(=O)[O-])ccc6F)c6ccc([nH]6)c(-c6cc(S(=O)(=O)[O-])ccc6F)c6nc(c(-c7cc(S(=O)(=O)[O-])ccc7F)c7ccc4[nH]7)C=C6)C=C5)cc3)[C@H]3C=C[C@@H]2C3)n1
REMARK SMILES IDX 16 1 15 2 14 3 12 4 13 5 11 7 10 8 87 9 84 10 86 11 88 12
REMARK SMILES IDX 85 13 8 14 7 15 9 17 6 18 3 19 4 20 89 21 5 22 2 23 1 24
REMARK SMILES IDX 17 25 18 26 19 27 20 29 21 30 22 31 83 32 23 33 82 34 24 35
REMARK SMILES IDX 25 36 26 37 76 38 27 39 81 40 75 41 77 42 28 43 80 44 74 45
REMARK SMILES IDX 73 46 29 48 61 49 41 50 60 51 42 52 45 53 59 54 78 55 43 56
REMARK SMILES IDX 44 57 58 59 79 60 46 61 30 62 31 63 39 64 32 65 38 66 40 67
REMARK SMILES IDX 37 68 33 69 34 70 35 71 36 72 62 73 63 74 71 75 64 76 70 77
REMARK SMILES IDX 72 78 69 79 65 80 66 81 67 82 68 83 47 84 48 85 56 86 49 87
REMARK SMILES IDX 55 88 57 89 54 90 50 91 51 92 52 93 53 94
REMARK H PARENT 14 6 7 16 18 28 77 47 45 58
REMARK Flexibility Score: inf
ROOT
ATOM      1  C   UNL A   1      33.749  29.219  26.853  1.00  0.00     0.042 C 
ENDROOT
BRANCH   1   2
ATOM      2  C   UNL A   1      33.381  28.175  25.801  1.00  0.00     0.117 C 
BRANCH   2   3
ATOM      3  N   UNL A   1      33.392  26.800  26.279  1.00  0.00    -0.356 N 
ATOM      4  C   UNL A   1      33.412  25.590  25.657  1.00  0.00     0.224 C 
ATOM      5  O   UNL A   1      33.559  24.606  26.396  1.00  0.00    -0.275 OA
ATOM      6  H   UNL A   1      33.382  26.730  27.261  1.00  0.00     0.163 HD
BRANCH   4   7
ATOM      7  C   UNL A   1      33.142  25.322  24.169  1.00  0.00     0.098 C 
ATOM      8  C   UNL A   1      31.861  24.600  23.626  1.00  0.00     0.099 C 
ATOM      9  C   UNL A   1      32.499  23.357  22.935  1.00  0.00     0.025 C 
ATOM     10  C   UNL A   1      34.310  24.547  23.492  1.00  0.00     0.025 C 
ATOM     11  C   UNL A   1      33.354  22.495  23.831  1.00  0.00    -0.027 C 
ATOM     12  C   UNL A   1      33.655  24.067  22.197  1.00  0.00     0.017 C 
ATOM     13  C   UNL A   1      34.460  23.193  24.125  1.00  0.00    -0.027 C 
BRANCH   8  14
ATOM     14  C   UNL A   1      30.690  24.592  24.604  1.00  0.00     0.230 C 
ATOM     15  N   UNL A   1      29.637  25.436  24.507  1.00  0.00    -0.309 N 
ATOM     16  H   UNL A   1      28.816  25.114  24.944  1.00  0.00     0.171 HD
ATOM     17  O   UNL A   1      30.681  23.798  25.551  1.00  0.00    -0.274 OA
BRANCH  15  18
ATOM     18  C   UNL A   1      29.517  26.654  23.910  1.00  0.00     0.154 A 
ATOM     19  N   UNL A   1      28.518  28.326  23.096  1.00  0.00    -0.271 N 
ATOM     20  C   UNL A   1      29.840  28.621  22.952  1.00  0.00     0.111 A 
ATOM     21  N   UNL A   1      28.297  27.147  23.697  1.00  0.00    -0.155 NA
ATOM     22  C   UNL A   1      30.514  27.579  23.542  1.00  0.00     0.068 A 
BRANCH  19  23
ATOM     23  C   UNL A   1      27.403  29.196  22.781  1.00  0.00     0.141 C 
ATOM     24  C   UNL A   1      27.686  30.619  23.226  1.00  0.00     0.029 C 
ENDBRANCH  19  23
ENDBRANCH  15  18
ENDBRANCH   8  14
ENDBRANCH   4   7
ENDBRANCH   2   3
ENDBRANCH   1   2
BRANCH   1  25
ATOM     25  C   UNL A   1      35.177  29.097  27.325  1.00  0.00     0.118 C 
BRANCH  25  26
ATOM     26  N   UNL A   1      35.455  29.894  28.519  1.00  0.00    -0.352 N 
ATOM     27  C   UNL A   1      36.551  29.764  29.365  1.00  0.00     0.251 C 
ATOM     28  H   UNL A   1      34.800  30.593  28.748  1.00  0.00     0.163 HD
ATOM     29  O   UNL A   1      36.539  30.203  30.492  1.00  0.00    -0.269 OA
BRANCH  27  30
ATOM     30  C   UNL A   1      37.714  29.031  28.822  1.00  0.00     0.039 A 
ATOM     31  C   UNL A   1      38.408  29.509  27.712  1.00  0.00     0.014 A 
ATOM     32  C   UNL A   1      38.201  27.972  29.579  1.00  0.00     0.014 A 
ATOM     33  C   UNL A   1      39.672  28.985  27.447  1.00  0.00     0.010 A 
ATOM     34  C   UNL A   1      39.514  27.595  29.422  1.00  0.00     0.010 A 
ATOM     35  C   UNL A   1      40.252  28.062  28.338  1.00  0.00    -0.014 A 
BRANCH  35  36
ATOM     36  C   UNL A   1      41.661  27.681  28.208  1.00  0.00     0.031 A 
ATOM     37  C   UNL A   1      41.928  26.442  27.425  1.00  0.00     0.074 A 
ATOM     38  C   UNL A   1      42.702  28.447  28.602  1.00  0.00     0.049 A 
ATOM     39  N   UNL A   1      42.296  25.295  27.892  1.00  0.00    -0.248 NA
ATOM     40  C   UNL A   1      41.625  26.420  25.987  1.00  0.00     0.031 C 
ATOM     41  C   UNL A   1      42.683  29.805  29.154  1.00  0.00     0.029 A 
ATOM     42  N   UNL A   1      44.036  28.194  28.488  1.00  0.00    -0.354 N 
ATOM     43  C   UNL A   1      42.519  24.475  26.791  1.00  0.00     0.074 A 
ATOM     44  C   UNL A   1      41.900  25.149  25.678  1.00  0.00     0.031 C 
ATOM     45  C   UNL A   1      43.919  30.342  29.089  1.00  0.00     0.029 A 
ATOM     46  C   UNL A   1      44.849  29.307  28.681  1.00  0.00     0.049 A 
ATOM     47  H   UNL A   1      44.396  27.300  28.287  1.00  0.00     0.167 HD
ATOM     48  C   UNL A   1      43.391  23.429  26.860  1.00  0.00     0.034 A 
ATOM     49  C   UNL A   1      46.195  29.390  28.532  1.00  0.00     0.034 A 
ATOM     50  C   UNL A   1      43.728  23.127  28.238  1.00  0.00     0.049 A 
ATOM     51  C   UNL A   1      46.728  28.020  28.718  1.00  0.00     0.074 A 
ATOM     52  C   UNL A   1      42.991  22.821  29.368  1.00  0.00     0.029 A 
ATOM     53  N   UNL A   1      44.964  23.513  28.709  1.00  0.00    -0.354 N 
ATOM     54  N   UNL A   1      46.655  27.379  29.852  1.00  0.00    -0.248 NA
ATOM     55  C   UNL A   1      46.894  27.175  27.546  1.00  0.00     0.031 C 
ATOM     56  C   UNL A   1      43.620  23.554  30.419  1.00  0.00     0.029 A 
ATOM     57  C   UNL A   1      44.754  24.178  29.893  1.00  0.00     0.049 A 
ATOM     58  H   UNL A   1      45.834  23.346  28.279  1.00  0.00     0.167 HD
ATOM     59  C   UNL A   1      46.299  26.084  29.511  1.00  0.00     0.074 A 
ATOM     60  C   UNL A   1      46.580  25.989  28.078  1.00  0.00     0.031 C 
ATOM     61  C   UNL A   1      45.549  25.305  30.348  1.00  0.00     0.034 A 
BRANCH  48  62
ATOM     62  C   UNL A   1      44.227  22.902  25.710  1.00  0.00     0.023 A 
ATOM     63  C   UNL A   1      44.243  21.505  25.514  1.00  0.00     0.031 A 
ATOM     64  C   UNL A   1      45.211  23.628  25.004  1.00  0.00     0.131 A 
ATOM     65  C   UNL A   1      45.263  20.889  24.770  1.00  0.00     0.055 A 
ATOM     66  C   UNL A   1      46.181  23.014  24.203  1.00  0.00     0.041 A 
ATOM     67  F   UNL A   1      45.356  24.952  25.116  1.00  0.00    -0.206 F 
ATOM     68  C   UNL A   1      46.236  21.634  24.113  1.00  0.00     0.022 A 
BRANCH  65  69
ATOM     69  S   UNL A   1      45.410  19.084  24.850  1.00  0.00     0.124 S 
ATOM     70  O   UNL A   1      45.728  18.756  23.465  1.00  0.00    -0.237 OA
ATOM     71  O   UNL A   1      46.489  18.915  25.818  1.00  0.00    -0.237 OA
ATOM     72  O   UNL A   1      44.090  18.656  25.307  1.00  0.00    -0.744 OA
ENDBRANCH  65  69
ENDBRANCH  48  62
BRANCH  49  73
ATOM     73  C   UNL A   1      46.969  30.542  27.999  1.00  0.00     0.023 A 
ATOM     74  C   UNL A   1      46.394  31.542  27.191  1.00  0.00     0.031 A 
ATOM     75  C   UNL A   1      48.271  30.793  28.491  1.00  0.00     0.131 A 
ATOM     76  C   UNL A   1      47.111  32.729  26.910  1.00  0.00     0.055 A 
ATOM     77  C   UNL A   1      48.979  31.962  28.203  1.00  0.00     0.041 A 
ATOM     78  F   UNL A   1      48.871  29.946  29.343  1.00  0.00    -0.206 F 
ATOM     79  C   UNL A   1      48.395  32.942  27.418  1.00  0.00     0.022 A 
BRANCH  76  80
ATOM     80  S   UNL A   1      46.331  34.075  25.962  1.00  0.00     0.124 S 
ATOM     81  O   UNL A   1      45.317  33.365  25.190  1.00  0.00    -0.237 OA
ATOM     82  O   UNL A   1      45.845  34.960  27.014  1.00  0.00    -0.237 OA
ATOM     83  O   UNL A   1      47.435  34.620  25.171  1.00  0.00    -0.744 OA
ENDBRANCH  76  80
ENDBRANCH  49  73
BRANCH  61  84
ATOM     84  C   UNL A   1      45.345  25.763  31.783  1.00  0.00     0.023 A 
ATOM     85  C   UNL A   1      46.256  25.543  32.842  1.00  0.00     0.031 A 
ATOM     86  C   UNL A   1      44.216  26.556  32.059  1.00  0.00     0.131 A 
ATOM     87  C   UNL A   1      46.008  26.089  34.118  1.00  0.00     0.055 A 
ATOM     88  C   UNL A   1      43.986  27.117  33.315  1.00  0.00     0.041 A 
ATOM     89  F   UNL A   1      43.322  26.831  31.094  1.00  0.00    -0.206 F 
ATOM     90  C   UNL A   1      44.879  26.878  34.353  1.00  0.00     0.022 A 
BRANCH  87  91
ATOM     91  S   UNL A   1      47.139  25.759  35.509  1.00  0.00     0.124 S 
ATOM     92  O   UNL A   1      47.356  24.318  35.443  1.00  0.00    -0.237 OA
ATOM     93  O   UNL A   1      48.292  26.595  35.183  1.00  0.00    -0.237 OA
ATOM     94  O   UNL A   1      46.378  26.207  36.677  1.00  0.00    -0.744 OA
ENDBRANCH  87  91
ENDBRANCH  61  84
ENDBRANCH  35  36
ENDBRANCH  27  30
ENDBRANCH  25  26
ENDBRANCH   1  25
TORSDOF 16
ENDMDL
MODEL 3
REMARK VINA RESULT:     -12.5      1.422      2.799
REMARK SMILES CCn1ccc(NC(=O)[C@H]2[C@@H](C(=O)NCCCNC(=O)c3ccc(-c4c5nc(c(-c6cc(S(=O)(=O)[O-])ccc6F)c6ccc([nH]6)c(-c6cc(S(=O)(=O)[O-])ccc6F)c6nc(c(-c7cc(S(=O)(=O)[O-])ccc7F)c7ccc4[nH]7)C=C6)C=C5)cc3)[C@H]3C=C[C@@H]2C3)n1
REMARK SMILES IDX 16 1 15 2 14 3 12 4 13 5 11 7 10 8 87 9 84 10 86 11 88 12
REMARK SMILES IDX 85 13 8 14 7 15 9 17 6 18 3 19 4 20 89 21 5 22 2 23 1 24
REMARK SMILES IDX 17 25 18 26 19 27 20 29 21 30 22 31 83 32 23 33 82 34 24 35
REMARK SMILES IDX 25 36 26 37 76 38 27 39 81 40 75 41 77 42 28 43 80 44 74 45
REMARK SMILES IDX 73 46 29 48 61 49 41 50 60 51 42 52 45 53 59 54 78 55 43 56
REMARK SMILES IDX 44 57 58 59 79 60 46 61 30 62 31 63 39 64 32 65 38 66 40 67
REMARK SMILES IDX 37 68 33 69 34 70 35 71 36 72 62 73 63 74 71 75 64 76 70 77
REMARK SMILES IDX 72 78 69 79 65 80 66 81 67 82 68 83 47 84 48 85 56 86 49 87
REMARK SMILES IDX 55 88 57 89 54 90 50 91 51 92 52 93 53 94
REMARK H PARENT 14 6 7 16 18 28 77 47 45 58
REMARK Flexibility Score: inf
ROOT
ATOM      1  C   UNL A   1      33.699  28.884  27.062  1.00  0.00     0.042 C 
ENDROOT
BRANCH   1   2
ATOM      2  C   UNL A   1      33.272  29.401  25.690  1.00  0.00     0.117 C 
BRANCH   2   3
ATOM      3  N   UNL A   1      33.767  28.621  24.565  1.00  0.00    -0.356 N 
ATOM      4  C   UNL A   1      33.307  27.520  23.911  1.00  0.00     0.224 C 
ATOM      5  O   UNL A   1      33.928  27.202  22.887  1.00  0.00    -0.275 OA
ATOM      6  H   UNL A   1      34.615  28.962  24.199  1.00  0.00     0.163 HD
BRANCH   4   7
ATOM      7  C   UNL A   1      32.193  26.575  24.385  1.00  0.00     0.098 C 
ATOM      8  C   UNL A   1      31.454  25.553  23.453  1.00  0.00     0.099 C 
ATOM      9  C   UNL A   1      29.988  26.074  23.557  1.00  0.00     0.025 C 
ATOM     10  C   UNL A   1      31.029  27.341  25.078  1.00  0.00     0.025 C 
ATOM     11  C   UNL A   1      29.792  27.517  23.161  1.00  0.00    -0.027 C 
ATOM     12  C   UNL A   1      29.922  26.286  25.085  1.00  0.00     0.017 C 
ATOM     13  C   UNL A   1      30.376  28.274  24.100  1.00  0.00    -0.027 C 
BRANCH   8  14
ATOM     14  C   UNL A   1      32.210  25.222  22.170  1.00  0.00     0.230 C 
ATOM     15  N   UNL A   1      33.102  24.209  22.075  1.00  0.00    -0.309 N 
ATOM     16  H   UNL A   1      33.243  23.876  21.160  1.00  0.00     0.171 HD
ATOM     17  O   UNL A   1      32.033  25.904  21.155  1.00  0.00    -0.274 OA
BRANCH  15  18
ATOM     18  C   UNL A   1      33.838  23.571  23.026  1.00  0.00     0.154 A 
ATOM     19  N   UNL A   1      35.579  22.812  23.948  1.00  0.00    -0.271 N 
ATOM     20  C   UNL A   1      34.573  22.477  24.802  1.00  0.00     0.111 A 
ATOM     21  N   UNL A   1      35.160  23.498  22.873  1.00  0.00    -0.155 NA
ATOM     22  C   UNL A   1      33.435  23.025  24.261  1.00  0.00     0.068 A 
BRANCH  19  23
ATOM     23  C   UNL A   1      36.996  22.604  24.164  1.00  0.00     0.141 C 
ATOM     24  C   UNL A   1      37.264  21.207  24.691  1.00  0.00     0.029 C 
ENDBRANCH  19  23
ENDBRANCH  15  18
ENDBRANCH   8  14
ENDBRANCH   4   7
ENDBRANCH   2   3
ENDBRANCH   1   2
BRANCH   1  25
ATOM     25  C   UNL A   1      35.171  29.077  27.330  1.00  0.00     0.118 C 
BRANCH  25  26
ATOM     26  N   UNL A   1      35.435  29.877  28.526  1.00  0.00    -0.352 N 
ATOM     27  C   UNL A   1      36.533  29.763  29.372  1.00  0.00     0.251 C 
ATOM     28  H   UNL A   1      34.768  30.563  28.756  1.00  0.00     0.163 HD
ATOM     29  O   UNL A   1      36.513  30.200  30.501  1.00  0.00    -0.269 OA
BRANCH  27  30
ATOM     30  C   UNL A   1      37.708  29.051  28.828  1.00  0.00     0.039 A 
ATOM     31  C   UNL A   1      38.409  29.556  27.734  1.00  0.00     0.014 A 
ATOM     32  C   UNL A   1      38.198  27.983  29.571  1.00  0.00     0.014 A 
ATOM     33  C   UNL A   1      39.681  29.049  27.472  1.00  0.00     0.010 A 
ATOM     34  C   UNL A   1      39.516  27.622  29.420  1.00  0.00     0.010 A 
ATOM     35  C   UNL A   1      40.260  28.116  28.353  1.00  0.00    -0.014 A 
BRANCH  35  36
ATOM     36  C   UNL A   1      41.674  27.750  28.230  1.00  0.00     0.031 A 
ATOM     37  C   UNL A   1      41.959  26.516  27.446  1.00  0.00     0.074 A 
ATOM     38  C   UNL A   1      42.705  28.527  28.633  1.00  0.00     0.049 A 
ATOM     39  N   UNL A   1      42.337  25.373  27.912  1.00  0.00    -0.248 NA
ATOM     40  C   UNL A   1      41.665  26.495  26.006  1.00  0.00     0.031 C 
ATOM     41  C   UNL A   1      42.667  29.883  29.188  1.00  0.00     0.029 A 
ATOM     42  N   UNL A   1      44.042  28.289  28.526  1.00  0.00    -0.354 N 
ATOM     43  C   UNL A   1      42.576  24.558  26.810  1.00  0.00     0.074 A 
ATOM     44  C   UNL A   1      41.957  25.228  25.695  1.00  0.00     0.031 C 
ATOM     45  C   UNL A   1      43.898  30.434  29.133  1.00  0.00     0.029 A 
ATOM     46  C   UNL A   1      44.841  29.410  28.727  1.00  0.00     0.049 A 
ATOM     47  H   UNL A   1      44.413  27.400  28.324  1.00  0.00     0.167 HD
ATOM     48  C   UNL A   1      43.459  23.521  26.881  1.00  0.00     0.034 A 
ATOM     49  C   UNL A   1      46.187  29.509  28.586  1.00  0.00     0.034 A 
ATOM     50  C   UNL A   1      43.791  23.219  28.260  1.00  0.00     0.049 A 
ATOM     51  C   UNL A   1      46.734  28.144  28.772  1.00  0.00     0.074 A 
ATOM     52  C   UNL A   1      43.051  22.902  29.384  1.00  0.00     0.029 A 
ATOM     53  N   UNL A   1      45.020  23.618  28.739  1.00  0.00    -0.354 N 
ATOM     54  N   UNL A   1      46.661  27.499  29.904  1.00  0.00    -0.248 NA
ATOM     55  C   UNL A   1      46.917  27.303  27.599  1.00  0.00     0.031 C 
ATOM     56  C   UNL A   1      43.665  23.639  30.442  1.00  0.00     0.029 A 
ATOM     57  C   UNL A   1      44.795  24.277  29.925  1.00  0.00     0.049 A 
ATOM     58  H   UNL A   1      45.894  23.461  28.315  1.00  0.00     0.167 HD
ATOM     59  C   UNL A   1      46.322  26.201  29.557  1.00  0.00     0.074 A 
ATOM     60  C   UNL A   1      46.612  26.113  28.126  1.00  0.00     0.031 C 
ATOM     61  C   UNL A   1      45.575  25.411  30.387  1.00  0.00     0.034 A 
BRANCH  48  62
ATOM     62  C   UNL A   1      44.308  23.007  25.735  1.00  0.00     0.023 A 
ATOM     63  C   UNL A   1      44.328  21.612  25.525  1.00  0.00     0.031 A 
ATOM     64  C   UNL A   1      45.299  23.741  25.047  1.00  0.00     0.131 A 
ATOM     65  C   UNL A   1      45.355  21.004  24.786  1.00  0.00     0.055 A 
ATOM     66  C   UNL A   1      46.277  23.136  24.250  1.00  0.00     0.041 A 
ATOM     67  F   UNL A   1      45.441  25.064  25.173  1.00  0.00    -0.206 F 
ATOM     68  C   UNL A   1      46.335  21.757  24.146  1.00  0.00     0.022 A 
BRANCH  65  69
ATOM     69  S   UNL A   1      45.504  19.199  24.849  1.00  0.00     0.124 S 
ATOM     70  O   UNL A   1      44.248  18.826  25.492  1.00  0.00    -0.237 OA
ATOM     71  O   UNL A   1      45.630  18.860  23.436  1.00  0.00    -0.237 OA
ATOM     72  O   UNL A   1      46.705  18.985  25.652  1.00  0.00    -0.744 OA
ENDBRANCH  65  69
ENDBRANCH  48  62
BRANCH  49  73
ATOM     73  C   UNL A   1      46.951  30.670  28.062  1.00  0.00     0.023 A 
ATOM     74  C   UNL A   1      46.381  31.644  27.220  1.00  0.00     0.031 A 
ATOM     75  C   UNL A   1      48.231  30.959  28.591  1.00  0.00     0.131 A 
ATOM     76  C   UNL A   1      47.080  32.844  26.945  1.00  0.00     0.055 A 
ATOM     77  C   UNL A   1      48.921  32.139  28.309  1.00  0.00     0.041 A 
ATOM     78  F   UNL A   1      48.821  30.138  29.476  1.00  0.00    -0.206 F 
ATOM     79  C   UNL A   1      48.341  33.094  27.491  1.00  0.00     0.022 A 
BRANCH  76  80
ATOM     80  S   UNL A   1      46.300  34.157  25.952  1.00  0.00     0.124 S 
ATOM     81  O   UNL A   1      45.232  33.437  25.266  1.00  0.00    -0.237 OA
ATOM     82  O   UNL A   1      45.888  35.118  26.968  1.00  0.00    -0.237 OA
ATOM     83  O   UNL A   1      47.385  34.619  25.084  1.00  0.00    -0.744 OA
ENDBRANCH  76  80
ENDBRANCH  49  73
BRANCH  61  84
ATOM     84  C   UNL A   1      45.357  25.862  31.822  1.00  0.00     0.023 A 
ATOM     85  C   UNL A   1      44.151  26.400  32.329  1.00  0.00     0.031 A 
ATOM     86  C   UNL A   1      46.396  25.631  32.743  1.00  0.00     0.131 A 
ATOM     87  C   UNL A   1      44.029  26.703  33.701  1.00  0.00     0.055 A 
ATOM     88  C   UNL A   1      46.264  25.908  34.104  1.00  0.00     0.041 A 
ATOM     89  F   UNL A   1      47.560  25.097  32.338  1.00  0.00    -0.206 F 
ATOM     90  C   UNL A   1      45.081  26.454  34.586  1.00  0.00     0.022 A 
BRANCH  87  91
ATOM     91  S   UNL A   1      42.505  27.457  34.357  1.00  0.00     0.124 S 
ATOM     92  O   UNL A   1      42.993  28.459  35.298  1.00  0.00    -0.237 OA
ATOM     93  O   UNL A   1      41.863  27.973  33.150  1.00  0.00    -0.237 OA
ATOM     94  O   UNL A   1      41.809  26.328  34.977  1.00  0.00    -0.744 OA
ENDBRANCH  87  91
ENDBRANCH  61  84
ENDBRANCH  35  36
ENDBRANCH  27  30
ENDBRANCH  25  26
ENDBRANCH   1  25
TORSDOF 16
ENDMDL
