MODEL 1
REMARK VINA RESULT:     -13.6      0.000      0.000
REMARK SMILES Cc1cc([N+](=O)[O-])ccc1NC(=O)[C@@H]1[C@@H](C(=O)NCCCNC(=O)c2ccc(-c3c4nc(c(-c5cc(S(=O)(=O)[O-])ccc5F)c5ccc([nH]5)c(-c5cc(S(=O)(=O)[O-])ccc5F)c5nc(c(-c6cc(S(=O)(=O)[O-])ccc6F)c6ccc3[nH]6)C=C5)C=C4)cc2)[C@H]2C=C[C@@H]1C2
REMARK SMILES IDX 20 1 19 2 18 3 16 4 17 5 15 7 14 8 91 9 88 10 90 11 92 12
REMARK SMILES IDX 89 13 12 14 11 15 13 17 10 18 1 19 2 20 3 21 4 22 9 23 8 24
REMARK SMILES IDX 5 25 6 26 7 27 21 28 22 29 23 30 24 32 25 33 26 34 87 35
REMARK SMILES IDX 27 36 86 37 28 38 29 39 30 40 80 41 31 42 85 43 79 44 81 45
REMARK SMILES IDX 32 46 84 47 78 48 77 49 33 51 65 52 45 53 64 54 46 55 49 56
REMARK SMILES IDX 63 57 82 58 47 59 48 60 62 62 83 63 50 64 34 65 35 66 43 67
REMARK SMILES IDX 36 68 42 69 44 70 41 71 37 72 38 73 39 74 40 75 66 76 67 77
REMARK SMILES IDX 75 78 68 79 74 80 76 81 73 82 69 83 70 84 71 85 72 86 51 87
REMARK SMILES IDX 52 88 60 89 53 90 59 91 61 92 58 93 54 94 55 95 56 96 57 97
REMARK H PARENT 18 6 11 16 22 31 81 50 49 61
REMARK Flexibility Score: inf
ROOT
ATOM      1  C   UNL A   1      33.211  31.263  27.392  1.00  0.00     0.042 C 
ENDROOT
BRANCH   1   2
ATOM      2  C   UNL A   1      32.437  30.439  26.384  1.00  0.00     0.117 C 
BRANCH   2   3
ATOM      3  N   UNL A   1      33.280  29.530  25.634  1.00  0.00    -0.356 N 
ATOM      4  C   UNL A   1      32.962  28.361  25.014  1.00  0.00     0.224 C 
ATOM      5  O   UNL A   1      33.876  27.671  24.554  1.00  0.00    -0.275 OA
ATOM      6  H   UNL A   1      34.224  29.797  25.563  1.00  0.00     0.163 HD
BRANCH   4   7
ATOM      7  C   UNL A   1      31.515  27.871  24.987  1.00  0.00     0.098 C 
ATOM      8  C   UNL A   1      31.460  26.318  24.681  1.00  0.00     0.099 C 
ATOM      9  C   UNL A   1      30.426  26.243  23.523  1.00  0.00     0.025 C 
ATOM     10  C   UNL A   1      30.626  28.433  23.843  1.00  0.00     0.025 C 
ATOM     11  C   UNL A   1      31.105  26.806  22.297  1.00  0.00    -0.027 C 
ATOM     12  C   UNL A   1      29.495  27.407  23.841  1.00  0.00     0.017 C 
ATOM     13  C   UNL A   1      31.244  28.122  22.501  1.00  0.00    -0.027 C 
BRANCH   8  14
ATOM     14  C   UNL A   1      31.070  25.438  25.856  1.00  0.00     0.228 C 
ATOM     15  N   UNL A   1      31.863  24.393  26.270  1.00  0.00    -0.326 N 
ATOM     16  H   UNL A   1      31.512  23.921  27.058  1.00  0.00     0.169 HD
ATOM     17  O   UNL A   1      29.998  25.586  26.451  1.00  0.00    -0.274 OA
BRANCH  15  18
ATOM     18  C   UNL A   1      33.080  23.865  25.786  1.00  0.00     0.044 A 
ATOM     19  C   UNL A   1      31.840  21.799  24.854  1.00  0.00     0.047 C 
ATOM     20  C   UNL A   1      33.057  22.673  25.028  1.00  0.00    -0.021 A 
ATOM     21  C   UNL A   1      34.237  22.244  24.381  1.00  0.00     0.091 A 
ATOM     22  C   UNL A   1      35.421  22.980  24.496  1.00  0.00     0.269 A 
ATOM     23  C   UNL A   1      34.310  24.504  25.988  1.00  0.00     0.033 A 
ATOM     24  C   UNL A   1      35.472  24.092  25.327  1.00  0.00     0.088 A 
BRANCH  22  25
ATOM     25  N   UNL A   1      36.608  22.582  23.732  1.00  0.00     0.062 N 
ATOM     26  O   UNL A   1      37.440  21.858  24.299  1.00  0.00    -0.258 OA
ATOM     27  O   UNL A   1      36.704  22.977  22.562  1.00  0.00    -0.258 OA
ENDBRANCH  22  25
ENDBRANCH  15  18
ENDBRANCH   8  14
ENDBRANCH   4   7
ENDBRANCH   2   3
ENDBRANCH   1   2
BRANCH   1  28
ATOM     28  C   UNL A   1      34.479  30.586  27.877  1.00  0.00     0.118 C 
BRANCH  28  29
ATOM     29  N   UNL A   1      35.155  31.340  28.937  1.00  0.00    -0.352 N 
ATOM     30  C   UNL A   1      36.291  31.002  29.659  1.00  0.00     0.251 C 
ATOM     31  H   UNL A   1      34.747  32.205  29.170  1.00  0.00     0.163 HD
ATOM     32  O   UNL A   1      36.774  31.743  30.495  1.00  0.00    -0.269 OA
BRANCH  30  33
ATOM     33  C   UNL A   1      36.984  29.747  29.289  1.00  0.00     0.039 A 
ATOM     34  C   UNL A   1      37.383  28.912  30.334  1.00  0.00     0.014 A 
ATOM     35  C   UNL A   1      37.520  29.610  28.014  1.00  0.00     0.014 A 
ATOM     36  C   UNL A   1      38.518  28.126  30.169  1.00  0.00     0.010 A 
ATOM     37  C   UNL A   1      38.717  28.929  27.888  1.00  0.00     0.010 A 
ATOM     38  C   UNL A   1      39.249  28.240  28.984  1.00  0.00    -0.014 A 
BRANCH  38  39
ATOM     39  C   UNL A   1      40.632  27.783  28.878  1.00  0.00     0.031 A 
ATOM     40  C   UNL A   1      40.930  26.422  28.393  1.00  0.00     0.074 A 
ATOM     41  C   UNL A   1      41.658  28.574  29.269  1.00  0.00     0.049 A 
ATOM     42  N   UNL A   1      41.885  25.687  28.858  1.00  0.00    -0.248 NA
ATOM     43  C   UNL A   1      40.140  25.763  27.360  1.00  0.00     0.031 C 
ATOM     44  C   UNL A   1      43.086  28.308  29.115  1.00  0.00     0.029 A 
ATOM     45  N   UNL A   1      41.600  29.680  30.116  1.00  0.00    -0.354 N 
ATOM     46  C   UNL A   1      42.006  24.601  28.026  1.00  0.00     0.074 A 
ATOM     47  C   UNL A   1      40.858  24.657  27.151  1.00  0.00     0.031 C 
ATOM     48  C   UNL A   1      43.760  29.021  30.031  1.00  0.00     0.029 A 
ATOM     49  C   UNL A   1      42.785  29.689  30.873  1.00  0.00     0.049 A 
ATOM     50  H   UNL A   1      40.865  30.333  30.172  1.00  0.00     0.167 HD
ATOM     51  C   UNL A   1      43.131  23.835  28.048  1.00  0.00     0.034 A 
ATOM     52  C   UNL A   1      42.754  29.663  32.236  1.00  0.00     0.034 A 
ATOM     53  C   UNL A   1      44.119  24.337  28.995  1.00  0.00     0.049 A 
ATOM     54  C   UNL A   1      43.429  28.443  32.825  1.00  0.00     0.074 A 
ATOM     55  C   UNL A   1      45.240  25.135  28.836  1.00  0.00     0.029 A 
ATOM     56  N   UNL A   1      43.861  24.286  30.360  1.00  0.00    -0.354 N 
ATOM     57  N   UNL A   1      43.782  27.397  32.130  1.00  0.00    -0.248 NA
ATOM     58  C   UNL A   1      43.735  28.290  34.246  1.00  0.00     0.031 C 
ATOM     59  C   UNL A   1      45.616  25.622  30.114  1.00  0.00     0.029 A 
ATOM     60  C   UNL A   1      44.748  25.090  31.051  1.00  0.00     0.049 A 
ATOM     61  H   UNL A   1      43.145  23.753  30.775  1.00  0.00     0.167 HD
ATOM     62  C   UNL A   1      44.297  26.436  32.965  1.00  0.00     0.074 A 
ATOM     63  C   UNL A   1      44.279  27.061  34.275  1.00  0.00     0.031 C 
ATOM     64  C   UNL A   1      44.674  25.205  32.502  1.00  0.00     0.034 A 
BRANCH  51  65
ATOM     65  C   UNL A   1      43.429  22.841  26.960  1.00  0.00     0.023 A 
ATOM     66  C   UNL A   1      42.875  21.548  27.018  1.00  0.00     0.031 A 
ATOM     67  C   UNL A   1      44.282  23.099  25.870  1.00  0.00     0.131 A 
ATOM     68  C   UNL A   1      43.251  20.554  26.097  1.00  0.00     0.055 A 
ATOM     69  C   UNL A   1      44.703  22.096  24.988  1.00  0.00     0.041 A 
ATOM     70  F   UNL A   1      44.732  24.339  25.619  1.00  0.00    -0.206 F 
ATOM     71  C   UNL A   1      44.197  20.810  25.108  1.00  0.00     0.022 A 
BRANCH  68  72
ATOM     72  S   UNL A   1      42.475  18.919  26.208  1.00  0.00     0.124 S 
ATOM     73  O   UNL A   1      43.302  18.119  25.309  1.00  0.00    -0.237 OA
ATOM     74  O   UNL A   1      42.593  18.618  27.631  1.00  0.00    -0.237 OA
ATOM     75  O   UNL A   1      41.110  19.158  25.741  1.00  0.00    -0.744 OA
ENDBRANCH  68  72
ENDBRANCH  51  65
BRANCH  52  76
ATOM     76  C   UNL A   1      41.574  30.381  32.803  1.00  0.00     0.023 A 
ATOM     77  C   UNL A   1      41.567  31.791  32.687  1.00  0.00     0.031 A 
ATOM     78  C   UNL A   1      40.354  29.740  33.050  1.00  0.00     0.131 A 
ATOM     79  C   UNL A   1      40.354  32.491  32.624  1.00  0.00     0.055 A 
ATOM     80  C   UNL A   1      39.150  30.458  33.078  1.00  0.00     0.041 A 
ATOM     81  F   UNL A   1      40.287  28.404  33.134  1.00  0.00    -0.206 F 
ATOM     82  C   UNL A   1      39.141  31.831  32.815  1.00  0.00     0.022 A 
BRANCH  79  83
ATOM     83  S   UNL A   1      40.373  34.195  31.982  1.00  0.00     0.124 S 
ATOM     84  O   UNL A   1      40.786  34.000  30.598  1.00  0.00    -0.237 OA
ATOM     85  O   UNL A   1      38.992  34.630  32.187  1.00  0.00    -0.237 OA
ATOM     86  O   UNL A   1      41.337  34.885  32.837  1.00  0.00    -0.744 OA
ENDBRANCH  79  83
ENDBRANCH  52  76
BRANCH  64  87
ATOM     87  C   UNL A   1      45.086  24.019  33.351  1.00  0.00     0.023 A 
ATOM     88  C   UNL A   1      46.348  23.893  33.948  1.00  0.00     0.031 A 
ATOM     89  C   UNL A   1      44.162  22.986  33.651  1.00  0.00     0.131 A 
ATOM     90  C   UNL A   1      46.678  22.763  34.720  1.00  0.00     0.055 A 
ATOM     91  C   UNL A   1      44.465  21.906  34.486  1.00  0.00     0.041 A 
ATOM     92  F   UNL A   1      42.917  22.982  33.149  1.00  0.00    -0.206 F 
ATOM     93  C   UNL A   1      45.738  21.779  35.014  1.00  0.00     0.022 A 
BRANCH  90  94
ATOM     94  S   UNL A   1      48.394  22.572  35.272  1.00  0.00     0.124 S 
ATOM     95  O   UNL A   1      48.823  21.397  34.519  1.00  0.00    -0.237 OA
ATOM     96  O   UNL A   1      48.997  23.838  34.870  1.00  0.00    -0.237 OA
ATOM     97  O   UNL A   1      48.273  22.373  36.715  1.00  0.00    -0.744 OA
ENDBRANCH  90  94
ENDBRANCH  64  87
ENDBRANCH  38  39
ENDBRANCH  30  33
ENDBRANCH  28  29
ENDBRANCH   1  28
TORSDOF 16
ENDMDL
MODEL 2
REMARK VINA RESULT:     -13.5      1.321      1.835
REMARK SMILES Cc1cc([N+](=O)[O-])ccc1NC(=O)[C@@H]1[C@@H](C(=O)NCCCNC(=O)c2ccc(-c3c4nc(c(-c5cc(S(=O)(=O)[O-])ccc5F)c5ccc([nH]5)c(-c5cc(S(=O)(=O)[O-])ccc5F)c5nc(c(-c6cc(S(=O)(=O)[O-])ccc6F)c6ccc3[nH]6)C=C5)C=C4)cc2)[C@H]2C=C[C@@H]1C2
REMARK SMILES IDX 20 1 19 2 18 3 16 4 17 5 15 7 14 8 91 9 88 10 90 11 92 12
REMARK SMILES IDX 89 13 12 14 11 15 13 17 10 18 1 19 2 20 3 21 4 22 9 23 8 24
REMARK SMILES IDX 5 25 6 26 7 27 21 28 22 29 23 30 24 32 25 33 26 34 87 35
REMARK SMILES IDX 27 36 86 37 28 38 29 39 30 40 80 41 31 42 85 43 79 44 81 45
REMARK SMILES IDX 32 46 84 47 78 48 77 49 33 51 65 52 45 53 64 54 46 55 49 56
REMARK SMILES IDX 63 57 82 58 47 59 48 60 62 62 83 63 50 64 34 65 35 66 43 67
REMARK SMILES IDX 36 68 42 69 44 70 41 71 37 72 38 73 39 74 40 75 66 76 67 77
REMARK SMILES IDX 75 78 68 79 74 80 76 81 73 82 69 83 70 84 71 85 72 86 51 87
REMARK SMILES IDX 52 88 60 89 53 90 59 91 61 92 58 93 54 94 55 95 56 96 57 97
REMARK H PARENT 18 6 11 16 22 31 81 50 49 61
REMARK Flexibility Score: inf
ROOT
ATOM      1  C   UNL A   1      33.340  31.298  27.225  1.00  0.00     0.042 C 
ENDROOT
BRANCH   1   2
ATOM      2  C   UNL A   1      32.036  30.593  26.912  1.00  0.00     0.117 C 
BRANCH   2   3
ATOM      3  N   UNL A   1      32.014  29.220  27.372  1.00  0.00    -0.356 N 
ATOM      4  C   UNL A   1      31.742  28.076  26.686  1.00  0.00     0.224 C 
ATOM      5  O   UNL A   1      31.637  27.021  27.318  1.00  0.00    -0.275 OA
ATOM      6  H   UNL A   1      32.226  29.095  28.325  1.00  0.00     0.163 HD
BRANCH   4   7
ATOM      7  C   UNL A   1      31.468  28.125  25.184  1.00  0.00     0.098 C 
ATOM      8  C   UNL A   1      31.525  26.670  24.561  1.00  0.00     0.099 C 
ATOM      9  C   UNL A   1      32.482  26.863  23.352  1.00  0.00     0.025 C 
ATOM     10  C   UNL A   1      32.530  28.862  24.321  1.00  0.00     0.025 C 
ATOM     11  C   UNL A   1      33.870  27.043  23.921  1.00  0.00    -0.027 C 
ATOM     12  C   UNL A   1      32.201  28.303  22.939  1.00  0.00     0.017 C 
ATOM     13  C   UNL A   1      33.890  28.239  24.522  1.00  0.00    -0.027 C 
BRANCH   8  14
ATOM     14  C   UNL A   1      30.185  26.089  24.144  1.00  0.00     0.228 C 
ATOM     15  N   UNL A   1      29.988  24.732  24.041  1.00  0.00    -0.326 N 
ATOM     16  H   UNL A   1      29.069  24.486  23.791  1.00  0.00     0.169 HD
ATOM     17  O   UNL A   1      29.235  26.811  23.825  1.00  0.00    -0.274 OA
BRANCH  15  18
ATOM     18  C   UNL A   1      30.843  23.624  24.221  1.00  0.00     0.044 A 
ATOM     19  C   UNL A   1      30.345  23.621  26.756  1.00  0.00     0.047 C 
ATOM     20  C   UNL A   1      30.942  23.035  25.501  1.00  0.00    -0.021 A 
ATOM     21  C   UNL A   1      31.641  21.816  25.648  1.00  0.00     0.091 A 
ATOM     22  C   UNL A   1      32.243  21.202  24.545  1.00  0.00     0.269 A 
ATOM     23  C   UNL A   1      31.568  23.053  23.167  1.00  0.00     0.033 A 
ATOM     24  C   UNL A   1      32.239  21.835  23.308  1.00  0.00     0.088 A 
BRANCH  22  25
ATOM     25  N   UNL A   1      32.872  19.886  24.692  1.00  0.00     0.062 N 
ATOM     26  O   UNL A   1      32.132  18.918  24.930  1.00  0.00    -0.258 OA
ATOM     27  O   UNL A   1      34.101  19.811  24.552  1.00  0.00    -0.258 OA
ENDBRANCH  22  25
ENDBRANCH  15  18
ENDBRANCH   8  14
ENDBRANCH   4   7
ENDBRANCH   2   3
ENDBRANCH   1   2
BRANCH   1  28
ATOM     28  C   UNL A   1      34.279  30.474  28.085  1.00  0.00     0.118 C 
BRANCH  28  29
ATOM     29  N   UNL A   1      35.001  31.284  29.071  1.00  0.00    -0.352 N 
ATOM     30  C   UNL A   1      36.202  31.012  29.710  1.00  0.00     0.251 C 
ATOM     31  H   UNL A   1      34.575  32.137  29.314  1.00  0.00     0.163 HD
ATOM     32  O   UNL A   1      36.716  31.795  30.488  1.00  0.00    -0.269 OA
BRANCH  30  33
ATOM     33  C   UNL A   1      36.918  29.777  29.318  1.00  0.00     0.039 A 
ATOM     34  C   UNL A   1      37.314  28.921  30.347  1.00  0.00     0.014 A 
ATOM     35  C   UNL A   1      37.473  29.681  28.047  1.00  0.00     0.014 A 
ATOM     36  C   UNL A   1      38.462  28.154  30.177  1.00  0.00     0.010 A 
ATOM     37  C   UNL A   1      38.681  29.019  27.921  1.00  0.00     0.010 A 
ATOM     38  C   UNL A   1      39.208  28.309  29.005  1.00  0.00    -0.014 A 
BRANCH  38  39
ATOM     39  C   UNL A   1      40.599  27.874  28.907  1.00  0.00     0.031 A 
ATOM     40  C   UNL A   1      40.922  26.528  28.398  1.00  0.00     0.074 A 
ATOM     41  C   UNL A   1      41.608  28.671  29.327  1.00  0.00     0.049 A 
ATOM     42  N   UNL A   1      41.882  25.798  28.859  1.00  0.00    -0.248 NA
ATOM     43  C   UNL A   1      40.154  25.880  27.341  1.00  0.00     0.031 C 
ATOM     44  C   UNL A   1      43.042  28.429  29.185  1.00  0.00     0.029 A 
ATOM     45  N   UNL A   1      41.524  29.758  30.196  1.00  0.00    -0.354 N 
ATOM     46  C   UNL A   1      42.028  24.731  28.006  1.00  0.00     0.074 A 
ATOM     47  C   UNL A   1      40.891  24.789  27.118  1.00  0.00     0.031 C 
ATOM     48  C   UNL A   1      43.694  29.133  30.124  1.00  0.00     0.029 A 
ATOM     49  C   UNL A   1      42.699  29.769  30.968  1.00  0.00     0.049 A 
ATOM     50  H   UNL A   1      40.780  30.400  30.257  1.00  0.00     0.167 HD
ATOM     51  C   UNL A   1      43.164  23.981  28.026  1.00  0.00     0.034 A 
ATOM     52  C   UNL A   1      42.652  29.714  32.329  1.00  0.00     0.034 A 
ATOM     53  C   UNL A   1      44.133  24.476  28.995  1.00  0.00     0.049 A 
ATOM     54  C   UNL A   1      43.338  28.491  32.902  1.00  0.00     0.074 A 
ATOM     55  C   UNL A   1      45.244  25.293  28.867  1.00  0.00     0.029 A 
ATOM     56  N   UNL A   1      43.859  24.394  30.355  1.00  0.00    -0.354 N 
ATOM     57  N   UNL A   1      43.714  27.465  32.189  1.00  0.00    -0.248 NA
ATOM     58  C   UNL A   1      43.629  28.312  34.322  1.00  0.00     0.031 C 
ATOM     59  C   UNL A   1      45.597  25.758  30.159  1.00  0.00     0.029 A 
ATOM     60  C   UNL A   1      44.727  25.195  31.074  1.00  0.00     0.049 A 
ATOM     61  H   UNL A   1      43.147  23.841  30.751  1.00  0.00     0.167 HD
ATOM     62  C   UNL A   1      44.233  26.494  33.010  1.00  0.00     0.074 A 
ATOM     63  C   UNL A   1      44.190  27.091  34.332  1.00  0.00     0.031 C 
ATOM     64  C   UNL A   1      44.634  25.279  32.526  1.00  0.00     0.034 A 
BRANCH  51  65
ATOM     65  C   UNL A   1      43.490  23.014  26.921  1.00  0.00     0.023 A 
ATOM     66  C   UNL A   1      42.964  21.708  26.952  1.00  0.00     0.031 A 
ATOM     67  C   UNL A   1      44.342  23.312  25.840  1.00  0.00     0.131 A 
ATOM     68  C   UNL A   1      43.366  20.741  26.015  1.00  0.00     0.055 A 
ATOM     69  C   UNL A   1      44.789  22.335  24.942  1.00  0.00     0.041 A 
ATOM     70  F   UNL A   1      44.765  24.566  25.615  1.00  0.00    -0.206 F 
ATOM     71  C   UNL A   1      44.311  21.036  25.035  1.00  0.00     0.022 A 
BRANCH  68  72
ATOM     72  S   UNL A   1      42.626  19.086  26.091  1.00  0.00     0.124 S 
ATOM     73  O   UNL A   1      42.487  18.873  27.529  1.00  0.00    -0.237 OA
ATOM     74  O   UNL A   1      41.387  19.268  25.343  1.00  0.00    -0.237 OA
ATOM     75  O   UNL A   1      43.623  18.239  25.436  1.00  0.00    -0.744 OA
ENDBRANCH  68  72
ENDBRANCH  51  65
BRANCH  52  76
ATOM     76  C   UNL A   1      41.456  30.402  32.897  1.00  0.00     0.023 A 
ATOM     77  C   UNL A   1      41.415  31.812  32.782  1.00  0.00     0.031 A 
ATOM     78  C   UNL A   1      40.252  29.732  33.142  1.00  0.00     0.131 A 
ATOM     79  C   UNL A   1      40.186  32.483  32.720  1.00  0.00     0.055 A 
ATOM     80  C   UNL A   1      39.031  30.422  33.170  1.00  0.00     0.041 A 
ATOM     81  F   UNL A   1      40.216  28.395  33.224  1.00  0.00    -0.206 F 
ATOM     82  C   UNL A   1      38.989  31.794  32.910  1.00  0.00     0.022 A 
BRANCH  79  83
ATOM     83  S   UNL A   1      40.165  34.188  32.080  1.00  0.00     0.124 S 
ATOM     84  O   UNL A   1      38.862  34.669  32.521  1.00  0.00    -0.237 OA
ATOM     85  O   UNL A   1      41.329  34.789  32.730  1.00  0.00    -0.237 OA
ATOM     86  O   UNL A   1      40.322  34.025  30.635  1.00  0.00    -0.744 OA
ENDBRANCH  79  83
ENDBRANCH  52  76
BRANCH  64  87
ATOM     87  C   UNL A   1      45.052  24.081  33.355  1.00  0.00     0.023 A 
ATOM     88  C   UNL A   1      46.314  23.952  33.950  1.00  0.00     0.031 A 
ATOM     89  C   UNL A   1      44.134  23.037  33.637  1.00  0.00     0.131 A 
ATOM     90  C   UNL A   1      46.651  22.811  34.703  1.00  0.00     0.055 A 
ATOM     91  C   UNL A   1      44.443  21.946  34.454  1.00  0.00     0.041 A 
ATOM     92  F   UNL A   1      42.889  23.035  33.135  1.00  0.00    -0.206 F 
ATOM     93  C   UNL A   1      45.717  21.817  34.980  1.00  0.00     0.022 A 
BRANCH  90  94
ATOM     94  S   UNL A   1      48.368  22.621  35.253  1.00  0.00     0.124 S 
ATOM     95  O   UNL A   1      48.353  23.325  36.532  1.00  0.00    -0.237 OA
ATOM     96  O   UNL A   1      48.516  21.172  35.328  1.00  0.00    -0.237 OA
ATOM     97  O   UNL A   1      49.143  23.271  34.198  1.00  0.00    -0.744 OA
ENDBRANCH  90  94
ENDBRANCH  64  87
ENDBRANCH  38  39
ENDBRANCH  30  33
ENDBRANCH  28  29
ENDBRANCH   1  28
TORSDOF 16
ENDMDL
MODEL 3
REMARK VINA RESULT:     -13.4      3.945     10.525
REMARK SMILES Cc1cc([N+](=O)[O-])ccc1NC(=O)[C@@H]1[C@@H](C(=O)NCCCNC(=O)c2ccc(-c3c4nc(c(-c5cc(S(=O)(=O)[O-])ccc5F)c5ccc([nH]5)c(-c5cc(S(=O)(=O)[O-])ccc5F)c5nc(c(-c6cc(S(=O)(=O)[O-])ccc6F)c6ccc3[nH]6)C=C5)C=C4)cc2)[C@H]2C=C[C@@H]1C2
REMARK SMILES IDX 20 1 19 2 18 3 16 4 17 5 15 7 14 8 91 9 88 10 90 11 92 12
REMARK SMILES IDX 89 13 12 14 11 15 13 17 10 18 1 19 2 20 3 21 4 22 9 23 8 24
REMARK SMILES IDX 5 25 6 26 7 27 21 28 22 29 23 30 24 32 25 33 26 34 87 35
REMARK SMILES IDX 27 36 86 37 28 38 29 39 30 40 80 41 31 42 85 43 79 44 81 45
REMARK SMILES IDX 32 46 84 47 78 48 77 49 33 51 65 52 45 53 64 54 46 55 49 56
REMARK SMILES IDX 63 57 82 58 47 59 48 60 62 62 83 63 50 64 34 65 35 66 43 67
REMARK SMILES IDX 36 68 42 69 44 70 41 71 37 72 38 73 39 74 40 75 66 76 67 77
REMARK SMILES IDX 75 78 68 79 74 80 76 81 73 82 69 83 70 84 71 85 72 86 51 87
REMARK SMILES IDX 52 88 60 89 53 90 59 91 61 92 58 93 54 94 55 95 56 96 57 97
REMARK H PARENT 18 6 11 16 22 31 81 50 49 61
REMARK Flexibility Score: inf
ROOT
ATOM      1  C   UNL A   1      38.651  21.665  25.723  1.00  0.00     0.042 C 
ENDROOT
BRANCH   1   2
ATOM      2  C   UNL A   1      37.194  21.496  25.345  1.00  0.00     0.117 C 
BRANCH   2   3
ATOM      3  N   UNL A   1      36.319  22.408  26.053  1.00  0.00    -0.356 N 
ATOM      4  C   UNL A   1      35.080  22.862  25.719  1.00  0.00     0.224 C 
ATOM      5  O   UNL A   1      34.575  23.755  26.405  1.00  0.00    -0.275 OA
ATOM      6  H   UNL A   1      36.673  22.752  26.904  1.00  0.00     0.163 HD
BRANCH   4   7
ATOM      7  C   UNL A   1      34.386  22.349  24.458  1.00  0.00     0.098 C 
ATOM      8  C   UNL A   1      33.203  23.317  24.042  1.00  0.00     0.099 C 
ATOM      9  C   UNL A   1      32.015  22.331  23.857  1.00  0.00     0.025 C 
ATOM     10  C   UNL A   1      33.631  20.998  24.597  1.00  0.00     0.025 C 
ATOM     11  C   UNL A   1      31.610  21.875  25.239  1.00  0.00    -0.027 C 
ATOM     12  C   UNL A   1      32.715  21.064  23.378  1.00  0.00     0.017 C 
ATOM     13  C   UNL A   1      32.595  21.088  25.692  1.00  0.00    -0.027 C 
BRANCH   8  14
ATOM     14  C   UNL A   1      33.454  24.152  22.799  1.00  0.00     0.228 C 
ATOM     15  N   UNL A   1      33.371  25.525  22.824  1.00  0.00    -0.326 N 
ATOM     16  H   UNL A   1      33.584  25.948  21.961  1.00  0.00     0.169 HD
ATOM     17  O   UNL A   1      33.685  23.633  21.703  1.00  0.00    -0.274 OA
BRANCH  15  18
ATOM     18  C   UNL A   1      33.040  26.446  23.841  1.00  0.00     0.044 A 
ATOM     19  C   UNL A   1      30.733  26.855  22.754  1.00  0.00     0.047 C 
ATOM     20  C   UNL A   1      31.746  27.011  23.860  1.00  0.00    -0.021 A 
ATOM     21  C   UNL A   1      31.344  27.779  24.975  1.00  0.00     0.091 A 
ATOM     22  C   UNL A   1      32.219  27.993  26.046  1.00  0.00     0.269 A 
ATOM     23  C   UNL A   1      33.933  26.789  24.865  1.00  0.00     0.033 A 
ATOM     24  C   UNL A   1      33.528  27.529  25.979  1.00  0.00     0.088 A 
BRANCH  22  25
ATOM     25  N   UNL A   1      31.754  28.701  27.242  1.00  0.00     0.062 N 
ATOM     26  O   UNL A   1      32.003  29.913  27.327  1.00  0.00    -0.258 OA
ATOM     27  O   UNL A   1      31.125  28.053  28.091  1.00  0.00    -0.258 OA
ENDBRANCH  22  25
ENDBRANCH  15  18
ENDBRANCH   8  14
ENDBRANCH   4   7
ENDBRANCH   2   3
ENDBRANCH   1   2
BRANCH   1  28
ATOM     28  C   UNL A   1      38.990  23.063  26.202  1.00  0.00     0.118 C 
BRANCH  28  29
ATOM     29  N   UNL A   1      40.433  23.278  26.348  1.00  0.00    -0.352 N 
ATOM     30  C   UNL A   1      41.112  24.442  26.678  1.00  0.00     0.251 C 
ATOM     31  H   UNL A   1      40.998  22.487  26.190  1.00  0.00     0.163 HD
ATOM     32  O   UNL A   1      42.323  24.475  26.804  1.00  0.00    -0.269 OA
BRANCH  30  33
ATOM     33  C   UNL A   1      40.299  25.636  27.002  1.00  0.00     0.039 A 
ATOM     34  C   UNL A   1      40.685  26.842  26.414  1.00  0.00     0.014 A 
ATOM     35  C   UNL A   1      39.450  25.610  28.102  1.00  0.00     0.014 A 
ATOM     36  C   UNL A   1      40.442  28.029  27.098  1.00  0.00     0.010 A 
ATOM     37  C   UNL A   1      39.321  26.770  28.843  1.00  0.00     0.010 A 
ATOM     38  C   UNL A   1      39.872  27.967  28.373  1.00  0.00    -0.014 A 
BRANCH  38  39
ATOM     39  C   UNL A   1      39.951  29.082  29.313  1.00  0.00     0.031 A 
ATOM     40  C   UNL A   1      38.883  30.099  29.351  1.00  0.00     0.074 A 
ATOM     41  C   UNL A   1      41.023  29.232  30.126  1.00  0.00     0.049 A 
ATOM     42  N   UNL A   1      39.096  31.356  29.552  1.00  0.00    -0.248 NA
ATOM     43  C   UNL A   1      37.479  29.775  29.127  1.00  0.00     0.031 C 
ATOM     44  C   UNL A   1      41.191  30.216  31.191  1.00  0.00     0.029 A 
ATOM     45  N   UNL A   1      42.287  28.665  29.973  1.00  0.00    -0.354 N 
ATOM     46  C   UNL A   1      37.874  31.951  29.749  1.00  0.00     0.074 A 
ATOM     47  C   UNL A   1      36.896  30.943  29.409  1.00  0.00     0.031 C 
ATOM     48  C   UNL A   1      42.503  30.392  31.415  1.00  0.00     0.029 A 
ATOM     49  C   UNL A   1      43.226  29.607  30.431  1.00  0.00     0.049 A 
ATOM     50  H   UNL A   1      42.486  27.771  29.613  1.00  0.00     0.167 HD
ATOM     51  C   UNL A   1      37.789  33.184  30.319  1.00  0.00     0.034 A 
ATOM     52  C   UNL A   1      44.224  30.062  29.621  1.00  0.00     0.034 A 
ATOM     53  C   UNL A   1      39.096  33.711  30.688  1.00  0.00     0.049 A 
ATOM     54  C   UNL A   1      44.161  31.556  29.377  1.00  0.00     0.074 A 
ATOM     55  C   UNL A   1      39.789  33.729  31.887  1.00  0.00     0.029 A 
ATOM     56  N   UNL A   1      40.012  34.051  29.699  1.00  0.00    -0.354 N 
ATOM     57  N   UNL A   1      43.136  32.302  29.683  1.00  0.00    -0.248 NA
ATOM     58  C   UNL A   1      45.232  32.322  28.744  1.00  0.00     0.031 C 
ATOM     59  C   UNL A   1      41.148  34.016  31.604  1.00  0.00     0.029 A 
ATOM     60  C   UNL A   1      41.274  34.211  30.241  1.00  0.00     0.049 A 
ATOM     61  H   UNL A   1      39.792  34.162  28.746  1.00  0.00     0.167 HD
ATOM     62  C   UNL A   1      43.359  33.591  29.267  1.00  0.00     0.074 A 
ATOM     63  C   UNL A   1      44.702  33.557  28.718  1.00  0.00     0.031 C 
ATOM     64  C   UNL A   1      42.407  34.566  29.397  1.00  0.00     0.034 A 
BRANCH  51  65
ATOM     65  C   UNL A   1      36.482  33.729  30.826  1.00  0.00     0.023 A 
ATOM     66  C   UNL A   1      35.552  34.278  29.923  1.00  0.00     0.031 A 
ATOM     67  C   UNL A   1      36.122  33.771  32.187  1.00  0.00     0.131 A 
ATOM     68  C   UNL A   1      34.390  34.925  30.381  1.00  0.00     0.055 A 
ATOM     69  C   UNL A   1      34.997  34.466  32.647  1.00  0.00     0.041 A 
ATOM     70  F   UNL A   1      36.848  33.131  33.117  1.00  0.00    -0.206 F 
ATOM     71  C   UNL A   1      34.130  35.062  31.742  1.00  0.00     0.022 A 
BRANCH  68  72
ATOM     72  S   UNL A   1      33.217  35.582  29.163  1.00  0.00     0.124 S 
ATOM     73  O   UNL A   1      34.069  36.433  28.337  1.00  0.00    -0.237 OA
ATOM     74  O   UNL A   1      32.714  34.367  28.533  1.00  0.00    -0.237 OA
ATOM     75  O   UNL A   1      32.242  36.299  29.985  1.00  0.00    -0.744 OA
ENDBRANCH  68  72
ENDBRANCH  51  65
BRANCH  52  76
ATOM     76  C   UNL A   1      44.706  29.029  28.658  1.00  0.00     0.023 A 
ATOM     77  C   UNL A   1      45.514  27.993  29.184  1.00  0.00     0.031 A 
ATOM     78  C   UNL A   1      44.091  28.813  27.420  1.00  0.00     0.131 A 
ATOM     79  C   UNL A   1      45.530  26.729  28.576  1.00  0.00     0.055 A 
ATOM     80  C   UNL A   1      44.184  27.574  26.770  1.00  0.00     0.041 A 
ATOM     81  F   UNL A   1      43.284  29.740  26.885  1.00  0.00    -0.206 F 
ATOM     82  C   UNL A   1      44.864  26.511  27.371  1.00  0.00     0.022 A 
BRANCH  79  83
ATOM     83  S   UNL A   1      46.159  25.317  29.539  1.00  0.00     0.124 S 
ATOM     84  O   UNL A   1      45.401  24.202  28.986  1.00  0.00    -0.237 OA
ATOM     85  O   UNL A   1      47.590  25.336  29.238  1.00  0.00    -0.237 OA
ATOM     86  O   UNL A   1      45.848  25.667  30.924  1.00  0.00    -0.744 OA
ENDBRANCH  79  83
ENDBRANCH  52  76
BRANCH  64  87
ATOM     87  C   UNL A   1      42.477  35.965  28.819  1.00  0.00     0.023 A 
ATOM     88  C   UNL A   1      43.200  37.012  29.407  1.00  0.00     0.031 A 
ATOM     89  C   UNL A   1      41.858  36.270  27.579  1.00  0.00     0.131 A 
ATOM     90  C   UNL A   1      43.222  38.297  28.829  1.00  0.00     0.055 A 
ATOM     91  C   UNL A   1      41.951  37.523  26.965  1.00  0.00     0.041 A 
ATOM     92  F   UNL A   1      41.139  35.360  26.905  1.00  0.00    -0.206 F 
ATOM     93  C   UNL A   1      42.623  38.554  27.600  1.00  0.00     0.022 A 
BRANCH  90  94
ATOM     94  S   UNL A   1      43.993  39.645  29.763  1.00  0.00     0.124 S 
ATOM     95  O   UNL A   1      45.062  38.947  30.471  1.00  0.00    -0.237 OA
ATOM     96  O   UNL A   1      44.420  40.555  28.706  1.00  0.00    -0.237 OA
ATOM     97  O   UNL A   1      42.911  40.142  30.610  1.00  0.00    -0.744 OA
ENDBRANCH  90  94
ENDBRANCH  64  87
ENDBRANCH  38  39
ENDBRANCH  30  33
ENDBRANCH  28  29
ENDBRANCH   1  28
TORSDOF 16
ENDMDL
