MODEL 1
REMARK VINA RESULT:     -13.8      0.000      0.000
REMARK SMILES O=C(NCCCNC(=O)[C@@H]1CCCC[C@H]1C(=O)Nc1ccccc1C(=O)N1CCOCC1)c1ccc(-c2c3nc(c(-c4cc(S(=O)(=O)[O-])ccc4F)c4ccc([nH]4)c(-c4cc(S(=O)(=O)[O-])ccc4F)c4nc(c(-c5cc(S(=O)(=O)[O-])ccc5F)c5ccc2[nH]5)C=C4)C=C3)cc1
REMARK SMILES IDX 5 1 4 2 3 3 1 4 2 5 33 7 34 8 95 9 35 10 94 11 36 12 37 13
REMARK SMILES IDX 38 14 88 15 39 16 93 17 87 18 89 19 40 20 92 21 86 22 85 23
REMARK SMILES IDX 41 25 73 26 53 27 72 28 54 29 57 30 71 31 90 32 55 33 56 34
REMARK SMILES IDX 70 36 91 37 58 38 42 39 43 40 51 41 44 42 50 43 52 44 49 45
REMARK SMILES IDX 45 46 46 47 47 48 48 49 74 50 75 51 83 52 76 53 82 54 84 55
REMARK SMILES IDX 81 56 77 57 78 58 79 59 80 60 59 61 60 62 68 63 61 64 67 65
REMARK SMILES IDX 69 66 66 67 62 68 63 69 64 70 65 71 6 72 7 73 8 74 9 76
REMARK SMILES IDX 10 77 11 78 15 79 12 80 14 81 13 82 16 83 17 84 18 85 19 87
REMARK SMILES IDX 20 88 24 89 21 90 23 91 22 92 25 93 26 94 27 95 28 96 32 97
REMARK SMILES IDX 29 98 31 99 30 100
REMARK H PARENT 3 6 89 24 57 35 7 75 18 86
REMARK Flexibility Score: inf
ROOT
ATOM      1  C   UNL A   1      32.259  29.563  25.500  1.00  0.00     0.042 C 
ENDROOT
BRANCH   1   2
ATOM      2  C   UNL A   1      32.164  30.241  26.860  1.00  0.00     0.118 C 
BRANCH   2   3
ATOM      3  N   UNL A   1      32.094  31.698  26.730  1.00  0.00    -0.352 N 
ATOM      4  O   UNL A   1      32.418  33.836  27.367  1.00  0.00    -0.269 OA
ATOM      5  C   UNL A   1      32.817  32.679  27.374  1.00  0.00     0.251 C 
ATOM      6  H   UNL A   1      31.428  32.026  26.084  1.00  0.00     0.163 HD
BRANCH   5   7
ATOM      7  C   UNL A   1      34.078  32.328  28.067  1.00  0.00     0.039 A 
ATOM      8  C   UNL A   1      34.273  31.026  28.516  1.00  0.00     0.014 A 
ATOM      9  C   UNL A   1      35.087  33.282  28.237  1.00  0.00     0.014 A 
ATOM     10  C   UNL A   1      35.377  30.722  29.295  1.00  0.00     0.010 A 
ATOM     11  C   UNL A   1      36.271  32.933  28.906  1.00  0.00     0.010 A 
ATOM     12  C   UNL A   1      36.415  31.653  29.461  1.00  0.00    -0.014 A 
BRANCH  12  13
ATOM     13  C   UNL A   1      37.659  31.189  30.134  1.00  0.00     0.031 A 
ATOM     14  C   UNL A   1      37.983  31.572  31.549  1.00  0.00     0.074 A 
ATOM     15  C   UNL A   1      38.450  30.326  29.462  1.00  0.00     0.049 A 
ATOM     16  N   UNL A   1      38.987  31.183  32.295  1.00  0.00    -0.248 NA
ATOM     17  C   UNL A   1      37.076  32.518  32.214  1.00  0.00     0.031 C 
ATOM     18  C   UNL A   1      38.231  29.897  28.074  1.00  0.00     0.029 A 
ATOM     19  N   UNL A   1      39.558  29.619  29.849  1.00  0.00    -0.354 N 
ATOM     20  C   UNL A   1      38.836  31.833  33.514  1.00  0.00     0.074 A 
ATOM     21  C   UNL A   1      37.666  32.678  33.392  1.00  0.00     0.031 C 
ATOM     22  C   UNL A   1      39.115  28.943  27.761  1.00  0.00     0.029 A 
ATOM     23  C   UNL A   1      40.032  28.767  28.877  1.00  0.00     0.049 A 
ATOM     24  H   UNL A   1      39.973  29.710  30.736  1.00  0.00     0.167 HD
ATOM     25  C   UNL A   1      39.598  31.721  34.632  1.00  0.00     0.034 A 
ATOM     26  C   UNL A   1      41.106  27.953  28.868  1.00  0.00     0.034 A 
ATOM     27  C   UNL A   1      40.768  30.875  34.725  1.00  0.00     0.049 A 
ATOM     28  C   UNL A   1      41.957  27.889  30.105  1.00  0.00     0.074 A 
ATOM     29  C   UNL A   1      41.616  30.691  35.804  1.00  0.00     0.029 A 
ATOM     30  N   UNL A   1      41.258  30.073  33.701  1.00  0.00    -0.354 N 
ATOM     31  N   UNL A   1      41.796  28.514  31.250  1.00  0.00    -0.248 NA
ATOM     32  C   UNL A   1      43.128  27.010  30.054  1.00  0.00     0.031 C 
ATOM     33  C   UNL A   1      42.653  29.838  35.412  1.00  0.00     0.029 A 
ATOM     34  C   UNL A   1      42.409  29.416  34.115  1.00  0.00     0.049 A 
ATOM     35  H   UNL A   1      40.848  29.982  32.810  1.00  0.00     0.167 HD
ATOM     36  C   UNL A   1      42.845  28.091  32.059  1.00  0.00     0.074 A 
ATOM     37  C   UNL A   1      43.599  27.125  31.285  1.00  0.00     0.031 C 
ATOM     38  C   UNL A   1      43.165  28.474  33.322  1.00  0.00     0.034 A 
BRANCH  25  39
ATOM     39  C   UNL A   1      39.215  32.558  35.830  1.00  0.00     0.023 A 
ATOM     40  C   UNL A   1      39.634  33.893  35.965  1.00  0.00     0.031 A 
ATOM     41  C   UNL A   1      38.412  32.016  36.851  1.00  0.00     0.131 A 
ATOM     42  C   UNL A   1      39.295  34.623  37.116  1.00  0.00     0.055 A 
ATOM     43  C   UNL A   1      38.014  32.772  37.958  1.00  0.00     0.041 A 
ATOM     44  F   UNL A   1      37.999  30.740  36.793  1.00  0.00    -0.206 F 
ATOM     45  C   UNL A   1      38.466  34.080  38.100  1.00  0.00     0.022 A 
BRANCH  42  46
ATOM     46  S   UNL A   1      40.053  36.251  37.369  1.00  0.00     0.124 S 
ATOM     47  O   UNL A   1      39.184  36.826  38.393  1.00  0.00    -0.237 OA
ATOM     48  O   UNL A   1      41.405  35.909  37.798  1.00  0.00    -0.237 OA
ATOM     49  O   UNL A   1      39.957  36.883  36.056  1.00  0.00    -0.744 OA
ENDBRANCH  42  46
ENDBRANCH  25  39
BRANCH  26  50
ATOM     50  C   UNL A   1      41.468  27.194  27.635  1.00  0.00     0.023 A 
ATOM     51  C   UNL A   1      41.308  25.803  27.556  1.00  0.00     0.031 A 
ATOM     52  C   UNL A   1      42.039  27.853  26.528  1.00  0.00     0.131 A 
ATOM     53  C   UNL A   1      41.767  25.110  26.423  1.00  0.00     0.055 A 
ATOM     54  C   UNL A   1      42.421  27.170  25.375  1.00  0.00     0.041 A 
ATOM     55  F   UNL A   1      42.222  29.183  26.549  1.00  0.00    -0.206 F 
ATOM     56  C   UNL A   1      42.304  25.787  25.325  1.00  0.00     0.022 A 
BRANCH  53  57
ATOM     57  S   UNL A   1      41.772  23.296  26.459  1.00  0.00     0.124 S 
ATOM     58  O   UNL A   1      42.459  22.978  25.212  1.00  0.00    -0.237 OA
ATOM     59  O   UNL A   1      42.510  23.020  27.687  1.00  0.00    -0.237 OA
ATOM     60  O   UNL A   1      40.352  22.955  26.496  1.00  0.00    -0.744 OA
ENDBRANCH  53  57
ENDBRANCH  26  50
BRANCH  38  61
ATOM     61  C   UNL A   1      44.373  27.811  33.939  1.00  0.00     0.023 A 
ATOM     62  C   UNL A   1      44.272  26.579  34.612  1.00  0.00     0.031 A 
ATOM     63  C   UNL A   1      45.627  28.444  33.907  1.00  0.00     0.131 A 
ATOM     64  C   UNL A   1      45.380  26.066  35.300  1.00  0.00     0.055 A 
ATOM     65  C   UNL A   1      46.746  27.888  34.527  1.00  0.00     0.041 A 
ATOM     66  F   UNL A   1      45.783  29.623  33.284  1.00  0.00    -0.206 F 
ATOM     67  C   UNL A   1      46.622  26.702  35.246  1.00  0.00     0.022 A 
BRANCH  64  68
ATOM     68  S   UNL A   1      45.139  24.632  36.384  1.00  0.00     0.124 S 
ATOM     69  O   UNL A   1      46.214  23.743  35.954  1.00  0.00    -0.237 OA
ATOM     70  O   UNL A   1      45.290  25.216  37.713  1.00  0.00    -0.237 OA
ATOM     71  O   UNL A   1      43.789  24.178  36.055  1.00  0.00    -0.744 OA
ENDBRANCH  64  68
ENDBRANCH  38  61
ENDBRANCH  12  13
ENDBRANCH   5   7
ENDBRANCH   2   3
ENDBRANCH   1   2
BRANCH   1  72
ATOM     72  C   UNL A   1      33.402  28.550  25.438  1.00  0.00     0.117 C 
BRANCH  72  73
ATOM     73  N   UNL A   1      33.229  27.407  26.331  1.00  0.00    -0.356 N 
ATOM     74  C   UNL A   1      32.107  26.605  26.325  1.00  0.00     0.223 C 
ATOM     75  H   UNL A   1      33.949  27.199  26.969  1.00  0.00     0.163 HD
ATOM     76  O   UNL A   1      31.130  26.917  26.998  1.00  0.00    -0.275 OA
BRANCH  74  77
ATOM     77  C   UNL A   1      32.135  25.406  25.364  1.00  0.00     0.091 C 
ATOM     78  C   UNL A   1      31.709  26.060  24.026  1.00  0.00     0.014 C 
ATOM     79  C   UNL A   1      31.189  24.204  25.706  1.00  0.00     0.091 C 
ATOM     80  C   UNL A   1      31.595  25.080  22.881  1.00  0.00     0.001 C 
ATOM     81  C   UNL A   1      31.042  23.276  24.472  1.00  0.00     0.014 C 
ATOM     82  C   UNL A   1      30.587  24.011  23.231  1.00  0.00     0.001 C 
BRANCH  79  83
ATOM     83  C   UNL A   1      31.313  23.142  26.840  1.00  0.00     0.228 C 
ATOM     84  O   UNL A   1      30.361  23.008  27.625  1.00  0.00    -0.274 OA
ATOM     85  N   UNL A   1      32.220  22.125  26.875  1.00  0.00    -0.325 N 
ATOM     86  H   UNL A   1      31.973  21.350  27.428  1.00  0.00     0.169 HD
BRANCH  85  87
ATOM     87  C   UNL A   1      33.447  22.042  26.233  1.00  0.00     0.054 A 
ATOM     88  C   UNL A   1      34.332  23.102  26.472  1.00  0.00     0.027 A 
ATOM     89  C   UNL A   1      33.835  20.932  25.474  1.00  0.00     0.063 A 
ATOM     90  C   UNL A   1      35.685  22.942  26.198  1.00  0.00     0.002 A 
ATOM     91  C   UNL A   1      35.210  20.770  25.235  1.00  0.00     0.016 A 
ATOM     92  C   UNL A   1      36.132  21.748  25.640  1.00  0.00     0.001 A 
BRANCH  89  93
ATOM     93  C   UNL A   1      32.868  19.914  24.908  1.00  0.00     0.256 C 
ATOM     94  O   UNL A   1      31.701  20.228  24.691  1.00  0.00    -0.269 OA
ATOM     95  N   UNL A   1      33.333  18.612  24.687  1.00  0.00    -0.334 N 
ATOM     96  C   UNL A   1      33.098  17.639  25.743  1.00  0.00     0.148 C 
ATOM     97  C   UNL A   1      33.180  18.016  23.353  1.00  0.00     0.148 C 
ATOM     98  C   UNL A   1      33.944  16.384  25.515  1.00  0.00     0.181 C 
ATOM     99  C   UNL A   1      33.904  16.673  23.187  1.00  0.00     0.181 C 
ATOM    100  O   UNL A   1      33.602  15.774  24.261  1.00  0.00    -0.378 OA
ENDBRANCH  89  93
ENDBRANCH  85  87
ENDBRANCH  79  83
ENDBRANCH  74  77
ENDBRANCH  72  73
ENDBRANCH   1  72
TORSDOF 16
ENDMDL
MODEL 2
REMARK VINA RESULT:     -13.7      1.472      1.806
REMARK SMILES O=C(NCCCNC(=O)[C@@H]1CCCC[C@H]1C(=O)Nc1ccccc1C(=O)N1CCOCC1)c1ccc(-c2c3nc(c(-c4cc(S(=O)(=O)[O-])ccc4F)c4ccc([nH]4)c(-c4cc(S(=O)(=O)[O-])ccc4F)c4nc(c(-c5cc(S(=O)(=O)[O-])ccc5F)c5ccc2[nH]5)C=C4)C=C3)cc1
REMARK SMILES IDX 5 1 4 2 3 3 1 4 2 5 33 7 34 8 95 9 35 10 94 11 36 12 37 13
REMARK SMILES IDX 38 14 88 15 39 16 93 17 87 18 89 19 40 20 92 21 86 22 85 23
REMARK SMILES IDX 41 25 73 26 53 27 72 28 54 29 57 30 71 31 90 32 55 33 56 34
REMARK SMILES IDX 70 36 91 37 58 38 42 39 43 40 51 41 44 42 50 43 52 44 49 45
REMARK SMILES IDX 45 46 46 47 47 48 48 49 74 50 75 51 83 52 76 53 82 54 84 55
REMARK SMILES IDX 81 56 77 57 78 58 79 59 80 60 59 61 60 62 68 63 61 64 67 65
REMARK SMILES IDX 69 66 66 67 62 68 63 69 64 70 65 71 6 72 7 73 8 74 9 76
REMARK SMILES IDX 10 77 11 78 15 79 12 80 14 81 13 82 16 83 17 84 18 85 19 87
REMARK SMILES IDX 20 88 24 89 21 90 23 91 22 92 25 93 26 94 27 95 28 96 32 97
REMARK SMILES IDX 29 98 31 99 30 100
REMARK H PARENT 3 6 89 24 57 35 7 75 18 86
REMARK Flexibility Score: inf
ROOT
ATOM      1  C   UNL A   1      32.834  29.544  25.628  1.00  0.00     0.042 C 
ENDROOT
BRANCH   1   2
ATOM      2  C   UNL A   1      32.662  30.192  26.996  1.00  0.00     0.118 C 
BRANCH   2   3
ATOM      3  N   UNL A   1      32.790  31.648  26.921  1.00  0.00    -0.352 N 
ATOM      4  O   UNL A   1      33.434  33.694  27.618  1.00  0.00    -0.269 OA
ATOM      5  C   UNL A   1      33.668  32.494  27.566  1.00  0.00     0.251 C 
ATOM      6  H   UNL A   1      32.152  32.092  26.317  1.00  0.00     0.163 HD
BRANCH   5   7
ATOM      7  C   UNL A   1      34.894  31.945  28.189  1.00  0.00     0.039 A 
ATOM      8  C   UNL A   1      36.014  32.758  28.331  1.00  0.00     0.014 A 
ATOM      9  C   UNL A   1      34.922  30.632  28.671  1.00  0.00     0.014 A 
ATOM     10  C   UNL A   1      37.209  32.217  28.773  1.00  0.00     0.010 A 
ATOM     11  C   UNL A   1      36.096  30.125  29.249  1.00  0.00     0.010 A 
ATOM     12  C   UNL A   1      37.259  30.909  29.284  1.00  0.00    -0.014 A 
BRANCH  12  13
ATOM     13  C   UNL A   1      38.524  30.467  29.930  1.00  0.00     0.031 A 
ATOM     14  C   UNL A   1      38.888  30.884  31.326  1.00  0.00     0.074 A 
ATOM     15  C   UNL A   1      39.299  29.591  29.255  1.00  0.00     0.049 A 
ATOM     16  N   UNL A   1      39.916  30.516  32.050  1.00  0.00    -0.248 NA
ATOM     17  C   UNL A   1      37.996  31.841  31.996  1.00  0.00     0.031 C 
ATOM     18  C   UNL A   1      39.041  29.129  27.885  1.00  0.00     0.029 A 
ATOM     19  N   UNL A   1      40.421  28.897  29.625  1.00  0.00    -0.354 N 
ATOM     20  C   UNL A   1      39.798  31.193  33.258  1.00  0.00     0.074 A 
ATOM     21  C   UNL A   1      38.620  32.031  33.151  1.00  0.00     0.031 C 
ATOM     22  C   UNL A   1      39.920  28.171  27.568  1.00  0.00     0.029 A 
ATOM     23  C   UNL A   1      40.870  28.025  28.660  1.00  0.00     0.049 A 
ATOM     24  H   UNL A   1      40.862  29.011  30.498  1.00  0.00     0.167 HD
ATOM     25  C   UNL A   1      40.593  31.111  34.355  1.00  0.00     0.034 A 
ATOM     26  C   UNL A   1      41.947  27.216  28.638  1.00  0.00     0.034 A 
ATOM     27  C   UNL A   1      41.769  30.272  34.432  1.00  0.00     0.049 A 
ATOM     28  C   UNL A   1      42.835  27.184  29.850  1.00  0.00     0.074 A 
ATOM     29  C   UNL A   1      42.650  30.117  35.490  1.00  0.00     0.029 A 
ATOM     30  N   UNL A   1      42.233  29.448  33.413  1.00  0.00    -0.354 N 
ATOM     31  N   UNL A   1      42.705  27.835  30.984  1.00  0.00    -0.248 NA
ATOM     32  C   UNL A   1      44.009  26.309  29.784  1.00  0.00     0.031 C 
ATOM     33  C   UNL A   1      43.678  29.260  35.087  1.00  0.00     0.029 A 
ATOM     34  C   UNL A   1      43.399  28.806  33.808  1.00  0.00     0.049 A 
ATOM     35  H   UNL A   1      41.797  29.335  32.538  1.00  0.00     0.167 HD
ATOM     36  C   UNL A   1      43.779  27.435  31.772  1.00  0.00     0.074 A 
ATOM     37  C   UNL A   1      44.515  26.455  30.998  1.00  0.00     0.031 C 
ATOM     38  C   UNL A   1      44.135  27.848  33.015  1.00  0.00     0.034 A 
BRANCH  25  39
ATOM     39  C   UNL A   1      40.241  31.974  35.544  1.00  0.00     0.023 A 
ATOM     40  C   UNL A   1      39.259  31.590  36.473  1.00  0.00     0.031 A 
ATOM     41  C   UNL A   1      40.902  33.198  35.757  1.00  0.00     0.131 A 
ATOM     42  C   UNL A   1      38.928  32.443  37.539  1.00  0.00     0.055 A 
ATOM     43  C   UNL A   1      40.623  34.006  36.862  1.00  0.00     0.041 A 
ATOM     44  F   UNL A   1      41.834  33.632  34.893  1.00  0.00    -0.206 F 
ATOM     45  C   UNL A   1      39.622  33.635  37.755  1.00  0.00     0.022 A 
BRANCH  42  46
ATOM     46  S   UNL A   1      37.494  32.032  38.571  1.00  0.00     0.124 S 
ATOM     47  O   UNL A   1      38.027  32.239  39.915  1.00  0.00    -0.237 OA
ATOM     48  O   UNL A   1      36.495  32.996  38.125  1.00  0.00    -0.237 OA
ATOM     49  O   UNL A   1      37.212  30.639  38.229  1.00  0.00    -0.744 OA
ENDBRANCH  42  46
ENDBRANCH  25  39
BRANCH  26  50
ATOM     50  C   UNL A   1      42.277  26.429  27.413  1.00  0.00     0.023 A 
ATOM     51  C   UNL A   1      41.927  25.076  27.292  1.00  0.00     0.031 A 
ATOM     52  C   UNL A   1      43.004  27.016  26.358  1.00  0.00     0.131 A 
ATOM     53  C   UNL A   1      42.355  24.341  26.175  1.00  0.00     0.055 A 
ATOM     54  C   UNL A   1      43.359  26.301  25.215  1.00  0.00     0.041 A 
ATOM     55  F   UNL A   1      43.371  28.305  26.419  1.00  0.00    -0.206 F 
ATOM     56  C   UNL A   1      43.051  24.949  25.127  1.00  0.00     0.022 A 
BRANCH  53  57
ATOM     57  S   UNL A   1      42.102  22.545  26.170  1.00  0.00     0.124 S 
ATOM     58  O   UNL A   1      42.783  22.153  24.941  1.00  0.00    -0.237 OA
ATOM     59  O   UNL A   1      42.746  22.144  27.416  1.00  0.00    -0.237 OA
ATOM     60  O   UNL A   1      40.647  22.408  26.149  1.00  0.00    -0.744 OA
ENDBRANCH  53  57
ENDBRANCH  26  50
BRANCH  38  61
ATOM     61  C   UNL A   1      45.364  27.205  33.611  1.00  0.00     0.023 A 
ATOM     62  C   UNL A   1      45.280  26.024  34.371  1.00  0.00     0.031 A 
ATOM     63  C   UNL A   1      46.625  27.811  33.470  1.00  0.00     0.131 A 
ATOM     64  C   UNL A   1      46.416  25.537  35.033  1.00  0.00     0.055 A 
ATOM     65  C   UNL A   1      47.767  27.275  34.066  1.00  0.00     0.041 A 
ATOM     66  F   UNL A   1      46.765  28.942  32.761  1.00  0.00    -0.206 F 
ATOM     67  C   UNL A   1      47.663  26.143  34.870  1.00  0.00     0.022 A 
BRANCH  64  68
ATOM     68  S   UNL A   1      46.210  24.183  36.223  1.00  0.00     0.124 S 
ATOM     69  O   UNL A   1      45.891  24.907  37.451  1.00  0.00    -0.237 OA
ATOM     70  O   UNL A   1      45.119  23.414  35.636  1.00  0.00    -0.237 OA
ATOM     71  O   UNL A   1      47.512  23.520  36.215  1.00  0.00    -0.744 OA
ENDBRANCH  64  68
ENDBRANCH  38  61
ENDBRANCH  12  13
ENDBRANCH   5   7
ENDBRANCH   2   3
ENDBRANCH   1   2
BRANCH   1  72
ATOM     72  C   UNL A   1      33.811  28.369  25.665  1.00  0.00     0.117 C 
BRANCH  72  73
ATOM     73  N   UNL A   1      33.370  27.258  26.503  1.00  0.00    -0.356 N 
ATOM     74  C   UNL A   1      32.165  26.610  26.327  1.00  0.00     0.223 C 
ATOM     75  H   UNL A   1      33.962  26.957  27.229  1.00  0.00     0.163 HD
ATOM     76  O   UNL A   1      31.153  27.046  26.866  1.00  0.00    -0.275 OA
BRANCH  74  77
ATOM     77  C   UNL A   1      32.171  25.419  25.356  1.00  0.00     0.091 C 
ATOM     78  C   UNL A   1      31.771  26.095  24.021  1.00  0.00     0.014 C 
ATOM     79  C   UNL A   1      31.193  24.238  25.681  1.00  0.00     0.091 C 
ATOM     80  C   UNL A   1      31.641  25.128  22.867  1.00  0.00     0.001 C 
ATOM     81  C   UNL A   1      31.032  23.324  24.438  1.00  0.00     0.014 C 
ATOM     82  C   UNL A   1      30.604  24.081  23.200  1.00  0.00     0.001 C 
BRANCH  79  83
ATOM     83  C   UNL A   1      31.282  23.164  26.806  1.00  0.00     0.228 C 
ATOM     84  O   UNL A   1      30.316  23.037  27.575  1.00  0.00    -0.274 OA
ATOM     85  N   UNL A   1      32.173  22.132  26.845  1.00  0.00    -0.325 N 
ATOM     86  H   UNL A   1      31.905  21.355  27.387  1.00  0.00     0.169 HD
BRANCH  85  87
ATOM     87  C   UNL A   1      33.409  22.036  26.222  1.00  0.00     0.054 A 
ATOM     88  C   UNL A   1      34.298  23.091  26.468  1.00  0.00     0.027 A 
ATOM     89  C   UNL A   1      33.799  20.919  25.476  1.00  0.00     0.063 A 
ATOM     90  C   UNL A   1      35.654  22.920  26.215  1.00  0.00     0.002 A 
ATOM     91  C   UNL A   1      35.176  20.745  25.258  1.00  0.00     0.016 A 
ATOM     92  C   UNL A   1      36.100  21.718  25.670  1.00  0.00     0.001 A 
BRANCH  89  93
ATOM     93  C   UNL A   1      32.833  19.904  24.901  1.00  0.00     0.256 C 
ATOM     94  O   UNL A   1      31.670  20.224  24.671  1.00  0.00    -0.269 OA
ATOM     95  N   UNL A   1      33.294  18.600  24.687  1.00  0.00    -0.334 N 
ATOM     96  C   UNL A   1      33.044  17.630  25.743  1.00  0.00     0.148 C 
ATOM     97  C   UNL A   1      33.151  18.002  23.353  1.00  0.00     0.148 C 
ATOM     98  C   UNL A   1      33.885  16.370  25.525  1.00  0.00     0.181 C 
ATOM     99  C   UNL A   1      33.870  16.656  23.197  1.00  0.00     0.181 C 
ATOM    100  O   UNL A   1      33.553  15.760  24.269  1.00  0.00    -0.378 OA
ENDBRANCH  89  93
ENDBRANCH  85  87
ENDBRANCH  79  83
ENDBRANCH  74  77
ENDBRANCH  72  73
ENDBRANCH   1  72
TORSDOF 16
ENDMDL
MODEL 3
REMARK VINA RESULT:     -13.7      3.524      8.868
REMARK SMILES O=C(NCCCNC(=O)[C@@H]1CCCC[C@H]1C(=O)Nc1ccccc1C(=O)N1CCOCC1)c1ccc(-c2c3nc(c(-c4cc(S(=O)(=O)[O-])ccc4F)c4ccc([nH]4)c(-c4cc(S(=O)(=O)[O-])ccc4F)c4nc(c(-c5cc(S(=O)(=O)[O-])ccc5F)c5ccc2[nH]5)C=C4)C=C3)cc1
REMARK SMILES IDX 5 1 4 2 3 3 1 4 2 5 33 7 34 8 95 9 35 10 94 11 36 12 37 13
REMARK SMILES IDX 38 14 88 15 39 16 93 17 87 18 89 19 40 20 92 21 86 22 85 23
REMARK SMILES IDX 41 25 73 26 53 27 72 28 54 29 57 30 71 31 90 32 55 33 56 34
REMARK SMILES IDX 70 36 91 37 58 38 42 39 43 40 51 41 44 42 50 43 52 44 49 45
REMARK SMILES IDX 45 46 46 47 47 48 48 49 74 50 75 51 83 52 76 53 82 54 84 55
REMARK SMILES IDX 81 56 77 57 78 58 79 59 80 60 59 61 60 62 68 63 61 64 67 65
REMARK SMILES IDX 69 66 66 67 62 68 63 69 64 70 65 71 6 72 7 73 8 74 9 76
REMARK SMILES IDX 10 77 11 78 15 79 12 80 14 81 13 82 16 83 17 84 18 85 19 87
REMARK SMILES IDX 20 88 24 89 21 90 23 91 22 92 25 93 26 94 27 95 28 96 32 97
REMARK SMILES IDX 29 98 31 99 30 100
REMARK H PARENT 3 6 89 24 57 35 7 75 18 86
REMARK Flexibility Score: inf
ROOT
ATOM      1  C   UNL A   1      31.430  31.758  26.409  1.00  0.00     0.042 C 
ENDROOT
BRANCH   1   2
ATOM      2  C   UNL A   1      32.648  32.167  27.227  1.00  0.00     0.118 C 
BRANCH   2   3
ATOM      3  N   UNL A   1      32.637  33.600  27.525  1.00  0.00    -0.352 N 
ATOM      4  O   UNL A   1      32.944  35.437  28.797  1.00  0.00    -0.269 OA
ATOM      5  C   UNL A   1      33.305  34.304  28.506  1.00  0.00     0.251 C 
ATOM      6  H   UNL A   1      32.067  34.144  26.936  1.00  0.00     0.163 HD
BRANCH   5   7
ATOM      7  C   UNL A   1      34.458  33.687  29.198  1.00  0.00     0.039 A 
ATOM      8  C   UNL A   1      34.247  32.614  30.060  1.00  0.00     0.014 A 
ATOM      9  C   UNL A   1      35.759  34.145  28.964  1.00  0.00     0.014 A 
ATOM     10  C   UNL A   1      35.292  32.127  30.825  1.00  0.00     0.010 A 
ATOM     11  C   UNL A   1      36.839  33.554  29.638  1.00  0.00     0.010 A 
ATOM     12  C   UNL A   1      36.610  32.552  30.593  1.00  0.00    -0.014 A 
BRANCH  12  13
ATOM     13  C   UNL A   1      37.704  31.838  31.307  1.00  0.00     0.031 A 
ATOM     14  C   UNL A   1      38.520  30.770  30.637  1.00  0.00     0.074 A 
ATOM     15  C   UNL A   1      38.009  32.248  32.556  1.00  0.00     0.049 A 
ATOM     16  N   UNL A   1      39.555  30.116  31.103  1.00  0.00    -0.248 NA
ATOM     17  C   UNL A   1      38.126  30.377  29.277  1.00  0.00     0.031 C 
ATOM     18  C   UNL A   1      37.269  33.273  33.304  1.00  0.00     0.029 A 
ATOM     19  N   UNL A   1      39.031  31.904  33.401  1.00  0.00    -0.354 N 
ATOM     20  C   UNL A   1      39.937  29.234  30.099  1.00  0.00     0.074 A 
ATOM     21  C   UNL A   1      38.992  29.406  29.014  1.00  0.00     0.031 C 
ATOM     22  C   UNL A   1      37.909  33.533  34.450  1.00  0.00     0.029 A 
ATOM     23  C   UNL A   1      39.039  32.624  34.574  1.00  0.00     0.049 A 
ATOM     24  H   UNL A   1      39.696  31.210  33.189  1.00  0.00     0.167 HD
ATOM     25  C   UNL A   1      40.986  28.373  30.084  1.00  0.00     0.034 A 
ATOM     26  C   UNL A   1      39.846  32.545  35.650  1.00  0.00     0.034 A 
ATOM     27  C   UNL A   1      41.910  28.214  31.185  1.00  0.00     0.049 A 
ATOM     28  C   UNL A   1      40.969  31.546  35.621  1.00  0.00     0.074 A 
ATOM     29  C   UNL A   1      43.001  27.367  31.280  1.00  0.00     0.029 A 
ATOM     30  N   UNL A   1      41.851  28.914  32.385  1.00  0.00    -0.354 N 
ATOM     31  N   UNL A   1      41.312  30.719  34.660  1.00  0.00    -0.248 NA
ATOM     32  C   UNL A   1      41.814  31.472  36.816  1.00  0.00     0.031 C 
ATOM     33  C   UNL A   1      43.557  27.503  32.557  1.00  0.00     0.029 A 
ATOM     34  C   UNL A   1      42.870  28.498  33.232  1.00  0.00     0.049 A 
ATOM     35  H   UNL A   1      41.186  29.605  32.603  1.00  0.00     0.167 HD
ATOM     36  C   UNL A   1      42.425  30.033  35.134  1.00  0.00     0.074 A 
ATOM     37  C   UNL A   1      42.717  30.580  36.445  1.00  0.00     0.031 C 
ATOM     38  C   UNL A   1      43.134  29.035  34.548  1.00  0.00     0.034 A 
BRANCH  25  39
ATOM     39  C   UNL A   1      41.169  27.510  28.857  1.00  0.00     0.023 A 
ATOM     40  C   UNL A   1      42.173  27.774  27.909  1.00  0.00     0.031 A 
ATOM     41  C   UNL A   1      40.330  26.402  28.632  1.00  0.00     0.131 A 
ATOM     42  C   UNL A   1      42.280  26.976  26.758  1.00  0.00     0.055 A 
ATOM     43  C   UNL A   1      40.491  25.567  27.524  1.00  0.00     0.041 A 
ATOM     44  F   UNL A   1      39.338  26.111  29.488  1.00  0.00    -0.206 F 
ATOM     45  C   UNL A   1      41.464  25.859  26.573  1.00  0.00     0.022 A 
BRANCH  42  46
ATOM     46  S   UNL A   1      43.421  27.491  25.445  1.00  0.00     0.124 S 
ATOM     47  O   UNL A   1      42.496  27.861  24.377  1.00  0.00    -0.237 OA
ATOM     48  O   UNL A   1      44.148  28.591  26.069  1.00  0.00    -0.237 OA
ATOM     49  O   UNL A   1      44.211  26.290  25.185  1.00  0.00    -0.744 OA
ENDBRANCH  42  46
ENDBRANCH  25  39
BRANCH  26  50
ATOM     50  C   UNL A   1      39.581  33.382  36.857  1.00  0.00     0.023 A 
ATOM     51  C   UNL A   1      38.923  32.861  37.981  1.00  0.00     0.031 A 
ATOM     52  C   UNL A   1      39.939  34.744  36.878  1.00  0.00     0.131 A 
ATOM     53  C   UNL A   1      38.590  33.709  39.051  1.00  0.00     0.055 A 
ATOM     54  C   UNL A   1      39.675  35.563  37.975  1.00  0.00     0.041 A 
ATOM     55  F   UNL A   1      40.565  35.299  35.829  1.00  0.00    -0.206 F 
ATOM     56  C   UNL A   1      38.979  35.051  39.063  1.00  0.00     0.022 A 
BRANCH  53  57
ATOM     57  S   UNL A   1      37.525  33.064  40.370  1.00  0.00     0.124 S 
ATOM     58  O   UNL A   1      36.303  32.752  39.638  1.00  0.00    -0.237 OA
ATOM     59  O   UNL A   1      38.296  31.922  40.850  1.00  0.00    -0.237 OA
ATOM     60  O   UNL A   1      37.426  34.184  41.303  1.00  0.00    -0.744 OA
ENDBRANCH  53  57
ENDBRANCH  26  50
BRANCH  38  61
ATOM     61  C   UNL A   1      44.313  28.501  35.327  1.00  0.00     0.023 A 
ATOM     62  C   UNL A   1      44.165  27.455  36.257  1.00  0.00     0.031 A 
ATOM     63  C   UNL A   1      45.584  29.083  35.184  1.00  0.00     0.131 A 
ATOM     64  C   UNL A   1      45.247  27.086  37.069  1.00  0.00     0.055 A 
ATOM     65  C   UNL A   1      46.676  28.656  35.939  1.00  0.00     0.041 A 
ATOM     66  F   UNL A   1      45.783  30.088  34.316  1.00  0.00    -0.206 F 
ATOM     67  C   UNL A   1      46.506  27.666  36.904  1.00  0.00     0.022 A 
BRANCH  64  68
ATOM     68  S   UNL A   1      44.947  25.939  38.442  1.00  0.00     0.124 S 
ATOM     69  O   UNL A   1      44.210  24.865  37.782  1.00  0.00    -0.237 OA
ATOM     70  O   UNL A   1      46.301  25.609  38.874  1.00  0.00    -0.237 OA
ATOM     71  O   UNL A   1      44.168  26.735  39.389  1.00  0.00    -0.744 OA
ENDBRANCH  64  68
ENDBRANCH  38  61
ENDBRANCH  12  13
ENDBRANCH   5   7
ENDBRANCH   2   3
ENDBRANCH   1   2
BRANCH   1  72
ATOM     72  C   UNL A   1      31.476  30.285  26.003  1.00  0.00     0.117 C 
BRANCH  72  73
ATOM     73  N   UNL A   1      32.648  29.925  25.210  1.00  0.00    -0.356 N 
ATOM     74  C   UNL A   1      33.558  28.965  25.599  1.00  0.00     0.223 C 
ATOM     75  H   UNL A   1      32.796  30.391  24.355  1.00  0.00     0.163 HD
ATOM     76  O   UNL A   1      34.497  29.273  26.327  1.00  0.00    -0.275 OA
BRANCH  74  77
ATOM     77  C   UNL A   1      33.253  27.524  25.163  1.00  0.00     0.091 C 
ATOM     78  C   UNL A   1      33.804  26.705  26.356  1.00  0.00     0.014 C 
ATOM     79  C   UNL A   1      33.907  27.038  23.823  1.00  0.00     0.091 C 
ATOM     80  C   UNL A   1      33.685  25.210  26.173  1.00  0.00     0.001 C 
ATOM     81  C   UNL A   1      33.831  25.492  23.726  1.00  0.00     0.014 C 
ATOM     82  C   UNL A   1      34.430  24.794  24.926  1.00  0.00     0.001 C 
BRANCH  79  83
ATOM     83  C   UNL A   1      33.556  27.427  22.356  1.00  0.00     0.228 C 
ATOM     84  O   UNL A   1      34.486  27.726  21.589  1.00  0.00    -0.274 OA
ATOM     85  N   UNL A   1      32.371  27.172  21.732  1.00  0.00    -0.325 N 
ATOM     86  H   UNL A   1      32.403  27.141  20.749  1.00  0.00     0.169 HD
BRANCH  85  87
ATOM     87  C   UNL A   1      31.126  26.950  22.302  1.00  0.00     0.054 A 
ATOM     88  C   UNL A   1      30.753  25.607  22.442  1.00  0.00     0.027 A 
ATOM     89  C   UNL A   1      30.326  27.981  22.807  1.00  0.00     0.063 A 
ATOM     90  C   UNL A   1      29.730  25.266  23.319  1.00  0.00     0.002 A 
ATOM     91  C   UNL A   1      29.319  27.621  23.718  1.00  0.00     0.016 A 
ATOM     92  C   UNL A   1      29.057  26.272  24.007  1.00  0.00     0.001 A 
BRANCH  89  93
ATOM     93  C   UNL A   1      30.485  29.439  22.431  1.00  0.00     0.256 C 
ATOM     94  O   UNL A   1      31.602  29.896  22.200  1.00  0.00    -0.269 OA
ATOM     95  N   UNL A   1      29.340  30.243  22.400  1.00  0.00    -0.334 N 
ATOM     96  C   UNL A   1      29.040  31.009  23.600  1.00  0.00     0.148 C 
ATOM     97  C   UNL A   1      29.030  30.998  21.179  1.00  0.00     0.148 C 
ATOM     98  C   UNL A   1      27.612  31.556  23.545  1.00  0.00     0.181 C 
ATOM     99  C   UNL A   1      27.654  31.676  21.202  1.00  0.00     0.181 C 
ATOM    100  O   UNL A   1      27.452  32.421  22.410  1.00  0.00    -0.378 OA
ENDBRANCH  89  93
ENDBRANCH  85  87
ENDBRANCH  79  83
ENDBRANCH  74  77
ENDBRANCH  72  73
ENDBRANCH   1  72
TORSDOF 16
ENDMDL
