MODEL 1
REMARK VINA RESULT:     -12.7      0.000      0.000
REMARK SMILES CCc1cc(OC(F)(F)F)cc2c1O[C@@H](C(F)(F)F)C(C(=O)NCCCNC(=O)c1ccc(-c3c4nc(c(-c5cc(S(=O)(=O)[O-])ccc5F)c5ccc([nH]5)c(-c5cc(S(=O)(=O)[O-])ccc5F)c5nc(c(-c6cc(S(=O)(=O)[O-])ccc6F)c6ccc3[nH]6)C=C5)C=C4)cc1)=C2
REMARK SMILES IDX 25 1 24 2 23 3 21 4 22 5 20 7 3 8 4 9 13 10 5 11 12 12 14 13
REMARK SMILES IDX 11 14 93 15 15 16 2 17 1 18 6 19 7 20 8 21 9 22 10 23 16 24
REMARK SMILES IDX 17 25 18 26 19 27 26 28 27 29 28 30 29 32 30 33 31 34 92 35
REMARK SMILES IDX 32 36 91 37 33 38 34 39 35 40 85 41 36 42 90 43 84 44 86 45
REMARK SMILES IDX 37 46 89 47 83 48 82 49 38 51 70 52 50 53 69 54 51 55 54 56
REMARK SMILES IDX 68 57 87 58 52 59 53 60 67 62 88 63 55 64 39 65 40 66 48 67
REMARK SMILES IDX 41 68 47 69 49 70 46 71 42 72 43 73 44 74 45 75 71 76 72 77
REMARK SMILES IDX 80 78 73 79 79 80 81 81 78 82 74 83 75 84 76 85 77 86 56 87
REMARK SMILES IDX 57 88 65 89 58 90 64 91 66 92 63 93 59 94 60 95 61 96 62 97
REMARK H PARENT 23 6 27 31 86 50 54 61
REMARK Flexibility Score: inf
ROOT
ATOM      1  C   UNL A   1      35.474  21.843  24.419  1.00  0.00     0.042 C 
ENDROOT
BRANCH   1   2
ATOM      2  C   UNL A   1      34.762  22.867  23.529  1.00  0.00     0.118 C 
BRANCH   2   3
ATOM      3  N   UNL A   1      33.414  22.420  23.213  1.00  0.00    -0.352 N 
ATOM      4  C   UNL A   1      32.188  22.991  23.330  1.00  0.00     0.251 C 
ATOM      5  O   UNL A   1      31.207  22.288  23.098  1.00  0.00    -0.270 OA
ATOM      6  H   UNL A   1      33.384  21.511  22.833  1.00  0.00     0.163 HD
BRANCH   4   7
ATOM      7  C   UNL A   1      31.982  24.429  23.646  1.00  0.00     0.067 C 
ATOM      8  C   UNL A   1      31.246  28.391  24.894  1.00  0.00    -0.002 A 
ATOM      9  C   UNL A   1      30.648  29.278  23.979  1.00  0.00     0.054 A 
ATOM     10  C   UNL A   1      31.515  27.074  24.475  1.00  0.00     0.131 A 
ATOM     11  C   UNL A   1      30.360  28.882  22.671  1.00  0.00     0.130 A 
ATOM     12  C   UNL A   1      31.248  26.677  23.167  1.00  0.00     0.021 A 
ATOM     13  O   UNL A   1      31.973  26.198  25.417  1.00  0.00    -0.475 OA
ATOM     14  C   UNL A   1      30.676  27.583  22.270  1.00  0.00     0.058 A 
ATOM     15  C   UNL A   1      31.481  25.301  22.761  1.00  0.00     0.025 C 
ATOM     16  C   UNL A   1      32.527  24.920  24.985  1.00  0.00     0.314 C 
BRANCH   8  17
ATOM     17  C   UNL A   1      31.562  28.797  26.321  1.00  0.00     0.036 C 
ATOM     18  C   UNL A   1      31.995  30.244  26.535  1.00  0.00     0.009 C 
ENDBRANCH   8  17
BRANCH  11  19
ATOM     19  O   UNL A   1      29.768  29.637  21.700  1.00  0.00    -0.406 OA
BRANCH  19  20
ATOM     20  C   UNL A   1      28.408  29.993  21.871  1.00  0.00     0.573 C 
ATOM     21  F   UNL A   1      27.728  29.023  22.521  1.00  0.00    -0.132 F 
ATOM     22  F   UNL A   1      28.290  31.154  22.551  1.00  0.00    -0.132 F 
ATOM     23  F   UNL A   1      27.843  30.156  20.656  1.00  0.00    -0.132 F 
ENDBRANCH  19  20
ENDBRANCH  11  19
BRANCH  16  24
ATOM     24  C   UNL A   1      32.408  23.957  26.190  1.00  0.00     0.429 C 
ATOM     25  F   UNL A   1      33.603  23.498  26.625  1.00  0.00    -0.167 F 
ATOM     26  F   UNL A   1      31.862  24.594  27.264  1.00  0.00    -0.167 F 
ATOM     27  F   UNL A   1      31.612  22.894  25.929  1.00  0.00    -0.167 F 
ENDBRANCH  16  24
ENDBRANCH   4   7
ENDBRANCH   2   3
ENDBRANCH   1   2
BRANCH   1  28
ATOM     28  C   UNL A   1      36.933  22.204  24.698  1.00  0.00     0.118 C 
BRANCH  28  29
ATOM     29  N   UNL A   1      37.669  21.078  25.254  1.00  0.00    -0.352 N 
ATOM     30  C   UNL A   1      38.881  21.053  25.903  1.00  0.00     0.251 C 
ATOM     31  H   UNL A   1      37.234  20.201  25.150  1.00  0.00     0.163 HD
ATOM     32  O   UNL A   1      39.464  19.985  26.048  1.00  0.00    -0.269 OA
BRANCH  30  33
ATOM     33  C   UNL A   1      39.479  22.308  26.407  1.00  0.00     0.039 A 
ATOM     34  C   UNL A   1      40.477  22.241  27.383  1.00  0.00     0.014 A 
ATOM     35  C   UNL A   1      39.042  23.548  25.933  1.00  0.00     0.014 A 
ATOM     36  C   UNL A   1      41.093  23.416  27.825  1.00  0.00     0.010 A 
ATOM     37  C   UNL A   1      39.703  24.709  26.325  1.00  0.00     0.010 A 
ATOM     38  C   UNL A   1      40.742  24.654  27.265  1.00  0.00    -0.014 A 
BRANCH  38  39
ATOM     39  C   UNL A   1      41.469  25.902  27.616  1.00  0.00     0.031 A 
ATOM     40  C   UNL A   1      40.798  26.964  28.438  1.00  0.00     0.074 A 
ATOM     41  C   UNL A   1      42.703  26.108  27.117  1.00  0.00     0.049 A 
ATOM     42  N   UNL A   1      41.220  28.163  28.748  1.00  0.00    -0.248 NA
ATOM     43  C   UNL A   1      39.461  26.642  28.957  1.00  0.00     0.031 C 
ATOM     44  C   UNL A   1      43.451  25.158  26.293  1.00  0.00     0.029 A 
ATOM     45  N   UNL A   1      43.543  27.188  27.221  1.00  0.00    -0.354 N 
ATOM     46  C   UNL A   1      40.200  28.742  29.495  1.00  0.00     0.074 A 
ATOM     47  C   UNL A   1      39.113  27.785  29.527  1.00  0.00     0.031 C 
ATOM     48  C   UNL A   1      44.646  25.684  25.989  1.00  0.00     0.029 A 
ATOM     49  C   UNL A   1      44.730  27.032  26.543  1.00  0.00     0.049 A 
ATOM     50  H   UNL A   1      43.317  28.000  27.731  1.00  0.00     0.167 HD
ATOM     51  C   UNL A   1      40.182  29.950  30.114  1.00  0.00     0.034 A 
ATOM     52  C   UNL A   1      45.759  27.883  26.370  1.00  0.00     0.034 A 
ATOM     53  C   UNL A   1      41.271  30.897  30.056  1.00  0.00     0.049 A 
ATOM     54  C   UNL A   1      45.679  29.257  26.986  1.00  0.00     0.074 A 
ATOM     55  C   UNL A   1      41.378  32.131  30.672  1.00  0.00     0.029 A 
ATOM     56  N   UNL A   1      42.438  30.722  29.321  1.00  0.00    -0.354 N 
ATOM     57  N   UNL A   1      44.725  29.777  27.722  1.00  0.00    -0.248 NA
ATOM     58  C   UNL A   1      46.814  30.155  26.745  1.00  0.00     0.031 C 
ATOM     59  C   UNL A   1      42.568  32.733  30.248  1.00  0.00     0.029 A 
ATOM     60  C   UNL A   1      43.248  31.843  29.433  1.00  0.00     0.049 A 
ATOM     61  H   UNL A   1      42.658  29.918  28.796  1.00  0.00     0.167 HD
ATOM     62  C   UNL A   1      45.160  31.056  28.057  1.00  0.00     0.074 A 
ATOM     63  C   UNL A   1      46.465  31.221  27.451  1.00  0.00     0.031 C 
ATOM     64  C   UNL A   1      44.540  32.004  28.806  1.00  0.00     0.034 A 
BRANCH  51  65
ATOM     65  C   UNL A   1      38.927  30.316  30.874  1.00  0.00     0.023 A 
ATOM     66  C   UNL A   1      37.817  30.889  30.226  1.00  0.00     0.031 A 
ATOM     67  C   UNL A   1      38.854  30.148  32.268  1.00  0.00     0.131 A 
ATOM     68  C   UNL A   1      36.734  31.368  30.978  1.00  0.00     0.055 A 
ATOM     69  C   UNL A   1      37.729  30.537  33.000  1.00  0.00     0.041 A 
ATOM     70  F   UNL A   1      39.885  29.626  32.950  1.00  0.00    -0.206 F 
ATOM     71  C   UNL A   1      36.670  31.171  32.358  1.00  0.00     0.022 A 
BRANCH  68  72
ATOM     72  S   UNL A   1      35.509  32.418  30.148  1.00  0.00     0.124 S 
ATOM     73  O   UNL A   1      34.438  32.462  31.140  1.00  0.00    -0.237 OA
ATOM     74  O   UNL A   1      36.245  33.661  29.946  1.00  0.00    -0.237 OA
ATOM     75  O   UNL A   1      35.189  31.675  28.931  1.00  0.00    -0.744 OA
ENDBRANCH  68  72
ENDBRANCH  51  65
BRANCH  52  76
ATOM     76  C   UNL A   1      46.953  27.471  25.579  1.00  0.00     0.023 A 
ATOM     77  C   UNL A   1      47.094  27.869  24.241  1.00  0.00     0.031 A 
ATOM     78  C   UNL A   1      47.955  26.656  26.135  1.00  0.00     0.131 A 
ATOM     79  C   UNL A   1      48.192  27.422  23.490  1.00  0.00     0.055 A 
ATOM     80  C   UNL A   1      49.074  26.258  25.401  1.00  0.00     0.041 A 
ATOM     81  F   UNL A   1      47.871  26.251  27.413  1.00  0.00    -0.206 F 
ATOM     82  C   UNL A   1      49.191  26.633  24.066  1.00  0.00     0.022 A 
BRANCH  79  83
ATOM     83  S   UNL A   1      48.259  27.831  21.726  1.00  0.00     0.124 S 
ATOM     84  O   UNL A   1      49.299  28.853  21.698  1.00  0.00    -0.237 OA
ATOM     85  O   UNL A   1      48.606  26.545  21.130  1.00  0.00    -0.237 OA
ATOM     86  O   UNL A   1      46.908  28.306  21.436  1.00  0.00    -0.744 OA
ENDBRANCH  79  83
ENDBRANCH  52  76
BRANCH  64  87
ATOM     87  C   UNL A   1      45.289  33.295  29.037  1.00  0.00     0.023 A 
ATOM     88  C   UNL A   1      45.144  34.400  28.181  1.00  0.00     0.031 A 
ATOM     89  C   UNL A   1      46.160  33.418  30.136  1.00  0.00     0.131 A 
ATOM     90  C   UNL A   1      45.894  35.564  28.409  1.00  0.00     0.055 A 
ATOM     91  C   UNL A   1      46.855  34.600  30.392  1.00  0.00     0.041 A 
ATOM     92  F   UNL A   1      46.341  32.393  30.983  1.00  0.00    -0.206 F 
ATOM     93  C   UNL A   1      46.732  35.678  29.521  1.00  0.00     0.022 A 
BRANCH  90  94
ATOM     94  S   UNL A   1      45.816  36.904  27.189  1.00  0.00     0.124 S 
ATOM     95  O   UNL A   1      44.379  37.135  27.085  1.00  0.00    -0.237 OA
ATOM     96  O   UNL A   1      46.587  37.962  27.835  1.00  0.00    -0.237 OA
ATOM     97  O   UNL A   1      46.438  36.322  26.001  1.00  0.00    -0.744 OA
ENDBRANCH  90  94
ENDBRANCH  64  87
ENDBRANCH  38  39
ENDBRANCH  30  33
ENDBRANCH  28  29
ENDBRANCH   1  28
TORSDOF 17
ENDMDL
MODEL 2
REMARK VINA RESULT:     -12.7      1.659      2.635
REMARK SMILES CCc1cc(OC(F)(F)F)cc2c1O[C@@H](C(F)(F)F)C(C(=O)NCCCNC(=O)c1ccc(-c3c4nc(c(-c5cc(S(=O)(=O)[O-])ccc5F)c5ccc([nH]5)c(-c5cc(S(=O)(=O)[O-])ccc5F)c5nc(c(-c6cc(S(=O)(=O)[O-])ccc6F)c6ccc3[nH]6)C=C5)C=C4)cc1)=C2
REMARK SMILES IDX 25 1 24 2 23 3 21 4 22 5 20 7 3 8 4 9 13 10 5 11 12 12 14 13
REMARK SMILES IDX 11 14 93 15 15 16 2 17 1 18 6 19 7 20 8 21 9 22 10 23 16 24
REMARK SMILES IDX 17 25 18 26 19 27 26 28 27 29 28 30 29 32 30 33 31 34 92 35
REMARK SMILES IDX 32 36 91 37 33 38 34 39 35 40 85 41 36 42 90 43 84 44 86 45
REMARK SMILES IDX 37 46 89 47 83 48 82 49 38 51 70 52 50 53 69 54 51 55 54 56
REMARK SMILES IDX 68 57 87 58 52 59 53 60 67 62 88 63 55 64 39 65 40 66 48 67
REMARK SMILES IDX 41 68 47 69 49 70 46 71 42 72 43 73 44 74 45 75 71 76 72 77
REMARK SMILES IDX 80 78 73 79 79 80 81 81 78 82 74 83 75 84 76 85 77 86 56 87
REMARK SMILES IDX 57 88 65 89 58 90 64 91 66 92 63 93 59 94 60 95 61 96 62 97
REMARK H PARENT 23 6 27 31 86 50 54 61
REMARK Flexibility Score: inf
ROOT
ATOM      1  C   UNL A   1      35.014  21.986  26.017  1.00  0.00     0.042 C 
ENDROOT
BRANCH   1   2
ATOM      2  C   UNL A   1      34.211  23.263  26.283  1.00  0.00     0.118 C 
BRANCH   2   3
ATOM      3  N   UNL A   1      32.823  22.942  26.582  1.00  0.00    -0.352 N 
ATOM      4  C   UNL A   1      31.692  23.686  26.682  1.00  0.00     0.251 C 
ATOM      5  O   UNL A   1      30.677  23.128  27.094  1.00  0.00    -0.270 OA
ATOM      6  H   UNL A   1      32.672  21.983  26.747  1.00  0.00     0.163 HD
BRANCH   4   7
ATOM      7  C   UNL A   1      31.606  25.106  26.249  1.00  0.00     0.067 C 
ATOM      8  C   UNL A   1      31.499  29.013  24.663  1.00  0.00    -0.002 A 
ATOM      9  C   UNL A   1      32.016  30.064  25.445  1.00  0.00     0.054 A 
ATOM     10  C   UNL A   1      31.511  27.711  25.197  1.00  0.00     0.131 A 
ATOM     11  C   UNL A   1      32.496  29.836  26.736  1.00  0.00     0.130 A 
ATOM     12  C   UNL A   1      31.971  27.479  26.492  1.00  0.00     0.021 A 
ATOM     13  O   UNL A   1      31.127  26.692  24.373  1.00  0.00    -0.475 OA
ATOM     14  C   UNL A   1      32.457  28.542  27.256  1.00  0.00     0.058 A 
ATOM     15  C   UNL A   1      32.027  26.123  27.013  1.00  0.00     0.025 C 
ATOM     16  C   UNL A   1      30.854  25.380  24.949  1.00  0.00     0.314 C 
BRANCH   8  17
ATOM     17  C   UNL A   1      30.979  29.235  23.255  1.00  0.00     0.036 C 
ATOM     18  C   UNL A   1      29.480  29.478  23.117  1.00  0.00     0.009 C 
ENDBRANCH   8  17
BRANCH  11  19
ATOM     19  O   UNL A   1      33.036  30.762  27.582  1.00  0.00    -0.406 OA
BRANCH  19  20
ATOM     20  C   UNL A   1      34.445  30.892  27.614  1.00  0.00     0.573 C 
ATOM     21  F   UNL A   1      35.036  29.987  26.804  1.00  0.00    -0.132 F 
ATOM     22  F   UNL A   1      34.828  32.135  27.252  1.00  0.00    -0.132 F 
ATOM     23  F   UNL A   1      34.876  30.667  28.874  1.00  0.00    -0.132 F 
ENDBRANCH  19  20
ENDBRANCH  11  19
BRANCH  16  24
ATOM     24  C   UNL A   1      31.026  24.352  23.805  1.00  0.00     0.429 C 
ATOM     25  F   UNL A   1      30.277  23.239  23.974  1.00  0.00    -0.167 F 
ATOM     26  F   UNL A   1      30.615  24.878  22.617  1.00  0.00    -0.167 F 
ATOM     27  F   UNL A   1      32.315  23.976  23.634  1.00  0.00    -0.167 F 
ENDBRANCH  16  24
ENDBRANCH   4   7
ENDBRANCH   2   3
ENDBRANCH   1   2
BRANCH   1  28
ATOM     28  C   UNL A   1      36.368  22.256  25.362  1.00  0.00     0.118 C 
BRANCH  28  29
ATOM     29  N   UNL A   1      37.293  21.148  25.562  1.00  0.00    -0.352 N 
ATOM     30  C   UNL A   1      38.628  21.165  25.885  1.00  0.00     0.251 C 
ATOM     31  H   UNL A   1      36.902  20.252  25.447  1.00  0.00     0.163 HD
ATOM     32  O   UNL A   1      39.296  20.148  25.735  1.00  0.00    -0.269 OA
BRANCH  30  33
ATOM     33  C   UNL A   1      39.254  22.404  26.395  1.00  0.00     0.039 A 
ATOM     34  C   UNL A   1      40.361  22.308  27.243  1.00  0.00     0.014 A 
ATOM     35  C   UNL A   1      38.737  23.657  26.055  1.00  0.00     0.014 A 
ATOM     36  C   UNL A   1      40.998  23.471  27.684  1.00  0.00     0.010 A 
ATOM     37  C   UNL A   1      39.413  24.812  26.440  1.00  0.00     0.010 A 
ATOM     38  C   UNL A   1      40.557  24.730  27.248  1.00  0.00    -0.014 A 
BRANCH  38  39
ATOM     39  C   UNL A   1      41.292  25.975  27.590  1.00  0.00     0.031 A 
ATOM     40  C   UNL A   1      40.631  27.044  28.412  1.00  0.00     0.074 A 
ATOM     41  C   UNL A   1      42.525  26.173  27.085  1.00  0.00     0.049 A 
ATOM     42  N   UNL A   1      41.062  28.242  28.716  1.00  0.00    -0.248 NA
ATOM     43  C   UNL A   1      39.295  26.731  28.939  1.00  0.00     0.031 C 
ATOM     44  C   UNL A   1      43.264  25.215  26.261  1.00  0.00     0.029 A 
ATOM     45  N   UNL A   1      43.372  27.248  27.181  1.00  0.00    -0.354 N 
ATOM     46  C   UNL A   1      40.048  28.829  29.465  1.00  0.00     0.074 A 
ATOM     47  C   UNL A   1      38.956  27.878  29.506  1.00  0.00     0.031 C 
ATOM     48  C   UNL A   1      44.461  25.734  25.949  1.00  0.00     0.029 A 
ATOM     49  C   UNL A   1      44.554  27.083  26.498  1.00  0.00     0.049 A 
ATOM     50  H   UNL A   1      43.153  28.063  27.689  1.00  0.00     0.167 HD
ATOM     51  C   UNL A   1      40.040  30.039  30.080  1.00  0.00     0.034 A 
ATOM     52  C   UNL A   1      45.587  27.928  26.317  1.00  0.00     0.034 A 
ATOM     53  C   UNL A   1      41.134  30.980  30.013  1.00  0.00     0.049 A 
ATOM     54  C   UNL A   1      45.518  29.304  26.928  1.00  0.00     0.074 A 
ATOM     55  C   UNL A   1      41.250  32.215  30.624  1.00  0.00     0.029 A 
ATOM     56  N   UNL A   1      42.296  30.796  29.273  1.00  0.00    -0.354 N 
ATOM     57  N   UNL A   1      44.570  29.833  27.667  1.00  0.00    -0.248 NA
ATOM     58  C   UNL A   1      46.656  30.196  26.679  1.00  0.00     0.031 C 
ATOM     59  C   UNL A   1      42.441  32.810  30.192  1.00  0.00     0.029 A 
ATOM     60  C   UNL A   1      43.113  31.913  29.377  1.00  0.00     0.049 A 
ATOM     61  H   UNL A   1      42.509  29.989  28.750  1.00  0.00     0.167 HD
ATOM     62  C   UNL A   1      45.014  31.110  27.996  1.00  0.00     0.074 A 
ATOM     63  C   UNL A   1      46.317  31.266  27.382  1.00  0.00     0.031 C 
ATOM     64  C   UNL A   1      44.403  32.065  28.743  1.00  0.00     0.034 A 
BRANCH  51  65
ATOM     65  C   UNL A   1      38.790  30.415  30.845  1.00  0.00     0.023 A 
ATOM     66  C   UNL A   1      37.895  31.384  30.357  1.00  0.00     0.031 A 
ATOM     67  C   UNL A   1      38.516  29.847  32.100  1.00  0.00     0.131 A 
ATOM     68  C   UNL A   1      36.835  31.830  31.160  1.00  0.00     0.055 A 
ATOM     69  C   UNL A   1      37.402  30.224  32.854  1.00  0.00     0.041 A 
ATOM     70  F   UNL A   1      39.340  28.930  32.632  1.00  0.00    -0.206 F 
ATOM     71  C   UNL A   1      36.566  31.237  32.395  1.00  0.00     0.022 A 
BRANCH  68  72
ATOM     72  S   UNL A   1      35.938  33.323  30.650  1.00  0.00     0.124 S 
ATOM     73  O   UNL A   1      36.359  34.282  31.668  1.00  0.00    -0.237 OA
ATOM     74  O   UNL A   1      36.449  33.553  29.304  1.00  0.00    -0.237 OA
ATOM     75  O   UNL A   1      34.535  32.922  30.728  1.00  0.00    -0.744 OA
ENDBRANCH  68  72
ENDBRANCH  51  65
BRANCH  52  76
ATOM     76  C   UNL A   1      46.775  27.506  25.522  1.00  0.00     0.023 A 
ATOM     77  C   UNL A   1      46.919  27.911  24.186  1.00  0.00     0.031 A 
ATOM     78  C   UNL A   1      47.768  26.675  26.072  1.00  0.00     0.131 A 
ATOM     79  C   UNL A   1      48.011  27.456  23.431  1.00  0.00     0.055 A 
ATOM     80  C   UNL A   1      48.881  26.269  25.333  1.00  0.00     0.041 A 
ATOM     81  F   UNL A   1      47.680  26.264  27.347  1.00  0.00    -0.206 F 
ATOM     82  C   UNL A   1      49.001  26.651  24.000  1.00  0.00     0.022 A 
BRANCH  79  83
ATOM     83  S   UNL A   1      48.081  27.875  21.670  1.00  0.00     0.124 S 
ATOM     84  O   UNL A   1      49.223  28.782  21.627  1.00  0.00    -0.237 OA
ATOM     85  O   UNL A   1      48.276  26.567  21.054  1.00  0.00    -0.237 OA
ATOM     86  O   UNL A   1      46.782  28.494  21.416  1.00  0.00    -0.744 OA
ENDBRANCH  79  83
ENDBRANCH  52  76
BRANCH  64  87
ATOM     87  C   UNL A   1      45.160  33.352  28.967  1.00  0.00     0.023 A 
ATOM     88  C   UNL A   1      44.990  34.467  28.127  1.00  0.00     0.031 A 
ATOM     89  C   UNL A   1      46.064  33.462  30.039  1.00  0.00     0.131 A 
ATOM     90  C   UNL A   1      45.748  35.628  28.346  1.00  0.00     0.055 A 
ATOM     91  C   UNL A   1      46.768  34.641  30.288  1.00  0.00     0.041 A 
ATOM     92  F   UNL A   1      46.269  32.428  30.869  1.00  0.00    -0.206 F 
ATOM     93  C   UNL A   1      46.620  35.728  29.433  1.00  0.00     0.022 A 
BRANCH  90  94
ATOM     94  S   UNL A   1      45.635  36.982  27.144  1.00  0.00     0.124 S 
ATOM     95  O   UNL A   1      46.204  38.098  27.892  1.00  0.00    -0.237 OA
ATOM     96  O   UNL A   1      46.439  36.483  26.033  1.00  0.00    -0.237 OA
ATOM     97  O   UNL A   1      44.201  37.082  26.875  1.00  0.00    -0.744 OA
ENDBRANCH  90  94
ENDBRANCH  64  87
ENDBRANCH  38  39
ENDBRANCH  30  33
ENDBRANCH  28  29
ENDBRANCH   1  28
TORSDOF 17
ENDMDL
MODEL 3
REMARK VINA RESULT:     -12.6      5.678     10.971
REMARK SMILES CCc1cc(OC(F)(F)F)cc2c1O[C@@H](C(F)(F)F)C(C(=O)NCCCNC(=O)c1ccc(-c3c4nc(c(-c5cc(S(=O)(=O)[O-])ccc5F)c5ccc([nH]5)c(-c5cc(S(=O)(=O)[O-])ccc5F)c5nc(c(-c6cc(S(=O)(=O)[O-])ccc6F)c6ccc3[nH]6)C=C5)C=C4)cc1)=C2
REMARK SMILES IDX 25 1 24 2 23 3 21 4 22 5 20 7 3 8 4 9 13 10 5 11 12 12 14 13
REMARK SMILES IDX 11 14 93 15 15 16 2 17 1 18 6 19 7 20 8 21 9 22 10 23 16 24
REMARK SMILES IDX 17 25 18 26 19 27 26 28 27 29 28 30 29 32 30 33 31 34 92 35
REMARK SMILES IDX 32 36 91 37 33 38 34 39 35 40 85 41 36 42 90 43 84 44 86 45
REMARK SMILES IDX 37 46 89 47 83 48 82 49 38 51 70 52 50 53 69 54 51 55 54 56
REMARK SMILES IDX 68 57 87 58 52 59 53 60 67 62 88 63 55 64 39 65 40 66 48 67
REMARK SMILES IDX 41 68 47 69 49 70 46 71 42 72 43 73 44 74 45 75 71 76 72 77
REMARK SMILES IDX 80 78 73 79 79 80 81 81 78 82 74 83 75 84 76 85 77 86 56 87
REMARK SMILES IDX 57 88 65 89 58 90 64 91 66 92 63 93 59 94 60 95 61 96 62 97
REMARK H PARENT 23 6 27 31 86 50 54 61
REMARK Flexibility Score: inf
ROOT
ATOM      1  C   UNL A   1      34.222  31.720  27.369  1.00  0.00     0.042 C 
ENDROOT
BRANCH   1   2
ATOM      2  C   UNL A   1      34.379  30.208  27.184  1.00  0.00     0.118 C 
BRANCH   2   3
ATOM      3  N   UNL A   1      33.223  29.504  27.719  1.00  0.00    -0.352 N 
ATOM      4  C   UNL A   1      32.441  28.498  27.250  1.00  0.00     0.251 C 
ATOM      5  O   UNL A   1      31.435  28.211  27.894  1.00  0.00    -0.270 OA
ATOM      6  H   UNL A   1      32.951  29.824  28.610  1.00  0.00     0.163 HD
BRANCH   4   7
ATOM      7  C   UNL A   1      32.782  27.688  26.051  1.00  0.00     0.067 C 
ATOM      8  C   UNL A   1      33.374  25.452  22.523  1.00  0.00    -0.002 A 
ATOM      9  C   UNL A   1      34.026  24.208  22.624  1.00  0.00     0.054 A 
ATOM     10  C   UNL A   1      33.195  26.213  23.694  1.00  0.00     0.131 A 
ATOM     11  C   UNL A   1      34.521  23.748  23.846  1.00  0.00     0.130 A 
ATOM     12  C   UNL A   1      33.702  25.770  24.913  1.00  0.00     0.021 A 
ATOM     13  O   UNL A   1      32.447  27.351  23.594  1.00  0.00    -0.475 OA
ATOM     14  C   UNL A   1      34.366  24.542  24.983  1.00  0.00     0.058 A 
ATOM     15  C   UNL A   1      33.465  26.538  26.124  1.00  0.00     0.025 C 
ATOM     16  C   UNL A   1      32.464  28.309  24.693  1.00  0.00     0.314 C 
BRANCH   8  17
ATOM     17  C   UNL A   1      32.822  25.969  21.208  1.00  0.00     0.036 C 
ATOM     18  C   UNL A   1      32.811  24.984  20.043  1.00  0.00     0.009 C 
ENDBRANCH   8  17
BRANCH  11  19
ATOM     19  O   UNL A   1      35.151  22.560  24.077  1.00  0.00    -0.406 OA
BRANCH  19  20
ATOM     20  C   UNL A   1      36.547  22.491  23.853  1.00  0.00     0.573 C 
ATOM     21  F   UNL A   1      36.844  22.726  22.555  1.00  0.00    -0.132 F 
ATOM     22  F   UNL A   1      37.210  23.373  24.631  1.00  0.00    -0.132 F 
ATOM     23  F   UNL A   1      36.978  21.248  24.160  1.00  0.00    -0.132 F 
ENDBRANCH  19  20
ENDBRANCH  11  19
BRANCH  16  24
ATOM     24  C   UNL A   1      31.159  29.132  24.582  1.00  0.00     0.429 C 
ATOM     25  F   UNL A   1      31.160  30.238  25.359  1.00  0.00    -0.167 F 
ATOM     26  F   UNL A   1      30.985  29.592  23.311  1.00  0.00    -0.167 F 
ATOM     27  F   UNL A   1      30.058  28.403  24.881  1.00  0.00    -0.167 F 
ENDBRANCH  16  24
ENDBRANCH   4   7
ENDBRANCH   2   3
ENDBRANCH   1   2
BRANCH   1  28
ATOM     28  C   UNL A   1      32.776  32.146  27.620  1.00  0.00     0.118 C 
BRANCH  28  29
ATOM     29  N   UNL A   1      32.648  33.595  27.694  1.00  0.00    -0.352 N 
ATOM     30  C   UNL A   1      33.260  34.490  28.538  1.00  0.00     0.251 C 
ATOM     31  H   UNL A   1      32.028  33.994  27.042  1.00  0.00     0.163 HD
ATOM     32  O   UNL A   1      32.817  35.629  28.632  1.00  0.00    -0.269 OA
BRANCH  30  33
ATOM     33  C   UNL A   1      34.436  34.076  29.334  1.00  0.00     0.039 A 
ATOM     34  C   UNL A   1      34.238  33.346  30.509  1.00  0.00     0.014 A 
ATOM     35  C   UNL A   1      35.728  34.424  28.933  1.00  0.00     0.014 A 
ATOM     36  C   UNL A   1      35.342  32.897  31.239  1.00  0.00     0.010 A 
ATOM     37  C   UNL A   1      36.826  33.919  29.624  1.00  0.00     0.010 A 
ATOM     38  C   UNL A   1      36.644  33.141  30.776  1.00  0.00    -0.014 A 
BRANCH  38  39
ATOM     39  C   UNL A   1      37.834  32.564  31.455  1.00  0.00     0.031 A 
ATOM     40  C   UNL A   1      38.552  31.388  30.858  1.00  0.00     0.074 A 
ATOM     41  C   UNL A   1      38.210  33.052  32.654  1.00  0.00     0.049 A 
ATOM     42  N   UNL A   1      39.531  30.675  31.355  1.00  0.00    -0.248 NA
ATOM     43  C   UNL A   1      38.086  30.939  29.539  1.00  0.00     0.031 C 
ATOM     44  C   UNL A   1      37.580  34.180  33.342  1.00  0.00     0.029 A 
ATOM     45  N   UNL A   1      39.204  32.655  33.511  1.00  0.00    -0.354 N 
ATOM     46  C   UNL A   1      39.796  29.689  30.411  1.00  0.00     0.074 A 
ATOM     47  C   UNL A   1      38.826  29.858  29.348  1.00  0.00     0.031 C 
ATOM     48  C   UNL A   1      38.219  34.401  34.500  1.00  0.00     0.029 A 
ATOM     49  C   UNL A   1      39.264  33.396  34.669  1.00  0.00     0.049 A 
ATOM     50  H   UNL A   1      39.817  31.909  33.318  1.00  0.00     0.167 HD
ATOM     51  C   UNL A   1      40.773  28.746  30.420  1.00  0.00     0.034 A 
ATOM     52  C   UNL A   1      40.055  33.269  35.751  1.00  0.00     0.034 A 
ATOM     53  C   UNL A   1      41.721  28.585  31.497  1.00  0.00     0.049 A 
ATOM     54  C   UNL A   1      41.070  32.155  35.784  1.00  0.00     0.074 A 
ATOM     55  C   UNL A   1      42.772  27.692  31.597  1.00  0.00     0.029 A 
ATOM     56  N   UNL A   1      41.720  29.325  32.674  1.00  0.00    -0.354 N 
ATOM     57  N   UNL A   1      41.337  31.253  34.868  1.00  0.00    -0.248 NA
ATOM     58  C   UNL A   1      41.888  32.043  36.997  1.00  0.00     0.031 C 
ATOM     59  C   UNL A   1      43.355  27.837  32.862  1.00  0.00     0.029 A 
ATOM     60  C   UNL A   1      42.723  28.878  33.522  1.00  0.00     0.049 A 
ATOM     61  H   UNL A   1      41.097  30.060  32.877  1.00  0.00     0.167 HD
ATOM     62  C   UNL A   1      42.376  30.484  35.384  1.00  0.00     0.074 A 
ATOM     63  C   UNL A   1      42.692  31.036  36.686  1.00  0.00     0.031 C 
ATOM     64  C   UNL A   1      43.016  29.424  34.828  1.00  0.00     0.034 A 
BRANCH  51  65
ATOM     65  C   UNL A   1      40.831  27.802  29.240  1.00  0.00     0.023 A 
ATOM     66  C   UNL A   1      41.759  27.984  28.199  1.00  0.00     0.031 A 
ATOM     67  C   UNL A   1      39.914  26.743  29.119  1.00  0.00     0.131 A 
ATOM     68  C   UNL A   1      41.683  27.195  27.042  1.00  0.00     0.055 A 
ATOM     69  C   UNL A   1      39.908  25.896  28.008  1.00  0.00     0.041 A 
ATOM     70  F   UNL A   1      38.990  26.526  30.068  1.00  0.00    -0.206 F 
ATOM     71  C   UNL A   1      40.780  26.133  26.951  1.00  0.00     0.022 A 
BRANCH  68  72
ATOM     72  S   UNL A   1      42.646  27.700  25.590  1.00  0.00     0.124 S 
ATOM     73  O   UNL A   1      43.945  27.999  26.187  1.00  0.00    -0.237 OA
ATOM     74  O   UNL A   1      42.588  26.513  24.745  1.00  0.00    -0.237 OA
ATOM     75  O   UNL A   1      41.919  28.864  25.086  1.00  0.00    -0.744 OA
ENDBRANCH  68  72
ENDBRANCH  51  65
BRANCH  52  76
ATOM     76  C   UNL A   1      39.922  34.213  36.896  1.00  0.00     0.023 A 
ATOM     77  C   UNL A   1      39.347  33.792  38.105  1.00  0.00     0.031 A 
ATOM     78  C   UNL A   1      40.342  35.551  36.795  1.00  0.00     0.131 A 
ATOM     79  C   UNL A   1      39.172  34.708  39.153  1.00  0.00     0.055 A 
ATOM     80  C   UNL A   1      40.216  36.446  37.860  1.00  0.00     0.041 A 
ATOM     81  F   UNL A   1      40.903  36.004  35.663  1.00  0.00    -0.206 F 
ATOM     82  C   UNL A   1      39.617  36.028  39.044  1.00  0.00     0.022 A 
BRANCH  79  83
ATOM     83  S   UNL A   1      38.287  34.166  40.639  1.00  0.00     0.124 S 
ATOM     84  O   UNL A   1      39.356  33.536  41.406  1.00  0.00    -0.237 OA
ATOM     85  O   UNL A   1      37.777  35.428  41.165  1.00  0.00    -0.237 OA
ATOM     86  O   UNL A   1      37.272  33.255  40.117  1.00  0.00    -0.744 OA
ENDBRANCH  79  83
ENDBRANCH  52  76
BRANCH  64  87
ATOM     87  C   UNL A   1      44.149  28.814  35.618  1.00  0.00     0.023 A 
ATOM     88  C   UNL A   1      43.958  27.693  36.444  1.00  0.00     0.031 A 
ATOM     89  C   UNL A   1      45.441  29.366  35.540  1.00  0.00     0.131 A 
ATOM     90  C   UNL A   1      45.031  27.187  37.194  1.00  0.00     0.055 A 
ATOM     91  C   UNL A   1      46.517  28.821  36.241  1.00  0.00     0.041 A 
ATOM     92  F   UNL A   1      45.680  30.441  34.771  1.00  0.00    -0.206 F 
ATOM     93  C   UNL A   1      46.313  27.731  37.082  1.00  0.00     0.022 A 
BRANCH  90  94
ATOM     94  S   UNL A   1      44.711  25.852  38.381  1.00  0.00     0.124 S 
ATOM     95  O   UNL A   1      44.331  26.596  39.577  1.00  0.00    -0.237 OA
ATOM     96  O   UNL A   1      43.643  25.102  37.730  1.00  0.00    -0.237 OA
ATOM     97  O   UNL A   1      45.994  25.155  38.465  1.00  0.00    -0.744 OA
ENDBRANCH  90  94
ENDBRANCH  64  87
ENDBRANCH  38  39
ENDBRANCH  30  33
ENDBRANCH  28  29
ENDBRANCH   1  28
TORSDOF 17
ENDMDL
