MODEL 1
REMARK VINA RESULT:     -12.9      0.000      0.000
REMARK SMILES C[C@@H]1OCC[C@@H]1c1nnc(-c2cccc(C(=O)NCCCNC(=O)c3ccc(-c4c5nc(c(-c6cc(S(=O)(=O)[O-])ccc6F)c6ccc([nH]6)c(-c6cc(S(=O)(=O)[O-])ccc6F)c6nc(c(-c7cc(S(=O)(=O)[O-])ccc7F)c7ccc4[nH]7)C=C6)C=C5)cc3)c2)o1
REMARK SMILES IDX 20 1 19 2 18 3 16 4 17 5 15 7 11 8 12 9 88 10 13 11 14 12
REMARK SMILES IDX 10 13 7 14 8 15 89 16 9 17 6 18 1 19 2 20 3 21 4 22 5 23
REMARK SMILES IDX 21 24 22 25 23 26 24 28 25 29 26 30 87 31 27 32 86 33 28 34
REMARK SMILES IDX 29 35 30 36 80 37 31 38 85 39 79 40 81 41 32 42 84 43 78 44
REMARK SMILES IDX 77 45 33 47 65 48 45 49 64 50 46 51 49 52 63 53 82 54 47 55
REMARK SMILES IDX 48 56 62 58 83 59 50 60 34 61 35 62 43 63 36 64 42 65 44 66
REMARK SMILES IDX 41 67 37 68 38 69 39 70 40 71 66 72 67 73 75 74 68 75 74 76
REMARK SMILES IDX 76 77 73 78 69 79 70 80 71 81 72 82 51 83 52 84 60 85 53 86
REMARK SMILES IDX 59 87 61 88 58 89 54 90 55 91 56 92 57 93
REMARK H PARENT 18 6 22 27 81 46 49 57
REMARK Flexibility Score: inf
ROOT
ATOM      1  C   UNL A   1      35.798  21.849  25.847  1.00  0.00     0.042 C 
ENDROOT
BRANCH   1   2
ATOM      2  C   UNL A   1      35.553  23.257  26.372  1.00  0.00     0.118 C 
BRANCH   2   3
ATOM      3  N   UNL A   1      34.236  23.441  26.965  1.00  0.00    -0.352 N 
ATOM      4  C   UNL A   1      32.938  23.189  26.600  1.00  0.00     0.251 C 
ATOM      5  O   UNL A   1      32.078  23.452  27.446  1.00  0.00    -0.269 OA
ATOM      6  H   UNL A   1      34.292  23.853  27.857  1.00  0.00     0.163 HD
BRANCH   4   7
ATOM      7  C   UNL A   1      32.483  22.683  25.270  1.00  0.00     0.040 A 
ATOM      8  C   UNL A   1      32.167  20.957  23.571  1.00  0.00     0.040 A 
ATOM      9  C   UNL A   1      31.848  21.932  22.625  1.00  0.00     0.014 A 
ATOM     10  C   UNL A   1      32.404  21.343  24.899  1.00  0.00     0.027 A 
ATOM     11  C   UNL A   1      31.792  23.273  23.000  1.00  0.00     0.002 A 
ATOM     12  C   UNL A   1      32.134  23.644  24.304  1.00  0.00     0.014 A 
BRANCH   8  13
ATOM     13  C   UNL A   1      32.388  19.575  23.179  1.00  0.00     0.247 A 
ATOM     14  C   UNL A   1      33.327  17.665  23.237  1.00  0.00     0.222 A 
ATOM     15  N   UNL A   1      32.633  17.712  22.118  1.00  0.00    -0.112 NA
ATOM     16  O   UNL A   1      33.203  18.811  23.979  1.00  0.00    -0.420 OA
ATOM     17  N   UNL A   1      32.017  18.944  22.086  1.00  0.00    -0.108 NA
BRANCH  14  18
ATOM     18  C   UNL A   1      34.054  16.514  23.808  1.00  0.00     0.109 C 
ATOM     19  C   UNL A   1      32.382  16.096  25.771  1.00  0.00     0.039 C 
ATOM     20  C   UNL A   1      33.300  15.526  24.691  1.00  0.00     0.127 C 
ATOM     21  O   UNL A   1      34.339  14.792  25.383  1.00  0.00    -0.378 OA
ATOM     22  C   UNL A   1      35.559  15.553  25.325  1.00  0.00     0.161 C 
ATOM     23  C   UNL A   1      35.221  16.890  24.698  1.00  0.00     0.044 C 
ENDBRANCH  14  18
ENDBRANCH   8  13
ENDBRANCH   4   7
ENDBRANCH   2   3
ENDBRANCH   1   2
BRANCH   1  24
ATOM     24  C   UNL A   1      37.072  21.723  25.017  1.00  0.00     0.118 C 
BRANCH  24  25
ATOM     25  N   UNL A   1      38.020  20.774  25.596  1.00  0.00    -0.352 N 
ATOM     26  C   UNL A   1      39.264  20.955  26.146  1.00  0.00     0.251 C 
ATOM     27  H   UNL A   1      37.710  19.839  25.591  1.00  0.00     0.163 HD
ATOM     28  O   UNL A   1      39.989  19.976  26.308  1.00  0.00    -0.269 OA
BRANCH  26  29
ATOM     29  C   UNL A   1      39.739  22.302  26.531  1.00  0.00     0.039 A 
ATOM     30  C   UNL A   1      40.774  22.419  27.464  1.00  0.00     0.014 A 
ATOM     31  C   UNL A   1      39.138  23.451  26.015  1.00  0.00     0.014 A 
ATOM     32  C   UNL A   1      41.257  23.685  27.811  1.00  0.00     0.010 A 
ATOM     33  C   UNL A   1      39.680  24.703  26.287  1.00  0.00     0.010 A 
ATOM     34  C   UNL A   1      40.746  24.835  27.188  1.00  0.00    -0.014 A 
BRANCH  34  35
ATOM     35  C   UNL A   1      41.317  26.181  27.452  1.00  0.00     0.031 A 
ATOM     36  C   UNL A   1      42.696  26.530  26.958  1.00  0.00     0.074 A 
ATOM     37  C   UNL A   1      40.628  27.054  28.215  1.00  0.00     0.049 A 
ATOM     38  N   UNL A   1      43.408  27.606  27.179  1.00  0.00    -0.248 NA
ATOM     39  C   UNL A   1      43.377  25.519  26.136  1.00  0.00     0.031 C 
ATOM     40  C   UNL A   1      39.305  26.807  28.794  1.00  0.00     0.029 A 
ATOM     41  N   UNL A   1      40.948  28.316  28.650  1.00  0.00    -0.354 N 
ATOM     42  C   UNL A   1      44.626  27.393  26.542  1.00  0.00     0.074 A 
ATOM     43  C   UNL A   1      44.576  26.060  25.980  1.00  0.00     0.031 C 
ATOM     44  C   UNL A   1      38.919  27.889  29.487  1.00  0.00     0.029 A 
ATOM     45  C   UNL A   1      39.984  28.884  29.452  1.00  0.00     0.049 A 
ATOM     46  H   UNL A   1      41.787  28.772  28.410  1.00  0.00     0.167 HD
ATOM     47  C   UNL A   1      45.678  28.240  26.420  1.00  0.00     0.034 A 
ATOM     48  C   UNL A   1      39.969  30.063  30.105  1.00  0.00     0.034 A 
ATOM     49  C   UNL A   1      45.700  29.571  26.977  1.00  0.00     0.049 A 
ATOM     50  C   UNL A   1      41.157  30.981  29.971  1.00  0.00     0.074 A 
ATOM     51  C   UNL A   1      46.679  30.541  26.852  1.00  0.00     0.029 A 
ATOM     52  N   UNL A   1      44.704  30.116  27.778  1.00  0.00    -0.354 N 
ATOM     53  N   UNL A   1      42.275  30.792  29.308  1.00  0.00    -0.248 NA
ATOM     54  C   UNL A   1      41.078  32.272  30.665  1.00  0.00     0.031 C 
ATOM     55  C   UNL A   1      46.312  31.639  27.638  1.00  0.00     0.029 A 
ATOM     56  C   UNL A   1      45.064  31.391  28.187  1.00  0.00     0.049 A 
ATOM     57  H   UNL A   1      43.864  29.663  28.019  1.00  0.00     0.167 HD
ATOM     58  C   UNL A   1      43.022  31.952  29.486  1.00  0.00     0.074 A 
ATOM     59  C   UNL A   1      42.218  32.841  30.302  1.00  0.00     0.031 C 
ATOM     60  C   UNL A   1      44.260  32.258  29.018  1.00  0.00     0.034 A 
BRANCH  47  61
ATOM     61  C   UNL A   1      46.898  27.737  25.681  1.00  0.00     0.023 A 
ATOM     62  C   UNL A   1      47.144  28.075  24.339  1.00  0.00     0.031 A 
ATOM     63  C   UNL A   1      47.816  26.885  26.320  1.00  0.00     0.131 A 
ATOM     64  C   UNL A   1      48.229  27.502  23.657  1.00  0.00     0.055 A 
ATOM     65  C   UNL A   1      48.943  26.386  25.662  1.00  0.00     0.041 A 
ATOM     66  F   UNL A   1      47.627  26.507  27.595  1.00  0.00    -0.206 F 
ATOM     67  C   UNL A   1      49.146  26.681  24.318  1.00  0.00     0.022 A 
BRANCH  64  68
ATOM     68  S   UNL A   1      48.336  27.722  21.860  1.00  0.00     0.124 S 
ATOM     69  O   UNL A   1      48.619  26.360  21.413  1.00  0.00    -0.237 OA
ATOM     70  O   UNL A   1      47.016  28.242  21.526  1.00  0.00    -0.237 OA
ATOM     71  O   UNL A   1      49.440  28.666  21.695  1.00  0.00    -0.744 OA
ENDBRANCH  64  68
ENDBRANCH  47  61
BRANCH  48  72
ATOM     72  C   UNL A   1      38.804  30.436  30.960  1.00  0.00     0.023 A 
ATOM     73  C   UNL A   1      37.704  31.125  30.427  1.00  0.00     0.031 A 
ATOM     74  C   UNL A   1      38.788  30.129  32.332  1.00  0.00     0.131 A 
ATOM     75  C   UNL A   1      36.654  31.524  31.269  1.00  0.00     0.055 A 
ATOM     76  C   UNL A   1      37.717  30.480  33.155  1.00  0.00     0.041 A 
ATOM     77  F   UNL A   1      39.812  29.465  32.893  1.00  0.00    -0.206 F 
ATOM     78  C   UNL A   1      36.646  31.193  32.626  1.00  0.00     0.022 A 
BRANCH  75  79
ATOM     79  S   UNL A   1      35.332  32.556  30.579  1.00  0.00     0.124 S 
ATOM     80  O   UNL A   1      34.341  32.524  31.650  1.00  0.00    -0.237 OA
ATOM     81  O   UNL A   1      36.015  33.828  30.374  1.00  0.00    -0.237 OA
ATOM     82  O   UNL A   1      34.953  31.851  29.357  1.00  0.00    -0.744 OA
ENDBRANCH  75  79
ENDBRANCH  48  72
BRANCH  60  83
ATOM     83  C   UNL A   1      44.800  33.627  29.354  1.00  0.00     0.023 A 
ATOM     84  C   UNL A   1      44.572  34.736  28.522  1.00  0.00     0.031 A 
ATOM     85  C   UNL A   1      45.562  33.820  30.520  1.00  0.00     0.131 A 
ATOM     86  C   UNL A   1      45.145  35.977  28.839  1.00  0.00     0.055 A 
ATOM     87  C   UNL A   1      46.075  35.071  30.864  1.00  0.00     0.041 A 
ATOM     88  F   UNL A   1      45.816  32.796  31.349  1.00  0.00    -0.206 F 
ATOM     89  C   UNL A   1      45.879  36.156  30.015  1.00  0.00     0.022 A 
BRANCH  86  90
ATOM     90  S   UNL A   1      44.999  37.335  27.645  1.00  0.00     0.124 S 
ATOM     91  O   UNL A   1      46.096  37.047  26.725  1.00  0.00    -0.237 OA
ATOM     92  O   UNL A   1      43.655  37.142  27.114  1.00  0.00    -0.237 OA
ATOM     93  O   UNL A   1      45.176  38.532  28.464  1.00  0.00    -0.744 OA
ENDBRANCH  86  90
ENDBRANCH  60  83
ENDBRANCH  34  35
ENDBRANCH  26  29
ENDBRANCH  24  25
ENDBRANCH   1  24
TORSDOF 15
ENDMDL
MODEL 2
REMARK VINA RESULT:     -12.7      4.996      9.442
REMARK SMILES C[C@@H]1OCC[C@@H]1c1nnc(-c2cccc(C(=O)NCCCNC(=O)c3ccc(-c4c5nc(c(-c6cc(S(=O)(=O)[O-])ccc6F)c6ccc([nH]6)c(-c6cc(S(=O)(=O)[O-])ccc6F)c6nc(c(-c7cc(S(=O)(=O)[O-])ccc7F)c7ccc4[nH]7)C=C6)C=C5)cc3)c2)o1
REMARK SMILES IDX 20 1 19 2 18 3 16 4 17 5 15 7 11 8 12 9 88 10 13 11 14 12
REMARK SMILES IDX 10 13 7 14 8 15 89 16 9 17 6 18 1 19 2 20 3 21 4 22 5 23
REMARK SMILES IDX 21 24 22 25 23 26 24 28 25 29 26 30 87 31 27 32 86 33 28 34
REMARK SMILES IDX 29 35 30 36 80 37 31 38 85 39 79 40 81 41 32 42 84 43 78 44
REMARK SMILES IDX 77 45 33 47 65 48 45 49 64 50 46 51 49 52 63 53 82 54 47 55
REMARK SMILES IDX 48 56 62 58 83 59 50 60 34 61 35 62 43 63 36 64 42 65 44 66
REMARK SMILES IDX 41 67 37 68 38 69 39 70 40 71 66 72 67 73 75 74 68 75 74 76
REMARK SMILES IDX 76 77 73 78 69 79 70 80 71 81 72 82 51 83 52 84 60 85 53 86
REMARK SMILES IDX 59 87 61 88 58 89 54 90 55 91 56 92 57 93
REMARK H PARENT 18 6 22 27 81 46 49 57
REMARK Flexibility Score: inf
ROOT
ATOM      1  C   UNL A   1      33.858  28.598  24.900  1.00  0.00     0.042 C 
ENDROOT
BRANCH   1   2
ATOM      2  C   UNL A   1      32.838  27.540  24.501  1.00  0.00     0.118 C 
BRANCH   2   3
ATOM      3  N   UNL A   1      33.112  26.915  23.215  1.00  0.00    -0.352 N 
ATOM      4  C   UNL A   1      33.557  25.693  22.779  1.00  0.00     0.251 C 
ATOM      5  O   UNL A   1      33.600  25.539  21.555  1.00  0.00    -0.269 OA
ATOM      6  H   UNL A   1      32.931  27.527  22.466  1.00  0.00     0.163 HD
BRANCH   4   7
ATOM      7  C   UNL A   1      34.038  24.574  23.646  1.00  0.00     0.040 A 
ATOM      8  C   UNL A   1      33.995  22.285  24.496  1.00  0.00     0.040 A 
ATOM      9  C   UNL A   1      34.849  22.646  25.539  1.00  0.00     0.014 A 
ATOM     10  C   UNL A   1      33.665  23.239  23.521  1.00  0.00     0.027 A 
ATOM     11  C   UNL A   1      35.342  23.947  25.615  1.00  0.00     0.002 A 
ATOM     12  C   UNL A   1      34.917  24.907  24.692  1.00  0.00     0.014 A 
BRANCH   8  13
ATOM     13  C   UNL A   1      33.340  20.988  24.476  1.00  0.00     0.247 A 
ATOM     14  C   UNL A   1      33.209  18.874  24.683  1.00  0.00     0.222 A 
ATOM     15  N   UNL A   1      32.138  19.256  24.018  1.00  0.00    -0.112 NA
ATOM     16  O   UNL A   1      34.015  19.927  25.029  1.00  0.00    -0.420 OA
ATOM     17  N   UNL A   1      32.218  20.625  23.893  1.00  0.00    -0.108 NA
BRANCH  14  18
ATOM     18  C   UNL A   1      33.529  17.526  25.194  1.00  0.00     0.109 C 
ATOM     19  C   UNL A   1      34.268  16.542  22.889  1.00  0.00     0.039 C 
ATOM     20  C   UNL A   1      34.482  16.640  24.399  1.00  0.00     0.127 C 
ATOM     21  O   UNL A   1      34.268  15.310  24.930  1.00  0.00    -0.378 OA
ATOM     22  C   UNL A   1      32.999  15.281  25.607  1.00  0.00     0.161 C 
ATOM     23  C   UNL A   1      32.328  16.616  25.354  1.00  0.00     0.044 C 
ENDBRANCH  14  18
ENDBRANCH   8  13
ENDBRANCH   4   7
ENDBRANCH   2   3
ENDBRANCH   1   2
BRANCH   1  24
ATOM     24  C   UNL A   1      33.920  28.847  26.404  1.00  0.00     0.118 C 
BRANCH  24  25
ATOM     25  N   UNL A   1      33.788  30.263  26.737  1.00  0.00    -0.352 N 
ATOM     26  C   UNL A   1      34.461  31.050  27.639  1.00  0.00     0.251 C 
ATOM     27  H   UNL A   1      33.093  30.737  26.223  1.00  0.00     0.163 HD
ATOM     28  O   UNL A   1      33.985  32.141  27.944  1.00  0.00    -0.269 OA
BRANCH  26  29
ATOM     29  C   UNL A   1      35.731  30.598  28.246  1.00  0.00     0.039 A 
ATOM     30  C   UNL A   1      35.692  29.781  29.381  1.00  0.00     0.014 A 
ATOM     31  C   UNL A   1      36.961  31.012  27.733  1.00  0.00     0.014 A 
ATOM     32  C   UNL A   1      36.884  29.317  29.944  1.00  0.00     0.010 A 
ATOM     33  C   UNL A   1      38.142  30.474  28.235  1.00  0.00     0.010 A 
ATOM     34  C   UNL A   1      38.118  29.620  29.346  1.00  0.00    -0.014 A 
BRANCH  34  35
ATOM     35  C   UNL A   1      39.391  29.048  29.856  1.00  0.00     0.031 A 
ATOM     36  C   UNL A   1      40.121  29.714  30.992  1.00  0.00     0.074 A 
ATOM     37  C   UNL A   1      39.933  27.982  29.233  1.00  0.00     0.049 A 
ATOM     38  N   UNL A   1      41.292  29.432  31.504  1.00  0.00    -0.248 NA
ATOM     39  C   UNL A   1      39.459  30.872  31.611  1.00  0.00     0.031 C 
ATOM     40  C   UNL A   1      39.343  27.285  28.087  1.00  0.00     0.029 A 
ATOM     41  N   UNL A   1      41.106  27.307  29.461  1.00  0.00    -0.354 N 
ATOM     42  C   UNL A   1      41.517  30.388  32.488  1.00  0.00     0.074 A 
ATOM     43  C   UNL A   1      40.387  31.292  32.458  1.00  0.00     0.031 C 
ATOM     44  C   UNL A   1      40.145  26.270  27.728  1.00  0.00     0.029 A 
ATOM     45  C   UNL A   1      41.331  26.276  28.577  1.00  0.00     0.049 A 
ATOM     46  H   UNL A   1      41.728  27.538  30.189  1.00  0.00     0.167 HD
ATOM     47  C   UNL A   1      42.559  30.488  33.350  1.00  0.00     0.034 A 
ATOM     48  C   UNL A   1      42.383  25.443  28.450  1.00  0.00     0.034 A 
ATOM     49  C   UNL A   1      43.668  29.565  33.372  1.00  0.00     0.049 A 
ATOM     50  C   UNL A   1      43.539  25.584  29.407  1.00  0.00     0.074 A 
ATOM     51  C   UNL A   1      44.739  29.525  34.248  1.00  0.00     0.029 A 
ATOM     52  N   UNL A   1      43.860  28.528  32.466  1.00  0.00    -0.354 N 
ATOM     53  N   UNL A   1      43.705  26.452  30.378  1.00  0.00    -0.248 NA
ATOM     54  C   UNL A   1      44.643  24.629  29.256  1.00  0.00     0.031 C 
ATOM     55  C   UNL A   1      45.613  28.517  33.827  1.00  0.00     0.029 A 
ATOM     56  C   UNL A   1      45.050  27.870  32.738  1.00  0.00     0.049 A 
ATOM     57  H   UNL A   1      43.240  28.294  31.738  1.00  0.00     0.167 HD
ATOM     58  C   UNL A   1      44.923  26.131  30.969  1.00  0.00     0.074 A 
ATOM     59  C   UNL A   1      45.437  24.978  30.257  1.00  0.00     0.031 C 
ATOM     60  C   UNL A   1      45.559  26.733  32.007  1.00  0.00     0.034 A 
BRANCH  47  61
ATOM     61  C   UNL A   1      42.557  31.650  34.318  1.00  0.00     0.023 A 
ATOM     62  C   UNL A   1      41.930  31.569  35.574  1.00  0.00     0.031 A 
ATOM     63  C   UNL A   1      43.168  32.868  33.968  1.00  0.00     0.131 A 
ATOM     64  C   UNL A   1      41.858  32.704  36.397  1.00  0.00     0.055 A 
ATOM     65  C   UNL A   1      43.168  33.968  34.829  1.00  0.00     0.041 A 
ATOM     66  F   UNL A   1      43.765  33.016  32.774  1.00  0.00    -0.206 F 
ATOM     67  C   UNL A   1      42.497  33.895  36.045  1.00  0.00     0.022 A 
BRANCH  64  68
ATOM     68  S   UNL A   1      40.788  32.644  37.861  1.00  0.00     0.124 S 
ATOM     69  O   UNL A   1      41.623  31.905  38.805  1.00  0.00    -0.237 OA
ATOM     70  O   UNL A   1      40.581  34.055  38.159  1.00  0.00    -0.237 OA
ATOM     71  O   UNL A   1      39.606  31.924  37.391  1.00  0.00    -0.744 OA
ENDBRANCH  64  68
ENDBRANCH  47  61
BRANCH  48  72
ATOM     72  C   UNL A   1      42.405  24.419  27.365  1.00  0.00     0.023 A 
ATOM     73  C   UNL A   1      41.648  23.242  27.462  1.00  0.00     0.031 A 
ATOM     74  C   UNL A   1      43.209  24.593  26.223  1.00  0.00     0.131 A 
ATOM     75  C   UNL A   1      41.742  22.264  26.459  1.00  0.00     0.055 A 
ATOM     76  C   UNL A   1      43.258  23.643  25.203  1.00  0.00     0.041 A 
ATOM     77  F   UNL A   1      43.950  25.703  26.076  1.00  0.00    -0.206 F 
ATOM     78  C   UNL A   1      42.530  22.463  25.324  1.00  0.00     0.022 A 
BRANCH  75  79
ATOM     79  S   UNL A   1      40.879  20.687  26.700  1.00  0.00     0.124 S 
ATOM     80  O   UNL A   1      41.768  19.755  26.015  1.00  0.00    -0.237 OA
ATOM     81  O   UNL A   1      40.837  20.583  28.154  1.00  0.00    -0.237 OA
ATOM     82  O   UNL A   1      39.586  20.905  26.054  1.00  0.00    -0.744 OA
ENDBRANCH  75  79
ENDBRANCH  48  72
BRANCH  60  83
ATOM     83  C   UNL A   1      46.868  26.127  32.451  1.00  0.00     0.023 A 
ATOM     84  C   UNL A   1      46.923  25.124  33.435  1.00  0.00     0.031 A 
ATOM     85  C   UNL A   1      48.080  26.567  31.888  1.00  0.00     0.131 A 
ATOM     86  C   UNL A   1      48.165  24.632  33.864  1.00  0.00     0.055 A 
ATOM     87  C   UNL A   1      49.308  26.027  32.272  1.00  0.00     0.041 A 
ATOM     88  F   UNL A   1      48.089  27.525  30.949  1.00  0.00    -0.206 F 
ATOM     89  C   UNL A   1      49.357  25.064  33.275  1.00  0.00     0.022 A 
BRANCH  86  90
ATOM     90  S   UNL A   1      48.210  23.488  35.270  1.00  0.00     0.124 S 
ATOM     91  O   UNL A   1      48.401  22.201  34.606  1.00  0.00    -0.237 OA
ATOM     92  O   UNL A   1      49.345  23.983  36.040  1.00  0.00    -0.237 OA
ATOM     93  O   UNL A   1      46.905  23.670  35.903  1.00  0.00    -0.744 OA
ENDBRANCH  86  90
ENDBRANCH  60  83
ENDBRANCH  34  35
ENDBRANCH  26  29
ENDBRANCH  24  25
ENDBRANCH   1  24
TORSDOF 15
ENDMDL
MODEL 3
REMARK VINA RESULT:     -12.6      5.869      8.787
REMARK SMILES C[C@@H]1OCC[C@@H]1c1nnc(-c2cccc(C(=O)NCCCNC(=O)c3ccc(-c4c5nc(c(-c6cc(S(=O)(=O)[O-])ccc6F)c6ccc([nH]6)c(-c6cc(S(=O)(=O)[O-])ccc6F)c6nc(c(-c7cc(S(=O)(=O)[O-])ccc7F)c7ccc4[nH]7)C=C6)C=C5)cc3)c2)o1
REMARK SMILES IDX 20 1 19 2 18 3 16 4 17 5 15 7 11 8 12 9 88 10 13 11 14 12
REMARK SMILES IDX 10 13 7 14 8 15 89 16 9 17 6 18 1 19 2 20 3 21 4 22 5 23
REMARK SMILES IDX 21 24 22 25 23 26 24 28 25 29 26 30 87 31 27 32 86 33 28 34
REMARK SMILES IDX 29 35 30 36 80 37 31 38 85 39 79 40 81 41 32 42 84 43 78 44
REMARK SMILES IDX 77 45 33 47 65 48 45 49 64 50 46 51 49 52 63 53 82 54 47 55
REMARK SMILES IDX 48 56 62 58 83 59 50 60 34 61 35 62 43 63 36 64 42 65 44 66
REMARK SMILES IDX 41 67 37 68 38 69 39 70 40 71 66 72 67 73 75 74 68 75 74 76
REMARK SMILES IDX 76 77 73 78 69 79 70 80 71 81 72 82 51 83 52 84 60 85 53 86
REMARK SMILES IDX 59 87 61 88 58 89 54 90 55 91 56 92 57 93
REMARK H PARENT 18 6 22 27 81 46 49 57
REMARK Flexibility Score: inf
ROOT
ATOM      1  C   UNL A   1      31.431  32.557  26.520  1.00  0.00     0.042 C 
ENDROOT
BRANCH   1   2
ATOM      2  C   UNL A   1      31.206  31.064  26.319  1.00  0.00     0.118 C 
BRANCH   2   3
ATOM      3  N   UNL A   1      32.146  30.448  25.393  1.00  0.00    -0.352 N 
ATOM      4  C   UNL A   1      32.181  29.318  24.617  1.00  0.00     0.251 C 
ATOM      5  O   UNL A   1      33.179  29.183  23.903  1.00  0.00    -0.269 OA
ATOM      6  H   UNL A   1      32.969  30.980  25.302  1.00  0.00     0.163 HD
BRANCH   4   7
ATOM      7  C   UNL A   1      31.156  28.231  24.604  1.00  0.00     0.040 A 
ATOM      8  C   UNL A   1      30.291  26.025  25.197  1.00  0.00     0.040 A 
ATOM      9  C   UNL A   1      29.271  26.160  24.253  1.00  0.00     0.014 A 
ATOM     10  C   UNL A   1      31.172  27.097  25.411  1.00  0.00     0.027 A 
ATOM     11  C   UNL A   1      29.153  27.339  23.521  1.00  0.00     0.002 A 
ATOM     12  C   UNL A   1      30.105  28.352  23.677  1.00  0.00     0.014 A 
BRANCH   8  13
ATOM     13  C   UNL A   1      30.537  24.755  25.861  1.00  0.00     0.247 A 
ATOM     14  C   UNL A   1      31.209  22.742  26.015  1.00  0.00     0.222 A 
ATOM     15  N   UNL A   1      30.434  22.963  27.057  1.00  0.00    -0.112 NA
ATOM     16  O   UNL A   1      31.341  23.848  25.215  1.00  0.00    -0.420 OA
ATOM     17  N   UNL A   1      30.007  24.270  26.962  1.00  0.00    -0.108 NA
BRANCH  14  18
ATOM     18  C   UNL A   1      32.022  21.544  25.725  1.00  0.00     0.109 C 
ATOM     19  C   UNL A   1      34.275  22.541  26.597  1.00  0.00     0.039 C 
ATOM     20  C   UNL A   1      33.336  21.342  26.474  1.00  0.00     0.127 C 
ATOM     21  O   UNL A   1      34.044  20.344  25.699  1.00  0.00    -0.378 OA
ATOM     22  C   UNL A   1      33.479  20.298  24.377  1.00  0.00     0.161 C 
ATOM     23  C   UNL A   1      32.472  21.427  24.283  1.00  0.00     0.044 C 
ENDBRANCH  14  18
ENDBRANCH   8  13
ENDBRANCH   4   7
ENDBRANCH   2   3
ENDBRANCH   1   2
BRANCH   1  24
ATOM     24  C   UNL A   1      32.731  32.883  27.248  1.00  0.00     0.118 C 
BRANCH  24  25
ATOM     25  N   UNL A   1      32.711  34.214  27.849  1.00  0.00    -0.352 N 
ATOM     26  C   UNL A   1      33.389  34.736  28.922  1.00  0.00     0.251 C 
ATOM     27  H   UNL A   1      32.103  34.850  27.404  1.00  0.00     0.163 HD
ATOM     28  O   UNL A   1      32.998  35.792  29.413  1.00  0.00    -0.269 OA
BRANCH  26  29
ATOM     29  C   UNL A   1      34.564  34.042  29.493  1.00  0.00     0.039 A 
ATOM     30  C   UNL A   1      35.846  34.429  29.091  1.00  0.00     0.014 A 
ATOM     31  C   UNL A   1      34.408  32.980  30.384  1.00  0.00     0.014 A 
ATOM     32  C   UNL A   1      36.967  33.806  29.648  1.00  0.00     0.010 A 
ATOM     33  C   UNL A   1      35.521  32.426  31.008  1.00  0.00     0.010 A 
ATOM     34  C   UNL A   1      36.814  32.832  30.648  1.00  0.00    -0.014 A 
BRANCH  34  35
ATOM     35  C   UNL A   1      37.987  32.235  31.338  1.00  0.00     0.031 A 
ATOM     36  C   UNL A   1      38.757  31.114  30.693  1.00  0.00     0.074 A 
ATOM     37  C   UNL A   1      38.299  32.644  32.584  1.00  0.00     0.049 A 
ATOM     38  N   UNL A   1      39.735  30.394  31.179  1.00  0.00    -0.248 NA
ATOM     39  C   UNL A   1      38.346  30.729  29.334  1.00  0.00     0.031 C 
ATOM     40  C   UNL A   1      37.592  33.687  33.333  1.00  0.00     0.029 A 
ATOM     41  N   UNL A   1      39.278  32.225  33.450  1.00  0.00    -0.354 N 
ATOM     42  C   UNL A   1      40.044  29.459  30.196  1.00  0.00     0.074 A 
ATOM     43  C   UNL A   1      39.106  29.667  29.113  1.00  0.00     0.031 C 
ATOM     44  C   UNL A   1      38.173  33.840  34.532  1.00  0.00     0.029 A 
ATOM     45  C   UNL A   1      39.256  32.872  34.665  1.00  0.00     0.049 A 
ATOM     46  H   UNL A   1      39.935  31.527  33.224  1.00  0.00     0.167 HD
ATOM     47  C   UNL A   1      41.031  28.530  30.191  1.00  0.00     0.034 A 
ATOM     48  C   UNL A   1      40.006  32.691  35.769  1.00  0.00     0.034 A 
ATOM     49  C   UNL A   1      41.965  28.350  31.276  1.00  0.00     0.049 A 
ATOM     50  C   UNL A   1      41.086  31.640  35.748  1.00  0.00     0.074 A 
ATOM     51  C   UNL A   1      43.049  27.493  31.348  1.00  0.00     0.029 A 
ATOM     52  N   UNL A   1      41.917  29.028  32.489  1.00  0.00    -0.354 N 
ATOM     53  N   UNL A   1      41.410  30.809  34.784  1.00  0.00    -0.248 NA
ATOM     54  C   UNL A   1      41.906  31.508  36.958  1.00  0.00     0.031 C 
ATOM     55  C   UNL A   1      43.608  27.597  32.626  1.00  0.00     0.029 A 
ATOM     56  C   UNL A   1      42.926  28.579  33.327  1.00  0.00     0.049 A 
ATOM     57  H   UNL A   1      41.262  29.726  32.718  1.00  0.00     0.167 HD
ATOM     58  C   UNL A   1      42.487  30.071  35.264  1.00  0.00     0.074 A 
ATOM     59  C   UNL A   1      42.770  30.571  36.595  1.00  0.00     0.031 C 
ATOM     60  C   UNL A   1      43.183  29.073  34.660  1.00  0.00     0.034 A 
BRANCH  47  61
ATOM     61  C   UNL A   1      41.130  27.621  28.985  1.00  0.00     0.023 A 
ATOM     62  C   UNL A   1      42.113  27.804  27.997  1.00  0.00     0.031 A 
ATOM     63  C   UNL A   1      40.209  26.573  28.807  1.00  0.00     0.131 A 
ATOM     64  C   UNL A   1      42.104  27.007  26.841  1.00  0.00     0.055 A 
ATOM     65  C   UNL A   1      40.258  25.728  27.696  1.00  0.00     0.041 A 
ATOM     66  F   UNL A   1      39.233  26.360  29.704  1.00  0.00    -0.206 F 
ATOM     67  C   UNL A   1      41.200  25.952  26.697  1.00  0.00     0.022 A 
BRANCH  64  68
ATOM     68  S   UNL A   1      43.190  27.469  25.464  1.00  0.00     0.124 S 
ATOM     69  O   UNL A   1      43.612  26.159  24.971  1.00  0.00    -0.237 OA
ATOM     70  O   UNL A   1      42.295  28.221  24.594  1.00  0.00    -0.237 OA
ATOM     71  O   UNL A   1      44.244  28.252  26.106  1.00  0.00    -0.744 OA
ENDBRANCH  64  68
ENDBRANCH  47  61
BRANCH  48  72
ATOM     72  C   UNL A   1      39.753  33.506  36.994  1.00  0.00     0.023 A 
ATOM     73  C   UNL A   1      40.506  34.657  37.269  1.00  0.00     0.031 A 
ATOM     74  C   UNL A   1      38.767  33.126  37.923  1.00  0.00     0.131 A 
ATOM     75  C   UNL A   1      40.293  35.364  38.463  1.00  0.00     0.055 A 
ATOM     76  C   UNL A   1      38.521  33.863  39.082  1.00  0.00     0.041 A 
ATOM     77  F   UNL A   1      38.013  32.035  37.706  1.00  0.00    -0.206 F 
ATOM     78  C   UNL A   1      39.296  34.983  39.363  1.00  0.00     0.022 A 
BRANCH  75  79
ATOM     79  S   UNL A   1      41.396  36.748  38.862  1.00  0.00     0.124 S 
ATOM     80  O   UNL A   1      40.443  37.793  39.220  1.00  0.00    -0.237 OA
ATOM     81  O   UNL A   1      42.188  36.198  39.956  1.00  0.00    -0.237 OA
ATOM     82  O   UNL A   1      42.127  36.970  37.616  1.00  0.00    -0.744 OA
ENDBRANCH  75  79
ENDBRANCH  48  72
BRANCH  60  83
ATOM     83  C   UNL A   1      44.338  28.482  35.430  1.00  0.00     0.023 A 
ATOM     84  C   UNL A   1      44.155  27.441  36.357  1.00  0.00     0.031 A 
ATOM     85  C   UNL A   1      45.642  28.975  35.240  1.00  0.00     0.131 A 
ATOM     86  C   UNL A   1      45.246  26.963  37.098  1.00  0.00     0.055 A 
ATOM     87  C   UNL A   1      46.735  28.451  35.932  1.00  0.00     0.041 A 
ATOM     88  F   UNL A   1      45.876  29.972  34.372  1.00  0.00    -0.206 F 
ATOM     89  C   UNL A   1      46.538  27.449  36.877  1.00  0.00     0.022 A 
BRANCH  86  90
ATOM     90  S   UNL A   1      44.942  25.763  38.423  1.00  0.00     0.124 S 
ATOM     91  O   UNL A   1      46.255  25.672  39.055  1.00  0.00    -0.237 OA
ATOM     92  O   UNL A   1      43.902  26.420  39.207  1.00  0.00    -0.237 OA
ATOM     93  O   UNL A   1      44.514  24.563  37.708  1.00  0.00    -0.744 OA
ENDBRANCH  86  90
ENDBRANCH  60  83
ENDBRANCH  34  35
ENDBRANCH  26  29
ENDBRANCH  24  25
ENDBRANCH   1  24
TORSDOF 15
ENDMDL
