MODEL 1
REMARK VINA RESULT:     -13.1      0.000      0.000
REMARK SMILES COc1ccc([C@H](NC(=O)[C@H]2CC(C)=C(C)C[C@@H]2C(=O)NCCCNC(=O)c2ccc(-c3c4nc(c(-c5cc(S(=O)(=O)[O-])ccc5F)c5ccc([nH]5)c(-c5cc(S(=O)(=O)[O-])ccc5F)c5nc(c(-c6cc(S(=O)(=O)[O-])ccc6F)c6ccc3[nH]6)C=C5)C=C4)cc2)c2ccccc2)cc1
REMARK SMILES IDX 22 1 21 2 19 3 20 4 18 6 11 7 12 8 13 9 17 10 14 11 15 12
REMARK SMILES IDX 16 13 9 14 8 15 10 17 7 18 6 19 3 20 4 21 98 22 5 23 97 24
REMARK SMILES IDX 2 25 1 26 91 27 92 28 96 29 93 30 95 31 94 32 23 33 24 34
REMARK SMILES IDX 25 35 26 36 27 38 28 39 29 40 90 41 30 42 89 43 31 44 32 45
REMARK SMILES IDX 33 46 83 47 34 48 88 49 82 50 84 51 35 52 87 53 81 54 80 55
REMARK SMILES IDX 36 57 68 58 48 59 67 60 49 61 52 62 66 63 85 64 50 65 51 66
REMARK SMILES IDX 65 68 86 69 53 70 37 71 38 72 46 73 39 74 45 75 47 76 44 77
REMARK SMILES IDX 40 78 41 79 42 80 43 81 69 82 70 83 78 84 71 85 77 86 79 87
REMARK SMILES IDX 76 88 72 89 73 90 74 91 75 92 54 93 55 94 63 95 56 96 62 97
REMARK SMILES IDX 64 98 61 99 57 100 58 101 59 102 60 103
REMARK H PARENT 21 5 8 16 25 37 84 56 52 67
REMARK Flexibility Score: inf
ROOT
ATOM      1  C   UNL A   1      31.407  27.780  26.337  1.00  0.00     0.117 C 
ENDROOT
BRANCH   1   2
ATOM      2  N   UNL A   1      31.428  26.441  26.882  1.00  0.00    -0.356 N 
ATOM      3  C   UNL A   1      31.399  25.214  26.324  1.00  0.00     0.224 C 
ATOM      4  O   UNL A   1      31.467  24.271  27.126  1.00  0.00    -0.275 OA
ATOM      5  H   UNL A   1      31.471  26.421  27.864  1.00  0.00     0.163 HD
BRANCH   3   6
ATOM      6  C   UNL A   1      31.367  24.903  24.830  1.00  0.00     0.095 C 
ATOM      7  C   UNL A   1      32.794  24.551  24.325  1.00  0.00     0.095 C 
ATOM      8  C   UNL A   1      33.514  25.806  23.827  1.00  0.00     0.045 C 
ATOM      9  C   UNL A   1      32.696  26.820  23.059  1.00  0.00    -0.074 C 
ATOM     10  C   UNL A   1      30.572  25.764  23.847  1.00  0.00     0.045 C 
ATOM     11  C   UNL A   1      33.518  27.886  22.374  1.00  0.00     0.039 C 
ATOM     12  C   UNL A   1      31.347  26.803  23.070  1.00  0.00    -0.074 C 
ATOM     13  C   UNL A   1      30.498  27.859  22.404  1.00  0.00     0.039 C 
BRANCH   7  14
ATOM     14  C   UNL A   1      32.716  23.269  23.479  1.00  0.00     0.224 C 
ATOM     15  N   UNL A   1      32.843  22.005  23.916  1.00  0.00    -0.345 N 
ATOM     16  H   UNL A   1      32.295  21.385  23.384  1.00  0.00     0.164 HD
ATOM     17  O   UNL A   1      32.315  23.318  22.306  1.00  0.00    -0.275 OA
BRANCH  15  18
ATOM     18  C   UNL A   1      33.574  21.303  24.964  1.00  0.00     0.143 C 
BRANCH  18  19
ATOM     19  C   UNL A   1      33.641  19.796  24.705  1.00  0.00    -0.021 A 
ATOM     20  C   UNL A   1      33.724  16.979  24.442  1.00  0.00     0.118 A 
ATOM     21  C   UNL A   1      32.507  17.655  24.404  1.00  0.00     0.047 A 
ATOM     22  C   UNL A   1      34.906  17.710  24.520  1.00  0.00     0.047 A 
ATOM     23  C   UNL A   1      32.464  19.049  24.522  1.00  0.00     0.010 A 
ATOM     24  C   UNL A   1      34.864  19.104  24.649  1.00  0.00     0.010 A 
BRANCH  20  25
ATOM     25  O   UNL A   1      33.653  15.614  24.375  1.00  0.00    -0.497 OA
ATOM     26  C   UNL A   1      32.835  15.006  25.372  1.00  0.00     0.278 C 
ENDBRANCH  20  25
ENDBRANCH  18  19
BRANCH  18  27
ATOM     27  C   UNL A   1      34.934  22.021  25.021  1.00  0.00    -0.021 A 
ATOM     28  C   UNL A   1      35.768  22.163  23.897  1.00  0.00     0.006 A 
ATOM     29  C   UNL A   1      35.276  22.718  26.194  1.00  0.00     0.006 A 
ATOM     30  C   UNL A   1      36.922  22.947  23.958  1.00  0.00     0.000 A 
ATOM     31  C   UNL A   1      36.419  23.519  26.245  1.00  0.00     0.000 A 
ATOM     32  C   UNL A   1      37.244  23.629  25.127  1.00  0.00     0.000 A 
ENDBRANCH  18  27
ENDBRANCH  15  18
ENDBRANCH   7  14
ENDBRANCH   3   6
ENDBRANCH   1   2
BRANCH   1  33
ATOM     33  C   UNL A   1      32.799  28.396  26.247  1.00  0.00     0.042 C 
BRANCH  33  34
ATOM     34  C   UNL A   1      33.282  29.018  27.554  1.00  0.00     0.118 C 
BRANCH  34  35
ATOM     35  N   UNL A   1      33.433  30.461  27.449  1.00  0.00    -0.352 N 
ATOM     36  C   UNL A   1      34.400  31.292  27.956  1.00  0.00     0.251 C 
ATOM     37  H   UNL A   1      32.729  30.915  26.931  1.00  0.00     0.163 HD
ATOM     38  O   UNL A   1      34.195  32.502  27.962  1.00  0.00    -0.269 OA
BRANCH  36  39
ATOM     39  C   UNL A   1      35.668  30.748  28.493  1.00  0.00     0.039 A 
ATOM     40  C   UNL A   1      36.874  31.173  27.925  1.00  0.00     0.014 A 
ATOM     41  C   UNL A   1      35.679  29.773  29.494  1.00  0.00     0.014 A 
ATOM     42  C   UNL A   1      38.085  30.647  28.382  1.00  0.00     0.010 A 
ATOM     43  C   UNL A   1      36.889  29.303  30.000  1.00  0.00     0.010 A 
ATOM     44  C   UNL A   1      38.104  29.719  29.434  1.00  0.00    -0.014 A 
BRANCH  44  45
ATOM     45  C   UNL A   1      39.380  29.131  29.918  1.00  0.00     0.031 A 
ATOM     46  C   UNL A   1      40.078  29.731  31.109  1.00  0.00     0.074 A 
ATOM     47  C   UNL A   1      39.933  28.096  29.258  1.00  0.00     0.049 A 
ATOM     48  N   UNL A   1      41.227  29.411  31.647  1.00  0.00    -0.248 NA
ATOM     49  C   UNL A   1      39.405  30.863  31.759  1.00  0.00     0.031 C 
ATOM     50  C   UNL A   1      39.369  27.453  28.070  1.00  0.00     0.029 A 
ATOM     51  N   UNL A   1      41.095  27.406  29.490  1.00  0.00    -0.354 N 
ATOM     52  C   UNL A   1      41.424  30.315  32.686  1.00  0.00     0.074 A 
ATOM     53  C   UNL A   1      40.307  31.236  32.652  1.00  0.00     0.031 C 
ATOM     54  C   UNL A   1      40.172  26.445  27.694  1.00  0.00     0.029 A 
ATOM     55  C   UNL A   1      41.325  26.395  28.588  1.00  0.00     0.049 A 
ATOM     56  H   UNL A   1      41.706  27.615  30.233  1.00  0.00     0.167 HD
ATOM     57  C   UNL A   1      42.428  30.359  33.599  1.00  0.00     0.034 A 
ATOM     58  C   UNL A   1      42.352  25.527  28.491  1.00  0.00     0.034 A 
ATOM     59  C   UNL A   1      43.528  29.425  33.622  1.00  0.00     0.049 A 
ATOM     60  C   UNL A   1      43.463  25.598  29.505  1.00  0.00     0.074 A 
ATOM     61  C   UNL A   1      44.578  29.345  34.521  1.00  0.00     0.029 A 
ATOM     62  N   UNL A   1      43.724  28.408  32.694  1.00  0.00    -0.354 N 
ATOM     63  N   UNL A   1      43.618  26.433  30.506  1.00  0.00    -0.248 NA
ATOM     64  C   UNL A   1      44.530  24.596  29.383  1.00  0.00     0.031 C 
ATOM     65  C   UNL A   1      45.437  28.320  34.103  1.00  0.00     0.029 A 
ATOM     66  C   UNL A   1      44.889  27.712  32.986  1.00  0.00     0.049 A 
ATOM     67  H   UNL A   1      43.124  28.210  31.939  1.00  0.00     0.167 HD
ATOM     68  C   UNL A   1      44.785  26.036  31.153  1.00  0.00     0.074 A 
ATOM     69  C   UNL A   1      45.285  24.882  30.433  1.00  0.00     0.031 C 
ATOM     70  C   UNL A   1      45.383  26.571  32.249  1.00  0.00     0.034 A 
BRANCH  57  71
ATOM     71  C   UNL A   1      42.381  31.476  34.618  1.00  0.00     0.023 A 
ATOM     72  C   UNL A   1      41.460  31.465  35.683  1.00  0.00     0.031 A 
ATOM     73  C   UNL A   1      43.214  32.601  34.488  1.00  0.00     0.131 A 
ATOM     74  C   UNL A   1      41.321  32.595  36.503  1.00  0.00     0.055 A 
ATOM     75  C   UNL A   1      43.137  33.683  35.368  1.00  0.00     0.041 A 
ATOM     76  F   UNL A   1      44.102  32.683  33.484  1.00  0.00    -0.206 F 
ATOM     77  C   UNL A   1      42.170  33.695  36.370  1.00  0.00     0.022 A 
BRANCH  74  78
ATOM     78  S   UNL A   1      39.891  32.680  37.617  1.00  0.00     0.124 S 
ATOM     79  O   UNL A   1      39.441  34.055  37.415  1.00  0.00    -0.237 OA
ATOM     80  O   UNL A   1      39.017  31.638  37.089  1.00  0.00    -0.237 OA
ATOM     81  O   UNL A   1      40.464  32.408  38.934  1.00  0.00    -0.744 OA
ENDBRANCH  74  78
ENDBRANCH  57  71
BRANCH  58  82
ATOM     82  C   UNL A   1      42.371  24.511  27.404  1.00  0.00     0.023 A 
ATOM     83  C   UNL A   1      41.622  23.329  27.511  1.00  0.00     0.031 A 
ATOM     84  C   UNL A   1      43.145  24.702  26.246  1.00  0.00     0.131 A 
ATOM     85  C   UNL A   1      41.690  22.364  26.494  1.00  0.00     0.055 A 
ATOM     86  C   UNL A   1      43.176  23.758  25.218  1.00  0.00     0.041 A 
ATOM     87  F   UNL A   1      43.869  25.822  26.090  1.00  0.00    -0.206 F 
ATOM     88  C   UNL A   1      42.452  22.576  25.344  1.00  0.00     0.022 A 
BRANCH  85  89
ATOM     89  S   UNL A   1      40.800  20.800  26.721  1.00  0.00     0.124 S 
ATOM     90  O   UNL A   1      41.657  19.864  26.002  1.00  0.00    -0.237 OA
ATOM     91  O   UNL A   1      40.783  20.669  28.174  1.00  0.00    -0.237 OA
ATOM     92  O   UNL A   1      39.500  21.056  26.105  1.00  0.00    -0.744 OA
ENDBRANCH  85  89
ENDBRANCH  58  82
BRANCH  70  93
ATOM     93  C   UNL A   1      46.620  25.873  32.759  1.00  0.00     0.023 A 
ATOM     94  C   UNL A   1      47.889  26.111  32.202  1.00  0.00     0.031 A 
ATOM     95  C   UNL A   1      46.520  24.938  33.803  1.00  0.00     0.131 A 
ATOM     96  C   UNL A   1      48.998  25.380  32.652  1.00  0.00     0.055 A 
ATOM     97  C   UNL A   1      47.638  24.255  34.288  1.00  0.00     0.041 A 
ATOM     98  F   UNL A   1      45.333  24.670  34.369  1.00  0.00    -0.206 F 
ATOM     99  C   UNL A   1      48.883  24.463  33.702  1.00  0.00     0.022 A 
BRANCH  96 100
ATOM    100  S   UNL A   1      50.578  25.566  31.781  1.00  0.00     0.124 S 
ATOM    101  O   UNL A   1      50.479  26.924  31.257  1.00  0.00    -0.237 OA
ATOM    102  O   UNL A   1      51.550  25.365  32.852  1.00  0.00    -0.237 OA
ATOM    103  O   UNL A   1      50.541  24.508  30.773  1.00  0.00    -0.744 OA
ENDBRANCH  96 100
ENDBRANCH  70  93
ENDBRANCH  44  45
ENDBRANCH  36  39
ENDBRANCH  34  35
ENDBRANCH  33  34
ENDBRANCH   1  33
TORSDOF 18
ENDMDL
MODEL 2
REMARK VINA RESULT:     -12.9      4.154      9.650
REMARK SMILES COc1ccc([C@H](NC(=O)[C@H]2CC(C)=C(C)C[C@@H]2C(=O)NCCCNC(=O)c2ccc(-c3c4nc(c(-c5cc(S(=O)(=O)[O-])ccc5F)c5ccc([nH]5)c(-c5cc(S(=O)(=O)[O-])ccc5F)c5nc(c(-c6cc(S(=O)(=O)[O-])ccc6F)c6ccc3[nH]6)C=C5)C=C4)cc2)c2ccccc2)cc1
REMARK SMILES IDX 22 1 21 2 19 3 20 4 18 6 11 7 12 8 13 9 17 10 14 11 15 12
REMARK SMILES IDX 16 13 9 14 8 15 10 17 7 18 6 19 3 20 4 21 98 22 5 23 97 24
REMARK SMILES IDX 2 25 1 26 91 27 92 28 96 29 93 30 95 31 94 32 23 33 24 34
REMARK SMILES IDX 25 35 26 36 27 38 28 39 29 40 90 41 30 42 89 43 31 44 32 45
REMARK SMILES IDX 33 46 83 47 34 48 88 49 82 50 84 51 35 52 87 53 81 54 80 55
REMARK SMILES IDX 36 57 68 58 48 59 67 60 49 61 52 62 66 63 85 64 50 65 51 66
REMARK SMILES IDX 65 68 86 69 53 70 37 71 38 72 46 73 39 74 45 75 47 76 44 77
REMARK SMILES IDX 40 78 41 79 42 80 43 81 69 82 70 83 78 84 71 85 77 86 79 87
REMARK SMILES IDX 76 88 72 89 73 90 74 91 75 92 54 93 55 94 63 95 56 96 62 97
REMARK SMILES IDX 64 98 61 99 57 100 58 101 59 102 60 103
REMARK H PARENT 21 5 8 16 25 37 84 56 52 67
REMARK Flexibility Score: inf
ROOT
ATOM      1  C   UNL A   1      35.863  22.388  23.891  1.00  0.00     0.117 C 
ENDROOT
BRANCH   1   2
ATOM      2  N   UNL A   1      35.174  23.004  22.779  1.00  0.00    -0.356 N 
ATOM      3  C   UNL A   1      33.878  23.289  22.535  1.00  0.00     0.224 C 
ATOM      4  O   UNL A   1      33.661  23.865  21.459  1.00  0.00    -0.275 OA
ATOM      5  H   UNL A   1      35.775  23.270  22.047  1.00  0.00     0.163 HD
BRANCH   3   6
ATOM      6  C   UNL A   1      32.707  23.036  23.479  1.00  0.00     0.095 C 
ATOM      7  C   UNL A   1      32.761  24.023  24.678  1.00  0.00     0.095 C 
ATOM      8  C   UNL A   1      33.548  23.415  25.842  1.00  0.00     0.045 C 
ATOM      9  C   UNL A   1      33.356  21.941  26.117  1.00  0.00    -0.074 C 
ATOM     10  C   UNL A   1      32.289  21.620  23.879  1.00  0.00     0.045 C 
ATOM     11  C   UNL A   1      33.945  21.475  27.427  1.00  0.00     0.039 C 
ATOM     12  C   UNL A   1      32.781  21.116  25.217  1.00  0.00    -0.074 C 
ATOM     13  C   UNL A   1      32.669  19.623  25.412  1.00  0.00     0.039 C 
BRANCH   7  14
ATOM     14  C   UNL A   1      31.365  24.639  24.874  1.00  0.00     0.224 C 
ATOM     15  N   UNL A   1      30.899  25.772  24.324  1.00  0.00    -0.345 N 
ATOM     16  H   UNL A   1      29.930  25.719  24.161  1.00  0.00     0.164 HD
ATOM     17  O   UNL A   1      30.468  23.988  25.431  1.00  0.00    -0.275 OA
BRANCH  15  18
ATOM     18  C   UNL A   1      31.439  27.059  23.902  1.00  0.00     0.143 C 
BRANCH  18  19
ATOM     19  C   UNL A   1      30.361  27.964  23.301  1.00  0.00    -0.021 A 
ATOM     20  C   UNL A   1      28.385  29.764  22.368  1.00  0.00     0.118 A 
ATOM     21  C   UNL A   1      29.737  30.038  22.173  1.00  0.00     0.047 A 
ATOM     22  C   UNL A   1      28.014  28.554  22.946  1.00  0.00     0.047 A 
ATOM     23  C   UNL A   1      30.716  29.144  22.622  1.00  0.00     0.010 A 
ATOM     24  C   UNL A   1      28.991  27.663  23.406  1.00  0.00     0.010 A 
BRANCH  20  25
ATOM     25  O   UNL A   1      27.512  30.728  21.942  1.00  0.00    -0.497 OA
ATOM     26  C   UNL A   1      28.120  31.850  21.307  1.00  0.00     0.278 C 
ENDBRANCH  20  25
ENDBRANCH  18  19
BRANCH  18  27
ATOM     27  C   UNL A   1      32.129  27.609  25.163  1.00  0.00    -0.021 A 
ATOM     28  C   UNL A   1      33.524  27.757  25.265  1.00  0.00     0.006 A 
ATOM     29  C   UNL A   1      31.327  28.152  26.184  1.00  0.00     0.006 A 
ATOM     30  C   UNL A   1      34.097  28.395  26.366  1.00  0.00     0.000 A 
ATOM     31  C   UNL A   1      31.902  28.810  27.274  1.00  0.00     0.000 A 
ATOM     32  C   UNL A   1      33.288  28.926  27.366  1.00  0.00     0.000 A 
ENDBRANCH  18  27
ENDBRANCH  15  18
ENDBRANCH   7  14
ENDBRANCH   3   6
ENDBRANCH   1   2
BRANCH   1  33
ATOM     33  C   UNL A   1      36.963  23.277  24.461  1.00  0.00     0.042 C 
BRANCH  33  34
ATOM     34  C   UNL A   1      37.237  23.041  25.944  1.00  0.00     0.118 C 
BRANCH  34  35
ATOM     35  N   UNL A   1      38.359  22.141  26.155  1.00  0.00    -0.352 N 
ATOM     36  C   UNL A   1      39.675  22.412  26.437  1.00  0.00     0.251 C 
ATOM     37  H   UNL A   1      38.142  21.183  26.085  1.00  0.00     0.163 HD
ATOM     38  O   UNL A   1      40.501  21.512  26.323  1.00  0.00    -0.269 OA
BRANCH  36  39
ATOM     39  C   UNL A   1      40.099  23.764  26.865  1.00  0.00     0.039 A 
ATOM     40  C   UNL A   1      40.399  23.977  28.215  1.00  0.00     0.014 A 
ATOM     41  C   UNL A   1      40.134  24.837  25.970  1.00  0.00     0.014 A 
ATOM     42  C   UNL A   1      40.762  25.251  28.658  1.00  0.00     0.010 A 
ATOM     43  C   UNL A   1      40.568  26.090  26.397  1.00  0.00     0.010 A 
ATOM     44  C   UNL A   1      40.865  26.316  27.750  1.00  0.00    -0.014 A 
BRANCH  44  45
ATOM     45  C   UNL A   1      41.227  27.683  28.205  1.00  0.00     0.031 A 
ATOM     46  C   UNL A   1      42.670  28.113  28.214  1.00  0.00     0.074 A 
ATOM     47  C   UNL A   1      40.270  28.514  28.656  1.00  0.00     0.049 A 
ATOM     48  N   UNL A   1      43.202  29.232  28.633  1.00  0.00    -0.248 NA
ATOM     49  C   UNL A   1      43.646  27.135  27.713  1.00  0.00     0.031 C 
ATOM     50  C   UNL A   1      38.842  28.198  28.729  1.00  0.00     0.029 A 
ATOM     51  N   UNL A   1      40.353  29.793  29.142  1.00  0.00    -0.354 N 
ATOM     52  C   UNL A   1      44.574  29.086  28.465  1.00  0.00     0.074 A 
ATOM     53  C   UNL A   1      44.792  27.743  27.972  1.00  0.00     0.031 C 
ATOM     54  C   UNL A   1      38.181  29.265  29.206  1.00  0.00     0.029 A 
ATOM     55  C   UNL A   1      39.139  30.324  29.508  1.00  0.00     0.049 A 
ATOM     56  H   UNL A   1      41.202  30.286  29.222  1.00  0.00     0.167 HD
ATOM     57  C   UNL A   1      45.561  29.995  28.677  1.00  0.00     0.034 A 
ATOM     58  C   UNL A   1      38.832  31.528  30.030  1.00  0.00     0.034 A 
ATOM     59  C   UNL A   1      45.322  31.334  29.161  1.00  0.00     0.049 A 
ATOM     60  C   UNL A   1      39.940  32.520  30.270  1.00  0.00     0.074 A 
ATOM     61  C   UNL A   1      46.234  32.354  29.374  1.00  0.00     0.029 A 
ATOM     62  N   UNL A   1      44.075  31.840  29.514  1.00  0.00    -0.354 N 
ATOM     63  N   UNL A   1      41.231  32.384  30.071  1.00  0.00    -0.248 NA
ATOM     64  C   UNL A   1      39.545  33.835  30.792  1.00  0.00     0.031 C 
ATOM     65  C   UNL A   1      45.549  33.451  29.910  1.00  0.00     0.029 A 
ATOM     66  C   UNL A   1      44.199  33.146  29.965  1.00  0.00     0.049 A 
ATOM     67  H   UNL A   1      43.228  31.342  29.454  1.00  0.00     0.167 HD
ATOM     68  C   UNL A   1      41.798  33.608  30.413  1.00  0.00     0.074 A 
ATOM     69  C   UNL A   1      40.706  34.470  30.822  1.00  0.00     0.031 C 
ATOM     70  C   UNL A   1      43.101  33.989  30.383  1.00  0.00     0.034 A 
BRANCH  57  71
ATOM     71  C   UNL A   1      46.980  29.544  28.413  1.00  0.00     0.023 A 
ATOM     72  C   UNL A   1      47.755  28.923  29.410  1.00  0.00     0.031 A 
ATOM     73  C   UNL A   1      47.595  29.799  27.174  1.00  0.00     0.131 A 
ATOM     74  C   UNL A   1      49.119  28.679  29.191  1.00  0.00     0.055 A 
ATOM     75  C   UNL A   1      48.929  29.465  26.929  1.00  0.00     0.041 A 
ATOM     76  F   UNL A   1      46.917  30.405  26.186  1.00  0.00    -0.206 F 
ATOM     77  C   UNL A   1      49.706  28.923  27.948  1.00  0.00     0.022 A 
BRANCH  74  78
ATOM     78  S   UNL A   1      50.152  28.221  30.611  1.00  0.00     0.124 S 
ATOM     79  O   UNL A   1      50.722  26.952  30.164  1.00  0.00    -0.237 OA
ATOM     80  O   UNL A   1      51.080  29.342  30.701  1.00  0.00    -0.237 OA
ATOM     81  O   UNL A   1      49.194  28.111  31.710  1.00  0.00    -0.744 OA
ENDBRANCH  74  78
ENDBRANCH  57  71
BRANCH  58  82
ATOM     82  C   UNL A   1      37.419  31.868  30.348  1.00  0.00     0.023 A 
ATOM     83  C   UNL A   1      36.547  32.324  29.347  1.00  0.00     0.031 A 
ATOM     84  C   UNL A   1      36.921  31.750  31.657  1.00  0.00     0.131 A 
ATOM     85  C   UNL A   1      35.230  32.681  29.678  1.00  0.00     0.055 A 
ATOM     86  C   UNL A   1      35.599  32.066  31.973  1.00  0.00     0.041 A 
ATOM     87  F   UNL A   1      37.713  31.306  32.647  1.00  0.00    -0.206 F 
ATOM     88  C   UNL A   1      34.747  32.544  30.982  1.00  0.00     0.022 A 
BRANCH  85  89
ATOM     89  S   UNL A   1      34.167  33.375  28.383  1.00  0.00     0.124 S 
ATOM     90  O   UNL A   1      33.220  34.160  29.165  1.00  0.00    -0.237 OA
ATOM     91  O   UNL A   1      35.122  34.133  27.581  1.00  0.00    -0.237 OA
ATOM     92  O   UNL A   1      33.611  32.192  27.730  1.00  0.00    -0.744 OA
ENDBRANCH  85  89
ENDBRANCH  58  82
BRANCH  70  93
ATOM     93  C   UNL A   1      43.403  35.420  30.758  1.00  0.00     0.023 A 
ATOM     94  C   UNL A   1      43.433  36.447  29.800  1.00  0.00     0.031 A 
ATOM     95  C   UNL A   1      43.687  35.751  32.095  1.00  0.00     0.131 A 
ATOM     96  C   UNL A   1      43.798  37.748  30.181  1.00  0.00     0.055 A 
ATOM     97  C   UNL A   1      43.992  37.058  32.479  1.00  0.00     0.041 A 
ATOM     98  F   UNL A   1      43.675  34.808  33.050  1.00  0.00    -0.206 F 
ATOM     99  C   UNL A   1      44.064  38.062  31.518  1.00  0.00     0.022 A 
BRANCH  96 100
ATOM    100  S   UNL A   1      44.020  39.005  28.893  1.00  0.00     0.124 S 
ATOM    101  O   UNL A   1      42.888  39.892  29.134  1.00  0.00    -0.237 OA
ATOM    102  O   UNL A   1      45.336  39.550  29.213  1.00  0.00    -0.237 OA
ATOM    103  O   UNL A   1      43.954  38.238  27.650  1.00  0.00    -0.744 OA
ENDBRANCH  96 100
ENDBRANCH  70  93
ENDBRANCH  44  45
ENDBRANCH  36  39
ENDBRANCH  34  35
ENDBRANCH  33  34
ENDBRANCH   1  33
TORSDOF 18
ENDMDL
MODEL 3
REMARK VINA RESULT:     -12.9      1.867      2.267
REMARK SMILES COc1ccc([C@H](NC(=O)[C@H]2CC(C)=C(C)C[C@@H]2C(=O)NCCCNC(=O)c2ccc(-c3c4nc(c(-c5cc(S(=O)(=O)[O-])ccc5F)c5ccc([nH]5)c(-c5cc(S(=O)(=O)[O-])ccc5F)c5nc(c(-c6cc(S(=O)(=O)[O-])ccc6F)c6ccc3[nH]6)C=C5)C=C4)cc2)c2ccccc2)cc1
REMARK SMILES IDX 22 1 21 2 19 3 20 4 18 6 11 7 12 8 13 9 17 10 14 11 15 12
REMARK SMILES IDX 16 13 9 14 8 15 10 17 7 18 6 19 3 20 4 21 98 22 5 23 97 24
REMARK SMILES IDX 2 25 1 26 91 27 92 28 96 29 93 30 95 31 94 32 23 33 24 34
REMARK SMILES IDX 25 35 26 36 27 38 28 39 29 40 90 41 30 42 89 43 31 44 32 45
REMARK SMILES IDX 33 46 83 47 34 48 88 49 82 50 84 51 35 52 87 53 81 54 80 55
REMARK SMILES IDX 36 57 68 58 48 59 67 60 49 61 52 62 66 63 85 64 50 65 51 66
REMARK SMILES IDX 65 68 86 69 53 70 37 71 38 72 46 73 39 74 45 75 47 76 44 77
REMARK SMILES IDX 40 78 41 79 42 80 43 81 69 82 70 83 78 84 71 85 77 86 79 87
REMARK SMILES IDX 76 88 72 89 73 90 74 91 75 92 54 93 55 94 63 95 56 96 62 97
REMARK SMILES IDX 64 98 61 99 57 100 58 101 59 102 60 103
REMARK H PARENT 21 5 8 16 25 37 84 56 52 67
REMARK Flexibility Score: inf
ROOT
ATOM      1  C   UNL A   1      32.467  27.531  26.761  1.00  0.00     0.117 C 
ENDROOT
BRANCH   1   2
ATOM      2  N   UNL A   1      31.272  26.731  26.908  1.00  0.00    -0.356 N 
ATOM      3  C   UNL A   1      30.514  26.029  26.041  1.00  0.00     0.224 C 
ATOM      4  O   UNL A   1      29.557  25.426  26.549  1.00  0.00    -0.275 OA
ATOM      5  H   UNL A   1      30.941  26.691  27.835  1.00  0.00     0.163 HD
BRANCH   3   6
ATOM      6  C   UNL A   1      30.775  25.863  24.547  1.00  0.00     0.095 C 
ATOM      7  C   UNL A   1      32.263  25.488  24.302  1.00  0.00     0.095 C 
ATOM      8  C   UNL A   1      33.107  26.746  24.087  1.00  0.00     0.045 C 
ATOM      9  C   UNL A   1      32.493  27.868  23.280  1.00  0.00    -0.074 C 
ATOM     10  C   UNL A   1      30.221  26.851  23.519  1.00  0.00     0.045 C 
ATOM     11  C   UNL A   1      33.468  28.951  22.884  1.00  0.00     0.039 C 
ATOM     12  C   UNL A   1      31.169  27.918  23.021  1.00  0.00    -0.074 C 
ATOM     13  C   UNL A   1      30.505  29.074  22.312  1.00  0.00     0.039 C 
BRANCH   7  14
ATOM     14  C   UNL A   1      32.318  24.296  23.330  1.00  0.00     0.224 C 
ATOM     15  N   UNL A   1      32.401  22.996  23.653  1.00  0.00    -0.345 N 
ATOM     16  H   UNL A   1      31.939  22.432  22.992  1.00  0.00     0.164 HD
ATOM     17  O   UNL A   1      32.081  24.463  22.124  1.00  0.00    -0.275 OA
BRANCH  15  18
ATOM     18  C   UNL A   1      32.990  22.192  24.717  1.00  0.00     0.143 C 
BRANCH  18  19
ATOM     19  C   UNL A   1      32.829  20.691  24.459  1.00  0.00    -0.021 A 
ATOM     20  C   UNL A   1      32.746  17.909  23.945  1.00  0.00     0.118 A 
ATOM     21  C   UNL A   1      33.094  18.383  25.209  1.00  0.00     0.047 A 
ATOM     22  C   UNL A   1      32.353  18.815  22.965  1.00  0.00     0.047 A 
ATOM     23  C   UNL A   1      33.124  19.758  25.469  1.00  0.00     0.010 A 
ATOM     24  C   UNL A   1      32.392  20.191  23.220  1.00  0.00     0.010 A 
BRANCH  20  25
ATOM     25  O   UNL A   1      32.802  16.552  23.779  1.00  0.00    -0.497 OA
ATOM     26  C   UNL A   1      33.578  15.859  24.754  1.00  0.00     0.278 C 
ENDBRANCH  20  25
ENDBRANCH  18  19
BRANCH  18  27
ATOM     27  C   UNL A   1      34.444  22.690  24.804  1.00  0.00    -0.021 A 
ATOM     28  C   UNL A   1      34.983  23.268  25.968  1.00  0.00     0.006 A 
ATOM     29  C   UNL A   1      35.320  22.393  23.743  1.00  0.00     0.006 A 
ATOM     30  C   UNL A   1      36.343  23.571  26.052  1.00  0.00     0.000 A 
ATOM     31  C   UNL A   1      36.684  22.677  23.839  1.00  0.00     0.000 A 
ATOM     32  C   UNL A   1      37.193  23.270  24.992  1.00  0.00     0.000 A 
ENDBRANCH  18  27
ENDBRANCH  15  18
ENDBRANCH   7  14
ENDBRANCH   3   6
ENDBRANCH   1   2
BRANCH   1  33
ATOM     33  C   UNL A   1      32.180  29.027  26.816  1.00  0.00     0.042 C 
BRANCH  33  34
ATOM     34  C   UNL A   1      33.308  29.890  26.259  1.00  0.00     0.118 C 
BRANCH  34  35
ATOM     35  N   UNL A   1      33.208  31.272  26.701  1.00  0.00    -0.352 N 
ATOM     36  C   UNL A   1      33.924  31.954  27.652  1.00  0.00     0.251 C 
ATOM     37  H   UNL A   1      32.516  31.804  26.245  1.00  0.00     0.163 HD
ATOM     38  O   UNL A   1      33.503  33.039  28.043  1.00  0.00    -0.269 OA
BRANCH  36  39
ATOM     39  C   UNL A   1      35.178  31.397  28.208  1.00  0.00     0.039 A 
ATOM     40  C   UNL A   1      35.150  30.117  28.772  1.00  0.00     0.014 A 
ATOM     41  C   UNL A   1      36.357  32.146  28.246  1.00  0.00     0.014 A 
ATOM     42  C   UNL A   1      36.308  29.579  29.342  1.00  0.00     0.010 A 
ATOM     43  C   UNL A   1      37.529  31.582  28.746  1.00  0.00     0.010 A 
ATOM     44  C   UNL A   1      37.511  30.301  29.320  1.00  0.00    -0.014 A 
BRANCH  44  45
ATOM     45  C   UNL A   1      38.746  29.757  29.941  1.00  0.00     0.031 A 
ATOM     46  C   UNL A   1      39.181  30.244  31.297  1.00  0.00     0.074 A 
ATOM     47  C   UNL A   1      39.498  28.867  29.267  1.00  0.00     0.049 A 
ATOM     48  N   UNL A   1      40.256  29.947  31.982  1.00  0.00    -0.248 NA
ATOM     49  C   UNL A   1      38.303  31.222  31.952  1.00  0.00     0.031 C 
ATOM     50  C   UNL A   1      39.198  28.346  27.932  1.00  0.00     0.029 A 
ATOM     51  N   UNL A   1      40.671  28.246  29.610  1.00  0.00    -0.354 N 
ATOM     52  C   UNL A   1      40.192  30.716  33.139  1.00  0.00     0.074 A 
ATOM     53  C   UNL A   1      39.009  31.542  33.025  1.00  0.00     0.031 C 
ATOM     54  C   UNL A   1      40.148  27.465  27.581  1.00  0.00     0.029 A 
ATOM     55  C   UNL A   1      41.143  27.387  28.647  1.00  0.00     0.049 A 
ATOM     56  H   UNL A   1      41.133  28.401  30.466  1.00  0.00     0.167 HD
ATOM     57  C   UNL A   1      41.028  30.717  34.210  1.00  0.00     0.034 A 
ATOM     58  C   UNL A   1      42.254  26.624  28.623  1.00  0.00     0.034 A 
ATOM     59  C   UNL A   1      42.199  29.878  34.308  1.00  0.00     0.049 A 
ATOM     60  C   UNL A   1      43.176  26.645  29.814  1.00  0.00     0.074 A 
ATOM     61  C   UNL A   1      43.095  29.761  35.357  1.00  0.00     0.029 A 
ATOM     62  N   UNL A   1      42.642  29.013  33.313  1.00  0.00    -0.354 N 
ATOM     63  N   UNL A   1      43.085  27.348  30.919  1.00  0.00    -0.248 NA
ATOM     64  C   UNL A   1      44.344  25.757  29.758  1.00  0.00     0.031 C 
ATOM     65  C   UNL A   1      44.108  28.873  34.974  1.00  0.00     0.029 A 
ATOM     66  C   UNL A   1      43.809  28.379  33.715  1.00  0.00     0.049 A 
ATOM     67  H   UNL A   1      42.193  28.872  32.448  1.00  0.00     0.167 HD
ATOM     68  C   UNL A   1      44.167  26.962  31.704  1.00  0.00     0.074 A 
ATOM     69  C   UNL A   1      44.889  25.958  30.948  1.00  0.00     0.031 C 
ATOM     70  C   UNL A   1      44.526  27.390  32.942  1.00  0.00     0.034 A 
BRANCH  57  71
ATOM     71  C   UNL A   1      40.708  31.679  35.331  1.00  0.00     0.023 A 
ATOM     72  C   UNL A   1      39.637  31.451  36.216  1.00  0.00     0.031 A 
ATOM     73  C   UNL A   1      41.432  32.875  35.479  1.00  0.00     0.131 A 
ATOM     74  C   UNL A   1      39.256  32.445  37.129  1.00  0.00     0.055 A 
ATOM     75  C   UNL A   1      41.106  33.820  36.455  1.00  0.00     0.041 A 
ATOM     76  F   UNL A   1      42.453  33.163  34.656  1.00  0.00    -0.206 F 
ATOM     77  C   UNL A   1      39.998  33.618  37.273  1.00  0.00     0.022 A 
BRANCH  74  78
ATOM     78  S   UNL A   1      37.667  32.263  37.987  1.00  0.00     0.124 S 
ATOM     79  O   UNL A   1      37.406  30.835  37.824  1.00  0.00    -0.237 OA
ATOM     80  O   UNL A   1      37.985  32.705  39.339  1.00  0.00    -0.237 OA
ATOM     81  O   UNL A   1      36.769  33.140  37.237  1.00  0.00    -0.744 OA
ENDBRANCH  74  78
ENDBRANCH  57  71
BRANCH  58  82
ATOM     82  C   UNL A   1      42.548  25.768  27.442  1.00  0.00     0.023 A 
ATOM     83  C   UNL A   1      42.134  24.427  27.405  1.00  0.00     0.031 A 
ATOM     84  C   UNL A   1      43.255  26.274  26.338  1.00  0.00     0.131 A 
ATOM     85  C   UNL A   1      42.461  23.626  26.301  1.00  0.00     0.055 A 
ATOM     86  C   UNL A   1      43.542  25.484  25.223  1.00  0.00     0.041 A 
ATOM     87  F   UNL A   1      43.662  27.553  26.321  1.00  0.00    -0.206 F 
ATOM     88  C   UNL A   1      43.152  24.148  25.205  1.00  0.00     0.022 A 
BRANCH  85  89
ATOM     89  S   UNL A   1      42.010  21.869  26.339  1.00  0.00     0.124 S 
ATOM     90  O   UNL A   1      42.871  21.319  25.298  1.00  0.00    -0.237 OA
ATOM     91  O   UNL A   1      42.345  21.500  27.710  1.00  0.00    -0.237 OA
ATOM     92  O   UNL A   1      40.582  21.878  26.029  1.00  0.00    -0.744 OA
ENDBRANCH  85  89
ENDBRANCH  58  82
BRANCH  70  93
ATOM     93  C   UNL A   1      45.731  26.730  33.569  1.00  0.00     0.023 A 
ATOM     94  C   UNL A   1      45.618  25.559  34.339  1.00  0.00     0.031 A 
ATOM     95  C   UNL A   1      47.006  27.299  33.410  1.00  0.00     0.131 A 
ATOM     96  C   UNL A   1      46.753  25.027  34.971  1.00  0.00     0.055 A 
ATOM     97  C   UNL A   1      48.141  26.732  33.992  1.00  0.00     0.041 A 
ATOM     98  F   UNL A   1      47.170  28.418  32.687  1.00  0.00    -0.206 F 
ATOM     99  C   UNL A   1      48.016  25.598  34.790  1.00  0.00     0.022 A 
BRANCH  96 100
ATOM    100  S   UNL A   1      46.542  23.636  36.115  1.00  0.00     0.124 S 
ATOM    101  O   UNL A   1      45.157  23.248  35.872  1.00  0.00    -0.237 OA
ATOM    102  O   UNL A   1      47.558  22.695  35.651  1.00  0.00    -0.237 OA
ATOM    103  O   UNL A   1      46.800  24.228  37.426  1.00  0.00    -0.744 OA
ENDBRANCH  96 100
ENDBRANCH  70  93
ENDBRANCH  44  45
ENDBRANCH  36  39
ENDBRANCH  34  35
ENDBRANCH  33  34
ENDBRANCH   1  33
TORSDOF 18
ENDMDL
