MODEL 1
REMARK VINA RESULT:     -12.4      0.000      0.000
REMARK SMILES C[N@@H+]1CCC[C@@H](C(=O)N[C@H](C(=O)NCCCNC(=O)c2ccc(-c3c4nc(c(-c5cc(S(=O)(=O)[O-])ccc5F)c5ccc([nH]5)c(-c5cc(S(=O)(=O)[O-])ccc5F)c5nc(c(-c6cc(S(=O)(=O)[O-])ccc6F)c6ccc3[nH]6)C=C5)C=C4)cc2)c2ccccc2)C1
REMARK SMILES IDX 15 1 14 2 13 3 11 4 12 5 10 7 9 8 7 9 8 10 6 12 1 13 2 14
REMARK SMILES IDX 3 15 89 16 4 18 5 19 83 20 84 21 88 22 85 23 87 24 86 25
REMARK SMILES IDX 16 26 17 27 18 28 19 30 20 31 21 32 82 33 22 34 81 35 23 36
REMARK SMILES IDX 24 37 25 38 75 39 26 40 80 41 74 42 76 43 27 44 79 45 73 46
REMARK SMILES IDX 72 47 28 49 60 50 40 51 59 52 41 53 44 54 58 55 77 56 42 57
REMARK SMILES IDX 43 58 57 60 78 61 45 62 29 63 30 64 38 65 31 66 37 67 39 68
REMARK SMILES IDX 36 69 32 70 33 71 34 72 35 73 61 74 62 75 70 76 63 77 69 78
REMARK SMILES IDX 71 79 68 80 64 81 65 82 66 83 67 84 46 85 47 86 55 87 48 88
REMARK SMILES IDX 54 89 56 90 53 91 49 92 50 93 51 94 52 95
REMARK H PARENT 13 6 9 11 2 17 17 29 76 48 44 59
REMARK Flexibility Score: inf
ROOT
ATOM      1  C   UNL A   1      31.568  31.614  26.525  1.00  0.00     0.042 C 
ENDROOT
BRANCH   1   2
ATOM      2  C   UNL A   1      31.707  30.141  26.149  1.00  0.00     0.117 C 
BRANCH   2   3
ATOM      3  N   UNL A   1      32.535  29.924  24.964  1.00  0.00    -0.354 N 
ATOM      4  C   UNL A   1      32.406  29.001  23.953  1.00  0.00     0.247 C 
ATOM      5  O   UNL A   1      33.276  28.984  23.078  1.00  0.00    -0.272 OA
ATOM      6  H   UNL A   1      33.305  30.531  24.878  1.00  0.00     0.163 HD
BRANCH   4   7
ATOM      7  C   UNL A   1      31.202  28.026  23.945  1.00  0.00     0.202 C 
BRANCH   7   8
ATOM      8  N   UNL A   1      31.024  27.418  25.260  1.00  0.00    -0.340 N 
ATOM      9  C   UNL A   1      31.298  26.187  25.751  1.00  0.00     0.229 C 
ATOM     10  O   UNL A   1      31.045  26.014  26.952  1.00  0.00    -0.275 OA
ATOM     11  H   UNL A   1      30.623  28.025  25.924  1.00  0.00     0.164 HD
BRANCH   9  12
ATOM     12  C   UNL A   1      31.925  25.014  24.972  1.00  0.00     0.133 C 
ATOM     13  C   UNL A   1      34.440  22.955  26.951  1.00  0.00     0.332 C 
ATOM     14  N   UNL A   1      33.150  23.397  26.435  1.00  0.00    -0.337 N 
ATOM     15  C   UNL A   1      32.336  22.277  25.955  1.00  0.00     0.262 C 
ATOM     16  C   UNL A   1      33.274  24.461  25.440  1.00  0.00     0.275 C 
ATOM     17  H   UNL A   1      32.649  23.805  27.224  1.00  0.00     0.347 HD
ATOM     18  C   UNL A   1      30.927  22.736  25.567  1.00  0.00     0.062 C 
ATOM     19  C   UNL A   1      30.934  23.910  24.597  1.00  0.00     0.025 C 
ENDBRANCH   9  12
ENDBRANCH   7   8
BRANCH   7  20
ATOM     20  C   UNL A   1      29.900  28.603  23.400  1.00  0.00    -0.016 A 
ATOM     21  C   UNL A   1      28.701  27.881  23.353  1.00  0.00     0.006 A 
ATOM     22  C   UNL A   1      29.847  29.967  23.066  1.00  0.00     0.006 A 
ATOM     23  C   UNL A   1      27.480  28.532  23.141  1.00  0.00     0.000 A 
ATOM     24  C   UNL A   1      28.634  30.616  22.839  1.00  0.00     0.000 A 
ATOM     25  C   UNL A   1      27.445  29.904  22.912  1.00  0.00     0.000 A 
ENDBRANCH   7  20
ENDBRANCH   4   7
ENDBRANCH   2   3
ENDBRANCH   1   2
BRANCH   1  26
ATOM     26  C   UNL A   1      32.800  32.222  27.182  1.00  0.00     0.118 C 
BRANCH  26  27
ATOM     27  N   UNL A   1      32.609  33.618  27.533  1.00  0.00    -0.352 N 
ATOM     28  C   UNL A   1      33.217  34.366  28.516  1.00  0.00     0.251 C 
ATOM     29  H   UNL A   1      31.946  34.101  26.988  1.00  0.00     0.163 HD
ATOM     30  O   UNL A   1      32.761  35.473  28.788  1.00  0.00    -0.269 OA
BRANCH  28  31
ATOM     31  C   UNL A   1      34.385  33.836  29.266  1.00  0.00     0.039 A 
ATOM     32  C   UNL A   1      34.162  32.951  30.325  1.00  0.00     0.014 A 
ATOM     33  C   UNL A   1      35.693  34.222  28.956  1.00  0.00     0.014 A 
ATOM     34  C   UNL A   1      35.244  32.410  31.027  1.00  0.00     0.010 A 
ATOM     35  C   UNL A   1      36.773  33.616  29.600  1.00  0.00     0.010 A 
ATOM     36  C   UNL A   1      36.564  32.709  30.649  1.00  0.00    -0.014 A 
BRANCH  36  37
ATOM     37  C   UNL A   1      37.729  32.102  31.354  1.00  0.00     0.031 A 
ATOM     38  C   UNL A   1      38.502  30.978  30.714  1.00  0.00     0.074 A 
ATOM     39  C   UNL A   1      38.064  32.525  32.590  1.00  0.00     0.049 A 
ATOM     40  N   UNL A   1      39.498  30.276  31.194  1.00  0.00    -0.248 NA
ATOM     41  C   UNL A   1      38.077  30.570  29.367  1.00  0.00     0.031 C 
ATOM     42  C   UNL A   1      37.377  33.581  33.337  1.00  0.00     0.029 A 
ATOM     43  N   UNL A   1      39.064  32.118  33.440  1.00  0.00    -0.354 N 
ATOM     44  C   UNL A   1      39.809  29.336  30.215  1.00  0.00     0.074 A 
ATOM     45  C   UNL A   1      38.851  29.519  29.146  1.00  0.00     0.031 C 
ATOM     46  C   UNL A   1      37.992  33.756  34.519  1.00  0.00     0.029 A 
ATOM     47  C   UNL A   1      39.084  32.796  34.639  1.00  0.00     0.049 A 
ATOM     48  H   UNL A   1      39.705  31.407  33.214  1.00  0.00     0.167 HD
ATOM     49  C   UNL A   1      40.814  28.426  30.196  1.00  0.00     0.034 A 
ATOM     50  C   UNL A   1      39.883  32.655  35.716  1.00  0.00     0.034 A 
ATOM     51  C   UNL A   1      41.773  28.263  31.263  1.00  0.00     0.049 A 
ATOM     52  C   UNL A   1      40.975  31.615  35.687  1.00  0.00     0.074 A 
ATOM     53  C   UNL A   1      42.862  27.409  31.323  1.00  0.00     0.029 A 
ATOM     54  N   UNL A   1      41.756  28.965  32.463  1.00  0.00    -0.354 N 
ATOM     55  N   UNL A   1      41.284  30.767  34.733  1.00  0.00    -0.248 NA
ATOM     56  C   UNL A   1      41.832  31.520  36.875  1.00  0.00     0.031 C 
ATOM     57  C   UNL A   1      43.458  27.543  32.582  1.00  0.00     0.029 A 
ATOM     58  C   UNL A   1      42.794  28.539  33.279  1.00  0.00     0.049 A 
ATOM     59  H   UNL A   1      41.104  29.662  32.699  1.00  0.00     0.167 HD
ATOM     60  C   UNL A   1      42.392  30.062  35.195  1.00  0.00     0.074 A 
ATOM     61  C   UNL A   1      42.705  30.594  36.506  1.00  0.00     0.031 C 
ATOM     62  C   UNL A   1      43.091  29.069  34.590  1.00  0.00     0.034 A 
BRANCH  49  63
ATOM     63  C   UNL A   1      40.909  27.518  28.990  1.00  0.00     0.023 A 
ATOM     64  C   UNL A   1      41.865  27.728  27.982  1.00  0.00     0.031 A 
ATOM     65  C   UNL A   1      40.012  26.447  28.830  1.00  0.00     0.131 A 
ATOM     66  C   UNL A   1      41.851  26.935  26.824  1.00  0.00     0.055 A 
ATOM     67  C   UNL A   1      40.059  25.606  27.716  1.00  0.00     0.041 A 
ATOM     68  F   UNL A   1      39.062  26.206  29.748  1.00  0.00    -0.206 F 
ATOM     69  C   UNL A   1      40.971  25.859  26.696  1.00  0.00     0.022 A 
BRANCH  66  70
ATOM     70  S   UNL A   1      42.893  27.431  25.424  1.00  0.00     0.124 S 
ATOM     71  O   UNL A   1      42.077  28.473  24.805  1.00  0.00    -0.237 OA
ATOM     72  O   UNL A   1      44.113  27.881  26.083  1.00  0.00    -0.237 OA
ATOM     73  O   UNL A   1      43.021  26.203  24.641  1.00  0.00    -0.744 OA
ENDBRANCH  66  70
ENDBRANCH  49  63
BRANCH  50  74
ATOM     74  C   UNL A   1      39.682  33.508  36.924  1.00  0.00     0.023 A 
ATOM     75  C   UNL A   1      39.034  33.007  38.064  1.00  0.00     0.031 A 
ATOM     76  C   UNL A   1      40.095  34.852  36.938  1.00  0.00     0.131 A 
ATOM     77  C   UNL A   1      38.776  33.856  39.152  1.00  0.00     0.055 A 
ATOM     78  C   UNL A   1      39.884  35.677  38.044  1.00  0.00     0.041 A 
ATOM     79  F   UNL A   1      40.723  35.382  35.876  1.00  0.00    -0.206 F 
ATOM     80  C   UNL A   1      39.208  35.183  39.155  1.00  0.00     0.022 A 
BRANCH  77  81
ATOM     81  S   UNL A   1      37.786  33.221  40.533  1.00  0.00     0.124 S 
ATOM     82  O   UNL A   1      38.540  32.033  40.918  1.00  0.00    -0.237 OA
ATOM     83  O   UNL A   1      37.825  34.337  41.472  1.00  0.00    -0.237 OA
ATOM     84  O   UNL A   1      36.481  32.965  39.926  1.00  0.00    -0.744 OA
ENDBRANCH  77  81
ENDBRANCH  50  74
BRANCH  62  85
ATOM     85  C   UNL A   1      44.295  28.528  35.325  1.00  0.00     0.023 A 
ATOM     86  C   UNL A   1      44.179  27.532  36.310  1.00  0.00     0.031 A 
ATOM     87  C   UNL A   1      45.579  29.026  35.037  1.00  0.00     0.131 A 
ATOM     88  C   UNL A   1      45.317  27.109  37.014  1.00  0.00     0.055 A 
ATOM     89  C   UNL A   1      46.715  28.556  35.697  1.00  0.00     0.041 A 
ATOM     90  F   UNL A   1      45.750  29.980  34.108  1.00  0.00    -0.206 F 
ATOM     91  C   UNL A   1      46.587  27.602  36.702  1.00  0.00     0.022 A 
BRANCH  88  92
ATOM     92  S   UNL A   1      45.105  25.973  38.412  1.00  0.00     0.124 S 
ATOM     93  O   UNL A   1      44.780  24.720  37.738  1.00  0.00    -0.237 OA
ATOM     94  O   UNL A   1      46.411  26.028  39.061  1.00  0.00    -0.237 OA
ATOM     95  O   UNL A   1      44.009  26.568  39.175  1.00  0.00    -0.744 OA
ENDBRANCH  88  92
ENDBRANCH  62  85
ENDBRANCH  36  37
ENDBRANCH  28  31
ENDBRANCH  26  27
ENDBRANCH   1  26
TORSDOF 16
ENDMDL
MODEL 2
REMARK VINA RESULT:     -12.3      3.090      8.504
REMARK SMILES C[N@@H+]1CCC[C@@H](C(=O)N[C@H](C(=O)NCCCNC(=O)c2ccc(-c3c4nc(c(-c5cc(S(=O)(=O)[O-])ccc5F)c5ccc([nH]5)c(-c5cc(S(=O)(=O)[O-])ccc5F)c5nc(c(-c6cc(S(=O)(=O)[O-])ccc6F)c6ccc3[nH]6)C=C5)C=C4)cc2)c2ccccc2)C1
REMARK SMILES IDX 15 1 14 2 13 3 11 4 12 5 10 7 9 8 7 9 8 10 6 12 1 13 2 14
REMARK SMILES IDX 3 15 89 16 4 18 5 19 83 20 84 21 88 22 85 23 87 24 86 25
REMARK SMILES IDX 16 26 17 27 18 28 19 30 20 31 21 32 82 33 22 34 81 35 23 36
REMARK SMILES IDX 24 37 25 38 75 39 26 40 80 41 74 42 76 43 27 44 79 45 73 46
REMARK SMILES IDX 72 47 28 49 60 50 40 51 59 52 41 53 44 54 58 55 77 56 42 57
REMARK SMILES IDX 43 58 57 60 78 61 45 62 29 63 30 64 38 65 31 66 37 67 39 68
REMARK SMILES IDX 36 69 32 70 33 71 34 72 35 73 61 74 62 75 70 76 63 77 69 78
REMARK SMILES IDX 71 79 68 80 64 81 65 82 66 83 67 84 46 85 47 86 55 87 48 88
REMARK SMILES IDX 54 89 56 90 53 91 49 92 50 93 51 94 52 95
REMARK H PARENT 13 6 9 11 2 17 17 29 76 48 44 59
REMARK Flexibility Score: inf
ROOT
ATOM      1  C   UNL A   1      33.162  28.042  26.837  1.00  0.00     0.042 C 
ENDROOT
BRANCH   1   2
ATOM      2  C   UNL A   1      31.672  28.204  27.131  1.00  0.00     0.117 C 
BRANCH   2   3
ATOM      3  N   UNL A   1      30.930  26.947  27.060  1.00  0.00    -0.354 N 
ATOM      4  C   UNL A   1      30.640  26.153  25.976  1.00  0.00     0.247 C 
ATOM      5  O   UNL A   1      29.943  25.152  26.169  1.00  0.00    -0.272 OA
ATOM      6  H   UNL A   1      30.583  26.620  27.921  1.00  0.00     0.163 HD
BRANCH   4   7
ATOM      7  C   UNL A   1      31.179  26.531  24.573  1.00  0.00     0.202 C 
BRANCH   7   8
ATOM      8  N   UNL A   1      31.630  25.341  23.859  1.00  0.00    -0.340 N 
ATOM      9  C   UNL A   1      32.692  24.517  24.018  1.00  0.00     0.229 C 
ATOM     10  O   UNL A   1      32.754  23.558  23.236  1.00  0.00    -0.275 OA
ATOM     11  H   UNL A   1      31.046  25.087  23.108  1.00  0.00     0.164 HD
BRANCH   9  12
ATOM     12  C   UNL A   1      33.787  24.641  25.095  1.00  0.00     0.133 C 
ATOM     13  C   UNL A   1      33.814  21.833  27.664  1.00  0.00     0.332 C 
ATOM     14  N   UNL A   1      34.106  22.547  26.427  1.00  0.00    -0.337 N 
ATOM     15  C   UNL A   1      35.528  22.489  26.080  1.00  0.00     0.262 C 
ATOM     16  C   UNL A   1      33.588  23.915  26.429  1.00  0.00     0.275 C 
ATOM     17  H   UNL A   1      33.604  22.057  25.687  1.00  0.00     0.347 HD
ATOM     18  C   UNL A   1      35.793  23.103  24.701  1.00  0.00     0.062 C 
ATOM     19  C   UNL A   1      35.213  24.504  24.557  1.00  0.00     0.025 C 
ENDBRANCH   9  12
ENDBRANCH   7   8
BRANCH   7  20
ATOM     20  C   UNL A   1      30.245  27.389  23.726  1.00  0.00    -0.016 A 
ATOM     21  C   UNL A   1      28.861  27.184  23.663  1.00  0.00     0.006 A 
ATOM     22  C   UNL A   1      30.759  28.534  23.095  1.00  0.00     0.006 A 
ATOM     23  C   UNL A   1      28.015  28.165  23.132  1.00  0.00     0.000 A 
ATOM     24  C   UNL A   1      29.921  29.506  22.551  1.00  0.00     0.000 A 
ATOM     25  C   UNL A   1      28.543  29.337  22.603  1.00  0.00     0.000 A 
ENDBRANCH   7  20
ENDBRANCH   4   7
ENDBRANCH   2   3
ENDBRANCH   1   2
BRANCH   1  26
ATOM     26  C   UNL A   1      33.744  29.095  25.903  1.00  0.00     0.118 C 
BRANCH  26  27
ATOM     27  N   UNL A   1      33.641  30.437  26.448  1.00  0.00    -0.352 N 
ATOM     28  C   UNL A   1      34.377  31.035  27.447  1.00  0.00     0.251 C 
ATOM     29  H   UNL A   1      32.942  31.002  26.046  1.00  0.00     0.163 HD
ATOM     30  O   UNL A   1      33.993  32.107  27.906  1.00  0.00    -0.269 OA
BRANCH  28  31
ATOM     31  C   UNL A   1      35.599  30.386  27.989  1.00  0.00     0.039 A 
ATOM     32  C   UNL A   1      36.783  30.453  27.247  1.00  0.00     0.014 A 
ATOM     33  C   UNL A   1      35.585  29.691  29.201  1.00  0.00     0.014 A 
ATOM     34  C   UNL A   1      37.957  29.881  27.749  1.00  0.00     0.010 A 
ATOM     35  C   UNL A   1      36.775  29.196  29.739  1.00  0.00     0.010 A 
ATOM     36  C   UNL A   1      37.974  29.276  29.016  1.00  0.00    -0.014 A 
BRANCH  36  37
ATOM     37  C   UNL A   1      39.228  28.706  29.586  1.00  0.00     0.031 A 
ATOM     38  C   UNL A   1      39.831  29.295  30.836  1.00  0.00     0.074 A 
ATOM     39  C   UNL A   1      39.854  27.691  28.957  1.00  0.00     0.049 A 
ATOM     40  N   UNL A   1      40.947  28.985  31.446  1.00  0.00    -0.248 NA
ATOM     41  C   UNL A   1      39.092  30.400  31.465  1.00  0.00     0.031 C 
ATOM     42  C   UNL A   1      39.396  27.052  27.720  1.00  0.00     0.029 A 
ATOM     43  N   UNL A   1      41.012  27.019  29.264  1.00  0.00    -0.354 N 
ATOM     44  C   UNL A   1      41.053  29.864  32.520  1.00  0.00     0.074 A 
ATOM     45  C   UNL A   1      39.919  30.760  32.435  1.00  0.00     0.031 C 
ATOM     46  C   UNL A   1      40.247  26.066  27.393  1.00  0.00     0.029 A 
ATOM     47  C   UNL A   1      41.338  26.030  28.363  1.00  0.00     0.049 A 
ATOM     48  H   UNL A   1      41.560  27.226  30.056  1.00  0.00     0.167 HD
ATOM     49  C   UNL A   1      41.990  29.906  33.499  1.00  0.00     0.034 A 
ATOM     50  C   UNL A   1      42.397  25.197  28.314  1.00  0.00     0.034 A 
ATOM     51  C   UNL A   1      43.109  28.997  33.581  1.00  0.00     0.049 A 
ATOM     52  C   UNL A   1      43.444  25.280  29.397  1.00  0.00     0.074 A 
ATOM     53  C   UNL A   1      44.086  28.917  34.559  1.00  0.00     0.029 A 
ATOM     54  N   UNL A   1      43.407  28.014  32.645  1.00  0.00    -0.354 N 
ATOM     55  N   UNL A   1      43.502  26.087  30.431  1.00  0.00    -0.248 NA
ATOM     56  C   UNL A   1      44.563  24.334  29.310  1.00  0.00     0.031 C 
ATOM     57  C   UNL A   1      45.010  27.937  34.180  1.00  0.00     0.029 A 
ATOM     58  C   UNL A   1      44.568  27.347  33.007  1.00  0.00     0.049 A 
ATOM     59  H   UNL A   1      42.872  27.819  31.842  1.00  0.00     0.167 HD
ATOM     60  C   UNL A   1      44.646  25.721  31.135  1.00  0.00     0.074 A 
ATOM     61  C   UNL A   1      45.239  24.613  30.415  1.00  0.00     0.031 C 
ATOM     62  C   UNL A   1      45.157  26.249  32.276  1.00  0.00     0.034 A 
BRANCH  49  63
ATOM     63  C   UNL A   1      41.854  30.987  34.548  1.00  0.00     0.023 A 
ATOM     64  C   UNL A   1      40.773  31.012  35.446  1.00  0.00     0.031 A 
ATOM     65  C   UNL A   1      42.800  32.023  34.631  1.00  0.00     0.131 A 
ATOM     66  C   UNL A   1      40.620  32.091  36.331  1.00  0.00     0.055 A 
ATOM     67  C   UNL A   1      42.690  33.049  35.574  1.00  0.00     0.041 A 
ATOM     68  F   UNL A   1      43.845  32.067  33.788  1.00  0.00    -0.206 F 
ATOM     69  C   UNL A   1      41.585  33.097  36.418  1.00  0.00     0.022 A 
BRANCH  66  70
ATOM     70  S   UNL A   1      39.064  32.241  37.250  1.00  0.00     0.124 S 
ATOM     71  O   UNL A   1      38.441  30.946  36.987  1.00  0.00    -0.237 OA
ATOM     72  O   UNL A   1      39.525  32.462  38.616  1.00  0.00    -0.237 OA
ATOM     73  O   UNL A   1      38.403  33.383  36.621  1.00  0.00    -0.744 OA
ENDBRANCH  66  70
ENDBRANCH  49  63
BRANCH  50  74
ATOM     74  C   UNL A   1      42.536  24.215  27.200  1.00  0.00     0.023 A 
ATOM     75  C   UNL A   1      41.927  22.952  27.268  1.00  0.00     0.031 A 
ATOM     76  C   UNL A   1      43.318  24.509  26.068  1.00  0.00     0.131 A 
ATOM     77  C   UNL A   1      42.148  22.013  26.248  1.00  0.00     0.055 A 
ATOM     78  C   UNL A   1      43.491  23.590  25.032  1.00  0.00     0.041 A 
ATOM     79  F   UNL A   1      43.921  25.703  25.950  1.00  0.00    -0.206 F 
ATOM     80  C   UNL A   1      42.915  22.327  25.125  1.00  0.00     0.022 A 
BRANCH  77  81
ATOM     81  S   UNL A   1      41.488  20.336  26.455  1.00  0.00     0.124 S 
ATOM     82  O   UNL A   1      42.195  19.606  25.408  1.00  0.00    -0.237 OA
ATOM     83  O   UNL A   1      41.874  20.025  27.827  1.00  0.00    -0.237 OA
ATOM     84  O   UNL A   1      40.052  20.506  26.238  1.00  0.00    -0.744 OA
ENDBRANCH  77  81
ENDBRANCH  50  74
BRANCH  62  85
ATOM     85  C   UNL A   1      46.398  25.598  32.840  1.00  0.00     0.023 A 
ATOM     86  C   UNL A   1      46.329  24.519  33.738  1.00  0.00     0.031 A 
ATOM     87  C   UNL A   1      47.671  26.075  32.477  1.00  0.00     0.131 A 
ATOM     88  C   UNL A   1      47.507  23.990  34.288  1.00  0.00     0.055 A 
ATOM     89  C   UNL A   1      48.841  25.504  32.979  1.00  0.00     0.041 A 
ATOM     90  F   UNL A   1      47.798  27.105  31.626  1.00  0.00    -0.206 F 
ATOM     91  C   UNL A   1      48.763  24.464  33.901  1.00  0.00     0.022 A 
BRANCH  88  92
ATOM     92  S   UNL A   1      47.374  22.735  35.590  1.00  0.00     0.124 S 
ATOM     93  O   UNL A   1      48.362  23.197  36.560  1.00  0.00    -0.237 OA
ATOM     94  O   UNL A   1      45.977  22.854  35.998  1.00  0.00    -0.237 OA
ATOM     95  O   UNL A   1      47.713  21.490  34.904  1.00  0.00    -0.744 OA
ENDBRANCH  88  92
ENDBRANCH  62  85
ENDBRANCH  36  37
ENDBRANCH  28  31
ENDBRANCH  26  27
ENDBRANCH   1  26
TORSDOF 16
ENDMDL
MODEL 3
REMARK VINA RESULT:     -12.3      2.391      3.767
REMARK SMILES C[N@@H+]1CCC[C@@H](C(=O)N[C@H](C(=O)NCCCNC(=O)c2ccc(-c3c4nc(c(-c5cc(S(=O)(=O)[O-])ccc5F)c5ccc([nH]5)c(-c5cc(S(=O)(=O)[O-])ccc5F)c5nc(c(-c6cc(S(=O)(=O)[O-])ccc6F)c6ccc3[nH]6)C=C5)C=C4)cc2)c2ccccc2)C1
REMARK SMILES IDX 15 1 14 2 13 3 11 4 12 5 10 7 9 8 7 9 8 10 6 12 1 13 2 14
REMARK SMILES IDX 3 15 89 16 4 18 5 19 83 20 84 21 88 22 85 23 87 24 86 25
REMARK SMILES IDX 16 26 17 27 18 28 19 30 20 31 21 32 82 33 22 34 81 35 23 36
REMARK SMILES IDX 24 37 25 38 75 39 26 40 80 41 74 42 76 43 27 44 79 45 73 46
REMARK SMILES IDX 72 47 28 49 60 50 40 51 59 52 41 53 44 54 58 55 77 56 42 57
REMARK SMILES IDX 43 58 57 60 78 61 45 62 29 63 30 64 38 65 31 66 37 67 39 68
REMARK SMILES IDX 36 69 32 70 33 71 34 72 35 73 61 74 62 75 70 76 63 77 69 78
REMARK SMILES IDX 71 79 68 80 64 81 65 82 66 83 67 84 46 85 47 86 55 87 48 88
REMARK SMILES IDX 54 89 56 90 53 91 49 92 50 93 51 94 52 95
REMARK H PARENT 13 6 9 11 2 17 17 29 76 48 44 59
REMARK Flexibility Score: inf
ROOT
ATOM      1  C   UNL A   1      31.707  28.068  26.519  1.00  0.00     0.042 C 
ENDROOT
BRANCH   1   2
ATOM      2  C   UNL A   1      31.067  27.001  25.635  1.00  0.00     0.117 C 
BRANCH   2   3
ATOM      3  N   UNL A   1      30.561  25.855  26.389  1.00  0.00    -0.354 N 
ATOM      4  C   UNL A   1      31.103  24.604  26.563  1.00  0.00     0.247 C 
ATOM      5  O   UNL A   1      30.449  23.781  27.211  1.00  0.00    -0.272 OA
ATOM      6  H   UNL A   1      29.698  26.003  26.840  1.00  0.00     0.163 HD
BRANCH   4   7
ATOM      7  C   UNL A   1      32.485  24.267  25.950  1.00  0.00     0.202 C 
BRANCH   7   8
ATOM      8  N   UNL A   1      33.207  23.323  26.797  1.00  0.00    -0.340 N 
ATOM      9  C   UNL A   1      34.400  22.696  26.671  1.00  0.00     0.229 C 
ATOM     10  O   UNL A   1      34.731  21.967  27.617  1.00  0.00    -0.275 OA
ATOM     11  H   UNL A   1      32.730  23.094  27.628  1.00  0.00     0.164 HD
BRANCH   9  12
ATOM     12  C   UNL A   1      35.383  22.839  25.493  1.00  0.00     0.133 C 
ATOM     13  C   UNL A   1      39.012  23.371  26.509  1.00  0.00     0.332 C 
ATOM     14  N   UNL A   1      37.782  22.660  26.180  1.00  0.00    -0.337 N 
ATOM     15  C   UNL A   1      38.016  21.559  25.243  1.00  0.00     0.262 C 
ATOM     16  C   UNL A   1      36.715  23.556  25.733  1.00  0.00     0.275 C 
ATOM     17  H   UNL A   1      37.452  22.240  27.049  1.00  0.00     0.347 HD
ATOM     18  C   UNL A   1      36.748  20.725  25.033  1.00  0.00     0.062 C 
ATOM     19  C   UNL A   1      35.540  21.570  24.651  1.00  0.00     0.025 C 
ENDBRANCH   9  12
ENDBRANCH   7   8
BRANCH   7  20
ATOM     20  C   UNL A   1      32.460  23.825  24.491  1.00  0.00    -0.016 A 
ATOM     21  C   UNL A   1      33.072  24.549  23.460  1.00  0.00     0.006 A 
ATOM     22  C   UNL A   1      31.936  22.561  24.171  1.00  0.00     0.006 A 
ATOM     23  C   UNL A   1      33.291  23.964  22.207  1.00  0.00     0.000 A 
ATOM     24  C   UNL A   1      32.139  21.981  22.920  1.00  0.00     0.000 A 
ATOM     25  C   UNL A   1      32.850  22.671  21.947  1.00  0.00     0.000 A 
ENDBRANCH   7  20
ENDBRANCH   4   7
ENDBRANCH   2   3
ENDBRANCH   1   2
BRANCH   1  26
ATOM     26  C   UNL A   1      32.644  29.021  25.788  1.00  0.00     0.118 C 
BRANCH  26  27
ATOM     27  N   UNL A   1      32.316  30.415  26.030  1.00  0.00    -0.352 N 
ATOM     28  C   UNL A   1      32.891  31.311  26.903  1.00  0.00     0.251 C 
ATOM     29  H   UNL A   1      31.573  30.771  25.492  1.00  0.00     0.163 HD
ATOM     30  O   UNL A   1      32.329  32.383  27.110  1.00  0.00    -0.269 OA
BRANCH  28  31
ATOM     31  C   UNL A   1      34.153  30.982  27.614  1.00  0.00     0.039 A 
ATOM     32  C   UNL A   1      35.091  31.997  27.827  1.00  0.00     0.014 A 
ATOM     33  C   UNL A   1      34.436  29.683  28.047  1.00  0.00     0.014 A 
ATOM     34  C   UNL A   1      36.274  31.724  28.523  1.00  0.00     0.010 A 
ATOM     35  C   UNL A   1      35.575  29.433  28.815  1.00  0.00     0.010 A 
ATOM     36  C   UNL A   1      36.513  30.447  29.056  1.00  0.00    -0.014 A 
BRANCH  36  37
ATOM     37  C   UNL A   1      37.744  30.153  29.843  1.00  0.00     0.031 A 
ATOM     38  C   UNL A   1      38.830  29.286  29.259  1.00  0.00     0.074 A 
ATOM     39  C   UNL A   1      37.869  30.623  31.101  1.00  0.00     0.049 A 
ATOM     40  N   UNL A   1      39.940  28.861  29.809  1.00  0.00    -0.248 NA
ATOM     41  C   UNL A   1      38.623  28.809  27.884  1.00  0.00     0.031 C 
ATOM     42  C   UNL A   1      36.876  31.445  31.798  1.00  0.00     0.029 A 
ATOM     43  N   UNL A   1      38.878  30.476  32.021  1.00  0.00    -0.354 N 
ATOM     44  C   UNL A   1      40.555  28.057  28.854  1.00  0.00     0.074 A 
ATOM     45  C   UNL A   1      39.660  28.003  27.718  1.00  0.00     0.031 C 
ATOM     46  C   UNL A   1      37.339  31.751  33.022  1.00  0.00     0.029 A 
ATOM     47  C   UNL A   1      38.635  31.109  33.220  1.00  0.00     0.049 A 
ATOM     48  H   UNL A   1      39.699  29.963  31.841  1.00  0.00     0.167 HD
ATOM     49  C   UNL A   1      41.764  27.443  28.907  1.00  0.00     0.034 A 
ATOM     50  C   UNL A   1      39.365  31.160  34.352  1.00  0.00     0.034 A 
ATOM     51  C   UNL A   1      42.654  27.516  30.040  1.00  0.00     0.049 A 
ATOM     52  C   UNL A   1      40.693  30.445  34.400  1.00  0.00     0.074 A 
ATOM     53  C   UNL A   1      43.923  26.977  30.178  1.00  0.00     0.029 A 
ATOM     54  N   UNL A   1      42.369  28.163  31.237  1.00  0.00    -0.354 N 
ATOM     55  N   UNL A   1      41.280  29.729  33.470  1.00  0.00    -0.248 NA
ATOM     56  C   UNL A   1      41.459  30.554  35.648  1.00  0.00     0.031 C 
ATOM     57  C   UNL A   1      44.373  27.236  31.477  1.00  0.00     0.029 A 
ATOM     58  C   UNL A   1      43.423  28.007  32.126  1.00  0.00     0.049 A 
ATOM     59  H   UNL A   1      41.541  28.659  31.427  1.00  0.00     0.167 HD
ATOM     60  C   UNL A   1      42.500  29.330  34.011  1.00  0.00     0.074 A 
ATOM     61  C   UNL A   1      42.569  29.898  35.341  1.00  0.00     0.031 C 
ATOM     62  C   UNL A   1      43.477  28.569  33.456  1.00  0.00     0.034 A 
BRANCH  49  63
ATOM     63  C   UNL A   1      42.178  26.618  27.709  1.00  0.00     0.023 A 
ATOM     64  C   UNL A   1      42.145  25.213  27.732  1.00  0.00     0.031 A 
ATOM     65  C   UNL A   1      42.641  27.243  26.537  1.00  0.00     0.131 A 
ATOM     66  C   UNL A   1      42.643  24.480  26.644  1.00  0.00     0.055 A 
ATOM     67  C   UNL A   1      43.053  26.509  25.422  1.00  0.00     0.041 A 
ATOM     68  F   UNL A   1      42.715  28.582  26.459  1.00  0.00    -0.206 F 
ATOM     69  C   UNL A   1      43.072  25.118  25.479  1.00  0.00     0.022 A 
BRANCH  66  70
ATOM     70  S   UNL A   1      42.866  22.690  26.836  1.00  0.00     0.124 S 
ATOM     71  O   UNL A   1      42.375  22.193  25.553  1.00  0.00    -0.237 OA
ATOM     72  O   UNL A   1      44.302  22.574  27.059  1.00  0.00    -0.237 OA
ATOM     73  O   UNL A   1      42.026  22.362  27.987  1.00  0.00    -0.744 OA
ENDBRANCH  66  70
ENDBRANCH  49  63
BRANCH  50  74
ATOM     74  C   UNL A   1      38.862  31.905  35.543  1.00  0.00     0.023 A 
ATOM     75  C   UNL A   1      38.293  31.227  36.633  1.00  0.00     0.031 A 
ATOM     76  C   UNL A   1      38.904  33.310  35.590  1.00  0.00     0.131 A 
ATOM     77  C   UNL A   1      37.744  31.955  37.701  1.00  0.00     0.055 A 
ATOM     78  C   UNL A   1      38.406  34.026  36.680  1.00  0.00     0.041 A 
ATOM     79  F   UNL A   1      39.441  34.008  34.577  1.00  0.00    -0.206 F 
ATOM     80  C   UNL A   1      37.808  33.349  37.737  1.00  0.00     0.022 A 
BRANCH  77  81
ATOM     81  S   UNL A   1      36.864  31.053  39.005  1.00  0.00     0.124 S 
ATOM     82  O   UNL A   1      37.778  31.193  40.133  1.00  0.00    -0.237 OA
ATOM     83  O   UNL A   1      35.613  31.797  39.097  1.00  0.00    -0.237 OA
ATOM     84  O   UNL A   1      36.744  29.701  38.462  1.00  0.00    -0.744 OA
ENDBRANCH  77  81
ENDBRANCH  50  74
BRANCH  62  85
ATOM     85  C   UNL A   1      44.727  28.348  34.276  1.00  0.00     0.023 A 
ATOM     86  C   UNL A   1      44.863  27.249  35.141  1.00  0.00     0.031 A 
ATOM     87  C   UNL A   1      45.794  29.262  34.194  1.00  0.00     0.131 A 
ATOM     88  C   UNL A   1      46.015  27.123  35.934  1.00  0.00     0.055 A 
ATOM     89  C   UNL A   1      46.962  29.096  34.938  1.00  0.00     0.041 A 
ATOM     90  F   UNL A   1      45.718  30.331  33.386  1.00  0.00    -0.206 F 
ATOM     91  C   UNL A   1      47.072  28.029  35.825  1.00  0.00     0.022 A 
BRANCH  88  92
ATOM     92  S   UNL A   1      46.073  25.808  37.182  1.00  0.00     0.124 S 
ATOM     93  O   UNL A   1      45.650  24.641  36.413  1.00  0.00    -0.237 OA
ATOM     94  O   UNL A   1      47.474  25.828  37.593  1.00  0.00    -0.237 OA
ATOM     95  O   UNL A   1      45.124  26.256  38.198  1.00  0.00    -0.744 OA
ENDBRANCH  88  92
ENDBRANCH  62  85
ENDBRANCH  36  37
ENDBRANCH  28  31
ENDBRANCH  26  27
ENDBRANCH   1  26
TORSDOF 16
ENDMDL
