MODEL 1
REMARK VINA RESULT:     -13.3      0.000      0.000
REMARK SMILES O=C(/C=C/N[C@@H](Cc1c[nH]c2ccccc12)C(=O)NCCCNC(=O)c1ccc(-c2c3nc(c(-c4cc(S(=O)(=O)[O-])ccc4F)c4ccc([nH]4)c(-c4cc(S(=O)(=O)[O-])ccc4F)c4nc(c(-c5cc(S(=O)(=O)[O-])ccc5F)c5ccc2[nH]5)C=C4)C=C3)cc1)c1ccccc1
REMARK SMILES IDX 20 1 19 2 17 3 18 4 6 6 5 7 4 9 3 10 2 11 1 12 89 13 90 14
REMARK SMILES IDX 94 15 91 16 93 17 92 18 7 19 8 20 9 21 16 22 10 23 11 24
REMARK SMILES IDX 15 25 12 27 14 28 13 29 21 30 22 31 23 32 24 33 25 35 26 36
REMARK SMILES IDX 27 37 88 38 28 39 87 40 29 41 30 42 31 43 81 44 32 45 86 46
REMARK SMILES IDX 80 47 82 48 33 49 85 50 79 51 78 52 34 54 66 55 46 56 65 57
REMARK SMILES IDX 47 58 50 59 64 60 83 61 48 62 49 63 63 65 84 66 51 67 35 68
REMARK SMILES IDX 36 69 44 70 37 71 43 72 45 73 42 74 38 75 39 76 40 77 41 78
REMARK SMILES IDX 67 79 68 80 76 81 69 82 75 83 77 84 74 85 70 86 71 87 72 88
REMARK SMILES IDX 73 89 52 90 53 91 61 92 54 93 60 94 62 95 59 96 55 97 56 98
REMARK SMILES IDX 57 99 58 100
REMARK H PARENT 19 5 5 8 10 26 23 34 82 53 50 64
REMARK Flexibility Score: inf
ROOT
ATOM      1  C   UNL A   1      35.197  22.993  24.094  1.00  0.00     0.117 C 
ENDROOT
BRANCH   1   2
ATOM      2  N   UNL A   1      34.773  23.290  22.759  1.00  0.00    -0.354 N 
ATOM      3  C   UNL A   1      33.474  23.313  22.319  1.00  0.00     0.242 C 
ATOM      4  O   UNL A   1      33.262  23.893  21.245  1.00  0.00    -0.273 OA
ATOM      5  H   UNL A   1      35.475  23.496  22.099  1.00  0.00     0.163 HD
BRANCH   3   6
ATOM      6  C   UNL A   1      32.300  22.613  23.084  1.00  0.00     0.173 C 
BRANCH   6   7
ATOM      7  N   UNL A   1      31.020  23.312  22.896  1.00  0.00    -0.379 N 
ATOM      8  H   UNL A   1      30.506  23.080  22.089  1.00  0.00     0.160 HD
BRANCH   7   9
ATOM      9  C   UNL A   1      30.466  24.252  23.725  1.00  0.00     0.082 C 
ATOM     10  C   UNL A   1      30.999  24.677  24.877  1.00  0.00     0.070 C 
BRANCH  10  11
ATOM     11  C   UNL A   1      30.420  25.715  25.768  1.00  0.00     0.187 C 
ATOM     12  O   UNL A   1      29.508  25.419  26.534  1.00  0.00    -0.289 OA
BRANCH  11  13
ATOM     13  C   UNL A   1      30.960  27.091  25.770  1.00  0.00     0.022 A 
ATOM     14  C   UNL A   1      30.961  27.885  24.618  1.00  0.00     0.012 A 
ATOM     15  C   UNL A   1      31.459  27.599  26.974  1.00  0.00     0.012 A 
ATOM     16  C   UNL A   1      31.513  29.167  24.662  1.00  0.00     0.001 A 
ATOM     17  C   UNL A   1      32.006  28.880  27.014  1.00  0.00     0.001 A 
ATOM     18  C   UNL A   1      32.041  29.659  25.856  1.00  0.00     0.000 A 
ENDBRANCH  11  13
ENDBRANCH  10  11
ENDBRANCH   7   9
ENDBRANCH   6   7
BRANCH   6  19
ATOM     19  C   UNL A   1      32.194  21.070  23.029  1.00  0.00     0.072 C 
BRANCH  19  20
ATOM     20  C   UNL A   1      32.549  20.166  24.194  1.00  0.00    -0.020 A 
ATOM     21  C   UNL A   1      32.775  20.451  25.531  1.00  0.00     0.087 A 
ATOM     22  C   UNL A   1      32.910  18.773  24.073  1.00  0.00     0.003 A 
ATOM     23  N   UNL A   1      32.761  19.271  26.229  1.00  0.00    -0.361 N 
ATOM     24  C   UNL A   1      32.963  18.234  25.358  1.00  0.00     0.046 A 
ATOM     25  C   UNL A   1      33.214  17.922  22.990  1.00  0.00     0.010 A 
ATOM     26  H   UNL A   1      32.628  19.184  27.201  1.00  0.00     0.166 HD
ATOM     27  C   UNL A   1      33.217  16.884  25.621  1.00  0.00     0.026 A 
ATOM     28  C   UNL A   1      33.575  16.591  23.240  1.00  0.00     0.001 A 
ATOM     29  C   UNL A   1      33.551  16.076  24.535  1.00  0.00     0.002 A 
ENDBRANCH  19  20
ENDBRANCH   6  19
ENDBRANCH   3   6
ENDBRANCH   1   2
BRANCH   1  30
ATOM     30  C   UNL A   1      36.042  21.753  24.291  1.00  0.00     0.042 C 
BRANCH  30  31
ATOM     31  C   UNL A   1      36.660  21.649  25.671  1.00  0.00     0.118 C 
BRANCH  31  32
ATOM     32  N   UNL A   1      37.760  20.684  25.742  1.00  0.00    -0.352 N 
ATOM     33  C   UNL A   1      39.091  20.818  26.061  1.00  0.00     0.251 C 
ATOM     34  H   UNL A   1      37.495  19.763  25.517  1.00  0.00     0.163 HD
ATOM     35  O   UNL A   1      39.839  19.857  25.878  1.00  0.00    -0.269 OA
BRANCH  33  36
ATOM     36  C   UNL A   1      39.640  22.096  26.566  1.00  0.00     0.039 A 
ATOM     37  C   UNL A   1      40.706  22.079  27.471  1.00  0.00     0.014 A 
ATOM     38  C   UNL A   1      39.120  23.317  26.150  1.00  0.00     0.014 A 
ATOM     39  C   UNL A   1      41.308  23.280  27.863  1.00  0.00     0.010 A 
ATOM     40  C   UNL A   1      39.812  24.491  26.411  1.00  0.00     0.010 A 
ATOM     41  C   UNL A   1      40.907  24.493  27.285  1.00  0.00    -0.014 A 
BRANCH  41  42
ATOM     42  C   UNL A   1      41.578  25.786  27.591  1.00  0.00     0.031 A 
ATOM     43  C   UNL A   1      40.858  26.824  28.416  1.00  0.00     0.074 A 
ATOM     44  C   UNL A   1      42.778  26.071  27.049  1.00  0.00     0.049 A 
ATOM     45  N   UNL A   1      41.185  28.067  28.661  1.00  0.00    -0.248 NA
ATOM     46  C   UNL A   1      39.562  26.424  28.986  1.00  0.00     0.031 C 
ATOM     47  C   UNL A   1      43.556  25.177  26.188  1.00  0.00     0.029 A 
ATOM     48  N   UNL A   1      43.555  27.198  27.138  1.00  0.00    -0.354 N 
ATOM     49  C   UNL A   1      40.118  28.602  29.379  1.00  0.00     0.074 A 
ATOM     50  C   UNL A   1      39.098  27.578  29.434  1.00  0.00     0.031 C 
ATOM     51  C   UNL A   1      44.718  25.768  25.874  1.00  0.00     0.029 A 
ATOM     52  C   UNL A   1      44.747  27.104  26.459  1.00  0.00     0.049 A 
ATOM     53  H   UNL A   1      43.284  27.999  27.642  1.00  0.00     0.167 HD
ATOM     54  C   UNL A   1      40.014  29.817  29.975  1.00  0.00     0.034 A 
ATOM     55  C   UNL A   1      45.749  27.994  26.323  1.00  0.00     0.034 A 
ATOM     56  C   UNL A   1      41.058  30.811  29.940  1.00  0.00     0.049 A 
ATOM     57  C   UNL A   1      45.615  29.342  26.984  1.00  0.00     0.074 A 
ATOM     58  C   UNL A   1      41.094  32.051  30.549  1.00  0.00     0.029 A 
ATOM     59  N   UNL A   1      42.259  30.672  29.252  1.00  0.00    -0.354 N 
ATOM     60  N   UNL A   1      44.619  29.821  27.693  1.00  0.00    -0.248 NA
ATOM     61  C   UNL A   1      46.747  30.264  26.831  1.00  0.00     0.031 C 
ATOM     62  C   UNL A   1      42.287  32.685  30.183  1.00  0.00     0.029 A 
ATOM     63  C   UNL A   1      43.033  31.812  29.406  1.00  0.00     0.049 A 
ATOM     64  H   UNL A   1      42.522  29.879  28.732  1.00  0.00     0.167 HD
ATOM     65  C   UNL A   1      45.021  31.090  28.101  1.00  0.00     0.074 A 
ATOM     66  C   UNL A   1      46.353  31.294  27.565  1.00  0.00     0.031 C 
ATOM     67  C   UNL A   1      44.355  32.001  28.857  1.00  0.00     0.034 A 
BRANCH  54  68
ATOM     68  C   UNL A   1      38.718  30.118  30.698  1.00  0.00     0.023 A 
ATOM     69  C   UNL A   1      37.637  30.736  30.041  1.00  0.00     0.031 A 
ATOM     70  C   UNL A   1      38.586  29.867  32.074  1.00  0.00     0.131 A 
ATOM     71  C   UNL A   1      36.538  31.198  30.779  1.00  0.00     0.055 A 
ATOM     72  C   UNL A   1      37.437  30.230  32.784  1.00  0.00     0.041 A 
ATOM     73  F   UNL A   1      39.584  29.296  32.766  1.00  0.00    -0.206 F 
ATOM     74  C   UNL A   1      36.416  30.925  32.142  1.00  0.00     0.022 A 
BRANCH  71  75
ATOM     75  S   UNL A   1      35.385  32.346  29.973  1.00  0.00     0.124 S 
ATOM     76  O   UNL A   1      34.408  32.573  31.035  1.00  0.00    -0.237 OA
ATOM     77  O   UNL A   1      36.244  33.476  29.642  1.00  0.00    -0.237 OA
ATOM     78  O   UNL A   1      34.885  31.583  28.830  1.00  0.00    -0.744 OA
ENDBRANCH  71  75
ENDBRANCH  54  68
BRANCH  55  79
ATOM     79  C   UNL A   1      46.976  27.637  25.558  1.00  0.00     0.023 A 
ATOM     80  C   UNL A   1      47.074  27.932  24.189  1.00  0.00     0.031 A 
ATOM     81  C   UNL A   1      48.059  26.985  26.172  1.00  0.00     0.131 A 
ATOM     82  C   UNL A   1      48.212  27.542  23.468  1.00  0.00     0.055 A 
ATOM     83  C   UNL A   1      49.210  26.640  25.461  1.00  0.00     0.041 A 
ATOM     84  F   UNL A   1      48.021  26.691  27.481  1.00  0.00    -0.206 F 
ATOM     85  C   UNL A   1      49.287  26.910  24.097  1.00  0.00     0.022 A 
BRANCH  82  86
ATOM     86  S   UNL A   1      48.242  27.823  21.676  1.00  0.00     0.124 S 
ATOM     87  O   UNL A   1      46.904  28.353  21.437  1.00  0.00    -0.237 OA
ATOM     88  O   UNL A   1      49.343  28.770  21.536  1.00  0.00    -0.237 OA
ATOM     89  O   UNL A   1      48.494  26.491  21.128  1.00  0.00    -0.744 OA
ENDBRANCH  82  86
ENDBRANCH  55  79
BRANCH  67  90
ATOM     90  C   UNL A   1      45.086  33.279  29.189  1.00  0.00     0.023 A 
ATOM     91  C   UNL A   1      45.043  34.401  28.343  1.00  0.00     0.031 A 
ATOM     92  C   UNL A   1      45.850  33.367  30.367  1.00  0.00     0.131 A 
ATOM     93  C   UNL A   1      45.795  35.542  28.658  1.00  0.00     0.055 A 
ATOM     94  C   UNL A   1      46.545  34.527  30.707  1.00  0.00     0.041 A 
ATOM     95  F   UNL A   1      45.928  32.324  31.209  1.00  0.00    -0.206 F 
ATOM     96  C   UNL A   1      46.532  35.618  29.844  1.00  0.00     0.022 A 
BRANCH  93  97
ATOM     97  S   UNL A   1      45.876  36.893  27.451  1.00  0.00     0.124 S 
ATOM     98  O   UNL A   1      44.468  37.092  27.125  1.00  0.00    -0.237 OA
ATOM     99  O   UNL A   1      46.510  37.960  28.218  1.00  0.00    -0.237 OA
ATOM    100  O   UNL A   1      46.689  36.339  26.371  1.00  0.00    -0.744 OA
ENDBRANCH  93  97
ENDBRANCH  67  90
ENDBRANCH  41  42
ENDBRANCH  33  36
ENDBRANCH  31  32
ENDBRANCH  30  31
ENDBRANCH   1  30
TORSDOF 19
ENDMDL
MODEL 2
REMARK VINA RESULT:     -12.9      5.014      8.297
REMARK SMILES O=C(/C=C/N[C@@H](Cc1c[nH]c2ccccc12)C(=O)NCCCNC(=O)c1ccc(-c2c3nc(c(-c4cc(S(=O)(=O)[O-])ccc4F)c4ccc([nH]4)c(-c4cc(S(=O)(=O)[O-])ccc4F)c4nc(c(-c5cc(S(=O)(=O)[O-])ccc5F)c5ccc2[nH]5)C=C4)C=C3)cc1)c1ccccc1
REMARK SMILES IDX 20 1 19 2 17 3 18 4 6 6 5 7 4 9 3 10 2 11 1 12 89 13 90 14
REMARK SMILES IDX 94 15 91 16 93 17 92 18 7 19 8 20 9 21 16 22 10 23 11 24
REMARK SMILES IDX 15 25 12 27 14 28 13 29 21 30 22 31 23 32 24 33 25 35 26 36
REMARK SMILES IDX 27 37 88 38 28 39 87 40 29 41 30 42 31 43 81 44 32 45 86 46
REMARK SMILES IDX 80 47 82 48 33 49 85 50 79 51 78 52 34 54 66 55 46 56 65 57
REMARK SMILES IDX 47 58 50 59 64 60 83 61 48 62 49 63 63 65 84 66 51 67 35 68
REMARK SMILES IDX 36 69 44 70 37 71 43 72 45 73 42 74 38 75 39 76 40 77 41 78
REMARK SMILES IDX 67 79 68 80 76 81 69 82 75 83 77 84 74 85 70 86 71 87 72 88
REMARK SMILES IDX 73 89 52 90 53 91 61 92 54 93 60 94 62 95 59 96 55 97 56 98
REMARK SMILES IDX 57 99 58 100
REMARK H PARENT 19 5 5 8 10 26 23 34 82 53 50 64
REMARK Flexibility Score: inf
ROOT
ATOM      1  C   UNL A   1      31.783  27.948  26.416  1.00  0.00     0.117 C 
ENDROOT
BRANCH   1   2
ATOM      2  N   UNL A   1      30.861  26.931  26.824  1.00  0.00    -0.354 N 
ATOM      3  C   UNL A   1      30.291  25.991  26.002  1.00  0.00     0.242 C 
ATOM      4  O   UNL A   1      29.783  25.006  26.555  1.00  0.00    -0.273 OA
ATOM      5  H   UNL A   1      30.614  26.904  27.777  1.00  0.00     0.163 HD
BRANCH   3   6
ATOM      6  C   UNL A   1      30.226  26.144  24.444  1.00  0.00     0.173 C 
BRANCH   6   7
ATOM      7  N   UNL A   1      30.219  24.844  23.758  1.00  0.00    -0.379 N 
ATOM      8  H   UNL A   1      29.344  24.404  23.659  1.00  0.00     0.160 HD
BRANCH   7   9
ATOM      9  C   UNL A   1      31.300  24.179  23.242  1.00  0.00     0.082 C 
ATOM     10  C   UNL A   1      32.581  24.511  23.448  1.00  0.00     0.070 C 
BRANCH  10  11
ATOM     11  C   UNL A   1      33.760  23.781  22.916  1.00  0.00     0.187 C 
ATOM     12  O   UNL A   1      33.749  23.367  21.760  1.00  0.00    -0.289 OA
BRANCH  11  13
ATOM     13  C   UNL A   1      34.963  23.583  23.752  1.00  0.00     0.022 A 
ATOM     14  C   UNL A   1      36.043  22.806  23.320  1.00  0.00     0.012 A 
ATOM     15  C   UNL A   1      35.009  24.219  24.997  1.00  0.00     0.012 A 
ATOM     16  C   UNL A   1      37.143  22.621  24.160  1.00  0.00     0.001 A 
ATOM     17  C   UNL A   1      36.110  24.035  25.831  1.00  0.00     0.001 A 
ATOM     18  C   UNL A   1      37.171  23.229  25.416  1.00  0.00     0.000 A 
ENDBRANCH  11  13
ENDBRANCH  10  11
ENDBRANCH   7   9
ENDBRANCH   6   7
BRANCH   6  19
ATOM     19  C   UNL A   1      29.253  27.185  23.841  1.00  0.00     0.072 C 
BRANCH  19  20
ATOM     20  C   UNL A   1      29.711  28.420  23.089  1.00  0.00    -0.020 A 
ATOM     21  C   UNL A   1      30.923  28.726  22.493  1.00  0.00     0.087 A 
ATOM     22  C   UNL A   1      28.965  29.654  23.003  1.00  0.00     0.003 A 
ATOM     23  N   UNL A   1      30.742  29.820  21.688  1.00  0.00    -0.361 N 
ATOM     24  C   UNL A   1      29.600  30.472  22.069  1.00  0.00     0.046 A 
ATOM     25  C   UNL A   1      27.816  30.161  23.647  1.00  0.00     0.010 A 
ATOM     26  H   UNL A   1      31.339  30.094  20.954  1.00  0.00     0.166 HD
ATOM     27  C   UNL A   1      29.113  31.722  21.678  1.00  0.00     0.026 A 
ATOM     28  C   UNL A   1      27.374  31.456  23.347  1.00  0.00     0.001 A 
ATOM     29  C   UNL A   1      28.000  32.214  22.359  1.00  0.00     0.002 A 
ENDBRANCH  19  20
ENDBRANCH   6  19
ENDBRANCH   3   6
ENDBRANCH   1   2
BRANCH   1  30
ATOM     30  C   UNL A   1      33.247  27.574  26.365  1.00  0.00     0.042 C 
BRANCH  30  31
ATOM     31  C   UNL A   1      34.143  28.679  25.840  1.00  0.00     0.118 C 
BRANCH  31  32
ATOM     32  N   UNL A   1      33.795  30.003  26.360  1.00  0.00    -0.352 N 
ATOM     33  C   UNL A   1      34.336  30.778  27.359  1.00  0.00     0.251 C 
ATOM     34  H   UNL A   1      33.025  30.417  25.909  1.00  0.00     0.163 HD
ATOM     35  O   UNL A   1      33.735  31.796  27.705  1.00  0.00    -0.269 OA
BRANCH  33  36
ATOM     36  C   UNL A   1      35.584  30.387  28.051  1.00  0.00     0.039 A 
ATOM     37  C   UNL A   1      35.517  29.576  29.189  1.00  0.00     0.014 A 
ATOM     38  C   UNL A   1      36.827  30.804  27.586  1.00  0.00     0.014 A 
ATOM     39  C   UNL A   1      36.694  29.105  29.780  1.00  0.00     0.010 A 
ATOM     40  C   UNL A   1      37.984  30.212  28.070  1.00  0.00     0.010 A 
ATOM     41  C   UNL A   1      37.938  29.366  29.186  1.00  0.00    -0.014 A 
BRANCH  41  42
ATOM     42  C   UNL A   1      39.211  28.808  29.716  1.00  0.00     0.031 A 
ATOM     43  C   UNL A   1      39.846  29.423  30.939  1.00  0.00     0.074 A 
ATOM     44  C   UNL A   1      39.849  27.826  29.049  1.00  0.00     0.049 A 
ATOM     45  N   UNL A   1      41.022  29.204  31.468  1.00  0.00    -0.248 NA
ATOM     46  C   UNL A   1      39.072  30.474  31.618  1.00  0.00     0.031 C 
ATOM     47  C   UNL A   1      39.373  27.182  27.823  1.00  0.00     0.029 A 
ATOM     48  N   UNL A   1      41.042  27.200  29.306  1.00  0.00    -0.354 N 
ATOM     49  C   UNL A   1      41.141  30.115  32.513  1.00  0.00     0.074 A 
ATOM     50  C   UNL A   1      39.962  30.953  32.470  1.00  0.00     0.031 C 
ATOM     51  C   UNL A   1      40.235  26.218  27.466  1.00  0.00     0.029 A 
ATOM     52  C   UNL A   1      41.355  26.212  28.401  1.00  0.00     0.049 A 
ATOM     53  H   UNL A   1      41.620  27.434  30.067  1.00  0.00     0.167 HD
ATOM     54  C   UNL A   1      42.118  30.219  33.449  1.00  0.00     0.034 A 
ATOM     55  C   UNL A   1      42.425  25.396  28.332  1.00  0.00     0.034 A 
ATOM     56  C   UNL A   1      43.268  29.350  33.496  1.00  0.00     0.049 A 
ATOM     57  C   UNL A   1      43.506  25.528  29.373  1.00  0.00     0.074 A 
ATOM     58  C   UNL A   1      44.293  29.318  34.423  1.00  0.00     0.029 A 
ATOM     59  N   UNL A   1      43.542  28.351  32.568  1.00  0.00    -0.354 N 
ATOM     60  N   UNL A   1      43.588  26.367  30.379  1.00  0.00    -0.248 NA
ATOM     61  C   UNL A   1      44.635  24.596  29.271  1.00  0.00     0.031 C 
ATOM     62  C   UNL A   1      45.215  28.344  34.024  1.00  0.00     0.029 A 
ATOM     63  C   UNL A   1      44.730  27.713  32.889  1.00  0.00     0.049 A 
ATOM     64  H   UNL A   1      42.975  28.129  31.795  1.00  0.00     0.167 HD
ATOM     65  C   UNL A   1      44.761  26.039  31.053  1.00  0.00     0.074 A 
ATOM     66  C   UNL A   1      45.346  24.919  30.341  1.00  0.00     0.031 C 
ATOM     67  C   UNL A   1      45.303  26.604  32.163  1.00  0.00     0.034 A 
BRANCH  54  68
ATOM     68  C   UNL A   1      41.970  31.321  34.477  1.00  0.00     0.023 A 
ATOM     69  C   UNL A   1      40.988  31.261  35.484  1.00  0.00     0.031 A 
ATOM     70  C   UNL A   1      42.756  32.484  34.404  1.00  0.00     0.131 A 
ATOM     71  C   UNL A   1      40.730  32.383  36.282  1.00  0.00     0.055 A 
ATOM     72  C   UNL A   1      42.568  33.558  35.279  1.00  0.00     0.041 A 
ATOM     73  F   UNL A   1      43.699  32.616  33.458  1.00  0.00    -0.206 F 
ATOM     74  C   UNL A   1      41.531  33.523  36.207  1.00  0.00     0.022 A 
BRANCH  71  75
ATOM     75  S   UNL A   1      39.200  32.408  37.259  1.00  0.00     0.124 S 
ATOM     76  O   UNL A   1      38.510  33.565  36.694  1.00  0.00    -0.237 OA
ATOM     77  O   UNL A   1      38.615  31.106  36.963  1.00  0.00    -0.237 OA
ATOM     78  O   UNL A   1      39.672  32.584  38.632  1.00  0.00    -0.744 OA
ENDBRANCH  71  75
ENDBRANCH  54  68
BRANCH  55  79
ATOM     79  C   UNL A   1      42.517  24.363  27.261  1.00  0.00     0.023 A 
ATOM     80  C   UNL A   1      41.876  23.123  27.411  1.00  0.00     0.031 A 
ATOM     81  C   UNL A   1      43.253  24.588  26.086  1.00  0.00     0.131 A 
ATOM     82  C   UNL A   1      42.014  22.139  26.421  1.00  0.00     0.055 A 
ATOM     83  C   UNL A   1      43.349  23.623  25.082  1.00  0.00     0.041 A 
ATOM     84  F   UNL A   1      43.875  25.761  25.889  1.00  0.00    -0.206 F 
ATOM     85  C   UNL A   1      42.736  22.385  25.251  1.00  0.00     0.022 A 
BRANCH  82  86
ATOM     86  S   UNL A   1      41.281  20.506  26.714  1.00  0.00     0.124 S 
ATOM     87  O   UNL A   1      41.611  19.807  25.477  1.00  0.00    -0.237 OA
ATOM     88  O   UNL A   1      41.992  20.065  27.910  1.00  0.00    -0.237 OA
ATOM     89  O   UNL A   1      39.863  20.800  26.908  1.00  0.00    -0.744 OA
ENDBRANCH  82  86
ENDBRANCH  55  79
BRANCH  67  90
ATOM     90  C   UNL A   1      46.567  25.979  32.700  1.00  0.00     0.023 A 
ATOM     91  C   UNL A   1      47.836  26.329  32.207  1.00  0.00     0.031 A 
ATOM     92  C   UNL A   1      46.495  25.007  33.715  1.00  0.00     0.131 A 
ATOM     93  C   UNL A   1      48.977  25.670  32.688  1.00  0.00     0.055 A 
ATOM     94  C   UNL A   1      47.639  24.401  34.234  1.00  0.00     0.041 A 
ATOM     95  F   UNL A   1      45.308  24.634  34.220  1.00  0.00    -0.206 F 
ATOM     96  C   UNL A   1      48.888  24.721  33.711  1.00  0.00     0.022 A 
BRANCH  93  97
ATOM     97  S   UNL A   1      50.573  26.000  31.892  1.00  0.00     0.124 S 
ATOM     98  O   UNL A   1      50.764  24.799  31.087  1.00  0.00    -0.237 OA
ATOM     99  O   UNL A   1      50.304  27.228  31.151  1.00  0.00    -0.237 OA
ATOM    100  O   UNL A   1      51.494  26.145  33.018  1.00  0.00    -0.744 OA
ENDBRANCH  93  97
ENDBRANCH  67  90
ENDBRANCH  41  42
ENDBRANCH  33  36
ENDBRANCH  31  32
ENDBRANCH  30  31
ENDBRANCH   1  30
TORSDOF 19
ENDMDL
MODEL 3
REMARK VINA RESULT:     -12.5      4.972      7.436
REMARK SMILES O=C(/C=C/N[C@@H](Cc1c[nH]c2ccccc12)C(=O)NCCCNC(=O)c1ccc(-c2c3nc(c(-c4cc(S(=O)(=O)[O-])ccc4F)c4ccc([nH]4)c(-c4cc(S(=O)(=O)[O-])ccc4F)c4nc(c(-c5cc(S(=O)(=O)[O-])ccc5F)c5ccc2[nH]5)C=C4)C=C3)cc1)c1ccccc1
REMARK SMILES IDX 20 1 19 2 17 3 18 4 6 6 5 7 4 9 3 10 2 11 1 12 89 13 90 14
REMARK SMILES IDX 94 15 91 16 93 17 92 18 7 19 8 20 9 21 16 22 10 23 11 24
REMARK SMILES IDX 15 25 12 27 14 28 13 29 21 30 22 31 23 32 24 33 25 35 26 36
REMARK SMILES IDX 27 37 88 38 28 39 87 40 29 41 30 42 31 43 81 44 32 45 86 46
REMARK SMILES IDX 80 47 82 48 33 49 85 50 79 51 78 52 34 54 66 55 46 56 65 57
REMARK SMILES IDX 47 58 50 59 64 60 83 61 48 62 49 63 63 65 84 66 51 67 35 68
REMARK SMILES IDX 36 69 44 70 37 71 43 72 45 73 42 74 38 75 39 76 40 77 41 78
REMARK SMILES IDX 67 79 68 80 76 81 69 82 75 83 77 84 74 85 70 86 71 87 72 88
REMARK SMILES IDX 73 89 52 90 53 91 61 92 54 93 60 94 62 95 59 96 55 97 56 98
REMARK SMILES IDX 57 99 58 100
REMARK H PARENT 19 5 5 8 10 26 23 34 82 53 50 64
REMARK Flexibility Score: inf
ROOT
ATOM      1  C   UNL A   1      33.190  26.007  25.476  1.00  0.00     0.117 C 
ENDROOT
BRANCH   1   2
ATOM      2  N   UNL A   1      32.407  25.420  26.523  1.00  0.00    -0.354 N 
ATOM      3  C   UNL A   1      31.801  24.191  26.475  1.00  0.00     0.242 C 
ATOM      4  O   UNL A   1      31.445  23.705  27.556  1.00  0.00    -0.273 OA
ATOM      5  H   UNL A   1      32.295  25.945  27.348  1.00  0.00     0.163 HD
BRANCH   3   6
ATOM      6  C   UNL A   1      31.514  23.431  25.135  1.00  0.00     0.173 C 
BRANCH   6   7
ATOM      7  N   UNL A   1      30.374  24.004  24.404  1.00  0.00    -0.379 N 
ATOM      8  H   UNL A   1      29.494  23.596  24.573  1.00  0.00     0.160 HD
BRANCH   7   9
ATOM      9  C   UNL A   1      30.406  25.044  23.513  1.00  0.00     0.082 C 
ATOM     10  C   UNL A   1      30.110  26.317  23.801  1.00  0.00     0.070 C 
BRANCH  10  11
ATOM     11  C   UNL A   1      30.168  27.456  22.849  1.00  0.00     0.187 C 
ATOM     12  O   UNL A   1      30.880  27.380  21.853  1.00  0.00    -0.289 OA
BRANCH  11  13
ATOM     13  C   UNL A   1      29.346  28.664  23.070  1.00  0.00     0.022 A 
ATOM     14  C   UNL A   1      29.917  29.894  23.415  1.00  0.00     0.012 A 
ATOM     15  C   UNL A   1      27.961  28.555  22.902  1.00  0.00     0.012 A 
ATOM     16  C   UNL A   1      29.095  30.999  23.646  1.00  0.00     0.001 A 
ATOM     17  C   UNL A   1      27.145  29.661  23.130  1.00  0.00     0.001 A 
ATOM     18  C   UNL A   1      27.711  30.879  23.511  1.00  0.00     0.000 A 
ENDBRANCH  11  13
ENDBRANCH  10  11
ENDBRANCH   7   9
ENDBRANCH   6   7
BRANCH   6  19
ATOM     19  C   UNL A   1      32.709  23.035  24.235  1.00  0.00     0.072 C 
BRANCH  19  20
ATOM     20  C   UNL A   1      33.789  22.058  24.661  1.00  0.00    -0.020 A 
ATOM     21  C   UNL A   1      33.711  20.734  25.060  1.00  0.00     0.087 A 
ATOM     22  C   UNL A   1      35.167  22.411  24.907  1.00  0.00     0.003 A 
ATOM     23  N   UNL A   1      34.976  20.206  25.045  1.00  0.00    -0.361 N 
ATOM     24  C   UNL A   1      35.887  21.228  25.073  1.00  0.00     0.046 A 
ATOM     25  C   UNL A   1      35.869  23.629  25.023  1.00  0.00     0.010 A 
ATOM     26  H   UNL A   1      35.194  19.246  25.021  1.00  0.00     0.166 HD
ATOM     27  C   UNL A   1      37.271  21.185  25.261  1.00  0.00     0.026 A 
ATOM     28  C   UNL A   1      37.239  23.609  25.318  1.00  0.00     0.001 A 
ATOM     29  C   UNL A   1      37.932  22.404  25.410  1.00  0.00     0.002 A 
ENDBRANCH  19  20
ENDBRANCH   6  19
ENDBRANCH   3   6
ENDBRANCH   1   2
BRANCH   1  30
ATOM     30  C   UNL A   1      33.891  27.311  25.785  1.00  0.00     0.042 C 
BRANCH  30  31
ATOM     31  C   UNL A   1      33.376  28.001  27.033  1.00  0.00     0.118 C 
BRANCH  31  32
ATOM     32  N   UNL A   1      33.355  29.461  26.920  1.00  0.00    -0.352 N 
ATOM     33  C   UNL A   1      34.210  30.438  27.376  1.00  0.00     0.251 C 
ATOM     34  H   UNL A   1      32.581  29.810  26.424  1.00  0.00     0.163 HD
ATOM     35  O   UNL A   1      33.861  31.615  27.282  1.00  0.00    -0.269 OA
BRANCH  33  36
ATOM     36  C   UNL A   1      35.500  30.099  28.016  1.00  0.00     0.039 A 
ATOM     37  C   UNL A   1      35.524  29.720  29.362  1.00  0.00     0.014 A 
ATOM     38  C   UNL A   1      36.693  30.143  27.300  1.00  0.00     0.014 A 
ATOM     39  C   UNL A   1      36.720  29.285  29.943  1.00  0.00     0.010 A 
ATOM     40  C   UNL A   1      37.838  29.564  27.826  1.00  0.00     0.010 A 
ATOM     41  C   UNL A   1      37.876  29.142  29.161  1.00  0.00    -0.014 A 
BRANCH  41  42
ATOM     42  C   UNL A   1      39.147  28.591  29.704  1.00  0.00     0.031 A 
ATOM     43  C   UNL A   1      39.760  29.204  30.939  1.00  0.00     0.074 A 
ATOM     44  C   UNL A   1      39.802  27.619  29.039  1.00  0.00     0.049 A 
ATOM     45  N   UNL A   1      40.931  28.991  31.482  1.00  0.00    -0.248 NA
ATOM     46  C   UNL A   1      38.968  30.243  31.615  1.00  0.00     0.031 C 
ATOM     47  C   UNL A   1      39.347  26.979  27.802  1.00  0.00     0.029 A 
ATOM     48  N   UNL A   1      40.997  27.001  29.307  1.00  0.00    -0.354 N 
ATOM     49  C   UNL A   1      41.028  29.896  32.535  1.00  0.00     0.074 A 
ATOM     50  C   UNL A   1      39.842  30.724  32.482  1.00  0.00     0.031 C 
ATOM     51  C   UNL A   1      40.223  26.026  27.451  1.00  0.00     0.029 A 
ATOM     52  C   UNL A   1      41.330  26.022  28.400  1.00  0.00     0.049 A 
ATOM     53  H   UNL A   1      41.563  27.235  30.078  1.00  0.00     0.167 HD
ATOM     54  C   UNL A   1      41.992  30.002  33.485  1.00  0.00     0.034 A 
ATOM     55  C   UNL A   1      42.408  25.216  28.340  1.00  0.00     0.034 A 
ATOM     56  C   UNL A   1      43.148  29.143  33.540  1.00  0.00     0.049 A 
ATOM     57  C   UNL A   1      43.473  25.350  29.396  1.00  0.00     0.074 A 
ATOM     58  C   UNL A   1      44.161  29.114  34.481  1.00  0.00     0.029 A 
ATOM     59  N   UNL A   1      43.443  28.153  32.610  1.00  0.00    -0.354 N 
ATOM     60  N   UNL A   1      43.535  26.184  30.409  1.00  0.00    -0.248 NA
ATOM     61  C   UNL A   1      44.612  24.429  29.303  1.00  0.00     0.031 C 
ATOM     62  C   UNL A   1      45.097  28.150  34.088  1.00  0.00     0.029 A 
ATOM     63  C   UNL A   1      44.632  27.522  32.943  1.00  0.00     0.049 A 
ATOM     64  H   UNL A   1      42.888  27.930  31.828  1.00  0.00     0.167 HD
ATOM     65  C   UNL A   1      44.703  25.861  31.096  1.00  0.00     0.074 A 
ATOM     66  C   UNL A   1      45.306  24.751  30.384  1.00  0.00     0.031 C 
ATOM     67  C   UNL A   1      45.225  26.423  32.216  1.00  0.00     0.034 A 
BRANCH  54  68
ATOM     68  C   UNL A   1      41.821  31.096  34.518  1.00  0.00     0.023 A 
ATOM     69  C   UNL A   1      40.780  31.057  35.464  1.00  0.00     0.031 A 
ATOM     70  C   UNL A   1      42.648  32.232  34.507  1.00  0.00     0.131 A 
ATOM     71  C   UNL A   1      40.513  32.178  36.262  1.00  0.00     0.055 A 
ATOM     72  C   UNL A   1      42.445  33.301  35.384  1.00  0.00     0.041 A 
ATOM     73  F   UNL A   1      43.649  32.343  33.620  1.00  0.00    -0.206 F 
ATOM     74  C   UNL A   1      41.355  33.291  36.250  1.00  0.00     0.022 A 
BRANCH  71  75
ATOM     75  S   UNL A   1      38.930  32.243  37.149  1.00  0.00     0.124 S 
ATOM     76  O   UNL A   1      38.188  33.218  36.353  1.00  0.00    -0.237 OA
ATOM     77  O   UNL A   1      38.465  30.864  37.066  1.00  0.00    -0.237 OA
ATOM     78  O   UNL A   1      39.305  32.699  38.486  1.00  0.00    -0.744 OA
ENDBRANCH  71  75
ENDBRANCH  54  68
BRANCH  55  79
ATOM     79  C   UNL A   1      42.523  24.191  27.264  1.00  0.00     0.023 A 
ATOM     80  C   UNL A   1      41.975  22.911  27.439  1.00  0.00     0.031 A 
ATOM     81  C   UNL A   1      43.190  24.465  26.058  1.00  0.00     0.131 A 
ATOM     82  C   UNL A   1      42.136  21.938  26.441  1.00  0.00     0.055 A 
ATOM     83  C   UNL A   1      43.307  23.508  25.048  1.00  0.00     0.041 A 
ATOM     84  F   UNL A   1      43.721  25.678  25.837  1.00  0.00    -0.206 F 
ATOM     85  C   UNL A   1      42.787  22.232  25.242  1.00  0.00     0.022 A 
BRANCH  82  86
ATOM     86  S   UNL A   1      41.529  20.258  26.762  1.00  0.00     0.124 S 
ATOM     87  O   UNL A   1      42.489  19.780  27.750  1.00  0.00    -0.237 OA
ATOM     88  O   UNL A   1      40.178  20.513  27.250  1.00  0.00    -0.237 OA
ATOM     89  O   UNL A   1      41.605  19.615  25.452  1.00  0.00    -0.744 OA
ENDBRANCH  82  86
ENDBRANCH  55  79
BRANCH  67  90
ATOM     90  C   UNL A   1      46.487  25.806  32.767  1.00  0.00     0.023 A 
ATOM     91  C   UNL A   1      46.454  24.751  33.696  1.00  0.00     0.031 A 
ATOM     92  C   UNL A   1      47.743  26.293  32.362  1.00  0.00     0.131 A 
ATOM     93  C   UNL A   1      47.652  24.257  34.233  1.00  0.00     0.055 A 
ATOM     94  C   UNL A   1      48.932  25.755  32.852  1.00  0.00     0.041 A 
ATOM     95  F   UNL A   1      47.831  27.301  31.479  1.00  0.00    -0.206 F 
ATOM     96  C   UNL A   1      48.892  24.741  33.804  1.00  0.00     0.022 A 
BRANCH  93  97
ATOM     97  S   UNL A   1      47.568  23.038  35.573  1.00  0.00     0.124 S 
ATOM     98  O   UNL A   1      48.315  23.703  36.635  1.00  0.00    -0.237 OA
ATOM     99  O   UNL A   1      46.130  22.911  35.789  1.00  0.00    -0.237 OA
ATOM    100  O   UNL A   1      48.215  21.858  35.004  1.00  0.00    -0.744 OA
ENDBRANCH  93  97
ENDBRANCH  67  90
ENDBRANCH  41  42
ENDBRANCH  33  36
ENDBRANCH  31  32
ENDBRANCH  30  31
ENDBRANCH   1  30
TORSDOF 19
ENDMDL
