MODEL 1
REMARK VINA RESULT:     -12.1      0.000      0.000
REMARK SMILES O=C(NCCCNC(=O)[C@@]1([NH2+]C2CC2)CCC[C@@H]([NH+]2CCS(=O)(=O)CC2)C1)c1ccc(-c2c3nc(c(-c4cc(S(=O)(=O)[O-])ccc4F)c4ccc([nH]4)c(-c4cc(S(=O)(=O)[O-])ccc4F)c4nc(c(-c5cc(S(=O)(=O)[O-])ccc5F)c5ccc2[nH]5)C=C4)C=C3)cc1
REMARK SMILES IDX 4 1 3 2 1 3 2 4 28 6 29 7 90 8 30 9 89 10 31 11 32 12 33 13
REMARK SMILES IDX 83 14 34 15 88 16 82 17 84 18 35 19 87 20 81 21 80 22 36 24
REMARK SMILES IDX 68 25 48 26 67 27 49 28 52 29 66 30 85 31 50 32 51 33 65 35
REMARK SMILES IDX 86 36 53 37 37 38 38 39 46 40 39 41 45 42 47 43 44 44 40 45
REMARK SMILES IDX 41 46 42 47 43 48 69 49 70 50 78 51 71 52 77 53 79 54 76 55
REMARK SMILES IDX 72 56 73 57 74 58 75 59 54 60 55 61 63 62 56 63 62 64 64 65
REMARK SMILES IDX 61 66 57 67 58 68 59 69 60 70 5 71 6 72 7 73 8 74 9 76 10 77
REMARK SMILES IDX 15 78 27 79 16 80 18 81 17 82 11 83 12 86 13 87 14 88 19 89
REMARK SMILES IDX 20 90 26 91 21 93 25 94 22 95 23 96 24 97
REMARK H PARENT 3 5 84 23 52 34 7 75 11 84 11 85 19 92
REMARK Flexibility Score: inf
ROOT
ATOM      1  C   UNL A   1      32.767  32.708  26.917  1.00  0.00     0.118 C 
ENDROOT
BRANCH   1   2
ATOM      2  N   UNL A   1      32.547  33.968  27.619  1.00  0.00    -0.352 N 
ATOM      3  O   UNL A   1      32.723  35.556  29.205  1.00  0.00    -0.269 OA
ATOM      4  C   UNL A   1      33.174  34.525  28.712  1.00  0.00     0.251 C 
ATOM      5  H   UNL A   1      31.822  34.519  27.245  1.00  0.00     0.163 HD
BRANCH   4   6
ATOM      6  C   UNL A   1      34.357  33.873  29.317  1.00  0.00     0.039 A 
ATOM      7  C   UNL A   1      34.209  32.779  30.163  1.00  0.00     0.014 A 
ATOM      8  C   UNL A   1      35.641  34.346  29.026  1.00  0.00     0.014 A 
ATOM      9  C   UNL A   1      35.289  32.318  30.897  1.00  0.00     0.010 A 
ATOM     10  C   UNL A   1      36.757  33.768  29.645  1.00  0.00     0.010 A 
ATOM     11  C   UNL A   1      36.586  32.771  30.616  1.00  0.00    -0.014 A 
BRANCH  11  12
ATOM     12  C   UNL A   1      37.726  32.089  31.285  1.00  0.00     0.031 A 
ATOM     13  C   UNL A   1      38.524  31.021  30.588  1.00  0.00     0.074 A 
ATOM     14  C   UNL A   1      38.069  32.503  32.523  1.00  0.00     0.049 A 
ATOM     15  N   UNL A   1      39.558  30.353  31.032  1.00  0.00    -0.248 NA
ATOM     16  C   UNL A   1      38.107  30.644  29.229  1.00  0.00     0.031 C 
ATOM     17  C   UNL A   1      37.354  33.529  33.293  1.00  0.00     0.029 A 
ATOM     18  N   UNL A   1      39.111  32.153  33.342  1.00  0.00    -0.354 N 
ATOM     19  C   UNL A   1      39.897  29.455  30.024  1.00  0.00     0.074 A 
ATOM     20  C   UNL A   1      38.950  29.658  28.948  1.00  0.00     0.031 C 
ATOM     21  C   UNL A   1      38.020  33.780  34.426  1.00  0.00     0.029 A 
ATOM     22  C   UNL A   1      39.141  32.858  34.525  1.00  0.00     0.049 A 
ATOM     23  H   UNL A   1      39.774  31.464  33.107  1.00  0.00     0.167 HD
ATOM     24  C   UNL A   1      40.904  28.547  30.011  1.00  0.00     0.034 A 
ATOM     25  C   UNL A   1      39.954  32.751  35.594  1.00  0.00     0.034 A 
ATOM     26  C   UNL A   1      41.851  28.384  31.088  1.00  0.00     0.049 A 
ATOM     27  C   UNL A   1      41.044  31.717  35.551  1.00  0.00     0.074 A 
ATOM     28  C   UNL A   1      42.945  27.536  31.150  1.00  0.00     0.029 A 
ATOM     29  N   UNL A   1      41.814  29.070  32.295  1.00  0.00    -0.354 N 
ATOM     30  N   UNL A   1      41.359  30.894  34.578  1.00  0.00    -0.248 NA
ATOM     31  C   UNL A   1      41.878  31.590  36.751  1.00  0.00     0.031 C 
ATOM     32  C   UNL A   1      43.525  27.660  32.418  1.00  0.00     0.029 A 
ATOM     33  C   UNL A   1      42.839  28.635  33.122  1.00  0.00     0.049 A 
ATOM     34  H   UNL A   1      41.157  29.765  32.529  1.00  0.00     0.167 HD
ATOM     35  C   UNL A   1      42.430  30.147  35.052  1.00  0.00     0.074 A 
ATOM     36  C   UNL A   1      42.733  30.649  36.379  1.00  0.00     0.031 C 
ATOM     37  C   UNL A   1      43.100  29.130  34.453  1.00  0.00     0.034 A 
BRANCH  24  38
ATOM     38  C   UNL A   1      41.008  27.620  28.824  1.00  0.00     0.023 A 
ATOM     39  C   UNL A   1      41.993  27.772  27.835  1.00  0.00     0.031 A 
ATOM     40  C   UNL A   1      40.115  26.538  28.707  1.00  0.00     0.131 A 
ATOM     41  C   UNL A   1      42.040  26.878  26.752  1.00  0.00     0.055 A 
ATOM     42  C   UNL A   1      40.204  25.618  27.661  1.00  0.00     0.041 A 
ATOM     43  F   UNL A   1      39.142  26.355  29.613  1.00  0.00    -0.206 F 
ATOM     44  C   UNL A   1      41.168  25.789  26.672  1.00  0.00     0.022 A 
BRANCH  41  45
ATOM     45  S   UNL A   1      43.206  27.201  25.400  1.00  0.00     0.124 S 
ATOM     46  O   UNL A   1      43.481  25.850  24.916  1.00  0.00    -0.237 OA
ATOM     47  O   UNL A   1      42.428  28.053  24.509  1.00  0.00    -0.237 OA
ATOM     48  O   UNL A   1      44.331  27.857  26.065  1.00  0.00    -0.744 OA
ENDBRANCH  41  45
ENDBRANCH  24  38
BRANCH  25  49
ATOM     49  C   UNL A   1      39.719  33.582  36.809  1.00  0.00     0.023 A 
ATOM     50  C   UNL A   1      39.069  33.058  37.937  1.00  0.00     0.031 A 
ATOM     51  C   UNL A   1      40.107  34.935  36.844  1.00  0.00     0.131 A 
ATOM     52  C   UNL A   1      38.788  33.892  39.031  1.00  0.00     0.055 A 
ATOM     53  C   UNL A   1      39.884  35.742  37.959  1.00  0.00     0.041 A 
ATOM     54  F   UNL A   1      40.728  35.491  35.791  1.00  0.00    -0.206 F 
ATOM     55  C   UNL A   1      39.206  35.226  39.056  1.00  0.00     0.022 A 
BRANCH  52  56
ATOM     56  S   UNL A   1      37.765  33.240  40.379  1.00  0.00     0.124 S 
ATOM     57  O   UNL A   1      36.546  32.863  39.672  1.00  0.00    -0.237 OA
ATOM     58  O   UNL A   1      38.586  32.141  40.875  1.00  0.00    -0.237 OA
ATOM     59  O   UNL A   1      37.633  34.378  41.286  1.00  0.00    -0.744 OA
ENDBRANCH  52  56
ENDBRANCH  25  49
BRANCH  37  60
ATOM     60  C   UNL A   1      44.225  28.516  35.243  1.00  0.00     0.023 A 
ATOM     61  C   UNL A   1      43.989  27.478  36.161  1.00  0.00     0.031 A 
ATOM     62  C   UNL A   1      45.537  29.002  35.111  1.00  0.00     0.131 A 
ATOM     63  C   UNL A   1      45.038  27.001  36.958  1.00  0.00     0.055 A 
ATOM     64  C   UNL A   1      46.589  28.481  35.863  1.00  0.00     0.041 A 
ATOM     65  F   UNL A   1      45.814  29.996  34.251  1.00  0.00    -0.206 F 
ATOM     66  C   UNL A   1      46.340  27.484  36.804  1.00  0.00     0.022 A 
BRANCH  63  67
ATOM     67  S   UNL A   1      44.658  25.806  38.269  1.00  0.00     0.124 S 
ATOM     68  O   UNL A   1      43.511  26.428  38.921  1.00  0.00    -0.237 OA
ATOM     69  O   UNL A   1      44.381  24.590  37.512  1.00  0.00    -0.237 OA
ATOM     70  O   UNL A   1      45.883  25.773  39.067  1.00  0.00    -0.744 OA
ENDBRANCH  63  67
ENDBRANCH  37  60
ENDBRANCH  11  12
ENDBRANCH   4   6
ENDBRANCH   1   2
BRANCH   1  71
ATOM     71  C   UNL A   1      31.491  31.932  26.621  1.00  0.00     0.042 C 
BRANCH  71  72
ATOM     72  C   UNL A   1      31.737  30.503  26.169  1.00  0.00     0.118 C 
BRANCH  72  73
ATOM     73  N   UNL A   1      31.406  29.508  27.174  1.00  0.00    -0.351 N 
ATOM     74  C   UNL A   1      31.757  28.191  27.224  1.00  0.00     0.281 C 
ATOM     75  H   UNL A   1      30.851  29.827  27.921  1.00  0.00     0.163 HD
ATOM     76  O   UNL A   1      31.643  27.645  28.328  1.00  0.00    -0.268 OA
BRANCH  74  77
ATOM     77  C   UNL A   1      32.106  27.363  25.952  1.00  0.00     0.181 C 
ATOM     78  C   UNL A   1      33.489  27.789  25.413  1.00  0.00     0.079 C 
ATOM     79  C   UNL A   1      32.236  25.899  26.480  1.00  0.00     0.144 C 
ATOM     80  C   UNL A   1      33.966  26.878  24.292  1.00  0.00     0.013 C 
ATOM     81  C   UNL A   1      32.966  24.880  25.574  1.00  0.00     0.190 C 
ATOM     82  C   UNL A   1      34.191  25.482  24.845  1.00  0.00     0.065 C 
BRANCH  77  83
ATOM     83  N   UNL A   1      31.076  27.433  24.894  1.00  0.00    -0.331 N 
ATOM     84  H   UNL A   1      31.577  27.364  24.008  1.00  0.00     0.347 HD
ATOM     85  H   UNL A   1      30.590  28.296  25.135  1.00  0.00     0.347 HD
BRANCH  83  86
ATOM     86  C   UNL A   1      29.964  26.481  24.805  1.00  0.00     0.183 C 
ATOM     87  C   UNL A   1      28.804  26.571  23.855  1.00  0.00     0.071 C 
ATOM     88  C   UNL A   1      29.844  25.502  23.675  1.00  0.00     0.071 C 
ENDBRANCH  83  86
ENDBRANCH  77  83
BRANCH  81  89
ATOM     89  N   UNL A   1      33.299  23.576  26.211  1.00  0.00    -0.331 N 
ATOM     90  C   UNL A   1      34.431  22.820  25.661  1.00  0.00     0.278 C 
ATOM     91  C   UNL A   1      32.222  22.688  26.659  1.00  0.00     0.278 C 
ATOM     92  H   UNL A   1      33.626  24.005  27.076  1.00  0.00     0.348 HD
ATOM     93  C   UNL A   1      34.140  21.894  24.485  1.00  0.00     0.198 C 
ATOM     94  C   UNL A   1      31.548  21.925  25.541  1.00  0.00     0.198 C 
ATOM     95  S   UNL A   1      32.730  20.851  24.772  1.00  0.00     0.161 S 
ATOM     96  O   UNL A   1      32.188  20.469  23.476  1.00  0.00    -0.228 OA
ATOM     97  O   UNL A   1      33.096  19.836  25.735  1.00  0.00    -0.228 OA
ENDBRANCH  81  89
ENDBRANCH  74  77
ENDBRANCH  72  73
ENDBRANCH  71  72
ENDBRANCH   1  71
TORSDOF 16
ENDMDL
MODEL 2
REMARK VINA RESULT:     -11.7      0.503      7.758
REMARK SMILES O=C(NCCCNC(=O)[C@@]1([NH2+]C2CC2)CCC[C@@H]([NH+]2CCS(=O)(=O)CC2)C1)c1ccc(-c2c3nc(c(-c4cc(S(=O)(=O)[O-])ccc4F)c4ccc([nH]4)c(-c4cc(S(=O)(=O)[O-])ccc4F)c4nc(c(-c5cc(S(=O)(=O)[O-])ccc5F)c5ccc2[nH]5)C=C4)C=C3)cc1
REMARK SMILES IDX 4 1 3 2 1 3 2 4 28 6 29 7 90 8 30 9 89 10 31 11 32 12 33 13
REMARK SMILES IDX 83 14 34 15 88 16 82 17 84 18 35 19 87 20 81 21 80 22 36 24
REMARK SMILES IDX 68 25 48 26 67 27 49 28 52 29 66 30 85 31 50 32 51 33 65 35
REMARK SMILES IDX 86 36 53 37 37 38 38 39 46 40 39 41 45 42 47 43 44 44 40 45
REMARK SMILES IDX 41 46 42 47 43 48 69 49 70 50 78 51 71 52 77 53 79 54 76 55
REMARK SMILES IDX 72 56 73 57 74 58 75 59 54 60 55 61 63 62 56 63 62 64 64 65
REMARK SMILES IDX 61 66 57 67 58 68 59 69 60 70 5 71 6 72 7 73 8 74 9 76 10 77
REMARK SMILES IDX 15 78 27 79 16 80 18 81 17 82 11 83 12 86 13 87 14 88 19 89
REMARK SMILES IDX 20 90 26 91 21 93 25 94 22 95 23 96 24 97
REMARK H PARENT 3 5 84 23 52 34 7 75 11 84 11 85 19 92
REMARK Flexibility Score: inf
ROOT
ATOM      1  C   UNL A   1      32.844  32.788  27.124  1.00  0.00     0.118 C 
ENDROOT
BRANCH   1   2
ATOM      2  N   UNL A   1      32.587  34.116  27.674  1.00  0.00    -0.352 N 
ATOM      3  O   UNL A   1      32.664  35.860  29.094  1.00  0.00    -0.269 OA
ATOM      4  C   UNL A   1      33.139  34.782  28.746  1.00  0.00     0.251 C 
ATOM      5  H   UNL A   1      31.896  34.627  27.192  1.00  0.00     0.163 HD
BRANCH   4   6
ATOM      6  C   UNL A   1      34.268  34.193  29.500  1.00  0.00     0.039 A 
ATOM      7  C   UNL A   1      35.583  34.462  29.134  1.00  0.00     0.014 A 
ATOM      8  C   UNL A   1      34.018  33.370  30.603  1.00  0.00     0.014 A 
ATOM      9  C   UNL A   1      36.621  33.737  29.695  1.00  0.00     0.010 A 
ATOM     10  C   UNL A   1      35.085  32.764  31.281  1.00  0.00     0.010 A 
ATOM     11  C   UNL A   1      36.396  32.914  30.808  1.00  0.00    -0.014 A 
BRANCH  11  12
ATOM     12  C   UNL A   1      37.576  32.330  31.497  1.00  0.00     0.031 A 
ATOM     13  C   UNL A   1      37.985  32.777  32.874  1.00  0.00     0.074 A 
ATOM     14  C   UNL A   1      38.241  31.334  30.874  1.00  0.00     0.049 A 
ATOM     15  N   UNL A   1      38.975  32.345  33.613  1.00  0.00    -0.248 NA
ATOM     16  C   UNL A   1      37.195  33.847  33.500  1.00  0.00     0.031 C 
ATOM     17  C   UNL A   1      37.931  30.830  29.530  1.00  0.00     0.029 A 
ATOM     18  N   UNL A   1      39.281  30.541  31.283  1.00  0.00    -0.354 N 
ATOM     19  C   UNL A   1      38.949  33.110  34.775  1.00  0.00     0.074 A 
ATOM     20  C   UNL A   1      37.849  34.040  34.638  1.00  0.00     0.031 C 
ATOM     21  C   UNL A   1      38.703  29.771  29.262  1.00  0.00     0.029 A 
ATOM     22  C   UNL A   1      39.642  29.586  30.358  1.00  0.00     0.049 A 
ATOM     23  H   UNL A   1      39.728  30.644  32.155  1.00  0.00     0.167 HD
ATOM     24  C   UNL A   1      39.775  33.037  35.848  1.00  0.00     0.034 A 
ATOM     25  C   UNL A   1      40.643  28.685  30.367  1.00  0.00     0.034 A 
ATOM     26  C   UNL A   1      40.850  32.080  35.970  1.00  0.00     0.049 A 
ATOM     27  C   UNL A   1      41.551  28.650  31.563  1.00  0.00     0.074 A 
ATOM     28  C   UNL A   1      41.706  31.881  37.040  1.00  0.00     0.029 A 
ATOM     29  N   UNL A   1      41.224  31.171  34.989  1.00  0.00    -0.354 N 
ATOM     30  N   UNL A   1      41.494  29.369  32.661  1.00  0.00    -0.248 NA
ATOM     31  C   UNL A   1      42.663  27.694  31.518  1.00  0.00     0.031 C 
ATOM     32  C   UNL A   1      42.640  30.903  36.678  1.00  0.00     0.029 A 
ATOM     33  C   UNL A   1      42.325  30.441  35.412  1.00  0.00     0.049 A 
ATOM     34  H   UNL A   1      40.775  31.061  34.120  1.00  0.00     0.167 HD
ATOM     35  C   UNL A   1      42.567  28.951  33.438  1.00  0.00     0.074 A 
ATOM     36  C   UNL A   1      43.225  27.889  32.701  1.00  0.00     0.031 C 
ATOM     37  C   UNL A   1      42.981  29.408  34.647  1.00  0.00     0.034 A 
BRANCH  24  38
ATOM     38  C   UNL A   1      39.592  34.048  36.955  1.00  0.00     0.023 A 
ATOM     39  C   UNL A   1      39.105  33.694  38.224  1.00  0.00     0.031 A 
ATOM     40  C   UNL A   1      39.950  35.391  36.735  1.00  0.00     0.131 A 
ATOM     41  C   UNL A   1      38.955  34.678  39.214  1.00  0.00     0.055 A 
ATOM     42  C   UNL A   1      39.855  36.354  37.743  1.00  0.00     0.041 A 
ATOM     43  F   UNL A   1      40.403  35.790  35.537  1.00  0.00    -0.206 F 
ATOM     44  C   UNL A   1      39.350  36.000  38.989  1.00  0.00     0.022 A 
BRANCH  41  45
ATOM     45  S   UNL A   1      38.159  34.228  40.782  1.00  0.00     0.124 S 
ATOM     46  O   UNL A   1      37.812  35.540  41.325  1.00  0.00    -0.237 OA
ATOM     47  O   UNL A   1      37.040  33.403  40.342  1.00  0.00    -0.237 OA
ATOM     48  O   UNL A   1      39.209  33.518  41.510  1.00  0.00    -0.744 OA
ENDBRANCH  41  45
ENDBRANCH  24  38
BRANCH  25  49
ATOM     49  C   UNL A   1      40.883  27.809  29.184  1.00  0.00     0.023 A 
ATOM     50  C   UNL A   1      41.882  28.108  28.245  1.00  0.00     0.031 A 
ATOM     51  C   UNL A   1      40.081  26.675  28.951  1.00  0.00     0.131 A 
ATOM     52  C   UNL A   1      42.023  27.311  27.098  1.00  0.00     0.055 A 
ATOM     53  C   UNL A   1      40.269  25.848  27.845  1.00  0.00     0.041 A 
ATOM     54  F   UNL A   1      39.107  26.344  29.815  1.00  0.00    -0.206 F 
ATOM     55  C   UNL A   1      41.236  26.173  26.901  1.00  0.00     0.022 A 
BRANCH  52  56
ATOM     56  S   UNL A   1      43.179  27.845  25.807  1.00  0.00     0.124 S 
ATOM     57  O   UNL A   1      42.277  28.125  24.696  1.00  0.00    -0.237 OA
ATOM     58  O   UNL A   1      43.810  29.004  26.429  1.00  0.00    -0.237 OA
ATOM     59  O   UNL A   1      44.048  26.684  25.627  1.00  0.00    -0.744 OA
ENDBRANCH  52  56
ENDBRANCH  25  49
BRANCH  37  60
ATOM     60  C   UNL A   1      44.199  28.741  35.230  1.00  0.00     0.023 A 
ATOM     61  C   UNL A   1      44.080  27.677  36.142  1.00  0.00     0.031 A 
ATOM     62  C   UNL A   1      45.486  29.200  34.908  1.00  0.00     0.131 A 
ATOM     63  C   UNL A   1      45.227  27.148  36.748  1.00  0.00     0.055 A 
ATOM     64  C   UNL A   1      46.629  28.628  35.467  1.00  0.00     0.041 A 
ATOM     65  F   UNL A   1      45.653  30.217  34.045  1.00  0.00    -0.206 F 
ATOM     66  C   UNL A   1      46.502  27.606  36.405  1.00  0.00     0.022 A 
BRANCH  63  67
ATOM     67  S   UNL A   1      45.024  25.917  38.065  1.00  0.00     0.124 S 
ATOM     68  O   UNL A   1      44.667  24.722  37.308  1.00  0.00    -0.237 OA
ATOM     69  O   UNL A   1      46.342  25.907  38.689  1.00  0.00    -0.237 OA
ATOM     70  O   UNL A   1      43.953  26.472  38.890  1.00  0.00    -0.744 OA
ENDBRANCH  63  67
ENDBRANCH  37  60
ENDBRANCH  11  12
ENDBRANCH   4   6
ENDBRANCH   1   2
BRANCH   1  71
ATOM     71  C   UNL A   1      31.589  32.039  26.700  1.00  0.00     0.042 C 
BRANCH  71  72
ATOM     72  C   UNL A   1      31.853  30.614  26.247  1.00  0.00     0.118 C 
BRANCH  72  73
ATOM     73  N   UNL A   1      31.448  29.609  27.215  1.00  0.00    -0.351 N 
ATOM     74  C   UNL A   1      31.733  28.276  27.236  1.00  0.00     0.281 C 
ATOM     75  H   UNL A   1      30.890  29.935  27.957  1.00  0.00     0.163 HD
ATOM     76  O   UNL A   1      31.564  27.706  28.321  1.00  0.00    -0.268 OA
BRANCH  74  77
ATOM     77  C   UNL A   1      32.074  27.467  25.949  1.00  0.00     0.181 C 
ATOM     78  C   UNL A   1      33.437  27.925  25.389  1.00  0.00     0.079 C 
ATOM     79  C   UNL A   1      32.244  26.000  26.462  1.00  0.00     0.144 C 
ATOM     80  C   UNL A   1      33.911  27.034  24.250  1.00  0.00     0.013 C 
ATOM     81  C   UNL A   1      32.977  25.005  25.532  1.00  0.00     0.190 C 
ATOM     82  C   UNL A   1      34.174  25.638  24.786  1.00  0.00     0.065 C 
BRANCH  77  83
ATOM     83  N   UNL A   1      31.022  27.525  24.912  1.00  0.00    -0.331 N 
ATOM     84  H   UNL A   1      31.511  27.561  24.018  1.00  0.00     0.347 HD
ATOM     85  H   UNL A   1      30.472  28.326  25.221  1.00  0.00     0.347 HD
BRANCH  83  86
ATOM     86  C   UNL A   1      29.991  26.493  24.769  1.00  0.00     0.183 C 
ATOM     87  C   UNL A   1      28.812  26.552  23.841  1.00  0.00     0.071 C 
ATOM     88  C   UNL A   1      29.932  25.588  23.574  1.00  0.00     0.071 C 
ENDBRANCH  83  86
ENDBRANCH  77  83
BRANCH  81  89
ATOM     89  N   UNL A   1      33.348  23.702  26.150  1.00  0.00    -0.331 N 
ATOM     90  C   UNL A   1      34.472  22.965  25.561  1.00  0.00     0.278 C 
ATOM     91  C   UNL A   1      32.298  22.796  26.627  1.00  0.00     0.278 C 
ATOM     92  H   UNL A   1      33.695  24.131  27.008  1.00  0.00     0.348 HD
ATOM     93  C   UNL A   1      34.158  22.042  24.389  1.00  0.00     0.198 C 
ATOM     94  C   UNL A   1      31.600  22.030  25.526  1.00  0.00     0.198 C 
ATOM     95  S   UNL A   1      32.773  20.978  24.714  1.00  0.00     0.161 S 
ATOM     96  O   UNL A   1      32.195  20.595  23.433  1.00  0.00    -0.228 OA
ATOM     97  O   UNL A   1      33.183  19.962  25.658  1.00  0.00    -0.228 OA
ENDBRANCH  81  89
ENDBRANCH  74  77
ENDBRANCH  72  73
ENDBRANCH  71  72
ENDBRANCH   1  71
TORSDOF 16
ENDMDL
MODEL 3
REMARK VINA RESULT:     -11.7      1.386      1.698
REMARK SMILES O=C(NCCCNC(=O)[C@@]1([NH2+]C2CC2)CCC[C@@H]([NH+]2CCS(=O)(=O)CC2)C1)c1ccc(-c2c3nc(c(-c4cc(S(=O)(=O)[O-])ccc4F)c4ccc([nH]4)c(-c4cc(S(=O)(=O)[O-])ccc4F)c4nc(c(-c5cc(S(=O)(=O)[O-])ccc5F)c5ccc2[nH]5)C=C4)C=C3)cc1
REMARK SMILES IDX 4 1 3 2 1 3 2 4 28 6 29 7 90 8 30 9 89 10 31 11 32 12 33 13
REMARK SMILES IDX 83 14 34 15 88 16 82 17 84 18 35 19 87 20 81 21 80 22 36 24
REMARK SMILES IDX 68 25 48 26 67 27 49 28 52 29 66 30 85 31 50 32 51 33 65 35
REMARK SMILES IDX 86 36 53 37 37 38 38 39 46 40 39 41 45 42 47 43 44 44 40 45
REMARK SMILES IDX 41 46 42 47 43 48 69 49 70 50 78 51 71 52 77 53 79 54 76 55
REMARK SMILES IDX 72 56 73 57 74 58 75 59 54 60 55 61 63 62 56 63 62 64 64 65
REMARK SMILES IDX 61 66 57 67 58 68 59 69 60 70 5 71 6 72 7 73 8 74 9 76 10 77
REMARK SMILES IDX 15 78 27 79 16 80 18 81 17 82 11 83 12 86 13 87 14 88 19 89
REMARK SMILES IDX 20 90 26 91 21 93 25 94 22 95 23 96 24 97
REMARK H PARENT 3 5 84 23 52 34 7 75 11 84 11 85 19 92
REMARK Flexibility Score: inf
ROOT
ATOM      1  C   UNL A   1      32.887  32.889  27.044  1.00  0.00     0.118 C 
ENDROOT
BRANCH   1   2
ATOM      2  N   UNL A   1      32.638  34.162  27.715  1.00  0.00    -0.352 N 
ATOM      3  O   UNL A   1      32.716  35.761  29.297  1.00  0.00    -0.269 OA
ATOM      4  C   UNL A   1      33.183  34.715  28.853  1.00  0.00     0.251 C 
ATOM      5  H   UNL A   1      31.961  34.725  27.275  1.00  0.00     0.163 HD
BRANCH   4   6
ATOM      6  C   UNL A   1      34.294  34.041  29.562  1.00  0.00     0.039 A 
ATOM      7  C   UNL A   1      35.616  34.305  29.222  1.00  0.00     0.014 A 
ATOM      8  C   UNL A   1      34.018  33.142  30.597  1.00  0.00     0.014 A 
ATOM      9  C   UNL A   1      36.634  33.514  29.727  1.00  0.00     0.010 A 
ATOM     10  C   UNL A   1      35.067  32.458  31.228  1.00  0.00     0.010 A 
ATOM     11  C   UNL A   1      36.383  32.613  30.772  1.00  0.00    -0.014 A 
BRANCH  11  12
ATOM     12  C   UNL A   1      37.546  31.948  31.417  1.00  0.00     0.031 A 
ATOM     13  C   UNL A   1      38.347  30.894  30.702  1.00  0.00     0.074 A 
ATOM     14  C   UNL A   1      37.906  32.364  32.650  1.00  0.00     0.049 A 
ATOM     15  N   UNL A   1      39.400  30.242  31.124  1.00  0.00    -0.248 NA
ATOM     16  C   UNL A   1      37.911  30.514  29.351  1.00  0.00     0.031 C 
ATOM     17  C   UNL A   1      37.190  33.376  33.436  1.00  0.00     0.029 A 
ATOM     18  N   UNL A   1      38.969  32.028  33.448  1.00  0.00    -0.354 N 
ATOM     19  C   UNL A   1      39.734  29.352  30.108  1.00  0.00     0.074 A 
ATOM     20  C   UNL A   1      38.764  29.543  29.051  1.00  0.00     0.031 C 
ATOM     21  C   UNL A   1      37.873  33.635  34.557  1.00  0.00     0.029 A 
ATOM     22  C   UNL A   1      39.010  32.731  34.633  1.00  0.00     0.049 A 
ATOM     23  H   UNL A   1      39.638  31.351  33.199  1.00  0.00     0.167 HD
ATOM     24  C   UNL A   1      40.755  28.460  30.073  1.00  0.00     0.034 A 
ATOM     25  C   UNL A   1      39.845  32.634  35.685  1.00  0.00     0.034 A 
ATOM     26  C   UNL A   1      41.726  28.309  31.132  1.00  0.00     0.049 A 
ATOM     27  C   UNL A   1      40.950  31.618  35.619  1.00  0.00     0.074 A 
ATOM     28  C   UNL A   1      42.834  27.479  31.170  1.00  0.00     0.029 A 
ATOM     29  N   UNL A   1      41.701  28.992  32.341  1.00  0.00    -0.354 N 
ATOM     30  N   UNL A   1      41.260  30.802  34.638  1.00  0.00    -0.248 NA
ATOM     31  C   UNL A   1      41.809  31.500  36.802  1.00  0.00     0.031 C 
ATOM     32  C   UNL A   1      43.435  27.609  32.428  1.00  0.00     0.029 A 
ATOM     33  C   UNL A   1      42.747  28.571  33.148  1.00  0.00     0.049 A 
ATOM     34  H   UNL A   1      41.037  29.675  32.589  1.00  0.00     0.167 HD
ATOM     35  C   UNL A   1      42.351  30.071  35.089  1.00  0.00     0.074 A 
ATOM     36  C   UNL A   1      42.671  30.575  36.411  1.00  0.00     0.031 C 
ATOM     37  C   UNL A   1      43.026  29.067  34.474  1.00  0.00     0.034 A 
BRANCH  24  38
ATOM     38  C   UNL A   1      40.852  27.538  28.882  1.00  0.00     0.023 A 
ATOM     39  C   UNL A   1      41.797  27.725  27.860  1.00  0.00     0.031 A 
ATOM     40  C   UNL A   1      39.994  26.425  28.793  1.00  0.00     0.131 A 
ATOM     41  C   UNL A   1      41.838  26.834  26.775  1.00  0.00     0.055 A 
ATOM     42  C   UNL A   1      40.080  25.509  27.743  1.00  0.00     0.041 A 
ATOM     43  F   UNL A   1      39.059  26.207  29.731  1.00  0.00    -0.206 F 
ATOM     44  C   UNL A   1      41.003  25.715  26.722  1.00  0.00     0.022 A 
BRANCH  41  45
ATOM     45  S   UNL A   1      42.946  27.200  25.384  1.00  0.00     0.124 S 
ATOM     46  O   UNL A   1      44.169  27.600  26.077  1.00  0.00    -0.237 OA
ATOM     47  O   UNL A   1      43.000  25.924  24.680  1.00  0.00    -0.237 OA
ATOM     48  O   UNL A   1      42.261  28.277  24.673  1.00  0.00    -0.744 OA
ENDBRANCH  41  45
ENDBRANCH  24  38
BRANCH  25  49
ATOM     49  C   UNL A   1      39.620  33.458  36.907  1.00  0.00     0.023 A 
ATOM     50  C   UNL A   1      40.371  34.617  37.156  1.00  0.00     0.031 A 
ATOM     51  C   UNL A   1      38.670  33.071  37.873  1.00  0.00     0.131 A 
ATOM     52  C   UNL A   1      40.192  35.320  38.357  1.00  0.00     0.055 A 
ATOM     53  C   UNL A   1      38.450  33.810  39.034  1.00  0.00     0.041 A 
ATOM     54  F   UNL A   1      37.926  31.968  37.690  1.00  0.00    -0.206 F 
ATOM     55  C   UNL A   1      39.225  34.935  39.290  1.00  0.00     0.022 A 
BRANCH  52  56
ATOM     56  S   UNL A   1      41.322  36.686  38.739  1.00  0.00     0.124 S 
ATOM     57  O   UNL A   1      41.995  36.883  37.460  1.00  0.00    -0.237 OA
ATOM     58  O   UNL A   1      40.397  37.738  39.146  1.00  0.00    -0.237 OA
ATOM     59  O   UNL A   1      42.160  36.146  39.807  1.00  0.00    -0.744 OA
ENDBRANCH  52  56
ENDBRANCH  25  49
BRANCH  37  60
ATOM     60  C   UNL A   1      44.176  28.468  35.241  1.00  0.00     0.023 A 
ATOM     61  C   UNL A   1      43.973  27.426  36.162  1.00  0.00     0.031 A 
ATOM     62  C   UNL A   1      45.477  28.975  35.084  1.00  0.00     0.131 A 
ATOM     63  C   UNL A   1      45.045  26.964  36.938  1.00  0.00     0.055 A 
ATOM     64  C   UNL A   1      46.552  28.468  35.814  1.00  0.00     0.041 A 
ATOM     65  F   UNL A   1      45.722  29.974  34.220  1.00  0.00    -0.206 F 
ATOM     66  C   UNL A   1      46.336  27.467  36.759  1.00  0.00     0.022 A 
BRANCH  63  67
ATOM     67  S   UNL A   1      44.709  25.762  38.254  1.00  0.00     0.124 S 
ATOM     68  O   UNL A   1      44.080  26.597  39.272  1.00  0.00    -0.237 OA
ATOM     69  O   UNL A   1      43.836  24.803  37.586  1.00  0.00    -0.237 OA
ATOM     70  O   UNL A   1      46.035  25.254  38.600  1.00  0.00    -0.744 OA
ENDBRANCH  63  67
ENDBRANCH  37  60
ENDBRANCH  11  12
ENDBRANCH   4   6
ENDBRANCH   1   2
BRANCH   1  71
ATOM     71  C   UNL A   1      31.626  32.102  26.719  1.00  0.00     0.042 C 
BRANCH  71  72
ATOM     72  C   UNL A   1      31.895  30.677  26.270  1.00  0.00     0.118 C 
BRANCH  72  73
ATOM     73  N   UNL A   1      31.416  29.671  27.201  1.00  0.00    -0.351 N 
ATOM     74  C   UNL A   1      31.639  28.325  27.198  1.00  0.00     0.281 C 
ATOM     75  H   UNL A   1      30.852  30.005  27.935  1.00  0.00     0.163 HD
ATOM     76  O   UNL A   1      31.412  27.739  28.264  1.00  0.00    -0.268 OA
BRANCH  74  77
ATOM     77  C   UNL A   1      31.979  27.530  25.903  1.00  0.00     0.181 C 
ATOM     78  C   UNL A   1      33.311  28.040  25.311  1.00  0.00     0.079 C 
ATOM     79  C   UNL A   1      32.216  26.071  26.409  1.00  0.00     0.144 C 
ATOM     80  C   UNL A   1      33.790  27.168  24.160  1.00  0.00     0.013 C 
ATOM     81  C   UNL A   1      32.963  25.104  25.461  1.00  0.00     0.190 C 
ATOM     82  C   UNL A   1      34.119  25.782  24.688  1.00  0.00     0.065 C 
BRANCH  77  83
ATOM     83  N   UNL A   1      30.902  27.550  24.891  1.00  0.00    -0.331 N 
ATOM     84  H   UNL A   1      30.027  27.490  25.411  1.00  0.00     0.347 HD
ATOM     85  H   UNL A   1      31.181  26.785  24.278  1.00  0.00     0.347 HD
BRANCH  83  86
ATOM     86  C   UNL A   1      30.731  28.650  23.935  1.00  0.00     0.183 C 
ATOM     87  C   UNL A   1      30.771  28.527  22.439  1.00  0.00     0.071 C 
ATOM     88  C   UNL A   1      29.473  28.820  23.136  1.00  0.00     0.071 C 
ENDBRANCH  83  86
ENDBRANCH  77  83
BRANCH  81  89
ATOM     89  N   UNL A   1      33.397  23.816  26.068  1.00  0.00    -0.331 N 
ATOM     90  C   UNL A   1      34.503  23.098  25.422  1.00  0.00     0.278 C 
ATOM     91  C   UNL A   1      32.396  22.892  26.610  1.00  0.00     0.278 C 
ATOM     92  H   UNL A   1      33.783  24.261  26.901  1.00  0.00     0.348 HD
ATOM     93  C   UNL A   1      34.144  22.157  24.278  1.00  0.00     0.198 C 
ATOM     94  C   UNL A   1      31.654  22.100  25.557  1.00  0.00     0.198 C 
ATOM     95  S   UNL A   1      32.803  21.066  24.689  1.00  0.00     0.161 S 
ATOM     96  O   UNL A   1      32.163  20.658  23.446  1.00  0.00    -0.228 OA
ATOM     97  O   UNL A   1      33.288  20.068  25.617  1.00  0.00    -0.228 OA
ENDBRANCH  81  89
ENDBRANCH  74  77
ENDBRANCH  72  73
ENDBRANCH  71  72
ENDBRANCH   1  71
TORSDOF 16
ENDMDL
