MODEL 1
REMARK VINA RESULT:     -11.7      0.000      0.000
REMARK SMILES CNc1nccc(-c2cc(C(=O)NCCCNC(=O)c3ccc(-c4c5nc(c(-c6cc(S(=O)(=O)[O-])ccc6F)c6ccc([nH]6)c(-c6cc(S(=O)(=O)[O-])ccc6F)c6nc(c(-c7cc(S(=O)(=O)[O-])ccc7F)c7ccc4[nH]7)C=C6)C=C5)cc3)ccn2)n1
REMARK SMILES IDX 15 1 14 2 13 3 11 4 12 5 10 7 8 8 9 9 85 10 84 11 83 12 7 13
REMARK SMILES IDX 3 14 4 15 86 16 5 17 6 18 2 19 1 20 16 22 17 23 18 24 19 26
REMARK SMILES IDX 20 27 21 28 82 29 22 30 81 31 23 32 24 33 25 34 75 35 26 36
REMARK SMILES IDX 80 37 74 38 76 39 27 40 79 41 73 42 72 43 28 45 60 46 40 47
REMARK SMILES IDX 59 48 41 49 44 50 58 51 77 52 42 53 43 54 57 56 78 57 45 58
REMARK SMILES IDX 29 59 30 60 38 61 31 62 37 63 39 64 36 65 32 66 33 67 34 68
REMARK SMILES IDX 35 69 61 70 62 71 70 72 63 73 69 74 71 75 68 76 64 77 65 78
REMARK SMILES IDX 66 79 67 80 46 81 47 82 55 83 48 84 54 85 56 86 53 87 49 88
REMARK SMILES IDX 50 89 51 90 52 91
REMARK H PARENT 13 6 2 21 17 25 76 44 44 55
REMARK Flexibility Score: inf
ROOT
ATOM      1  C   UNL A   1      36.000  23.396  24.750  1.00  0.00     0.042 C 
ENDROOT
BRANCH   1   2
ATOM      2  C   UNL A   1      35.151  24.666  24.685  1.00  0.00     0.118 C 
BRANCH   2   3
ATOM      3  N   UNL A   1      34.388  24.725  23.450  1.00  0.00    -0.352 N 
ATOM      4  C   UNL A   1      33.310  24.020  22.982  1.00  0.00     0.251 C 
ATOM      5  O   UNL A   1      32.838  24.354  21.895  1.00  0.00    -0.269 OA
ATOM      6  H   UNL A   1      34.711  25.412  22.822  1.00  0.00     0.163 HD
BRANCH   4   7
ATOM      7  C   UNL A   1      32.640  22.935  23.748  1.00  0.00     0.043 A 
ATOM      8  C   UNL A   1      32.187  20.651  24.332  1.00  0.00     0.090 A 
ATOM      9  C   UNL A   1      32.734  21.580  23.450  1.00  0.00     0.044 A 
ATOM     10  N   UNL A   1      31.478  21.020  25.428  1.00  0.00    -0.255 NA
ATOM     11  C   UNL A   1      31.299  22.340  25.636  1.00  0.00     0.112 A 
ATOM     12  C   UNL A   1      31.871  23.321  24.849  1.00  0.00     0.034 A 
BRANCH   8  13
ATOM     13  C   UNL A   1      32.514  19.226  24.203  1.00  0.00     0.094 A 
ATOM     14  C   UNL A   1      32.686  17.155  25.176  1.00  0.00     0.222 A 
ATOM     15  N   UNL A   1      33.050  16.579  24.022  1.00  0.00    -0.222 NA
ATOM     16  N   UNL A   1      32.410  18.460  25.310  1.00  0.00    -0.211 NA
ATOM     17  C   UNL A   1      33.113  17.363  22.936  1.00  0.00     0.117 A 
ATOM     18  C   UNL A   1      32.852  18.707  22.968  1.00  0.00     0.051 A 
BRANCH  14  19
ATOM     19  N   UNL A   1      32.544  16.296  26.230  1.00  0.00    -0.357 N 
ATOM     20  C   UNL A   1      32.514  14.877  26.033  1.00  0.00     0.143 C 
ATOM     21  H   UNL A   1      32.459  16.660  27.141  1.00  0.00     0.163 HD
ENDBRANCH  14  19
ENDBRANCH   8  13
ENDBRANCH   4   7
ENDBRANCH   2   3
ENDBRANCH   1   2
BRANCH   1  22
ATOM     22  C   UNL A   1      36.441  23.040  26.169  1.00  0.00     0.118 C 
BRANCH  22  23
ATOM     23  N   UNL A   1      37.618  22.183  26.166  1.00  0.00    -0.352 N 
ATOM     24  C   UNL A   1      38.948  22.508  26.273  1.00  0.00     0.251 C 
ATOM     25  H   UNL A   1      37.432  21.222  26.073  1.00  0.00     0.163 HD
ATOM     26  O   UNL A   1      39.789  21.661  25.989  1.00  0.00    -0.269 OA
BRANCH  24  27
ATOM     27  C   UNL A   1      39.366  23.859  26.714  1.00  0.00     0.039 A 
ATOM     28  C   UNL A   1      39.224  24.200  28.063  1.00  0.00     0.014 A 
ATOM     29  C   UNL A   1      39.845  24.804  25.804  1.00  0.00     0.014 A 
ATOM     30  C   UNL A   1      39.611  25.468  28.505  1.00  0.00     0.010 A 
ATOM     31  C   UNL A   1      40.297  26.041  26.258  1.00  0.00     0.010 A 
ATOM     32  C   UNL A   1      40.177  26.390  27.611  1.00  0.00    -0.014 A 
BRANCH  32  33
ATOM     33  C   UNL A   1      40.644  27.724  28.072  1.00  0.00     0.031 A 
ATOM     34  C   UNL A   1      42.110  28.062  28.054  1.00  0.00     0.074 A 
ATOM     35  C   UNL A   1      39.753  28.605  28.565  1.00  0.00     0.049 A 
ATOM     36  N   UNL A   1      42.719  29.137  28.483  1.00  0.00    -0.248 NA
ATOM     37  C   UNL A   1      43.010  27.036  27.508  1.00  0.00     0.031 C 
ATOM     38  C   UNL A   1      38.310  28.379  28.667  1.00  0.00     0.029 A 
ATOM     39  N   UNL A   1      39.928  29.864  29.081  1.00  0.00    -0.354 N 
ATOM     40  C   UNL A   1      44.077  28.913  28.274  1.00  0.00     0.074 A 
ATOM     41  C   UNL A   1      44.198  27.571  27.743  1.00  0.00     0.031 C 
ATOM     42  C   UNL A   1      37.729  29.472  29.185  1.00  0.00     0.029 A 
ATOM     43  C   UNL A   1      38.759  30.458  29.498  1.00  0.00     0.049 A 
ATOM     44  H   UNL A   1      40.807  30.301  29.147  1.00  0.00     0.167 HD
ATOM     45  C   UNL A   1      45.120  29.756  28.484  1.00  0.00     0.034 A 
ATOM     46  C   UNL A   1      38.543  31.655  30.074  1.00  0.00     0.034 A 
ATOM     47  C   UNL A   1      44.975  31.093  29.013  1.00  0.00     0.049 A 
ATOM     48  C   UNL A   1      39.716  32.563  30.333  1.00  0.00     0.074 A 
ATOM     49  C   UNL A   1      45.952  32.053  29.214  1.00  0.00     0.029 A 
ATOM     50  N   UNL A   1      43.776  31.655  29.435  1.00  0.00    -0.354 N 
ATOM     51  N   UNL A   1      40.990  32.358  30.086  1.00  0.00    -0.248 NA
ATOM     52  C   UNL A   1      39.421  33.866  30.940  1.00  0.00     0.031 C 
ATOM     53  C   UNL A   1      45.357  33.164  29.824  1.00  0.00     0.029 A 
ATOM     54  C   UNL A   1      43.994  32.932  29.931  1.00  0.00     0.049 A 
ATOM     55  H   UNL A   1      42.899  31.210  29.391  1.00  0.00     0.167 HD
ATOM     56  C   UNL A   1      41.645  33.520  30.483  1.00  0.00     0.074 A 
ATOM     57  C   UNL A   1      40.623  34.424  30.973  1.00  0.00     0.031 C 
ATOM     58  C   UNL A   1      42.969  33.816  30.438  1.00  0.00     0.034 A 
BRANCH  45  59
ATOM     59  C   UNL A   1      46.504  29.232  28.172  1.00  0.00     0.023 A 
ATOM     60  C   UNL A   1      46.910  28.957  26.853  1.00  0.00     0.031 A 
ATOM     61  C   UNL A   1      47.413  28.947  29.206  1.00  0.00     0.131 A 
ATOM     62  C   UNL A   1      48.137  28.321  26.612  1.00  0.00     0.055 A 
ATOM     63  C   UNL A   1      48.674  28.403  28.952  1.00  0.00     0.041 A 
ATOM     64  F   UNL A   1      47.083  29.170  30.488  1.00  0.00    -0.206 F 
ATOM     65  C   UNL A   1      49.034  28.066  27.650  1.00  0.00     0.022 A 
BRANCH  62  66
ATOM     66  S   UNL A   1      48.459  27.667  24.950  1.00  0.00     0.124 S 
ATOM     67  O   UNL A   1      48.418  26.226  25.188  1.00  0.00    -0.237 OA
ATOM     68  O   UNL A   1      47.354  28.219  24.175  1.00  0.00    -0.237 OA
ATOM     69  O   UNL A   1      49.781  28.198  24.623  1.00  0.00    -0.744 OA
ENDBRANCH  62  66
ENDBRANCH  45  59
BRANCH  46  70
ATOM     70  C   UNL A   1      37.159  32.067  30.445  1.00  0.00     0.023 A 
ATOM     71  C   UNL A   1      36.306  32.655  29.498  1.00  0.00     0.031 A 
ATOM     72  C   UNL A   1      36.674  31.889  31.753  1.00  0.00     0.131 A 
ATOM     73  C   UNL A   1      35.022  33.075  29.880  1.00  0.00     0.055 A 
ATOM     74  C   UNL A   1      35.380  32.265  32.116  1.00  0.00     0.041 A 
ATOM     75  F   UNL A   1      37.449  31.324  32.692  1.00  0.00    -0.206 F 
ATOM     76  C   UNL A   1      34.549  32.871  31.178  1.00  0.00     0.022 A 
BRANCH  73  77
ATOM     77  S   UNL A   1      33.994  33.940  28.663  1.00  0.00     0.124 S 
ATOM     78  O   UNL A   1      34.946  34.884  28.089  1.00  0.00    -0.237 OA
ATOM     79  O   UNL A   1      33.568  32.849  27.794  1.00  0.00    -0.237 OA
ATOM     80  O   UNL A   1      32.936  34.536  29.475  1.00  0.00    -0.744 OA
ENDBRANCH  73  77
ENDBRANCH  46  70
BRANCH  58  81
ATOM     81  C   UNL A   1      43.376  35.194  30.903  1.00  0.00     0.023 A 
ATOM     82  C   UNL A   1      43.648  35.471  32.254  1.00  0.00     0.031 A 
ATOM     83  C   UNL A   1      43.476  36.249  29.978  1.00  0.00     0.131 A 
ATOM     84  C   UNL A   1      43.952  36.782  32.651  1.00  0.00     0.055 A 
ATOM     85  C   UNL A   1      43.839  37.538  30.370  1.00  0.00     0.041 A 
ATOM     86  F   UNL A   1      43.223  36.043  28.676  1.00  0.00    -0.206 F 
ATOM     87  C   UNL A   1      44.067  37.814  31.715  1.00  0.00     0.022 A 
BRANCH  84  88
ATOM     88  S   UNL A   1      44.104  37.144  34.422  1.00  0.00     0.124 S 
ATOM     89  O   UNL A   1      44.098  35.806  35.006  1.00  0.00    -0.237 OA
ATOM     90  O   UNL A   1      45.372  37.862  34.487  1.00  0.00    -0.237 OA
ATOM     91  O   UNL A   1      42.920  37.951  34.710  1.00  0.00    -0.744 OA
ENDBRANCH  84  88
ENDBRANCH  58  81
ENDBRANCH  32  33
ENDBRANCH  24  27
ENDBRANCH  22  23
ENDBRANCH   1  22
TORSDOF 15
ENDMDL
MODEL 2
REMARK VINA RESULT:     -11.6      4.266      9.428
REMARK SMILES CNc1nccc(-c2cc(C(=O)NCCCNC(=O)c3ccc(-c4c5nc(c(-c6cc(S(=O)(=O)[O-])ccc6F)c6ccc([nH]6)c(-c6cc(S(=O)(=O)[O-])ccc6F)c6nc(c(-c7cc(S(=O)(=O)[O-])ccc7F)c7ccc4[nH]7)C=C6)C=C5)cc3)ccn2)n1
REMARK SMILES IDX 15 1 14 2 13 3 11 4 12 5 10 7 8 8 9 9 85 10 84 11 83 12 7 13
REMARK SMILES IDX 3 14 4 15 86 16 5 17 6 18 2 19 1 20 16 22 17 23 18 24 19 26
REMARK SMILES IDX 20 27 21 28 82 29 22 30 81 31 23 32 24 33 25 34 75 35 26 36
REMARK SMILES IDX 80 37 74 38 76 39 27 40 79 41 73 42 72 43 28 45 60 46 40 47
REMARK SMILES IDX 59 48 41 49 44 50 58 51 77 52 42 53 43 54 57 56 78 57 45 58
REMARK SMILES IDX 29 59 30 60 38 61 31 62 37 63 39 64 36 65 32 66 33 67 34 68
REMARK SMILES IDX 35 69 61 70 62 71 70 72 63 73 69 74 71 75 68 76 64 77 65 78
REMARK SMILES IDX 66 79 67 80 46 81 47 82 55 83 48 84 54 85 56 86 53 87 49 88
REMARK SMILES IDX 50 89 51 90 52 91
REMARK H PARENT 13 6 2 21 17 25 76 44 44 55
REMARK Flexibility Score: inf
ROOT
ATOM      1  C   UNL A   1      33.467  28.440  25.886  1.00  0.00     0.042 C 
ENDROOT
BRANCH   1   2
ATOM      2  C   UNL A   1      32.759  29.167  24.742  1.00  0.00     0.118 C 
BRANCH   2   3
ATOM      3  N   UNL A   1      33.502  29.040  23.500  1.00  0.00    -0.352 N 
ATOM      4  C   UNL A   1      33.762  27.981  22.670  1.00  0.00     0.251 C 
ATOM      5  O   UNL A   1      34.385  28.208  21.633  1.00  0.00    -0.269 OA
ATOM      6  H   UNL A   1      33.899  29.887  23.192  1.00  0.00     0.163 HD
BRANCH   4   7
ATOM      7  C   UNL A   1      33.269  26.599  22.918  1.00  0.00     0.043 A 
ATOM      8  C   UNL A   1      33.383  24.386  23.841  1.00  0.00     0.090 A 
ATOM      9  C   UNL A   1      34.008  25.591  23.527  1.00  0.00     0.044 A 
ATOM     10  N   UNL A   1      32.100  24.120  23.489  1.00  0.00    -0.255 NA
ATOM     11  C   UNL A   1      31.437  25.068  22.796  1.00  0.00     0.112 A 
ATOM     12  C   UNL A   1      31.963  26.313  22.511  1.00  0.00     0.034 A 
BRANCH   8  13
ATOM     13  C   UNL A   1      34.039  23.421  24.731  1.00  0.00     0.094 A 
ATOM     14  C   UNL A   1      33.931  21.471  25.935  1.00  0.00     0.222 A 
ATOM     15  N   UNL A   1      35.208  21.577  26.329  1.00  0.00    -0.222 NA
ATOM     16  N   UNL A   1      33.315  22.360  25.143  1.00  0.00    -0.211 NA
ATOM     17  C   UNL A   1      35.907  22.627  25.876  1.00  0.00     0.117 A 
ATOM     18  C   UNL A   1      35.370  23.590  25.065  1.00  0.00     0.051 A 
BRANCH  14  19
ATOM     19  N   UNL A   1      33.292  20.335  26.345  1.00  0.00    -0.357 N 
ATOM     20  C   UNL A   1      32.910  19.318  25.409  1.00  0.00     0.143 C 
ATOM     21  H   UNL A   1      33.090  20.213  27.301  1.00  0.00     0.163 HD
ENDBRANCH  14  19
ENDBRANCH   8  13
ENDBRANCH   4   7
ENDBRANCH   2   3
ENDBRANCH   1   2
BRANCH   1  22
ATOM     22  C   UNL A   1      33.170  29.046  27.257  1.00  0.00     0.118 C 
BRANCH  22  23
ATOM     23  N   UNL A   1      33.361  30.490  27.259  1.00  0.00    -0.352 N 
ATOM     24  C   UNL A   1      34.343  31.250  27.845  1.00  0.00     0.251 C 
ATOM     25  H   UNL A   1      32.681  30.999  26.764  1.00  0.00     0.163 HD
ATOM     26  O   UNL A   1      34.173  32.462  27.941  1.00  0.00    -0.269 OA
BRANCH  24  27
ATOM     27  C   UNL A   1      35.582  30.625  28.361  1.00  0.00     0.039 A 
ATOM     28  C   UNL A   1      36.764  30.769  27.627  1.00  0.00     0.014 A 
ATOM     29  C   UNL A   1      35.576  29.857  29.527  1.00  0.00     0.014 A 
ATOM     30  C   UNL A   1      37.947  30.188  28.092  1.00  0.00     0.010 A 
ATOM     31  C   UNL A   1      36.769  29.339  30.027  1.00  0.00     0.010 A 
ATOM     32  C   UNL A   1      37.966  29.492  29.311  1.00  0.00    -0.014 A 
BRANCH  32  33
ATOM     33  C   UNL A   1      39.225  28.912  29.849  1.00  0.00     0.031 A 
ATOM     34  C   UNL A   1      39.878  29.514  31.063  1.00  0.00     0.074 A 
ATOM     35  C   UNL A   1      39.811  27.885  29.204  1.00  0.00     0.049 A 
ATOM     36  N   UNL A   1      41.012  29.201  31.636  1.00  0.00    -0.248 NA
ATOM     37  C   UNL A   1      39.173  30.638  31.695  1.00  0.00     0.031 C 
ATOM     38  C   UNL A   1      39.293  27.240  27.996  1.00  0.00     0.029 A 
ATOM     39  N   UNL A   1      40.975  27.208  29.468  1.00  0.00    -0.354 N 
ATOM     40  C   UNL A   1      41.166  30.100  32.688  1.00  0.00     0.074 A 
ATOM     41  C   UNL A   1      40.039  31.008  32.625  1.00  0.00     0.031 C 
ATOM     42  C   UNL A   1      40.119  26.245  27.641  1.00  0.00     0.029 A 
ATOM     43  C   UNL A   1      41.249  26.209  28.563  1.00  0.00     0.049 A 
ATOM     44  H   UNL A   1      41.558  27.417  30.233  1.00  0.00     0.167 HD
ATOM     45  C   UNL A   1      42.142  30.147  33.630  1.00  0.00     0.034 A 
ATOM     46  C   UNL A   1      42.297  25.367  28.480  1.00  0.00     0.034 A 
ATOM     47  C   UNL A   1      43.255  29.228  33.675  1.00  0.00     0.049 A 
ATOM     48  C   UNL A   1      43.390  25.458  29.513  1.00  0.00     0.074 A 
ATOM     49  C   UNL A   1      44.270  29.146  34.613  1.00  0.00     0.029 A 
ATOM     50  N   UNL A   1      43.507  28.237  32.734  1.00  0.00    -0.354 N 
ATOM     51  N   UNL A   1      43.498  26.281  30.531  1.00  0.00    -0.248 NA
ATOM     52  C   UNL A   1      44.495  24.500  29.390  1.00  0.00     0.031 C 
ATOM     53  C   UNL A   1      45.172  28.158  34.201  1.00  0.00     0.029 A 
ATOM     54  C   UNL A   1      44.680  27.565  33.048  1.00  0.00     0.049 A 
ATOM     55  H   UNL A   1      42.936  28.041  31.956  1.00  0.00     0.167 HD
ATOM     56  C   UNL A   1      44.672  25.920  31.186  1.00  0.00     0.074 A 
ATOM     57  C   UNL A   1      45.226  24.799  30.454  1.00  0.00     0.031 C 
ATOM     58  C   UNL A   1      45.235  26.462  32.297  1.00  0.00     0.034 A 
BRANCH  45  59
ATOM     59  C   UNL A   1      42.055  31.253  34.659  1.00  0.00     0.023 A 
ATOM     60  C   UNL A   1      41.065  31.256  35.659  1.00  0.00     0.031 A 
ATOM     61  C   UNL A   1      42.934  32.350  34.608  1.00  0.00     0.131 A 
ATOM     62  C   UNL A   1      40.911  32.373  36.494  1.00  0.00     0.055 A 
ATOM     63  C   UNL A   1      42.836  33.416  35.505  1.00  0.00     0.041 A 
ATOM     64  F   UNL A   1      43.889  32.418  33.668  1.00  0.00    -0.206 F 
ATOM     65  C   UNL A   1      41.806  33.442  36.442  1.00  0.00     0.022 A 
BRANCH  62  66
ATOM     66  S   UNL A   1      39.416  32.487  37.516  1.00  0.00     0.124 S 
ATOM     67  O   UNL A   1      39.971  32.368  38.863  1.00  0.00    -0.237 OA
ATOM     68  O   UNL A   1      38.888  33.798  37.156  1.00  0.00    -0.237 OA
ATOM     69  O   UNL A   1      38.614  31.346  37.080  1.00  0.00    -0.744 OA
ENDBRANCH  62  66
ENDBRANCH  45  59
BRANCH  46  70
ATOM     70  C   UNL A   1      42.365  24.364  27.380  1.00  0.00     0.023 A 
ATOM     71  C   UNL A   1      41.586  23.197  27.423  1.00  0.00     0.031 A 
ATOM     72  C   UNL A   1      43.215  24.552  26.276  1.00  0.00     0.131 A 
ATOM     73  C   UNL A   1      41.697  22.245  26.398  1.00  0.00     0.055 A 
ATOM     74  C   UNL A   1      43.287  23.625  25.236  1.00  0.00     0.041 A 
ATOM     75  F   UNL A   1      43.973  25.656  26.185  1.00  0.00    -0.206 F 
ATOM     76  C   UNL A   1      42.531  22.458  25.298  1.00  0.00     0.022 A 
BRANCH  73  77
ATOM     77  S   UNL A   1      40.769  20.695  26.548  1.00  0.00     0.124 S 
ATOM     78  O   UNL A   1      41.542  19.802  25.691  1.00  0.00    -0.237 OA
ATOM     79  O   UNL A   1      40.844  20.434  27.981  1.00  0.00    -0.237 OA
ATOM     80  O   UNL A   1      39.441  21.045  26.049  1.00  0.00    -0.744 OA
ENDBRANCH  73  77
ENDBRANCH  46  70
BRANCH  58  81
ATOM     81  C   UNL A   1      46.502  25.816  32.803  1.00  0.00     0.023 A 
ATOM     82  C   UNL A   1      47.752  26.071  32.212  1.00  0.00     0.031 A 
ATOM     83  C   UNL A   1      46.453  24.917  33.885  1.00  0.00     0.131 A 
ATOM     84  C   UNL A   1      48.893  25.392  32.668  1.00  0.00     0.055 A 
ATOM     85  C   UNL A   1      47.600  24.292  34.374  1.00  0.00     0.041 A 
ATOM     86  F   UNL A   1      45.286  24.633  34.485  1.00  0.00    -0.206 F 
ATOM     87  C   UNL A   1      48.828  24.518  33.758  1.00  0.00     0.022 A 
BRANCH  84  88
ATOM     88  S   UNL A   1      50.450  25.594  31.759  1.00  0.00     0.124 S 
ATOM     89  O   UNL A   1      50.727  27.015  31.946  1.00  0.00    -0.237 OA
ATOM     90  O   UNL A   1      51.340  24.673  32.457  1.00  0.00    -0.237 OA
ATOM     91  O   UNL A   1      50.102  25.205  30.394  1.00  0.00    -0.744 OA
ENDBRANCH  84  88
ENDBRANCH  58  81
ENDBRANCH  32  33
ENDBRANCH  24  27
ENDBRANCH  22  23
ENDBRANCH   1  22
TORSDOF 15
ENDMDL
MODEL 3
REMARK VINA RESULT:     -11.6      2.526      4.528
REMARK SMILES CNc1nccc(-c2cc(C(=O)NCCCNC(=O)c3ccc(-c4c5nc(c(-c6cc(S(=O)(=O)[O-])ccc6F)c6ccc([nH]6)c(-c6cc(S(=O)(=O)[O-])ccc6F)c6nc(c(-c7cc(S(=O)(=O)[O-])ccc7F)c7ccc4[nH]7)C=C6)C=C5)cc3)ccn2)n1
REMARK SMILES IDX 15 1 14 2 13 3 11 4 12 5 10 7 8 8 9 9 85 10 84 11 83 12 7 13
REMARK SMILES IDX 3 14 4 15 86 16 5 17 6 18 2 19 1 20 16 22 17 23 18 24 19 26
REMARK SMILES IDX 20 27 21 28 82 29 22 30 81 31 23 32 24 33 25 34 75 35 26 36
REMARK SMILES IDX 80 37 74 38 76 39 27 40 79 41 73 42 72 43 28 45 60 46 40 47
REMARK SMILES IDX 59 48 41 49 44 50 58 51 77 52 42 53 43 54 57 56 78 57 45 58
REMARK SMILES IDX 29 59 30 60 38 61 31 62 37 63 39 64 36 65 32 66 33 67 34 68
REMARK SMILES IDX 35 69 61 70 62 71 70 72 63 73 69 74 71 75 68 76 64 77 65 78
REMARK SMILES IDX 66 79 67 80 46 81 47 82 55 83 48 84 54 85 56 86 53 87 49 88
REMARK SMILES IDX 50 89 51 90 52 91
REMARK H PARENT 13 6 2 21 17 25 76 44 44 55
REMARK Flexibility Score: inf
ROOT
ATOM      1  C   UNL A   1      36.167  23.424  24.224  1.00  0.00     0.042 C 
ENDROOT
BRANCH   1   2
ATOM      2  C   UNL A   1      34.798  24.050  23.954  1.00  0.00     0.118 C 
BRANCH   2   3
ATOM      3  N   UNL A   1      33.915  23.892  25.096  1.00  0.00    -0.352 N 
ATOM      4  C   UNL A   1      33.060  24.746  25.743  1.00  0.00     0.251 C 
ATOM      5  O   UNL A   1      32.384  24.288  26.664  1.00  0.00    -0.269 OA
ATOM      6  H   UNL A   1      33.933  22.987  25.485  1.00  0.00     0.163 HD
BRANCH   4   7
ATOM      7  C   UNL A   1      32.854  26.165  25.343  1.00  0.00     0.043 A 
ATOM      8  C   UNL A   1      31.661  27.980  24.321  1.00  0.00     0.090 A 
ATOM      9  C   UNL A   1      31.843  26.610  24.497  1.00  0.00     0.044 A 
ATOM     10  N   UNL A   1      32.494  28.900  24.869  1.00  0.00    -0.255 NA
ATOM     11  C   UNL A   1      33.536  28.442  25.591  1.00  0.00     0.112 A 
ATOM     12  C   UNL A   1      33.742  27.105  25.870  1.00  0.00     0.034 A 
BRANCH   8  13
ATOM     13  C   UNL A   1      30.443  28.488  23.678  1.00  0.00     0.094 A 
ATOM     14  C   UNL A   1      29.372  30.184  22.565  1.00  0.00     0.222 A 
ATOM     15  N   UNL A   1      28.249  29.465  22.431  1.00  0.00    -0.222 NA
ATOM     16  N   UNL A   1      30.481  29.739  23.172  1.00  0.00    -0.211 NA
ATOM     17  C   UNL A   1      28.257  28.216  22.917  1.00  0.00     0.117 A 
ATOM     18  C   UNL A   1      29.337  27.669  23.556  1.00  0.00     0.051 A 
BRANCH  14  19
ATOM     19  N   UNL A   1      29.345  31.413  21.968  1.00  0.00    -0.357 N 
ATOM     20  C   UNL A   1      28.796  32.555  22.640  1.00  0.00     0.143 C 
ATOM     21  H   UNL A   1      29.708  31.517  21.058  1.00  0.00     0.163 HD
ENDBRANCH  14  19
ENDBRANCH   8  13
ENDBRANCH   4   7
ENDBRANCH   2   3
ENDBRANCH   1   2
BRANCH   1  22
ATOM     22  C   UNL A   1      36.571  23.474  25.696  1.00  0.00     0.118 C 
BRANCH  22  23
ATOM     23  N   UNL A   1      37.589  22.481  26.008  1.00  0.00    -0.352 N 
ATOM     24  C   UNL A   1      38.890  22.647  26.414  1.00  0.00     0.251 C 
ATOM     25  H   UNL A   1      37.300  21.546  25.912  1.00  0.00     0.163 HD
ATOM     26  O   UNL A   1      39.650  21.685  26.372  1.00  0.00    -0.269 OA
BRANCH  24  27
ATOM     27  C   UNL A   1      39.376  23.964  26.887  1.00  0.00     0.039 A 
ATOM     28  C   UNL A   1      39.982  24.827  25.968  1.00  0.00     0.014 A 
ATOM     29  C   UNL A   1      39.286  24.330  28.232  1.00  0.00     0.014 A 
ATOM     30  C   UNL A   1      40.450  26.075  26.389  1.00  0.00     0.010 A 
ATOM     31  C   UNL A   1      39.688  25.602  28.636  1.00  0.00     0.010 A 
ATOM     32  C   UNL A   1      40.280  26.485  27.721  1.00  0.00    -0.014 A 
BRANCH  32  33
ATOM     33  C   UNL A   1      40.723  27.829  28.176  1.00  0.00     0.031 A 
ATOM     34  C   UNL A   1      42.188  28.169  28.222  1.00  0.00     0.074 A 
ATOM     35  C   UNL A   1      39.809  28.718  28.608  1.00  0.00     0.049 A 
ATOM     36  N   UNL A   1      42.776  29.254  28.658  1.00  0.00    -0.248 NA
ATOM     37  C   UNL A   1      43.114  27.134  27.741  1.00  0.00     0.031 C 
ATOM     38  C   UNL A   1      38.363  28.492  28.645  1.00  0.00     0.029 A 
ATOM     39  N   UNL A   1      39.958  29.988  29.107  1.00  0.00    -0.354 N 
ATOM     40  C   UNL A   1      44.142  29.027  28.520  1.00  0.00     0.074 A 
ATOM     41  C   UNL A   1      44.289  27.675  28.022  1.00  0.00     0.031 C 
ATOM     42  C   UNL A   1      37.757  29.594  29.113  1.00  0.00     0.029 A 
ATOM     43  C   UNL A   1      38.770  30.588  29.454  1.00  0.00     0.049 A 
ATOM     44  H   UNL A   1      40.833  30.428  29.206  1.00  0.00     0.167 HD
ATOM     45  C   UNL A   1      45.173  29.876  28.763  1.00  0.00     0.034 A 
ATOM     46  C   UNL A   1      38.526  31.796  29.996  1.00  0.00     0.034 A 
ATOM     47  C   UNL A   1      45.002  31.223  29.256  1.00  0.00     0.049 A 
ATOM     48  C   UNL A   1      39.685  32.711  30.293  1.00  0.00     0.074 A 
ATOM     49  C   UNL A   1      45.967  32.188  29.485  1.00  0.00     0.029 A 
ATOM     50  N   UNL A   1      43.784  31.792  29.609  1.00  0.00    -0.354 N 
ATOM     51  N   UNL A   1      40.969  32.503  30.111  1.00  0.00    -0.248 NA
ATOM     52  C   UNL A   1      39.360  34.025  30.858  1.00  0.00     0.031 C 
ATOM     53  C   UNL A   1      45.343  33.311  30.043  1.00  0.00     0.029 A 
ATOM     54  C   UNL A   1      43.977  33.079  30.089  1.00  0.00     0.049 A 
ATOM     55  H   UNL A   1      42.910  31.345  29.532  1.00  0.00     0.167 HD
ATOM     56  C   UNL A   1      41.603  33.674  30.516  1.00  0.00     0.074 A 
ATOM     57  C   UNL A   1      40.558  34.586  30.937  1.00  0.00     0.031 C 
ATOM     58  C   UNL A   1      42.928  33.971  30.529  1.00  0.00     0.034 A 
BRANCH  45  59
ATOM     59  C   UNL A   1      46.571  29.348  28.527  1.00  0.00     0.023 A 
ATOM     60  C   UNL A   1      47.060  29.103  27.231  1.00  0.00     0.031 A 
ATOM     61  C   UNL A   1      47.409  29.029  29.611  1.00  0.00     0.131 A 
ATOM     62  C   UNL A   1      48.296  28.463  27.054  1.00  0.00     0.055 A 
ATOM     63  C   UNL A   1      48.679  28.481  29.426  1.00  0.00     0.041 A 
ATOM     64  F   UNL A   1      46.996  29.222  30.874  1.00  0.00    -0.206 F 
ATOM     65  C   UNL A   1      49.122  28.174  28.142  1.00  0.00     0.022 A 
BRANCH  62  66
ATOM     66  S   UNL A   1      48.722  27.849  25.401  1.00  0.00     0.124 S 
ATOM     67  O   UNL A   1      47.600  28.343  24.605  1.00  0.00    -0.237 OA
ATOM     68  O   UNL A   1      50.011  28.483  25.151  1.00  0.00    -0.237 OA
ATOM     69  O   UNL A   1      48.760  26.398  25.573  1.00  0.00    -0.744 OA
ENDBRANCH  62  66
ENDBRANCH  45  59
BRANCH  46  70
ATOM     70  C   UNL A   1      37.126  32.213  30.291  1.00  0.00     0.023 A 
ATOM     71  C   UNL A   1      36.272  32.642  29.264  1.00  0.00     0.031 A 
ATOM     72  C   UNL A   1      36.625  32.199  31.605  1.00  0.00     0.131 A 
ATOM     73  C   UNL A   1      34.971  33.072  29.570  1.00  0.00     0.055 A 
ATOM     74  C   UNL A   1      35.316  32.582  31.899  1.00  0.00     0.041 A 
ATOM     75  F   UNL A   1      37.401  31.789  32.621  1.00  0.00    -0.206 F 
ATOM     76  C   UNL A   1      34.483  33.031  30.878  1.00  0.00     0.022 A 
BRANCH  73  77
ATOM     77  S   UNL A   1      33.938  33.734  28.235  1.00  0.00     0.124 S 
ATOM     78  O   UNL A   1      32.987  34.555  28.976  1.00  0.00    -0.237 OA
ATOM     79  O   UNL A   1      34.914  34.455  27.425  1.00  0.00    -0.237 OA
ATOM     80  O   UNL A   1      33.378  32.537  27.613  1.00  0.00    -0.744 OA
ENDBRANCH  73  77
ENDBRANCH  46  70
BRANCH  58  81
ATOM     81  C   UNL A   1      43.311  35.359  30.984  1.00  0.00     0.023 A 
ATOM     82  C   UNL A   1      43.389  35.697  32.346  1.00  0.00     0.031 A 
ATOM     83  C   UNL A   1      43.586  36.362  30.037  1.00  0.00     0.131 A 
ATOM     84  C   UNL A   1      43.678  37.018  32.723  1.00  0.00     0.055 A 
ATOM     85  C   UNL A   1      43.934  37.658  30.418  1.00  0.00     0.041 A 
ATOM     86  F   UNL A   1      43.523  36.096  28.722  1.00  0.00    -0.206 F 
ATOM     87  C   UNL A   1      43.969  37.996  31.768  1.00  0.00     0.022 A 
BRANCH  84  88
ATOM     88  S   UNL A   1      43.578  37.465  34.479  1.00  0.00     0.124 S 
ATOM     89  O   UNL A   1      44.887  37.051  34.972  1.00  0.00    -0.237 OA
ATOM     90  O   UNL A   1      43.344  38.904  34.421  1.00  0.00    -0.237 OA
ATOM     91  O   UNL A   1      42.451  36.674  34.970  1.00  0.00    -0.744 OA
ENDBRANCH  84  88
ENDBRANCH  58  81
ENDBRANCH  32  33
ENDBRANCH  24  27
ENDBRANCH  22  23
ENDBRANCH   1  22
TORSDOF 15
ENDMDL
