MODEL 1
REMARK VINA RESULT:     -13.1      0.000      0.000
REMARK SMILES O=C(NCCCNC(=O)c1ccc(-c2c3nc(c(-c4cc(S(=O)(=O)[O-])ccc4F)c4ccc([nH]4)c(-c4cc(S(=O)(=O)[O-])ccc4F)c4nc(c(-c5cc(S(=O)(=O)[O-])ccc5F)c5ccc2[nH]5)C=C4)C=C3)cc1)C1=Cc2cc(OC(F)(F)F)ccc2O[C@@H]1C(F)(F)F
REMARK SMILES IDX 5 1 4 2 3 3 1 4 2 5 73 7 74 8 87 9 75 10 86 11 76 12 85 13
REMARK SMILES IDX 77 14 84 15 83 16 88 17 89 18 90 19 91 20 78 21 79 22 80 23
REMARK SMILES IDX 81 24 82 25 6 26 7 27 8 28 9 30 10 31 11 32 72 33 12 34
REMARK SMILES IDX 71 35 13 36 14 37 15 38 65 39 16 40 70 41 64 42 66 43 17 44
REMARK SMILES IDX 69 45 63 46 62 47 18 49 50 50 30 51 49 52 31 53 34 54 48 55
REMARK SMILES IDX 67 56 32 57 33 58 47 60 68 61 35 62 19 63 20 64 28 65 21 66
REMARK SMILES IDX 27 67 29 68 26 69 22 70 23 71 24 72 25 73 51 74 52 75 60 76
REMARK SMILES IDX 53 77 59 78 61 79 58 80 54 81 55 82 56 83 57 84 36 85 37 86
REMARK SMILES IDX 45 87 38 88 44 89 46 90 43 91 39 92 40 93 41 94 42 95
REMARK H PARENT 3 6 7 29 66 48 34 59
REMARK Flexibility Score: inf
ROOT
ATOM      1  C   UNL A   1      31.564  28.869  26.346  1.00  0.00     0.042 C 
ENDROOT
BRANCH   1   2
ATOM      2  C   UNL A   1      32.271  27.520  26.375  1.00  0.00     0.118 C 
BRANCH   2   3
ATOM      3  N   UNL A   1      31.441  26.448  26.932  1.00  0.00    -0.352 N 
ATOM      4  O   UNL A   1      30.288  24.491  26.909  1.00  0.00    -0.270 OA
ATOM      5  C   UNL A   1      30.747  25.446  26.299  1.00  0.00     0.251 C 
ATOM      6  H   UNL A   1      31.370  26.446  27.914  1.00  0.00     0.163 HD
BRANCH   5   7
ATOM      7  C   UNL A   1      30.639  25.538  24.832  1.00  0.00     0.067 C 
ATOM      8  C   UNL A   1      29.546  26.143  24.351  1.00  0.00     0.025 C 
ATOM      9  C   UNL A   1      31.895  25.345  24.043  1.00  0.00     0.314 C 
ATOM     10  C   UNL A   1      29.843  27.126  23.305  1.00  0.00     0.021 A 
ATOM     11  O   UNL A   1      32.208  26.485  23.204  1.00  0.00    -0.475 OA
ATOM     12  C   UNL A   1      28.884  28.116  23.065  1.00  0.00     0.058 A 
ATOM     13  C   UNL A   1      31.174  27.339  22.912  1.00  0.00     0.128 A 
ATOM     14  C   UNL A   1      29.269  29.367  22.580  1.00  0.00     0.130 A 
ATOM     15  C   UNL A   1      31.547  28.566  22.370  1.00  0.00     0.051 A 
ATOM     16  C   UNL A   1      30.604  29.593  22.244  1.00  0.00     0.050 A 
BRANCH   9  17
ATOM     17  C   UNL A   1      31.846  24.054  23.211  1.00  0.00     0.429 C 
ATOM     18  F   UNL A   1      32.604  23.082  23.779  1.00  0.00    -0.167 F 
ATOM     19  F   UNL A   1      30.591  23.557  23.116  1.00  0.00    -0.167 F 
ATOM     20  F   UNL A   1      32.307  24.231  21.950  1.00  0.00    -0.167 F 
ENDBRANCH   9  17
BRANCH  14  21
ATOM     21  O   UNL A   1      28.255  30.279  22.526  1.00  0.00    -0.406 OA
BRANCH  21  22
ATOM     22  C   UNL A   1      28.412  31.477  23.272  1.00  0.00     0.573 C 
ATOM     23  F   UNL A   1      29.240  31.289  24.320  1.00  0.00    -0.132 F 
ATOM     24  F   UNL A   1      28.883  32.472  22.490  1.00  0.00    -0.132 F 
ATOM     25  F   UNL A   1      27.205  31.850  23.745  1.00  0.00    -0.132 F 
ENDBRANCH  21  22
ENDBRANCH  14  21
ENDBRANCH   5   7
ENDBRANCH   2   3
ENDBRANCH   1   2
BRANCH   1  26
ATOM     26  C   UNL A   1      32.485  29.996  25.891  1.00  0.00     0.118 C 
BRANCH  26  27
ATOM     27  N   UNL A   1      32.102  31.316  26.374  1.00  0.00    -0.352 N 
ATOM     28  C   UNL A   1      32.786  32.189  27.207  1.00  0.00     0.251 C 
ATOM     29  H   UNL A   1      31.227  31.638  26.060  1.00  0.00     0.163 HD
ATOM     30  O   UNL A   1      32.256  33.233  27.551  1.00  0.00    -0.269 OA
BRANCH  28  31
ATOM     31  C   UNL A   1      34.132  31.823  27.710  1.00  0.00     0.039 A 
ATOM     32  C   UNL A   1      35.085  32.826  27.920  1.00  0.00     0.014 A 
ATOM     33  C   UNL A   1      34.440  30.501  28.026  1.00  0.00     0.014 A 
ATOM     34  C   UNL A   1      36.296  32.514  28.552  1.00  0.00     0.010 A 
ATOM     35  C   UNL A   1      35.581  30.219  28.766  1.00  0.00     0.010 A 
ATOM     36  C   UNL A   1      36.528  31.219  29.041  1.00  0.00    -0.014 A 
BRANCH  36  37
ATOM     37  C   UNL A   1      37.746  30.850  29.816  1.00  0.00     0.031 A 
ATOM     38  C   UNL A   1      38.763  29.926  29.190  1.00  0.00     0.074 A 
ATOM     39  C   UNL A   1      37.880  31.222  31.105  1.00  0.00     0.049 A 
ATOM     40  N   UNL A   1      39.744  29.266  29.747  1.00  0.00    -0.248 NA
ATOM     41  C   UNL A   1      38.599  29.661  27.753  1.00  0.00     0.031 C 
ATOM     42  C   UNL A   1      36.951  32.075  31.848  1.00  0.00     0.029 A 
ATOM     43  N   UNL A   1      38.847  30.909  32.030  1.00  0.00    -0.354 N 
ATOM     44  C   UNL A   1      40.274  28.462  28.740  1.00  0.00     0.074 A 
ATOM     45  C   UNL A   1      39.452  28.668  27.568  1.00  0.00     0.031 C 
ATOM     46  C   UNL A   1      37.407  32.241  33.100  1.00  0.00     0.029 A 
ATOM     47  C   UNL A   1      38.626  31.460  33.272  1.00  0.00     0.049 A 
ATOM     48  H   UNL A   1      39.626  30.343  31.824  1.00  0.00     0.167 HD
ATOM     49  C   UNL A   1      41.361  27.649  28.781  1.00  0.00     0.034 A 
ATOM     50  C   UNL A   1      39.318  31.334  34.423  1.00  0.00     0.034 A 
ATOM     51  C   UNL A   1      42.202  27.509  29.944  1.00  0.00     0.049 A 
ATOM     52  C   UNL A   1      40.545  30.457  34.442  1.00  0.00     0.074 A 
ATOM     53  C   UNL A   1      43.365  26.774  30.086  1.00  0.00     0.029 A 
ATOM     54  N   UNL A   1      41.977  28.135  31.164  1.00  0.00    -0.354 N 
ATOM     55  N   UNL A   1      41.044  29.715  33.480  1.00  0.00    -0.248 NA
ATOM     56  C   UNL A   1      41.304  30.406  35.697  1.00  0.00     0.031 C 
ATOM     57  C   UNL A   1      43.817  26.916  31.404  1.00  0.00     0.029 A 
ATOM     58  C   UNL A   1      42.973  27.794  32.066  1.00  0.00     0.049 A 
ATOM     59  H   UNL A   1      41.219  28.733  31.361  1.00  0.00     0.167 HD
ATOM     60  C   UNL A   1      42.198  29.140  34.005  1.00  0.00     0.074 A 
ATOM     61  C   UNL A   1      42.320  29.623  35.365  1.00  0.00     0.031 C 
ATOM     62  C   UNL A   1      43.081  28.295  33.416  1.00  0.00     0.034 A 
BRANCH  49  63
ATOM     63  C   UNL A   1      41.677  26.850  27.537  1.00  0.00     0.023 A 
ATOM     64  C   UNL A   1      41.355  25.484  27.437  1.00  0.00     0.031 A 
ATOM     65  C   UNL A   1      42.366  27.439  26.463  1.00  0.00     0.131 A 
ATOM     66  C   UNL A   1      41.824  24.732  26.350  1.00  0.00     0.055 A 
ATOM     67  C   UNL A   1      42.739  26.705  25.335  1.00  0.00     0.041 A 
ATOM     68  F   UNL A   1      42.718  28.735  26.503  1.00  0.00    -0.206 F 
ATOM     69  C   UNL A   1      42.489  25.338  25.283  1.00  0.00     0.022 A 
BRANCH  66  70
ATOM     70  S   UNL A   1      41.716  22.923  26.448  1.00  0.00     0.124 S 
ATOM     71  O   UNL A   1      42.348  22.524  25.193  1.00  0.00    -0.237 OA
ATOM     72  O   UNL A   1      42.466  22.628  27.664  1.00  0.00    -0.237 OA
ATOM     73  O   UNL A   1      40.280  22.669  26.522  1.00  0.00    -0.744 OA
ENDBRANCH  66  70
ENDBRANCH  49  63
BRANCH  50  74
ATOM     74  C   UNL A   1      38.879  32.056  35.652  1.00  0.00     0.023 A 
ATOM     75  C   UNL A   1      38.232  31.371  36.693  1.00  0.00     0.031 A 
ATOM     76  C   UNL A   1      39.073  33.441  35.795  1.00  0.00     0.131 A 
ATOM     77  C   UNL A   1      37.763  32.076  37.812  1.00  0.00     0.055 A 
ATOM     78  C   UNL A   1      38.648  34.131  36.933  1.00  0.00     0.041 A 
ATOM     79  F   UNL A   1      39.696  34.142  34.834  1.00  0.00    -0.206 F 
ATOM     80  C   UNL A   1      37.979  33.450  37.945  1.00  0.00     0.022 A 
BRANCH  77  81
ATOM     81  S   UNL A   1      36.805  31.180  39.063  1.00  0.00     0.124 S 
ATOM     82  O   UNL A   1      36.658  29.868  38.442  1.00  0.00    -0.237 OA
ATOM     83  O   UNL A   1      37.686  31.246  40.224  1.00  0.00    -0.237 OA
ATOM     84  O   UNL A   1      35.574  31.961  39.173  1.00  0.00    -0.744 OA
ENDBRANCH  77  81
ENDBRANCH  50  74
BRANCH  62  85
ATOM     85  C   UNL A   1      44.293  27.899  34.218  1.00  0.00     0.023 A 
ATOM     86  C   UNL A   1      44.319  26.736  35.004  1.00  0.00     0.031 A 
ATOM     87  C   UNL A   1      45.447  28.704  34.183  1.00  0.00     0.131 A 
ATOM     88  C   UNL A   1      45.460  26.431  35.760  1.00  0.00     0.055 A 
ATOM     89  C   UNL A   1      46.598  28.368  34.895  1.00  0.00     0.041 A 
ATOM     90  F   UNL A   1      45.474  29.826  33.446  1.00  0.00    -0.206 F 
ATOM     91  C   UNL A   1      46.605  27.231  35.698  1.00  0.00     0.022 A 
BRANCH  88  92
ATOM     92  S   UNL A   1      45.407  25.009  36.884  1.00  0.00     0.124 S 
ATOM     93  O   UNL A   1      46.018  23.958  36.076  1.00  0.00    -0.237 OA
ATOM     94  O   UNL A   1      46.194  25.479  38.020  1.00  0.00    -0.237 OA
ATOM     95  O   UNL A   1      43.980  24.834  37.151  1.00  0.00    -0.744 OA
ENDBRANCH  88  92
ENDBRANCH  62  85
ENDBRANCH  36  37
ENDBRANCH  28  31
ENDBRANCH  26  27
ENDBRANCH   1  26
TORSDOF 16
ENDMDL
MODEL 2
REMARK VINA RESULT:     -12.9      1.515      7.552
REMARK SMILES O=C(NCCCNC(=O)c1ccc(-c2c3nc(c(-c4cc(S(=O)(=O)[O-])ccc4F)c4ccc([nH]4)c(-c4cc(S(=O)(=O)[O-])ccc4F)c4nc(c(-c5cc(S(=O)(=O)[O-])ccc5F)c5ccc2[nH]5)C=C4)C=C3)cc1)C1=Cc2cc(OC(F)(F)F)ccc2O[C@@H]1C(F)(F)F
REMARK SMILES IDX 5 1 4 2 3 3 1 4 2 5 73 7 74 8 87 9 75 10 86 11 76 12 85 13
REMARK SMILES IDX 77 14 84 15 83 16 88 17 89 18 90 19 91 20 78 21 79 22 80 23
REMARK SMILES IDX 81 24 82 25 6 26 7 27 8 28 9 30 10 31 11 32 72 33 12 34
REMARK SMILES IDX 71 35 13 36 14 37 15 38 65 39 16 40 70 41 64 42 66 43 17 44
REMARK SMILES IDX 69 45 63 46 62 47 18 49 50 50 30 51 49 52 31 53 34 54 48 55
REMARK SMILES IDX 67 56 32 57 33 58 47 60 68 61 35 62 19 63 20 64 28 65 21 66
REMARK SMILES IDX 27 67 29 68 26 69 22 70 23 71 24 72 25 73 51 74 52 75 60 76
REMARK SMILES IDX 53 77 59 78 61 79 58 80 54 81 55 82 56 83 57 84 36 85 37 86
REMARK SMILES IDX 45 87 38 88 44 89 46 90 43 91 39 92 40 93 41 94 42 95
REMARK H PARENT 3 6 7 29 66 48 34 59
REMARK Flexibility Score: inf
ROOT
ATOM      1  C   UNL A   1      31.513  29.005  26.380  1.00  0.00     0.042 C 
ENDROOT
BRANCH   1   2
ATOM      2  C   UNL A   1      32.033  27.573  26.373  1.00  0.00     0.118 C 
BRANCH   2   3
ATOM      3  N   UNL A   1      31.055  26.604  26.876  1.00  0.00    -0.352 N 
ATOM      4  O   UNL A   1      29.689  24.792  26.778  1.00  0.00    -0.270 OA
ATOM      5  C   UNL A   1      30.288  25.688  26.199  1.00  0.00     0.251 C 
ATOM      6  H   UNL A   1      30.929  26.611  27.852  1.00  0.00     0.163 HD
BRANCH   5   7
ATOM      7  C   UNL A   1      30.274  25.789  24.730  1.00  0.00     0.067 C 
ATOM      8  C   UNL A   1      29.235  26.435  24.186  1.00  0.00     0.025 C 
ATOM      9  C   UNL A   1      31.570  25.557  24.018  1.00  0.00     0.314 C 
ATOM     10  C   UNL A   1      29.629  27.411  23.167  1.00  0.00     0.021 A 
ATOM     11  O   UNL A   1      31.973  26.689  23.208  1.00  0.00    -0.475 OA
ATOM     12  C   UNL A   1      28.722  28.434  22.874  1.00  0.00     0.058 A 
ATOM     13  C   UNL A   1      30.989  27.580  22.858  1.00  0.00     0.128 A 
ATOM     14  C   UNL A   1      29.179  29.674  22.422  1.00  0.00     0.130 A 
ATOM     15  C   UNL A   1      31.436  28.796  22.348  1.00  0.00     0.051 A 
ATOM     16  C   UNL A   1      30.540  29.855  22.171  1.00  0.00     0.050 A 
BRANCH   9  17
ATOM     17  C   UNL A   1      31.529  24.272  23.176  1.00  0.00     0.429 C 
ATOM     18  F   UNL A   1      31.862  24.527  21.886  1.00  0.00    -0.167 F 
ATOM     19  F   UNL A   1      32.404  23.342  23.624  1.00  0.00    -0.167 F 
ATOM     20  F   UNL A   1      30.302  23.698  23.164  1.00  0.00    -0.167 F 
ENDBRANCH   9  17
BRANCH  14  21
ATOM     21  O   UNL A   1      28.203  30.621  22.312  1.00  0.00    -0.406 OA
BRANCH  21  22
ATOM     22  C   UNL A   1      28.128  31.606  23.331  1.00  0.00     0.573 C 
ATOM     23  F   UNL A   1      26.920  31.591  23.930  1.00  0.00    -0.132 F 
ATOM     24  F   UNL A   1      29.097  31.421  24.251  1.00  0.00    -0.132 F 
ATOM     25  F   UNL A   1      28.309  32.820  22.770  1.00  0.00    -0.132 F 
ENDBRANCH  21  22
ENDBRANCH  14  21
ENDBRANCH   5   7
ENDBRANCH   2   3
ENDBRANCH   1   2
BRANCH   1  26
ATOM     26  C   UNL A   1      32.561  30.004  25.902  1.00  0.00     0.118 C 
BRANCH  26  27
ATOM     27  N   UNL A   1      32.376  31.357  26.411  1.00  0.00    -0.352 N 
ATOM     28  C   UNL A   1      33.181  32.105  27.256  1.00  0.00     0.251 C 
ATOM     29  H   UNL A   1      31.557  31.809  26.107  1.00  0.00     0.163 HD
ATOM     30  O   UNL A   1      32.810  33.209  27.621  1.00  0.00    -0.269 OA
BRANCH  28  31
ATOM     31  C   UNL A   1      34.461  31.538  27.746  1.00  0.00     0.039 A 
ATOM     32  C   UNL A   1      35.537  32.393  28.009  1.00  0.00     0.014 A 
ATOM     33  C   UNL A   1      34.586  30.173  27.997  1.00  0.00     0.014 A 
ATOM     34  C   UNL A   1      36.689  31.891  28.630  1.00  0.00     0.010 A 
ATOM     35  C   UNL A   1      35.671  29.705  28.728  1.00  0.00     0.010 A 
ATOM     36  C   UNL A   1      36.740  30.554  29.055  1.00  0.00    -0.014 A 
BRANCH  36  37
ATOM     37  C   UNL A   1      37.889  29.988  29.817  1.00  0.00     0.031 A 
ATOM     38  C   UNL A   1      38.122  30.439  31.238  1.00  0.00     0.074 A 
ATOM     39  C   UNL A   1      38.789  29.187  29.210  1.00  0.00     0.049 A 
ATOM     40  N   UNL A   1      39.178  30.297  31.996  1.00  0.00    -0.248 NA
ATOM     41  C   UNL A   1      37.039  31.218  31.856  1.00  0.00     0.031 C 
ATOM     42  C   UNL A   1      38.710  28.710  27.828  1.00  0.00     0.029 A 
ATOM     43  N   UNL A   1      39.964  28.649  29.676  1.00  0.00    -0.354 N 
ATOM     44  C   UNL A   1      38.908  31.021  33.155  1.00  0.00     0.074 A 
ATOM     45  C   UNL A   1      37.624  31.657  32.958  1.00  0.00     0.031 C 
ATOM     46  C   UNL A   1      39.771  27.928  27.569  1.00  0.00     0.029 A 
ATOM     47  C   UNL A   1      40.639  27.895  28.741  1.00  0.00     0.049 A 
ATOM     48  H   UNL A   1      40.293  28.789  30.593  1.00  0.00     0.167 HD
ATOM     49  C   UNL A   1      39.648  31.123  34.288  1.00  0.00     0.034 A 
ATOM     50  C   UNL A   1      41.828  27.266  28.816  1.00  0.00     0.034 A 
ATOM     51  C   UNL A   1      40.896  30.427  34.486  1.00  0.00     0.049 A 
ATOM     52  C   UNL A   1      42.621  27.358  30.095  1.00  0.00     0.074 A 
ATOM     53  C   UNL A   1      41.700  30.396  35.611  1.00  0.00     0.029 A 
ATOM     54  N   UNL A   1      41.513  29.624  33.535  1.00  0.00    -0.354 N 
ATOM     55  N   UNL A   1      42.348  28.033  31.189  1.00  0.00    -0.248 NA
ATOM     56  C   UNL A   1      43.877  26.601  30.154  1.00  0.00     0.031 C 
ATOM     57  C   UNL A   1      42.825  29.613  35.325  1.00  0.00     0.029 A 
ATOM     58  C   UNL A   1      42.691  29.101  34.044  1.00  0.00     0.049 A 
ATOM     59  H   UNL A   1      41.165  29.451  32.630  1.00  0.00     0.167 HD
ATOM     60  C   UNL A   1      43.381  27.748  32.078  1.00  0.00     0.074 A 
ATOM     61  C   UNL A   1      44.279  26.840  31.394  1.00  0.00     0.031 C 
ATOM     62  C   UNL A   1      43.568  28.190  33.348  1.00  0.00     0.034 A 
BRANCH  49  63
ATOM     63  C   UNL A   1      39.124  32.029  35.379  1.00  0.00     0.023 A 
ATOM     64  C   UNL A   1      39.509  33.379  35.465  1.00  0.00     0.031 A 
ATOM     65  C   UNL A   1      38.283  31.525  36.387  1.00  0.00     0.131 A 
ATOM     66  C   UNL A   1      39.153  34.141  36.588  1.00  0.00     0.055 A 
ATOM     67  C   UNL A   1      37.847  32.320  37.449  1.00  0.00     0.041 A 
ATOM     68  F   UNL A   1      37.892  30.240  36.374  1.00  0.00    -0.206 F 
ATOM     69  C   UNL A   1      38.300  33.630  37.567  1.00  0.00     0.022 A 
BRANCH  66  70
ATOM     70  S   UNL A   1      39.977  35.738  36.838  1.00  0.00     0.124 S 
ATOM     71  O   UNL A   1      41.370  35.327  36.992  1.00  0.00    -0.237 OA
ATOM     72  O   UNL A   1      39.654  36.456  35.611  1.00  0.00    -0.237 OA
ATOM     73  O   UNL A   1      39.351  36.260  38.051  1.00  0.00    -0.744 OA
ENDBRANCH  66  70
ENDBRANCH  49  63
BRANCH  50  74
ATOM     74  C   UNL A   1      42.346  26.487  27.654  1.00  0.00     0.023 A 
ATOM     75  C   UNL A   1      42.034  25.126  27.508  1.00  0.00     0.031 A 
ATOM     76  C   UNL A   1      43.180  27.080  26.690  1.00  0.00     0.131 A 
ATOM     77  C   UNL A   1      42.585  24.390  26.448  1.00  0.00     0.055 A 
ATOM     78  C   UNL A   1      43.687  26.355  25.609  1.00  0.00     0.041 A 
ATOM     79  F   UNL A   1      43.500  28.381  26.777  1.00  0.00    -0.206 F 
ATOM     80  C   UNL A   1      43.399  24.999  25.490  1.00  0.00     0.022 A 
BRANCH  77  81
ATOM     81  S   UNL A   1      42.276  22.605  26.378  1.00  0.00     0.124 S 
ATOM     82  O   UNL A   1      42.651  22.292  25.004  1.00  0.00    -0.237 OA
ATOM     83  O   UNL A   1      43.167  22.102  27.417  1.00  0.00    -0.237 OA
ATOM     84  O   UNL A   1      40.849  22.495  26.677  1.00  0.00    -0.744 OA
ENDBRANCH  77  81
ENDBRANCH  50  74
BRANCH  62  85
ATOM     85  C   UNL A   1      44.751  27.638  34.099  1.00  0.00     0.023 A 
ATOM     86  C   UNL A   1      44.658  26.480  34.888  1.00  0.00     0.031 A 
ATOM     87  C   UNL A   1      45.997  28.286  34.014  1.00  0.00     0.131 A 
ATOM     88  C   UNL A   1      45.781  26.027  35.596  1.00  0.00     0.055 A 
ATOM     89  C   UNL A   1      47.124  27.802  34.677  1.00  0.00     0.041 A 
ATOM     90  F   UNL A   1      46.139  29.397  33.272  1.00  0.00    -0.206 F 
ATOM     91  C   UNL A   1      47.017  26.672  35.483  1.00  0.00     0.022 A 
BRANCH  88  92
ATOM     92  S   UNL A   1      45.591  24.622  36.726  1.00  0.00     0.124 S 
ATOM     93  O   UNL A   1      46.741  24.785  37.610  1.00  0.00    -0.237 OA
ATOM     94  O   UNL A   1      44.285  24.876  37.325  1.00  0.00    -0.237 OA
ATOM     95  O   UNL A   1      45.650  23.459  35.841  1.00  0.00    -0.744 OA
ENDBRANCH  88  92
ENDBRANCH  62  85
ENDBRANCH  36  37
ENDBRANCH  28  31
ENDBRANCH  26  27
ENDBRANCH   1  26
TORSDOF 16
ENDMDL
MODEL 3
REMARK VINA RESULT:     -12.6      5.505      8.615
REMARK SMILES O=C(NCCCNC(=O)c1ccc(-c2c3nc(c(-c4cc(S(=O)(=O)[O-])ccc4F)c4ccc([nH]4)c(-c4cc(S(=O)(=O)[O-])ccc4F)c4nc(c(-c5cc(S(=O)(=O)[O-])ccc5F)c5ccc2[nH]5)C=C4)C=C3)cc1)C1=Cc2cc(OC(F)(F)F)ccc2O[C@@H]1C(F)(F)F
REMARK SMILES IDX 5 1 4 2 3 3 1 4 2 5 73 7 74 8 87 9 75 10 86 11 76 12 85 13
REMARK SMILES IDX 77 14 84 15 83 16 88 17 89 18 90 19 91 20 78 21 79 22 80 23
REMARK SMILES IDX 81 24 82 25 6 26 7 27 8 28 9 30 10 31 11 32 72 33 12 34
REMARK SMILES IDX 71 35 13 36 14 37 15 38 65 39 16 40 70 41 64 42 66 43 17 44
REMARK SMILES IDX 69 45 63 46 62 47 18 49 50 50 30 51 49 52 31 53 34 54 48 55
REMARK SMILES IDX 67 56 32 57 33 58 47 60 68 61 35 62 19 63 20 64 28 65 21 66
REMARK SMILES IDX 27 67 29 68 26 69 22 70 23 71 24 72 25 73 51 74 52 75 60 76
REMARK SMILES IDX 53 77 59 78 61 79 58 80 54 81 55 82 56 83 57 84 36 85 37 86
REMARK SMILES IDX 45 87 38 88 44 89 46 90 43 91 39 92 40 93 41 94 42 95
REMARK H PARENT 3 6 7 29 66 48 34 59
REMARK Flexibility Score: inf
ROOT
ATOM      1  C   UNL A   1      36.305  22.078  24.156  1.00  0.00     0.042 C 
ENDROOT
BRANCH   1   2
ATOM      2  C   UNL A   1      35.449  23.339  24.125  1.00  0.00     0.118 C 
BRANCH   2   3
ATOM      3  N   UNL A   1      34.939  23.654  22.788  1.00  0.00    -0.352 N 
ATOM      4  O   UNL A   1      33.356  24.130  21.229  1.00  0.00    -0.270 OA
ATOM      5  C   UNL A   1      33.656  23.619  22.299  1.00  0.00     0.251 C 
ATOM      6  H   UNL A   1      35.623  23.935  22.138  1.00  0.00     0.163 HD
BRANCH   5   7
ATOM      7  C   UNL A   1      32.635  22.996  23.159  1.00  0.00     0.067 C 
ATOM      8  C   UNL A   1      32.299  21.733  22.867  1.00  0.00     0.025 C 
ATOM      9  C   UNL A   1      32.379  23.635  24.487  1.00  0.00     0.314 C 
ATOM     10  C   UNL A   1      32.264  20.857  24.041  1.00  0.00     0.021 A 
ATOM     11  O   UNL A   1      32.594  22.726  25.596  1.00  0.00    -0.475 OA
ATOM     12  C   UNL A   1      32.381  19.481  23.819  1.00  0.00     0.058 A 
ATOM     13  C   UNL A   1      32.565  21.384  25.308  1.00  0.00     0.128 A 
ATOM     14  C   UNL A   1      32.940  18.654  24.796  1.00  0.00     0.130 A 
ATOM     15  C   UNL A   1      33.064  20.548  26.303  1.00  0.00     0.051 A 
ATOM     16  C   UNL A   1      33.292  19.194  26.034  1.00  0.00     0.050 A 
BRANCH   9  17
ATOM     17  C   UNL A   1      30.974  24.253  24.554  1.00  0.00     0.429 C 
ATOM     18  F   UNL A   1      31.043  25.595  24.750  1.00  0.00    -0.167 F 
ATOM     19  F   UNL A   1      30.280  24.067  23.407  1.00  0.00    -0.167 F 
ATOM     20  F   UNL A   1      30.229  23.742  25.563  1.00  0.00    -0.167 F 
ENDBRANCH   9  17
BRANCH  14  21
ATOM     21  O   UNL A   1      33.124  17.364  24.394  1.00  0.00    -0.406 OA
BRANCH  21  22
ATOM     22  C   UNL A   1      34.403  17.011  23.890  1.00  0.00     0.573 C 
ATOM     23  F   UNL A   1      34.817  15.834  24.403  1.00  0.00    -0.132 F 
ATOM     24  F   UNL A   1      34.387  16.942  22.542  1.00  0.00    -0.132 F 
ATOM     25  F   UNL A   1      35.286  17.966  24.250  1.00  0.00    -0.132 F 
ENDBRANCH  21  22
ENDBRANCH  14  21
ENDBRANCH   5   7
ENDBRANCH   2   3
ENDBRANCH   1   2
BRANCH   1  26
ATOM     26  C   UNL A   1      36.733  21.703  25.570  1.00  0.00     0.118 C 
BRANCH  26  27
ATOM     27  N   UNL A   1      37.857  20.778  25.632  1.00  0.00    -0.352 N 
ATOM     28  C   UNL A   1      39.164  20.996  26.040  1.00  0.00     0.251 C 
ATOM     29  H   UNL A   1      37.658  19.859  25.342  1.00  0.00     0.163 HD
ATOM     30  O   UNL A   1      39.981  20.093  25.951  1.00  0.00    -0.269 OA
BRANCH  28  31
ATOM     31  C   UNL A   1      39.568  22.334  26.533  1.00  0.00     0.039 A 
ATOM     32  C   UNL A   1      40.683  22.452  27.371  1.00  0.00     0.014 A 
ATOM     33  C   UNL A   1      38.882  23.478  26.131  1.00  0.00     0.014 A 
ATOM     34  C   UNL A   1      41.171  23.722  27.705  1.00  0.00     0.010 A 
ATOM     35  C   UNL A   1      39.444  24.730  26.354  1.00  0.00     0.010 A 
ATOM     36  C   UNL A   1      40.595  24.873  27.144  1.00  0.00    -0.014 A 
BRANCH  36  37
ATOM     37  C   UNL A   1      41.134  26.244  27.372  1.00  0.00     0.031 A 
ATOM     38  C   UNL A   1      42.491  26.601  26.815  1.00  0.00     0.074 A 
ATOM     39  C   UNL A   1      40.487  27.114  28.174  1.00  0.00     0.049 A 
ATOM     40  N   UNL A   1      43.269  27.613  27.097  1.00  0.00    -0.248 NA
ATOM     41  C   UNL A   1      43.073  25.643  25.864  1.00  0.00     0.031 C 
ATOM     42  C   UNL A   1      39.191  26.882  28.813  1.00  0.00     0.029 A 
ATOM     43  N   UNL A   1      40.846  28.367  28.607  1.00  0.00    -0.354 N 
ATOM     44  C   UNL A   1      44.455  27.379  26.406  1.00  0.00     0.074 A 
ATOM     45  C   UNL A   1      44.312  26.094  25.757  1.00  0.00     0.031 C 
ATOM     46  C   UNL A   1      38.850  27.966  29.531  1.00  0.00     0.029 A 
ATOM     47  C   UNL A   1      39.928  28.946  29.454  1.00  0.00     0.049 A 
ATOM     48  H   UNL A   1      41.682  28.811  28.337  1.00  0.00     0.167 HD
ATOM     49  C   UNL A   1      45.550  28.174  26.298  1.00  0.00     0.034 A 
ATOM     50  C   UNL A   1      39.960  30.124  30.109  1.00  0.00     0.034 A 
ATOM     51  C   UNL A   1      45.644  29.480  26.902  1.00  0.00     0.049 A 
ATOM     52  C   UNL A   1      41.168  31.013  29.949  1.00  0.00     0.074 A 
ATOM     53  C   UNL A   1      46.669  30.405  26.808  1.00  0.00     0.029 A 
ATOM     54  N   UNL A   1      44.664  30.055  27.702  1.00  0.00    -0.354 N 
ATOM     55  N   UNL A   1      42.276  30.787  29.280  1.00  0.00    -0.248 NA
ATOM     56  C   UNL A   1      41.128  32.315  30.625  1.00  0.00     0.031 C 
ATOM     57  C   UNL A   1      46.330  31.517  27.588  1.00  0.00     0.029 A 
ATOM     58  C   UNL A   1      45.064  31.315  28.116  1.00  0.00     0.049 A 
ATOM     59  H   UNL A   1      43.809  29.628  27.942  1.00  0.00     0.167 HD
ATOM     60  C   UNL A   1      43.046  31.938  29.425  1.00  0.00     0.074 A 
ATOM     61  C   UNL A   1      42.276  32.853  30.242  1.00  0.00     0.031 C 
ATOM     62  C   UNL A   1      44.276  32.216  28.923  1.00  0.00     0.034 A 
BRANCH  49  63
ATOM     63  C   UNL A   1      46.724  27.635  25.512  1.00  0.00     0.023 A 
ATOM     64  C   UNL A   1      47.019  28.099  24.218  1.00  0.00     0.031 A 
ATOM     65  C   UNL A   1      47.519  26.599  26.031  1.00  0.00     0.131 A 
ATOM     66  C   UNL A   1      47.997  27.453  23.447  1.00  0.00     0.055 A 
ATOM     67  C   UNL A   1      48.562  26.030  25.296  1.00  0.00     0.041 A 
ATOM     68  F   UNL A   1      47.280  26.099  27.255  1.00  0.00    -0.206 F 
ATOM     69  C   UNL A   1      48.791  26.440  23.986  1.00  0.00     0.022 A 
BRANCH  66  70
ATOM     70  S   UNL A   1      48.080  27.830  21.674  1.00  0.00     0.124 S 
ATOM     71  O   UNL A   1      48.283  26.501  21.102  1.00  0.00    -0.237 OA
ATOM     72  O   UNL A   1      46.782  28.444  21.420  1.00  0.00    -0.237 OA
ATOM     73  O   UNL A   1      49.228  28.728  21.568  1.00  0.00    -0.744 OA
ENDBRANCH  66  70
ENDBRANCH  49  63
BRANCH  50  74
ATOM     74  C   UNL A   1      38.816  30.542  30.970  1.00  0.00     0.023 A 
ATOM     75  C   UNL A   1      37.699  31.188  30.415  1.00  0.00     0.031 A 
ATOM     76  C   UNL A   1      38.831  30.328  32.360  1.00  0.00     0.131 A 
ATOM     77  C   UNL A   1      36.663  31.637  31.248  1.00  0.00     0.055 A 
ATOM     78  C   UNL A   1      37.774  30.734  33.179  1.00  0.00     0.041 A 
ATOM     79  F   UNL A   1      39.870  29.706  32.939  1.00  0.00    -0.206 F 
ATOM     80  C   UNL A   1      36.687  31.403  32.625  1.00  0.00     0.022 A 
BRANCH  77  81
ATOM     81  S   UNL A   1      35.311  32.595  30.511  1.00  0.00     0.124 S 
ATOM     82  O   UNL A   1      35.980  33.849  30.183  1.00  0.00    -0.237 OA
ATOM     83  O   UNL A   1      34.928  31.757  29.380  1.00  0.00    -0.237 OA
ATOM     84  O   UNL A   1      34.325  32.675  31.587  1.00  0.00    -0.744 OA
ENDBRANCH  77  81
ENDBRANCH  50  74
BRANCH  62  85
ATOM     85  C   UNL A   1      44.829  33.592  29.186  1.00  0.00     0.023 A 
ATOM     86  C   UNL A   1      44.516  34.690  28.367  1.00  0.00     0.031 A 
ATOM     87  C   UNL A   1      45.681  33.806  30.286  1.00  0.00     0.131 A 
ATOM     88  C   UNL A   1      45.085  35.943  28.634  1.00  0.00     0.055 A 
ATOM     89  C   UNL A   1      46.202  35.066  30.578  1.00  0.00     0.041 A 
ATOM     90  F   UNL A   1      46.011  32.790  31.100  1.00  0.00    -0.206 F 
ATOM     91  C   UNL A   1      45.913  36.141  29.743  1.00  0.00     0.022 A 
BRANCH  88  92
ATOM     92  S   UNL A   1      44.786  37.302  27.471  1.00  0.00     0.124 S 
ATOM     93  O   UNL A   1      44.669  38.449  28.366  1.00  0.00    -0.237 OA
ATOM     94  O   UNL A   1      45.981  37.266  26.634  1.00  0.00    -0.237 OA
ATOM     95  O   UNL A   1      43.548  36.913  26.798  1.00  0.00    -0.744 OA
ENDBRANCH  88  92
ENDBRANCH  62  85
ENDBRANCH  36  37
ENDBRANCH  28  31
ENDBRANCH  26  27
ENDBRANCH   1  26
TORSDOF 16
ENDMDL
