MODEL 1
REMARK VINA RESULT:     -12.1      0.000      0.000
REMARK SMILES COc1ccc(C)cc1[C@@H](C)[C@@](O)(C(=O)NCCCNC(=O)c1ccc(-c2c3nc(c(-c4cc(S(=O)(=O)[O-])ccc4F)c4ccc([nH]4)c(-c4cc(S(=O)(=O)[O-])ccc4F)c4nc(c(-c5cc(S(=O)(=O)[O-])ccc5F)c5ccc2[nH]5)C=C4)C=C3)cc1)C(C)C
REMARK SMILES IDX 18 1 17 2 16 3 14 4 15 5 12 7 10 8 11 9 9 10 3 11 4 12 5 13
REMARK SMILES IDX 8 14 6 15 7 16 2 17 1 18 13 19 86 21 87 22 88 23 19 24 20 25
REMARK SMILES IDX 21 26 22 28 23 29 24 30 85 31 25 32 84 33 26 34 27 35 28 36
REMARK SMILES IDX 78 37 29 38 83 39 77 40 79 41 30 42 82 43 76 44 75 45 31 47
REMARK SMILES IDX 63 48 43 49 62 50 44 51 47 52 61 53 80 54 45 55 46 56 60 58
REMARK SMILES IDX 81 59 48 60 32 61 33 62 41 63 34 64 40 65 42 66 39 67 35 68
REMARK SMILES IDX 36 69 37 70 38 71 64 72 65 73 73 74 66 75 72 76 74 77 71 78
REMARK SMILES IDX 67 79 68 80 69 81 70 82 49 83 50 84 58 85 51 86 57 87 59 88
REMARK SMILES IDX 56 89 52 90 53 91 54 92 55 93
REMARK H PARENT 16 6 13 20 20 27 79 46 47 57
REMARK Flexibility Score: inf
ROOT
ATOM      1  C   UNL A   1      32.966  30.834  26.903  1.00  0.00     0.042 C 
ENDROOT
BRANCH   1   2
ATOM      2  C   UNL A   1      32.350  29.867  25.897  1.00  0.00     0.117 C 
BRANCH   2   3
ATOM      3  N   UNL A   1      33.233  29.609  24.767  1.00  0.00    -0.354 N 
ATOM      4  C   UNL A   1      33.370  28.570  23.895  1.00  0.00     0.252 C 
ATOM      5  O   UNL A   1      34.247  28.712  23.032  1.00  0.00    -0.272 OA
ATOM      6  H   UNL A   1      33.866  30.343  24.596  1.00  0.00     0.163 HD
BRANCH   4   7
ATOM      7  C   UNL A   1      32.557  27.216  23.995  1.00  0.00     0.152 C 
BRANCH   7   8
ATOM      8  C   UNL A   1      33.486  26.047  23.470  1.00  0.00     0.062 C 
ATOM      9  C   UNL A   1      33.095  25.385  22.142  1.00  0.00     0.016 C 
BRANCH   8  10
ATOM     10  C   UNL A   1      33.900  25.011  24.520  1.00  0.00     0.001 A 
ATOM     11  C   UNL A   1      32.974  24.088  25.042  1.00  0.00     0.122 A 
ATOM     12  C   UNL A   1      33.387  23.047  25.879  1.00  0.00     0.047 A 
ATOM     13  C   UNL A   1      34.728  22.925  26.235  1.00  0.00     0.007 A 
ATOM     14  C   UNL A   1      35.228  24.914  24.961  1.00  0.00     0.011 A 
ATOM     15  C   UNL A   1      35.658  23.861  25.783  1.00  0.00    -0.051 A 
ATOM     16  C   UNL A   1      37.123  23.693  26.057  1.00  0.00     0.044 C 
BRANCH  11  17
ATOM     17  O   UNL A   1      31.663  24.158  24.639  1.00  0.00    -0.496 OA
ATOM     18  C   UNL A   1      30.775  23.715  25.667  1.00  0.00     0.278 C 
ENDBRANCH  11  17
ENDBRANCH   8  10
ENDBRANCH   7   8
BRANCH   7  19
ATOM     19  O   UNL A   1      32.234  26.976  25.383  1.00  0.00    -0.379 OA
ATOM     20  H   UNL A   1      31.982  27.811  25.806  1.00  0.00     0.212 HD
ENDBRANCH   7  19
BRANCH   7  21
ATOM     21  C   UNL A   1      31.154  27.458  23.304  1.00  0.00     0.025 C 
ATOM     22  C   UNL A   1      29.900  27.157  24.130  1.00  0.00     0.011 C 
ATOM     23  C   UNL A   1      31.013  28.820  22.598  1.00  0.00     0.011 C 
ENDBRANCH   7  21
ENDBRANCH   4   7
ENDBRANCH   2   3
ENDBRANCH   1   2
BRANCH   1  24
ATOM     24  C   UNL A   1      34.261  30.320  27.520  1.00  0.00     0.118 C 
BRANCH  24  25
ATOM     25  N   UNL A   1      34.856  31.259  28.467  1.00  0.00    -0.352 N 
ATOM     26  C   UNL A   1      36.006  31.119  29.233  1.00  0.00     0.251 C 
ATOM     27  H   UNL A   1      34.374  32.110  28.579  1.00  0.00     0.163 HD
ATOM     28  O   UNL A   1      36.361  31.977  30.012  1.00  0.00    -0.269 OA
BRANCH  26  29
ATOM     29  C   UNL A   1      36.859  29.932  28.990  1.00  0.00     0.039 A 
ATOM     30  C   UNL A   1      37.054  29.050  30.058  1.00  0.00     0.014 A 
ATOM     31  C   UNL A   1      37.631  29.837  27.837  1.00  0.00     0.014 A 
ATOM     32  C   UNL A   1      38.178  28.227  30.063  1.00  0.00     0.010 A 
ATOM     33  C   UNL A   1      38.801  29.108  27.892  1.00  0.00     0.010 A 
ATOM     34  C   UNL A   1      39.104  28.348  29.028  1.00  0.00    -0.014 A 
BRANCH  34  35
ATOM     35  C   UNL A   1      40.465  27.830  29.106  1.00  0.00     0.031 A 
ATOM     36  C   UNL A   1      40.782  26.458  28.662  1.00  0.00     0.074 A 
ATOM     37  C   UNL A   1      41.469  28.647  29.497  1.00  0.00     0.049 A 
ATOM     38  N   UNL A   1      41.842  25.808  29.006  1.00  0.00    -0.248 NA
ATOM     39  C   UNL A   1      39.888  25.686  27.808  1.00  0.00     0.031 C 
ATOM     40  C   UNL A   1      42.905  28.423  29.358  1.00  0.00     0.029 A 
ATOM     41  N   UNL A   1      41.370  29.747  30.348  1.00  0.00    -0.354 N 
ATOM     42  C   UNL A   1      41.921  24.687  28.216  1.00  0.00     0.074 A 
ATOM     43  C   UNL A   1      40.652  24.626  27.527  1.00  0.00     0.031 C 
ATOM     44  C   UNL A   1      43.546  29.148  30.288  1.00  0.00     0.029 A 
ATOM     45  C   UNL A   1      42.537  29.744  31.142  1.00  0.00     0.049 A 
ATOM     46  H   UNL A   1      40.632  30.397  30.388  1.00  0.00     0.167 HD
ATOM     47  C   UNL A   1      43.096  24.002  28.135  1.00  0.00     0.034 A 
ATOM     48  C   UNL A   1      42.452  29.603  32.498  1.00  0.00     0.034 A 
ATOM     49  C   UNL A   1      44.114  24.546  29.034  1.00  0.00     0.049 A 
ATOM     50  C   UNL A   1      43.145  28.364  33.037  1.00  0.00     0.074 A 
ATOM     51  C   UNL A   1      45.220  25.364  28.876  1.00  0.00     0.029 A 
ATOM     52  N   UNL A   1      43.898  24.460  30.398  1.00  0.00    -0.354 N 
ATOM     53  N   UNL A   1      43.726  27.462  32.293  1.00  0.00    -0.248 NA
ATOM     54  C   UNL A   1      43.165  28.002  34.454  1.00  0.00     0.031 C 
ATOM     55  C   UNL A   1      45.646  25.789  30.171  1.00  0.00     0.029 A 
ATOM     56  C   UNL A   1      44.811  25.212  31.110  1.00  0.00     0.049 A 
ATOM     57  H   UNL A   1      43.181  23.927  30.811  1.00  0.00     0.167 HD
ATOM     58  C   UNL A   1      44.124  26.409  33.073  1.00  0.00     0.074 A 
ATOM     59  C   UNL A   1      43.757  26.796  34.423  1.00  0.00     0.031 C 
ATOM     60  C   UNL A   1      44.683  25.275  32.558  1.00  0.00     0.034 A 
BRANCH  47  61
ATOM     61  C   UNL A   1      43.397  22.990  27.058  1.00  0.00     0.023 A 
ATOM     62  C   UNL A   1      42.788  21.722  27.118  1.00  0.00     0.031 A 
ATOM     63  C   UNL A   1      44.285  23.185  25.983  1.00  0.00     0.131 A 
ATOM     64  C   UNL A   1      43.140  20.695  26.224  1.00  0.00     0.055 A 
ATOM     65  C   UNL A   1      44.692  22.147  25.135  1.00  0.00     0.041 A 
ATOM     66  F   UNL A   1      44.755  24.402  25.672  1.00  0.00    -0.206 F 
ATOM     67  C   UNL A   1      44.128  20.886  25.262  1.00  0.00     0.022 A 
BRANCH  64  68
ATOM     68  S   UNL A   1      42.274  19.106  26.325  1.00  0.00     0.124 S 
ATOM     69  O   UNL A   1      43.074  18.258  25.449  1.00  0.00    -0.237 OA
ATOM     70  O   UNL A   1      42.344  18.811  27.752  1.00  0.00    -0.237 OA
ATOM     71  O   UNL A   1      40.935  19.418  25.826  1.00  0.00    -0.744 OA
ENDBRANCH  64  68
ENDBRANCH  47  61
BRANCH  48  72
ATOM     72  C   UNL A   1      41.220  30.241  33.056  1.00  0.00     0.023 A 
ATOM     73  C   UNL A   1      41.217  31.653  33.141  1.00  0.00     0.031 A 
ATOM     74  C   UNL A   1      39.984  29.584  33.092  1.00  0.00     0.131 A 
ATOM     75  C   UNL A   1      40.014  32.364  33.046  1.00  0.00     0.055 A 
ATOM     76  C   UNL A   1      38.780  30.301  33.103  1.00  0.00     0.041 A 
ATOM     77  F   UNL A   1      39.912  28.249  32.979  1.00  0.00    -0.206 F 
ATOM     78  C   UNL A   1      38.791  31.695  33.028  1.00  0.00     0.022 A 
BRANCH  75  79
ATOM     79  S   UNL A   1      40.091  34.132  32.617  1.00  0.00     0.124 S 
ATOM     80  O   UNL A   1      40.599  34.722  33.849  1.00  0.00    -0.237 OA
ATOM     81  O   UNL A   1      41.003  34.147  31.473  1.00  0.00    -0.237 OA
ATOM     82  O   UNL A   1      38.709  34.467  32.279  1.00  0.00    -0.744 OA
ENDBRANCH  75  79
ENDBRANCH  48  72
BRANCH  60  83
ATOM     83  C   UNL A   1      45.130  24.113  33.404  1.00  0.00     0.023 A 
ATOM     84  C   UNL A   1      46.450  24.000  33.870  1.00  0.00     0.031 A 
ATOM     85  C   UNL A   1      44.264  23.037  33.702  1.00  0.00     0.131 A 
ATOM     86  C   UNL A   1      46.842  22.897  34.647  1.00  0.00     0.055 A 
ATOM     87  C   UNL A   1      44.682  21.901  34.400  1.00  0.00     0.041 A 
ATOM     88  F   UNL A   1      42.966  23.062  33.368  1.00  0.00    -0.206 F 
ATOM     89  C   UNL A   1      45.977  21.831  34.889  1.00  0.00     0.022 A 
BRANCH  86  90
ATOM     90  S   UNL A   1      48.483  22.919  35.414  1.00  0.00     0.124 S 
ATOM     91  O   UNL A   1      49.374  22.990  34.261  1.00  0.00    -0.237 OA
ATOM     92  O   UNL A   1      48.409  24.126  36.234  1.00  0.00    -0.237 OA
ATOM     93  O   UNL A   1      48.531  21.665  36.163  1.00  0.00    -0.744 OA
ENDBRANCH  86  90
ENDBRANCH  60  83
ENDBRANCH  34  35
ENDBRANCH  26  29
ENDBRANCH  24  25
ENDBRANCH   1  24
TORSDOF 18
ENDMDL
MODEL 2
REMARK VINA RESULT:     -12.0      4.033     10.375
REMARK SMILES COc1ccc(C)cc1[C@@H](C)[C@@](O)(C(=O)NCCCNC(=O)c1ccc(-c2c3nc(c(-c4cc(S(=O)(=O)[O-])ccc4F)c4ccc([nH]4)c(-c4cc(S(=O)(=O)[O-])ccc4F)c4nc(c(-c5cc(S(=O)(=O)[O-])ccc5F)c5ccc2[nH]5)C=C4)C=C3)cc1)C(C)C
REMARK SMILES IDX 18 1 17 2 16 3 14 4 15 5 12 7 10 8 11 9 9 10 3 11 4 12 5 13
REMARK SMILES IDX 8 14 6 15 7 16 2 17 1 18 13 19 86 21 87 22 88 23 19 24 20 25
REMARK SMILES IDX 21 26 22 28 23 29 24 30 85 31 25 32 84 33 26 34 27 35 28 36
REMARK SMILES IDX 78 37 29 38 83 39 77 40 79 41 30 42 82 43 76 44 75 45 31 47
REMARK SMILES IDX 63 48 43 49 62 50 44 51 47 52 61 53 80 54 45 55 46 56 60 58
REMARK SMILES IDX 81 59 48 60 32 61 33 62 41 63 34 64 40 65 42 66 39 67 35 68
REMARK SMILES IDX 36 69 37 70 38 71 64 72 65 73 73 74 66 75 72 76 74 77 71 78
REMARK SMILES IDX 67 79 68 80 69 81 70 82 49 83 50 84 58 85 51 86 57 87 59 88
REMARK SMILES IDX 56 89 52 90 53 91 54 92 55 93
REMARK H PARENT 16 6 13 20 20 27 79 46 47 57
REMARK Flexibility Score: inf
ROOT
ATOM      1  C   UNL A   1      38.168  21.458  25.395  1.00  0.00     0.042 C 
ENDROOT
BRANCH   1   2
ATOM      2  C   UNL A   1      36.669  21.455  25.112  1.00  0.00     0.117 C 
BRANCH   2   3
ATOM      3  N   UNL A   1      35.899  22.022  26.210  1.00  0.00    -0.354 N 
ATOM      4  C   UNL A   1      34.732  22.725  26.281  1.00  0.00     0.252 C 
ATOM      5  O   UNL A   1      34.368  23.040  27.422  1.00  0.00    -0.272 OA
ATOM      6  H   UNL A   1      36.307  21.864  27.091  1.00  0.00     0.163 HD
BRANCH   4   7
ATOM      7  C   UNL A   1      33.914  23.211  25.016  1.00  0.00     0.152 C 
BRANCH   7   8
ATOM      8  C   UNL A   1      32.874  24.304  25.498  1.00  0.00     0.062 C 
ATOM      9  C   UNL A   1      31.389  24.020  25.238  1.00  0.00     0.016 C 
BRANCH   8  10
ATOM     10  C   UNL A   1      33.241  25.754  25.165  1.00  0.00     0.001 A 
ATOM     11  C   UNL A   1      33.044  26.281  23.875  1.00  0.00     0.122 A 
ATOM     12  C   UNL A   1      33.231  27.642  23.615  1.00  0.00     0.047 A 
ATOM     13  C   UNL A   1      33.646  28.499  24.632  1.00  0.00     0.007 A 
ATOM     14  C   UNL A   1      33.738  26.622  26.148  1.00  0.00     0.011 A 
ATOM     15  C   UNL A   1      33.908  27.994  25.906  1.00  0.00    -0.051 A 
ATOM     16  C   UNL A   1      34.247  28.906  27.047  1.00  0.00     0.044 C 
BRANCH  11  17
ATOM     17  O   UNL A   1      32.566  25.459  22.884  1.00  0.00    -0.496 OA
ATOM     18  C   UNL A   1      33.023  25.872  21.594  1.00  0.00     0.278 C 
ENDBRANCH  11  17
ENDBRANCH   8  10
ENDBRANCH   7   8
BRANCH   7  19
ATOM     19  O   UNL A   1      34.833  23.814  24.078  1.00  0.00    -0.379 OA
ATOM     20  H   UNL A   1      35.230  24.604  24.477  1.00  0.00     0.212 HD
ENDBRANCH   7  19
BRANCH   7  21
ATOM     21  C   UNL A   1      33.387  21.918  24.272  1.00  0.00     0.025 C 
ATOM     22  C   UNL A   1      32.569  20.917  25.094  1.00  0.00     0.011 C 
ATOM     23  C   UNL A   1      32.696  22.190  22.923  1.00  0.00     0.011 C 
ENDBRANCH   7  21
ENDBRANCH   4   7
ENDBRANCH   2   3
ENDBRANCH   1   2
BRANCH   1  24
ATOM     24  C   UNL A   1      38.665  22.761  26.009  1.00  0.00     0.118 C 
BRANCH  24  25
ATOM     25  N   UNL A   1      40.108  22.778  26.228  1.00  0.00    -0.352 N 
ATOM     26  C   UNL A   1      40.924  23.835  26.609  1.00  0.00     0.251 C 
ATOM     27  H   UNL A   1      40.568  21.919  26.084  1.00  0.00     0.163 HD
ATOM     28  O   UNL A   1      42.125  23.707  26.717  1.00  0.00    -0.269 OA
BRANCH  26  29
ATOM     29  C   UNL A   1      40.271  25.108  26.994  1.00  0.00     0.039 A 
ATOM     30  C   UNL A   1      40.615  26.254  26.268  1.00  0.00     0.014 A 
ATOM     31  C   UNL A   1      39.551  25.206  28.180  1.00  0.00     0.014 A 
ATOM     32  C   UNL A   1      40.439  27.506  26.851  1.00  0.00     0.010 A 
ATOM     33  C   UNL A   1      39.481  26.434  28.804  1.00  0.00     0.010 A 
ATOM     34  C   UNL A   1      39.978  27.577  28.165  1.00  0.00    -0.014 A 
BRANCH  34  35
ATOM     35  C   UNL A   1      40.103  28.770  28.995  1.00  0.00     0.031 A 
ATOM     36  C   UNL A   1      39.046  29.801  29.006  1.00  0.00     0.074 A 
ATOM     37  C   UNL A   1      41.151  28.888  29.840  1.00  0.00     0.049 A 
ATOM     38  N   UNL A   1      39.216  31.012  29.417  1.00  0.00    -0.248 NA
ATOM     39  C   UNL A   1      37.699  29.547  28.509  1.00  0.00     0.031 C 
ATOM     40  C   UNL A   1      41.303  29.831  30.945  1.00  0.00     0.029 A 
ATOM     41  N   UNL A   1      42.419  28.328  29.685  1.00  0.00    -0.354 N 
ATOM     42  C   UNL A   1      37.977  31.598  29.516  1.00  0.00     0.074 A 
ATOM     43  C   UNL A   1      37.071  30.665  28.886  1.00  0.00     0.031 C 
ATOM     44  C   UNL A   1      42.611  30.000  31.190  1.00  0.00     0.029 A 
ATOM     45  C   UNL A   1      43.340  29.288  30.159  1.00  0.00     0.049 A 
ATOM     46  H   UNL A   1      42.630  27.440  29.318  1.00  0.00     0.167 HD
ATOM     47  C   UNL A   1      37.832  32.750  30.230  1.00  0.00     0.034 A 
ATOM     48  C   UNL A   1      44.271  29.828  29.317  1.00  0.00     0.034 A 
ATOM     49  C   UNL A   1      39.113  33.259  30.719  1.00  0.00     0.049 A 
ATOM     50  C   UNL A   1      44.145  31.331  29.138  1.00  0.00     0.074 A 
ATOM     51  C   UNL A   1      39.771  33.239  31.938  1.00  0.00     0.029 A 
ATOM     52  N   UNL A   1      40.047  33.687  29.793  1.00  0.00    -0.354 N 
ATOM     53  N   UNL A   1      43.206  32.061  29.675  1.00  0.00    -0.248 NA
ATOM     54  C   UNL A   1      45.021  32.116  28.269  1.00  0.00     0.031 C 
ATOM     55  C   UNL A   1      41.124  33.636  31.719  1.00  0.00     0.029 A 
ATOM     56  C   UNL A   1      41.278  33.915  30.373  1.00  0.00     0.049 A 
ATOM     57  H   UNL A   1      39.856  33.812  28.835  1.00  0.00     0.167 HD
ATOM     58  C   UNL A   1      43.294  33.344  29.202  1.00  0.00     0.074 A 
ATOM     59  C   UNL A   1      44.452  33.332  28.328  1.00  0.00     0.031 C 
ATOM     60  C   UNL A   1      42.387  34.315  29.520  1.00  0.00     0.034 A 
BRANCH  47  61
ATOM     61  C   UNL A   1      36.498  33.280  30.692  1.00  0.00     0.023 A 
ATOM     62  C   UNL A   1      35.686  33.984  29.781  1.00  0.00     0.031 A 
ATOM     63  C   UNL A   1      35.986  33.167  31.999  1.00  0.00     0.131 A 
ATOM     64  C   UNL A   1      34.503  34.621  30.194  1.00  0.00     0.055 A 
ATOM     65  C   UNL A   1      34.846  33.859  32.430  1.00  0.00     0.041 A 
ATOM     66  F   UNL A   1      36.534  32.339  32.899  1.00  0.00    -0.206 F 
ATOM     67  C   UNL A   1      34.103  34.604  31.527  1.00  0.00     0.022 A 
BRANCH  64  68
ATOM     68  S   UNL A   1      33.479  35.461  28.955  1.00  0.00     0.124 S 
ATOM     69  O   UNL A   1      34.479  36.075  28.090  1.00  0.00    -0.237 OA
ATOM     70  O   UNL A   1      32.721  34.352  28.384  1.00  0.00    -0.237 OA
ATOM     71  O   UNL A   1      32.690  36.401  29.750  1.00  0.00    -0.744 OA
ENDBRANCH  64  68
ENDBRANCH  47  61
BRANCH  48  72
ATOM     72  C   UNL A   1      44.738  28.849  28.287  1.00  0.00     0.023 A 
ATOM     73  C   UNL A   1      45.593  27.816  28.734  1.00  0.00     0.031 A 
ATOM     74  C   UNL A   1      44.068  28.663  27.072  1.00  0.00     0.131 A 
ATOM     75  C   UNL A   1      45.595  26.573  28.087  1.00  0.00     0.055 A 
ATOM     76  C   UNL A   1      44.157  27.452  26.372  1.00  0.00     0.041 A 
ATOM     77  F   UNL A   1      43.214  29.587  26.608  1.00  0.00    -0.206 F 
ATOM     78  C   UNL A   1      44.880  26.383  26.905  1.00  0.00     0.022 A 
BRANCH  75  79
ATOM     79  S   UNL A   1      46.267  25.138  28.984  1.00  0.00     0.124 S 
ATOM     80  O   UNL A   1      47.555  25.643  29.444  1.00  0.00    -0.237 OA
ATOM     81  O   UNL A   1      45.261  24.904  30.019  1.00  0.00    -0.237 OA
ATOM     82  O   UNL A   1      46.326  24.090  27.967  1.00  0.00    -0.744 OA
ENDBRANCH  75  79
ENDBRANCH  48  72
BRANCH  60  83
ATOM     83  C   UNL A   1      42.474  35.728  29.013  1.00  0.00     0.023 A 
ATOM     84  C   UNL A   1      43.198  36.718  29.697  1.00  0.00     0.031 A 
ATOM     85  C   UNL A   1      41.765  36.150  27.865  1.00  0.00     0.131 A 
ATOM     86  C   UNL A   1      43.251  38.034  29.206  1.00  0.00     0.055 A 
ATOM     87  C   UNL A   1      41.750  37.477  27.430  1.00  0.00     0.041 A 
ATOM     88  F   UNL A   1      41.094  35.283  27.093  1.00  0.00    -0.206 F 
ATOM     89  C   UNL A   1      42.507  38.428  28.095  1.00  0.00     0.022 A 
BRANCH  86  90
ATOM     90  S   UNL A   1      44.384  39.207  29.996  1.00  0.00     0.124 S 
ATOM     91  O   UNL A   1      45.018  39.857  28.854  1.00  0.00    -0.237 OA
ATOM     92  O   UNL A   1      43.459  40.036  30.765  1.00  0.00    -0.237 OA
ATOM     93  O   UNL A   1      45.262  38.355  30.795  1.00  0.00    -0.744 OA
ENDBRANCH  86  90
ENDBRANCH  60  83
ENDBRANCH  34  35
ENDBRANCH  26  29
ENDBRANCH  24  25
ENDBRANCH   1  24
TORSDOF 18
ENDMDL
MODEL 3
REMARK VINA RESULT:     -11.4      1.934      2.259
REMARK SMILES COc1ccc(C)cc1[C@@H](C)[C@@](O)(C(=O)NCCCNC(=O)c1ccc(-c2c3nc(c(-c4cc(S(=O)(=O)[O-])ccc4F)c4ccc([nH]4)c(-c4cc(S(=O)(=O)[O-])ccc4F)c4nc(c(-c5cc(S(=O)(=O)[O-])ccc5F)c5ccc2[nH]5)C=C4)C=C3)cc1)C(C)C
REMARK SMILES IDX 18 1 17 2 16 3 14 4 15 5 12 7 10 8 11 9 9 10 3 11 4 12 5 13
REMARK SMILES IDX 8 14 6 15 7 16 2 17 1 18 13 19 86 21 87 22 88 23 19 24 20 25
REMARK SMILES IDX 21 26 22 28 23 29 24 30 85 31 25 32 84 33 26 34 27 35 28 36
REMARK SMILES IDX 78 37 29 38 83 39 77 40 79 41 30 42 82 43 76 44 75 45 31 47
REMARK SMILES IDX 63 48 43 49 62 50 44 51 47 52 61 53 80 54 45 55 46 56 60 58
REMARK SMILES IDX 81 59 48 60 32 61 33 62 41 63 34 64 40 65 42 66 39 67 35 68
REMARK SMILES IDX 36 69 37 70 38 71 64 72 65 73 73 74 66 75 72 76 74 77 71 78
REMARK SMILES IDX 67 79 68 80 69 81 70 82 49 83 50 84 58 85 51 86 57 87 59 88
REMARK SMILES IDX 56 89 52 90 53 91 54 92 55 93
REMARK H PARENT 16 6 13 20 20 27 79 46 47 57
REMARK Flexibility Score: inf
ROOT
ATOM      1  C   UNL A   1      33.139  29.999  27.420  1.00  0.00     0.042 C 
ENDROOT
BRANCH   1   2
ATOM      2  C   UNL A   1      33.682  28.698  26.838  1.00  0.00     0.117 C 
BRANCH   2   3
ATOM      3  N   UNL A   1      33.916  28.791  25.403  1.00  0.00    -0.354 N 
ATOM      4  C   UNL A   1      33.341  28.206  24.313  1.00  0.00     0.252 C 
ATOM      5  O   UNL A   1      33.810  28.545  23.218  1.00  0.00    -0.272 OA
ATOM      6  H   UNL A   1      34.645  29.410  25.169  1.00  0.00     0.163 HD
BRANCH   4   7
ATOM      7  C   UNL A   1      32.218  27.095  24.394  1.00  0.00     0.152 C 
BRANCH   7   8
ATOM      8  C   UNL A   1      32.833  25.738  23.860  1.00  0.00     0.062 C 
ATOM      9  C   UNL A   1      31.982  24.922  22.877  1.00  0.00     0.016 C 
BRANCH   8  10
ATOM     10  C   UNL A   1      33.484  24.846  24.922  1.00  0.00     0.001 A 
ATOM     11  C   UNL A   1      32.709  24.032  25.769  1.00  0.00     0.122 A 
ATOM     12  C   UNL A   1      33.310  23.105  26.627  1.00  0.00     0.047 A 
ATOM     13  C   UNL A   1      34.697  22.993  26.676  1.00  0.00     0.007 A 
ATOM     14  C   UNL A   1      34.879  24.770  25.052  1.00  0.00     0.011 A 
ATOM     15  C   UNL A   1      35.493  23.829  25.892  1.00  0.00    -0.051 A 
ATOM     16  C   UNL A   1      36.981  23.657  25.840  1.00  0.00     0.044 C 
BRANCH  11  17
ATOM     17  O   UNL A   1      31.340  24.085  25.676  1.00  0.00    -0.496 OA
ATOM     18  C   UNL A   1      30.723  23.022  26.406  1.00  0.00     0.278 C 
ENDBRANCH  11  17
ENDBRANCH   8  10
ENDBRANCH   7   8
BRANCH   7  19
ATOM     19  O   UNL A   1      31.836  26.928  25.778  1.00  0.00    -0.379 OA
ATOM     20  H   UNL A   1      32.294  27.587  26.322  1.00  0.00     0.212 HD
ENDBRANCH   7  19
BRANCH   7  21
ATOM     21  C   UNL A   1      30.924  27.683  23.700  1.00  0.00     0.025 C 
ATOM     22  C   UNL A   1      29.604  26.940  23.925  1.00  0.00     0.011 C 
ATOM     23  C   UNL A   1      30.722  29.198  23.894  1.00  0.00     0.011 C 
ENDBRANCH   7  21
ENDBRANCH   4   7
ENDBRANCH   2   3
ENDBRANCH   1   2
BRANCH   1  24
ATOM     24  C   UNL A   1      34.107  31.169  27.292  1.00  0.00     0.118 C 
BRANCH  24  25
ATOM     25  N   UNL A   1      34.448  31.774  28.576  1.00  0.00    -0.352 N 
ATOM     26  C   UNL A   1      35.381  31.362  29.518  1.00  0.00     0.251 C 
ATOM     27  H   UNL A   1      33.945  32.589  28.807  1.00  0.00     0.163 HD
ATOM     28  O   UNL A   1      35.531  31.950  30.567  1.00  0.00    -0.269 OA
BRANCH  26  29
ATOM     29  C   UNL A   1      36.279  30.240  29.157  1.00  0.00     0.039 A 
ATOM     30  C   UNL A   1      36.679  29.379  30.184  1.00  0.00     0.014 A 
ATOM     31  C   UNL A   1      36.895  30.197  27.911  1.00  0.00     0.014 A 
ATOM     32  C   UNL A   1      37.850  28.640  30.035  1.00  0.00     0.010 A 
ATOM     33  C   UNL A   1      38.112  29.556  27.805  1.00  0.00     0.010 A 
ATOM     34  C   UNL A   1      38.619  28.824  28.887  1.00  0.00    -0.014 A 
BRANCH  34  35
ATOM     35  C   UNL A   1      40.013  28.408  28.780  1.00  0.00     0.031 A 
ATOM     36  C   UNL A   1      40.366  27.000  28.511  1.00  0.00     0.074 A 
ATOM     37  C   UNL A   1      40.993  29.338  28.828  1.00  0.00     0.049 A 
ATOM     38  N   UNL A   1      41.525  26.484  28.742  1.00  0.00    -0.248 NA
ATOM     39  C   UNL A   1      39.404  26.039  27.986  1.00  0.00     0.031 C 
ATOM     40  C   UNL A   1      42.394  29.176  28.450  1.00  0.00     0.029 A 
ATOM     41  N   UNL A   1      40.952  30.564  29.493  1.00  0.00    -0.354 N 
ATOM     42  C   UNL A   1      41.559  25.247  28.144  1.00  0.00     0.074 A 
ATOM     43  C   UNL A   1      40.197  24.992  27.737  1.00  0.00     0.031 C 
ATOM     44  C   UNL A   1      43.125  30.090  29.106  1.00  0.00     0.029 A 
ATOM     45  C   UNL A   1      42.241  30.768  30.032  1.00  0.00     0.049 A 
ATOM     46  H   UNL A   1      40.178  31.166  29.570  1.00  0.00     0.167 HD
ATOM     47  C   UNL A   1      42.757  24.627  27.948  1.00  0.00     0.034 A 
ATOM     48  C   UNL A   1      42.417  30.864  31.384  1.00  0.00     0.034 A 
ATOM     49  C   UNL A   1      43.868  25.379  28.530  1.00  0.00     0.049 A 
ATOM     50  C   UNL A   1      43.307  29.783  31.970  1.00  0.00     0.074 A 
ATOM     51  C   UNL A   1      44.849  26.219  28.028  1.00  0.00     0.029 A 
ATOM     52  N   UNL A   1      43.914  25.523  29.905  1.00  0.00    -0.354 N 
ATOM     53  N   UNL A   1      43.821  28.798  31.283  1.00  0.00    -0.248 NA
ATOM     54  C   UNL A   1      43.618  29.678  33.396  1.00  0.00     0.031 C 
ATOM     55  C   UNL A   1      45.464  26.889  29.127  1.00  0.00     0.029 A 
ATOM     56  C   UNL A   1      44.870  26.441  30.293  1.00  0.00     0.049 A 
ATOM     57  H   UNL A   1      43.336  25.031  30.531  1.00  0.00     0.167 HD
ATOM     58  C   UNL A   1      44.449  27.925  32.131  1.00  0.00     0.074 A 
ATOM     59  C   UNL A   1      44.301  28.522  33.446  1.00  0.00     0.031 C 
ATOM     60  C   UNL A   1      45.005  26.751  31.708  1.00  0.00     0.034 A 
BRANCH  47  61
ATOM     61  C   UNL A   1      42.946  23.460  27.011  1.00  0.00     0.023 A 
ATOM     62  C   UNL A   1      42.331  22.230  27.315  1.00  0.00     0.031 A 
ATOM     63  C   UNL A   1      43.733  23.472  25.844  1.00  0.00     0.131 A 
ATOM     64  C   UNL A   1      42.588  21.074  26.557  1.00  0.00     0.055 A 
ATOM     65  C   UNL A   1      44.049  22.310  25.128  1.00  0.00     0.041 A 
ATOM     66  F   UNL A   1      44.186  24.618  25.314  1.00  0.00    -0.206 F 
ATOM     67  C   UNL A   1      43.485  21.096  25.492  1.00  0.00     0.022 A 
BRANCH  64  68
ATOM     68  S   UNL A   1      41.718  19.539  26.971  1.00  0.00     0.124 S 
ATOM     69  O   UNL A   1      41.130  19.158  25.692  1.00  0.00    -0.237 OA
ATOM     70  O   UNL A   1      42.803  18.696  27.462  1.00  0.00    -0.237 OA
ATOM     71  O   UNL A   1      40.757  19.959  27.991  1.00  0.00    -0.744 OA
ENDBRANCH  64  68
ENDBRANCH  47  61
BRANCH  48  72
ATOM     72  C   UNL A   1      41.256  31.519  32.061  1.00  0.00     0.023 A 
ATOM     73  C   UNL A   1      40.606  30.774  33.072  1.00  0.00     0.031 A 
ATOM     74  C   UNL A   1      41.064  32.905  32.047  1.00  0.00     0.131 A 
ATOM     75  C   UNL A   1      39.976  31.429  34.137  1.00  0.00     0.055 A 
ATOM     76  C   UNL A   1      40.341  33.549  33.061  1.00  0.00     0.041 A 
ATOM     77  F   UNL A   1      41.679  33.676  31.139  1.00  0.00    -0.206 F 
ATOM     78  C   UNL A   1      39.838  32.817  34.139  1.00  0.00     0.022 A 
BRANCH  75  79
ATOM     79  S   UNL A   1      39.641  30.480  35.655  1.00  0.00     0.124 S 
ATOM     80  O   UNL A   1      38.191  30.341  35.613  1.00  0.00    -0.237 OA
ATOM     81  O   UNL A   1      40.412  29.254  35.445  1.00  0.00    -0.237 OA
ATOM     82  O   UNL A   1      40.164  31.334  36.720  1.00  0.00    -0.744 OA
ENDBRANCH  75  79
ENDBRANCH  48  72
BRANCH  60  83
ATOM     83  C   UNL A   1      45.702  25.785  32.627  1.00  0.00     0.023 A 
ATOM     84  C   UNL A   1      44.993  24.989  33.541  1.00  0.00     0.031 A 
ATOM     85  C   UNL A   1      47.111  25.690  32.673  1.00  0.00     0.131 A 
ATOM     86  C   UNL A   1      45.671  24.104  34.397  1.00  0.00     0.055 A 
ATOM     87  C   UNL A   1      47.785  24.874  33.585  1.00  0.00     0.041 A 
ATOM     88  F   UNL A   1      47.891  26.350  31.805  1.00  0.00    -0.206 F 
ATOM     89  C   UNL A   1      47.064  24.064  34.448  1.00  0.00     0.022 A 
BRANCH  86  90
ATOM     90  S   UNL A   1      44.698  22.939  35.385  1.00  0.00     0.124 S 
ATOM     91  O   UNL A   1      43.375  23.030  34.776  1.00  0.00    -0.237 OA
ATOM     92  O   UNL A   1      45.417  21.688  35.157  1.00  0.00    -0.237 OA
ATOM     93  O   UNL A   1      44.798  23.471  36.743  1.00  0.00    -0.744 OA
ENDBRANCH  86  90
ENDBRANCH  60  83
ENDBRANCH  34  35
ENDBRANCH  26  29
ENDBRANCH  24  25
ENDBRANCH   1  24
TORSDOF 18
ENDMDL
