MODEL 1
REMARK VINA RESULT:     -12.6      0.000      0.000
REMARK SMILES CC1(C)[C@H](C(=O)NCCCNC(=O)c2ccc(-c3c4nc(c(-c5cc(S(=O)(=O)[O-])ccc5F)c5ccc([nH]5)c(-c5cc(S(=O)(=O)[O-])ccc5F)c5nc(c(-c6cc(S(=O)(=O)[O-])ccc6F)c6ccc3[nH]6)C=C5)C=C4)cc2)[C@H]1C(=O)Nc1ccccc1C(=O)Nc1nccs1
REMARK SMILES IDX 8 1 7 2 5 3 6 4 4 6 1 7 2 8 3 9 77 10 78 11 79 12 80 13
REMARK SMILES IDX 81 15 82 16 86 17 83 18 85 19 84 20 87 21 88 22 89 23 90 25
REMARK SMILES IDX 91 26 94 27 92 28 93 29 9 30 10 31 11 32 12 33 13 35 14 36
REMARK SMILES IDX 15 37 76 38 16 39 75 40 17 41 18 42 19 43 69 44 20 45 74 46
REMARK SMILES IDX 68 47 70 48 21 49 73 50 67 51 66 52 22 54 54 55 34 56 53 57
REMARK SMILES IDX 35 58 38 59 52 60 71 61 36 62 37 63 51 65 72 66 39 67 23 68
REMARK SMILES IDX 24 69 32 70 25 71 31 72 33 73 30 74 26 75 27 76 28 77 29 78
REMARK SMILES IDX 55 79 56 80 64 81 57 82 63 83 65 84 62 85 58 86 59 87 60 88
REMARK SMILES IDX 61 89 40 90 41 91 49 92 42 93 48 94 50 95 47 96 43 97 44 98
REMARK SMILES IDX 45 99 46 100
REMARK H PARENT 7 5 80 14 89 24 11 34 70 53 38 64
REMARK Flexibility Score: inf
ROOT
ATOM      1  C   UNL A   1      31.517  30.379  26.352  1.00  0.00     0.117 C 
ENDROOT
BRANCH   1   2
ATOM      2  N   UNL A   1      31.991  30.098  25.024  1.00  0.00    -0.356 N 
ATOM      3  C   UNL A   1      31.429  29.428  23.981  1.00  0.00     0.224 C 
ATOM      4  O   UNL A   1      32.185  29.045  23.102  1.00  0.00    -0.275 OA
ATOM      5  H   UNL A   1      32.889  30.455  24.835  1.00  0.00     0.163 HD
BRANCH   3   6
ATOM      6  C   UNL A   1      29.988  29.245  23.761  1.00  0.00     0.098 C 
ATOM      7  C   UNL A   1      27.989  30.698  23.459  1.00  0.00     0.013 C 
ATOM      8  C   UNL A   1      29.012  29.812  22.787  1.00  0.00    -0.011 C 
ATOM      9  C   UNL A   1      29.333  30.375  21.412  1.00  0.00     0.013 C 
ATOM     10  C   UNL A   1      29.247  28.287  22.852  1.00  0.00     0.098 C 
BRANCH  10  11
ATOM     11  C   UNL A   1      28.999  27.042  23.609  1.00  0.00     0.228 C 
ATOM     12  O   UNL A   1      27.867  26.885  24.070  1.00  0.00    -0.274 OA
ATOM     13  N   UNL A   1      29.876  26.018  23.760  1.00  0.00    -0.325 N 
ATOM     14  H   UNL A   1      29.476  25.215  24.166  1.00  0.00     0.169 HD
BRANCH  13  15
ATOM     15  C   UNL A   1      31.226  25.874  23.458  1.00  0.00     0.054 A 
ATOM     16  C   UNL A   1      31.449  25.709  22.076  1.00  0.00     0.027 A 
ATOM     17  C   UNL A   1      32.313  25.917  24.343  1.00  0.00     0.063 A 
ATOM     18  C   UNL A   1      32.725  25.803  21.538  1.00  0.00     0.002 A 
ATOM     19  C   UNL A   1      33.600  26.030  23.771  1.00  0.00     0.016 A 
ATOM     20  C   UNL A   1      33.801  26.012  22.385  1.00  0.00     0.001 A 
BRANCH  17  21
ATOM     21  C   UNL A   1      32.282  25.932  25.845  1.00  0.00     0.259 C 
ATOM     22  O   UNL A   1      32.375  27.021  26.423  1.00  0.00    -0.269 OA
ATOM     23  N   UNL A   1      32.094  24.837  26.641  1.00  0.00    -0.298 N 
ATOM     24  H   UNL A   1      31.712  25.013  27.532  1.00  0.00     0.172 HD
BRANCH  23  25
ATOM     25  C   UNL A   1      32.369  23.537  26.360  1.00  0.00     0.189 A 
ATOM     26  N   UNL A   1      33.483  22.869  26.506  1.00  0.00    -0.229 NA
ATOM     27  S   UNL A   1      31.042  22.689  25.695  1.00  0.00    -0.105 S 
ATOM     28  C   UNL A   1      33.317  21.609  25.960  1.00  0.00     0.125 A 
ATOM     29  C   UNL A   1      32.077  21.352  25.414  1.00  0.00     0.088 A 
ENDBRANCH  23  25
ENDBRANCH  17  21
ENDBRANCH  13  15
ENDBRANCH  10  11
ENDBRANCH   3   6
ENDBRANCH   1   2
BRANCH   1  30
ATOM     30  C   UNL A   1      31.460  31.883  26.576  1.00  0.00     0.042 C 
BRANCH  30  31
ATOM     31  C   UNL A   1      32.698  32.432  27.266  1.00  0.00     0.118 C 
BRANCH  31  32
ATOM     32  N   UNL A   1      32.574  33.852  27.544  1.00  0.00    -0.352 N 
ATOM     33  C   UNL A   1      33.167  34.598  28.531  1.00  0.00     0.251 C 
ATOM     34  H   UNL A   1      31.979  34.350  26.937  1.00  0.00     0.163 HD
ATOM     35  O   UNL A   1      32.730  35.717  28.783  1.00  0.00    -0.269 OA
BRANCH  33  36
ATOM     36  C   UNL A   1      34.308  34.045  29.290  1.00  0.00     0.039 A 
ATOM     37  C   UNL A   1      34.058  33.182  30.358  1.00  0.00     0.014 A 
ATOM     38  C   UNL A   1      35.623  34.387  28.961  1.00  0.00     0.014 A 
ATOM     39  C   UNL A   1      35.127  32.624  31.062  1.00  0.00     0.010 A 
ATOM     40  C   UNL A   1      36.686  33.754  29.595  1.00  0.00     0.010 A 
ATOM     41  C   UNL A   1      36.450  32.880  30.667  1.00  0.00    -0.014 A 
BRANCH  41  42
ATOM     42  C   UNL A   1      37.607  32.286  31.385  1.00  0.00     0.031 A 
ATOM     43  C   UNL A   1      38.363  31.143  30.757  1.00  0.00     0.074 A 
ATOM     44  C   UNL A   1      37.941  32.732  32.611  1.00  0.00     0.049 A 
ATOM     45  N   UNL A   1      39.327  30.414  31.255  1.00  0.00    -0.248 NA
ATOM     46  C   UNL A   1      37.956  30.752  29.397  1.00  0.00     0.031 C 
ATOM     47  C   UNL A   1      37.267  33.816  33.330  1.00  0.00     0.029 A 
ATOM     48  N   UNL A   1      38.926  32.326  33.477  1.00  0.00    -0.354 N 
ATOM     49  C   UNL A   1      39.634  29.473  30.277  1.00  0.00     0.074 A 
ATOM     50  C   UNL A   1      38.705  29.679  29.189  1.00  0.00     0.031 C 
ATOM     51  C   UNL A   1      37.876  34.007  34.512  1.00  0.00     0.029 A 
ATOM     52  C   UNL A   1      38.946  33.025  34.662  1.00  0.00     0.049 A 
ATOM     53  H   UNL A   1      39.560  31.603  33.268  1.00  0.00     0.167 HD
ATOM     54  C   UNL A   1      40.620  28.543  30.275  1.00  0.00     0.034 A 
ATOM     55  C   UNL A   1      39.727  32.879  35.751  1.00  0.00     0.034 A 
ATOM     56  C   UNL A   1      41.548  28.362  31.363  1.00  0.00     0.049 A 
ATOM     57  C   UNL A   1      40.786  31.802  35.743  1.00  0.00     0.074 A 
ATOM     58  C   UNL A   1      42.603  27.471  31.458  1.00  0.00     0.029 A 
ATOM     59  N   UNL A   1      41.534  29.087  32.548  1.00  0.00    -0.354 N 
ATOM     60  N   UNL A   1      41.081  30.939  34.797  1.00  0.00    -0.248 NA
ATOM     61  C   UNL A   1      41.624  31.687  36.943  1.00  0.00     0.031 C 
ATOM     62  C   UNL A   1      43.184  27.612  32.721  1.00  0.00     0.029 A 
ATOM     63  C   UNL A   1      42.547  28.647  33.386  1.00  0.00     0.049 A 
ATOM     64  H   UNL A   1      40.899  29.808  32.762  1.00  0.00     0.167 HD
ATOM     65  C   UNL A   1      42.168  30.212  35.275  1.00  0.00     0.074 A 
ATOM     66  C   UNL A   1      42.482  30.744  36.585  1.00  0.00     0.031 C 
ATOM     67  C   UNL A   1      42.850  29.197  34.685  1.00  0.00     0.034 A 
BRANCH  54  68
ATOM     68  C   UNL A   1      40.731  27.647  29.066  1.00  0.00     0.023 A 
ATOM     69  C   UNL A   1      41.679  27.886  28.057  1.00  0.00     0.031 A 
ATOM     70  C   UNL A   1      39.872  26.545  28.912  1.00  0.00     0.131 A 
ATOM     71  C   UNL A   1      41.703  27.080  26.911  1.00  0.00     0.055 A 
ATOM     72  C   UNL A   1      39.955  25.695  27.807  1.00  0.00     0.041 A 
ATOM     73  F   UNL A   1      38.930  26.277  29.831  1.00  0.00    -0.206 F 
ATOM     74  C   UNL A   1      40.866  25.968  26.791  1.00  0.00     0.022 A 
BRANCH  71  75
ATOM     75  S   UNL A   1      42.753  27.581  25.520  1.00  0.00     0.124 S 
ATOM     76  O   UNL A   1      44.031  27.824  26.188  1.00  0.00    -0.237 OA
ATOM     77  O   UNL A   1      42.701  26.414  24.647  1.00  0.00    -0.237 OA
ATOM     78  O   UNL A   1      42.091  28.778  25.004  1.00  0.00    -0.744 OA
ENDBRANCH  71  75
ENDBRANCH  54  68
BRANCH  55  79
ATOM     79  C   UNL A   1      39.544  33.752  36.948  1.00  0.00     0.023 A 
ATOM     80  C   UNL A   1      40.407  34.833  37.189  1.00  0.00     0.031 A 
ATOM     81  C   UNL A   1      38.555  33.476  37.909  1.00  0.00     0.131 A 
ATOM     82  C   UNL A   1      40.312  35.553  38.389  1.00  0.00     0.055 A 
ATOM     83  C   UNL A   1      38.421  34.238  39.071  1.00  0.00     0.041 A 
ATOM     84  F   UNL A   1      37.701  32.455  37.732  1.00  0.00    -0.206 F 
ATOM     85  C   UNL A   1      39.316  35.272  39.327  1.00  0.00     0.022 A 
BRANCH  82  86
ATOM     86  S   UNL A   1      41.594  36.780  38.766  1.00  0.00     0.124 S 
ATOM     87  O   UNL A   1      40.812  37.840  39.394  1.00  0.00    -0.237 OA
ATOM     88  O   UNL A   1      42.481  36.029  39.648  1.00  0.00    -0.237 OA
ATOM     89  O   UNL A   1      42.148  37.106  37.455  1.00  0.00    -0.744 OA
ENDBRANCH  82  86
ENDBRANCH  55  79
BRANCH  67  90
ATOM     90  C   UNL A   1      44.047  28.649  35.423  1.00  0.00     0.023 A 
ATOM     91  C   UNL A   1      43.936  27.588  36.337  1.00  0.00     0.031 A 
ATOM     92  C   UNL A   1      45.321  29.202  35.202  1.00  0.00     0.131 A 
ATOM     93  C   UNL A   1      45.071  27.147  37.035  1.00  0.00     0.055 A 
ATOM     94  C   UNL A   1      46.456  28.718  35.851  1.00  0.00     0.041 A 
ATOM     95  F   UNL A   1      45.485  30.220  34.340  1.00  0.00    -0.206 F 
ATOM     96  C   UNL A   1      46.332  27.694  36.784  1.00  0.00     0.022 A 
BRANCH  93  97
ATOM     97  S   UNL A   1      44.861  25.907  38.342  1.00  0.00     0.124 S 
ATOM     98  O   UNL A   1      43.872  25.011  37.753  1.00  0.00    -0.237 OA
ATOM     99  O   UNL A   1      46.210  25.367  38.479  1.00  0.00    -0.237 OA
ATOM    100  O   UNL A   1      44.388  26.688  39.483  1.00  0.00    -0.744 OA
ENDBRANCH  93  97
ENDBRANCH  67  90
ENDBRANCH  41  42
ENDBRANCH  33  36
ENDBRANCH  31  32
ENDBRANCH  30  31
ENDBRANCH   1  30
TORSDOF 17
ENDMDL
MODEL 2
REMARK VINA RESULT:     -12.5      5.626     10.647
REMARK SMILES CC1(C)[C@H](C(=O)NCCCNC(=O)c2ccc(-c3c4nc(c(-c5cc(S(=O)(=O)[O-])ccc5F)c5ccc([nH]5)c(-c5cc(S(=O)(=O)[O-])ccc5F)c5nc(c(-c6cc(S(=O)(=O)[O-])ccc6F)c6ccc3[nH]6)C=C5)C=C4)cc2)[C@H]1C(=O)Nc1ccccc1C(=O)Nc1nccs1
REMARK SMILES IDX 8 1 7 2 5 3 6 4 4 6 1 7 2 8 3 9 77 10 78 11 79 12 80 13
REMARK SMILES IDX 81 15 82 16 86 17 83 18 85 19 84 20 87 21 88 22 89 23 90 25
REMARK SMILES IDX 91 26 94 27 92 28 93 29 9 30 10 31 11 32 12 33 13 35 14 36
REMARK SMILES IDX 15 37 76 38 16 39 75 40 17 41 18 42 19 43 69 44 20 45 74 46
REMARK SMILES IDX 68 47 70 48 21 49 73 50 67 51 66 52 22 54 54 55 34 56 53 57
REMARK SMILES IDX 35 58 38 59 52 60 71 61 36 62 37 63 51 65 72 66 39 67 23 68
REMARK SMILES IDX 24 69 32 70 25 71 31 72 33 73 30 74 26 75 27 76 28 77 29 78
REMARK SMILES IDX 55 79 56 80 64 81 57 82 63 83 65 84 62 85 58 86 59 87 60 88
REMARK SMILES IDX 61 89 40 90 41 91 49 92 42 93 48 94 50 95 47 96 43 97 44 98
REMARK SMILES IDX 45 99 46 100
REMARK H PARENT 7 5 80 14 89 24 11 34 70 53 38 64
REMARK Flexibility Score: inf
ROOT
ATOM      1  C   UNL A   1      34.356  21.959  26.542  1.00  0.00     0.117 C 
ENDROOT
BRANCH   1   2
ATOM      2  N   UNL A   1      33.014  21.829  26.042  1.00  0.00    -0.356 N 
ATOM      3  C   UNL A   1      32.081  22.756  25.691  1.00  0.00     0.224 C 
ATOM      4  O   UNL A   1      30.923  22.376  25.632  1.00  0.00    -0.275 OA
ATOM      5  H   UNL A   1      32.714  20.898  25.935  1.00  0.00     0.163 HD
BRANCH   3   6
ATOM      6  C   UNL A   1      32.365  24.129  25.252  1.00  0.00     0.098 C 
ATOM      7  C   UNL A   1      34.242  25.754  25.442  1.00  0.00     0.013 C 
ATOM      8  C   UNL A   1      33.515  24.773  24.553  1.00  0.00    -0.011 C 
ATOM      9  C   UNL A   1      34.519  24.083  23.645  1.00  0.00     0.013 C 
ATOM     10  C   UNL A   1      32.104  24.811  23.925  1.00  0.00     0.098 C 
BRANCH  10  11
ATOM     11  C   UNL A   1      30.755  25.413  23.982  1.00  0.00     0.228 C 
ATOM     12  O   UNL A   1      29.835  24.769  23.473  1.00  0.00    -0.274 OA
ATOM     13  N   UNL A   1      30.425  26.561  24.624  1.00  0.00    -0.325 N 
ATOM     14  H   UNL A   1      29.455  26.717  24.677  1.00  0.00     0.169 HD
BRANCH  13  15
ATOM     15  C   UNL A   1      31.182  27.563  25.221  1.00  0.00     0.054 A 
ATOM     16  C   UNL A   1      31.147  27.492  26.629  1.00  0.00     0.027 A 
ATOM     17  C   UNL A   1      31.957  28.546  24.589  1.00  0.00     0.063 A 
ATOM     18  C   UNL A   1      32.028  28.230  27.407  1.00  0.00     0.002 A 
ATOM     19  C   UNL A   1      32.858  29.273  25.401  1.00  0.00     0.016 A 
ATOM     20  C   UNL A   1      32.920  29.090  26.787  1.00  0.00     0.001 A 
BRANCH  17  21
ATOM     21  C   UNL A   1      32.008  28.883  23.126  1.00  0.00     0.259 C 
ATOM     22  O   UNL A   1      33.114  29.051  22.600  1.00  0.00    -0.269 OA
ATOM     23  N   UNL A   1      30.925  28.961  22.296  1.00  0.00    -0.298 N 
ATOM     24  H   UNL A   1      31.102  28.799  21.340  1.00  0.00     0.172 HD
BRANCH  23  25
ATOM     25  C   UNL A   1      29.635  29.234  22.621  1.00  0.00     0.189 A 
ATOM     26  N   UNL A   1      28.629  28.419  22.801  1.00  0.00    -0.229 NA
ATOM     27  S   UNL A   1      29.314  30.905  22.786  1.00  0.00    -0.105 S 
ATOM     28  C   UNL A   1      27.482  29.168  22.988  1.00  0.00     0.125 A 
ATOM     29  C   UNL A   1      27.647  30.537  22.948  1.00  0.00     0.088 A 
ENDBRANCH  23  25
ENDBRANCH  17  21
ENDBRANCH  13  15
ENDBRANCH  10  11
ENDBRANCH   3   6
ENDBRANCH   1   2
BRANCH   1  30
ATOM     30  C   UNL A   1      35.321  21.198  25.644  1.00  0.00     0.042 C 
BRANCH  30  31
ATOM     31  C   UNL A   1      36.743  21.729  25.710  1.00  0.00     0.118 C 
BRANCH  31  32
ATOM     32  N   UNL A   1      37.712  20.656  25.851  1.00  0.00    -0.352 N 
ATOM     33  C   UNL A   1      39.070  20.731  26.030  1.00  0.00     0.251 C 
ATOM     34  H   UNL A   1      37.340  19.745  25.813  1.00  0.00     0.163 HD
ATOM     35  O   UNL A   1      39.756  19.730  25.848  1.00  0.00    -0.269 OA
BRANCH  33  36
ATOM     36  C   UNL A   1      39.694  22.013  26.419  1.00  0.00     0.039 A 
ATOM     37  C   UNL A   1      40.751  22.004  27.330  1.00  0.00     0.014 A 
ATOM     38  C   UNL A   1      39.230  23.225  25.898  1.00  0.00     0.014 A 
ATOM     39  C   UNL A   1      41.373  23.205  27.679  1.00  0.00     0.010 A 
ATOM     40  C   UNL A   1      39.913  24.404  26.167  1.00  0.00     0.010 A 
ATOM     41  C   UNL A   1      40.980  24.411  27.077  1.00  0.00    -0.014 A 
BRANCH  41  42
ATOM     42  C   UNL A   1      41.637  25.700  27.415  1.00  0.00     0.031 A 
ATOM     43  C   UNL A   1      40.888  26.723  28.230  1.00  0.00     0.074 A 
ATOM     44  C   UNL A   1      42.871  25.971  26.948  1.00  0.00     0.049 A 
ATOM     45  N   UNL A   1      41.231  27.945  28.543  1.00  0.00    -0.248 NA
ATOM     46  C   UNL A   1      39.564  26.324  28.734  1.00  0.00     0.031 C 
ATOM     47  C   UNL A   1      43.683  25.068  26.130  1.00  0.00     0.029 A 
ATOM     48  N   UNL A   1      43.659  27.086  27.088  1.00  0.00    -0.354 N 
ATOM     49  C   UNL A   1      40.163  28.464  29.268  1.00  0.00     0.074 A 
ATOM     50  C   UNL A   1      39.134  27.449  29.286  1.00  0.00     0.031 C 
ATOM     51  C   UNL A   1      44.864  25.653  25.865  1.00  0.00     0.029 A 
ATOM     52  C   UNL A   1      44.873  26.993  26.445  1.00  0.00     0.049 A 
ATOM     53  H   UNL A   1      43.382  27.878  27.602  1.00  0.00     0.167 HD
ATOM     54  C   UNL A   1      40.063  29.665  29.889  1.00  0.00     0.034 A 
ATOM     55  C   UNL A   1      45.870  27.891  26.323  1.00  0.00     0.034 A 
ATOM     56  C   UNL A   1      41.106  30.659  29.875  1.00  0.00     0.049 A 
ATOM     57  C   UNL A   1      45.713  29.242  26.983  1.00  0.00     0.074 A 
ATOM     58  C   UNL A   1      41.124  31.898  30.491  1.00  0.00     0.029 A 
ATOM     59  N   UNL A   1      42.319  30.530  29.210  1.00  0.00    -0.354 N 
ATOM     60  N   UNL A   1      44.706  29.704  27.689  1.00  0.00    -0.248 NA
ATOM     61  C   UNL A   1      46.828  30.185  26.838  1.00  0.00     0.031 C 
ATOM     62  C   UNL A   1      42.316  32.542  30.147  1.00  0.00     0.029 A 
ATOM     63  C   UNL A   1      43.080  31.674  29.383  1.00  0.00     0.049 A 
ATOM     64  H   UNL A   1      42.596  29.740  28.692  1.00  0.00     0.167 HD
ATOM     65  C   UNL A   1      45.092  30.975  28.109  1.00  0.00     0.074 A 
ATOM     66  C   UNL A   1      46.424  31.199  27.586  1.00  0.00     0.031 C 
ATOM     67  C   UNL A   1      44.411  31.876  28.862  1.00  0.00     0.034 A 
BRANCH  54  68
ATOM     68  C   UNL A   1      38.777  29.967  30.619  1.00  0.00     0.023 A 
ATOM     69  C   UNL A   1      37.755  30.729  30.027  1.00  0.00     0.031 A 
ATOM     70  C   UNL A   1      38.572  29.499  31.929  1.00  0.00     0.131 A 
ATOM     71  C   UNL A   1      36.607  31.056  30.762  1.00  0.00     0.055 A 
ATOM     72  C   UNL A   1      37.391  29.758  32.628  1.00  0.00     0.041 A 
ATOM     73  F   UNL A   1      39.521  28.786  32.557  1.00  0.00    -0.206 F 
ATOM     74  C   UNL A   1      36.405  30.552  32.049  1.00  0.00     0.022 A 
BRANCH  71  75
ATOM     75  S   UNL A   1      35.442  32.256  30.062  1.00  0.00     0.124 S 
ATOM     76  O   UNL A   1      36.310  33.410  29.834  1.00  0.00    -0.237 OA
ATOM     77  O   UNL A   1      34.962  31.572  28.867  1.00  0.00    -0.237 OA
ATOM     78  O   UNL A   1      34.451  32.431  31.122  1.00  0.00    -0.744 OA
ENDBRANCH  71  75
ENDBRANCH  54  68
BRANCH  55  79
ATOM     79  C   UNL A   1      47.101  27.569  25.543  1.00  0.00     0.023 A 
ATOM     80  C   UNL A   1      47.219  27.947  24.196  1.00  0.00     0.031 A 
ATOM     81  C   UNL A   1      48.145  26.813  26.106  1.00  0.00     0.131 A 
ATOM     82  C   UNL A   1      48.317  27.511  23.439  1.00  0.00     0.055 A 
ATOM     83  C   UNL A   1      49.268  26.439  25.367  1.00  0.00     0.041 A 
ATOM     84  F   UNL A   1      48.087  26.424  27.390  1.00  0.00    -0.206 F 
ATOM     85  C   UNL A   1      49.350  26.771  24.018  1.00  0.00     0.022 A 
BRANCH  82  86
ATOM     86  S   UNL A   1      48.311  27.816  21.651  1.00  0.00     0.124 S 
ATOM     87  O   UNL A   1      46.960  28.328  21.444  1.00  0.00    -0.237 OA
ATOM     88  O   UNL A   1      49.393  28.784  21.506  1.00  0.00    -0.237 OA
ATOM     89  O   UNL A   1      48.574  26.497  21.080  1.00  0.00    -0.744 OA
ENDBRANCH  82  86
ENDBRANCH  55  79
BRANCH  67  90
ATOM     90  C   UNL A   1      45.126  33.155  29.223  1.00  0.00     0.023 A 
ATOM     91  C   UNL A   1      44.996  34.323  28.454  1.00  0.00     0.031 A 
ATOM     92  C   UNL A   1      45.951  33.199  30.362  1.00  0.00     0.131 A 
ATOM     93  C   UNL A   1      45.721  35.472  28.804  1.00  0.00     0.055 A 
ATOM     94  C   UNL A   1      46.619  34.362  30.741  1.00  0.00     0.041 A 
ATOM     95  F   UNL A   1      46.113  32.110  31.132  1.00  0.00    -0.206 F 
ATOM     96  C   UNL A   1      46.517  35.504  29.952  1.00  0.00     0.022 A 
BRANCH  93  97
ATOM     97  S   UNL A   1      45.679  36.901  27.689  1.00  0.00     0.124 S 
ATOM     98  O   UNL A   1      47.015  36.869  27.104  1.00  0.00    -0.237 OA
ATOM     99  O   UNL A   1      44.581  36.563  26.789  1.00  0.00    -0.237 OA
ATOM    100  O   UNL A   1      45.421  38.028  28.584  1.00  0.00    -0.744 OA
ENDBRANCH  93  97
ENDBRANCH  67  90
ENDBRANCH  41  42
ENDBRANCH  33  36
ENDBRANCH  31  32
ENDBRANCH  30  31
ENDBRANCH   1  30
TORSDOF 17
ENDMDL
MODEL 3
REMARK VINA RESULT:     -12.4      1.983      2.793
REMARK SMILES CC1(C)[C@H](C(=O)NCCCNC(=O)c2ccc(-c3c4nc(c(-c5cc(S(=O)(=O)[O-])ccc5F)c5ccc([nH]5)c(-c5cc(S(=O)(=O)[O-])ccc5F)c5nc(c(-c6cc(S(=O)(=O)[O-])ccc6F)c6ccc3[nH]6)C=C5)C=C4)cc2)[C@H]1C(=O)Nc1ccccc1C(=O)Nc1nccs1
REMARK SMILES IDX 8 1 7 2 5 3 6 4 4 6 1 7 2 8 3 9 77 10 78 11 79 12 80 13
REMARK SMILES IDX 81 15 82 16 86 17 83 18 85 19 84 20 87 21 88 22 89 23 90 25
REMARK SMILES IDX 91 26 94 27 92 28 93 29 9 30 10 31 11 32 12 33 13 35 14 36
REMARK SMILES IDX 15 37 76 38 16 39 75 40 17 41 18 42 19 43 69 44 20 45 74 46
REMARK SMILES IDX 68 47 70 48 21 49 73 50 67 51 66 52 22 54 54 55 34 56 53 57
REMARK SMILES IDX 35 58 38 59 52 60 71 61 36 62 37 63 51 65 72 66 39 67 23 68
REMARK SMILES IDX 24 69 32 70 25 71 31 72 33 73 30 74 26 75 27 76 28 77 29 78
REMARK SMILES IDX 55 79 56 80 64 81 57 82 63 83 65 84 62 85 58 86 59 87 60 88
REMARK SMILES IDX 61 89 40 90 41 91 49 92 42 93 48 94 50 95 47 96 43 97 44 98
REMARK SMILES IDX 45 99 46 100
REMARK H PARENT 7 5 80 14 89 24 11 34 70 53 38 64
REMARK Flexibility Score: inf
ROOT
ATOM      1  C   UNL A   1      31.758  30.677  26.175  1.00  0.00     0.117 C 
ENDROOT
BRANCH   1   2
ATOM      2  N   UNL A   1      30.997  30.415  24.983  1.00  0.00    -0.356 N 
ATOM      3  C   UNL A   1      30.900  29.314  24.190  1.00  0.00     0.224 C 
ATOM      4  O   UNL A   1      30.457  29.483  23.065  1.00  0.00    -0.275 OA
ATOM      5  H   UNL A   1      30.445  31.174  24.686  1.00  0.00     0.163 HD
BRANCH   3   6
ATOM      6  C   UNL A   1      31.156  27.931  24.615  1.00  0.00     0.098 C 
ATOM      7  C   UNL A   1      29.902  26.112  25.763  1.00  0.00     0.013 C 
ATOM      8  C   UNL A   1      30.418  26.646  24.447  1.00  0.00    -0.011 C 
ATOM      9  C   UNL A   1      29.422  26.314  23.349  1.00  0.00     0.013 C 
ATOM     10  C   UNL A   1      31.853  26.795  23.895  1.00  0.00     0.098 C 
BRANCH  10  11
ATOM     11  C   UNL A   1      33.292  26.862  24.228  1.00  0.00     0.228 C 
ATOM     12  O   UNL A   1      33.882  27.906  23.944  1.00  0.00    -0.274 OA
ATOM     13  N   UNL A   1      33.994  25.917  24.901  1.00  0.00    -0.325 N 
ATOM     14  H   UNL A   1      34.898  26.209  25.159  1.00  0.00     0.169 HD
BRANCH  13  15
ATOM     15  C   UNL A   1      33.695  24.618  25.300  1.00  0.00     0.054 A 
ATOM     16  C   UNL A   1      32.971  24.585  26.509  1.00  0.00     0.027 A 
ATOM     17  C   UNL A   1      33.994  23.424  24.629  1.00  0.00     0.063 A 
ATOM     18  C   UNL A   1      32.358  23.419  26.947  1.00  0.00     0.002 A 
ATOM     19  C   UNL A   1      33.343  22.254  25.083  1.00  0.00     0.016 A 
ATOM     20  C   UNL A   1      32.506  22.259  26.205  1.00  0.00     0.001 A 
BRANCH  17  21
ATOM     21  C   UNL A   1      34.873  23.235  23.426  1.00  0.00     0.259 C 
ATOM     22  O   UNL A   1      34.336  23.136  22.316  1.00  0.00    -0.269 OA
ATOM     23  N   UNL A   1      36.239  23.225  23.440  1.00  0.00    -0.298 N 
ATOM     24  H   UNL A   1      36.681  23.485  22.599  1.00  0.00     0.172 HD
BRANCH  23  25
ATOM     25  C   UNL A   1      37.066  22.903  24.468  1.00  0.00     0.189 A 
ATOM     26  N   UNL A   1      37.658  23.679  25.339  1.00  0.00    -0.229 NA
ATOM     27  S   UNL A   1      37.375  21.227  24.594  1.00  0.00    -0.105 S 
ATOM     28  C   UNL A   1      38.505  22.909  26.113  1.00  0.00     0.125 A 
ATOM     29  C   UNL A   1      38.534  21.563  25.812  1.00  0.00     0.088 A 
ENDBRANCH  23  25
ENDBRANCH  17  21
ENDBRANCH  13  15
ENDBRANCH  10  11
ENDBRANCH   3   6
ENDBRANCH   1   2
BRANCH   1  30
ATOM     30  C   UNL A   1      31.578  32.127  26.599  1.00  0.00     0.042 C 
BRANCH  30  31
ATOM     31  C   UNL A   1      32.805  32.706  27.285  1.00  0.00     0.118 C 
BRANCH  31  32
ATOM     32  N   UNL A   1      32.605  34.094  27.663  1.00  0.00    -0.352 N 
ATOM     33  C   UNL A   1      33.142  34.794  28.713  1.00  0.00     0.251 C 
ATOM     34  H   UNL A   1      31.996  34.606  27.081  1.00  0.00     0.163 HD
ATOM     35  O   UNL A   1      32.646  35.868  29.036  1.00  0.00    -0.269 OA
BRANCH  33  36
ATOM     36  C   UNL A   1      34.296  34.242  29.454  1.00  0.00     0.039 A 
ATOM     37  C   UNL A   1      34.073  33.580  30.662  1.00  0.00     0.014 A 
ATOM     38  C   UNL A   1      35.599  34.390  28.967  1.00  0.00     0.014 A 
ATOM     39  C   UNL A   1      35.150  33.023  31.355  1.00  0.00     0.010 A 
ATOM     40  C   UNL A   1      36.656  33.750  29.605  1.00  0.00     0.010 A 
ATOM     41  C   UNL A   1      36.446  33.076  30.816  1.00  0.00    -0.014 A 
BRANCH  41  42
ATOM     42  C   UNL A   1      37.608  32.476  31.522  1.00  0.00     0.031 A 
ATOM     43  C   UNL A   1      38.345  31.323  30.891  1.00  0.00     0.074 A 
ATOM     44  C   UNL A   1      37.963  32.927  32.741  1.00  0.00     0.049 A 
ATOM     45  N   UNL A   1      39.310  30.589  31.380  1.00  0.00    -0.248 NA
ATOM     46  C   UNL A   1      37.916  30.926  29.540  1.00  0.00     0.031 C 
ATOM     47  C   UNL A   1      37.309  34.021  33.462  1.00  0.00     0.029 A 
ATOM     48  N   UNL A   1      38.957  32.518  33.595  1.00  0.00    -0.354 N 
ATOM     49  C   UNL A   1      39.595  29.639  30.405  1.00  0.00     0.074 A 
ATOM     50  C   UNL A   1      38.652  29.846  29.328  1.00  0.00     0.031 C 
ATOM     51  C   UNL A   1      37.936  34.215  34.634  1.00  0.00     0.029 A 
ATOM     52  C   UNL A   1      39.000  33.225  34.775  1.00  0.00     0.049 A 
ATOM     53  H   UNL A   1      39.581  31.788  33.382  1.00  0.00     0.167 HD
ATOM     54  C   UNL A   1      40.573  28.700  30.395  1.00  0.00     0.034 A 
ATOM     55  C   UNL A   1      39.794  33.078  35.854  1.00  0.00     0.034 A 
ATOM     56  C   UNL A   1      41.514  28.519  31.470  1.00  0.00     0.049 A 
ATOM     57  C   UNL A   1      40.845  31.992  35.838  1.00  0.00     0.074 A 
ATOM     58  C   UNL A   1      42.563  27.619  31.556  1.00  0.00     0.029 A 
ATOM     59  N   UNL A   1      41.524  29.251  32.651  1.00  0.00    -0.354 N 
ATOM     60  N   UNL A   1      41.118  31.121  34.894  1.00  0.00    -0.248 NA
ATOM     61  C   UNL A   1      41.698  31.878  37.027  1.00  0.00     0.031 C 
ATOM     62  C   UNL A   1      43.163  27.763  32.809  1.00  0.00     0.029 A 
ATOM     63  C   UNL A   1      42.545  28.807  33.477  1.00  0.00     0.049 A 
ATOM     64  H   UNL A   1      40.898  29.979  32.868  1.00  0.00     0.167 HD
ATOM     65  C   UNL A   1      42.206  30.387  35.361  1.00  0.00     0.074 A 
ATOM     66  C   UNL A   1      42.542  30.925  36.663  1.00  0.00     0.031 C 
ATOM     67  C   UNL A   1      42.871  29.363  34.768  1.00  0.00     0.034 A 
BRANCH  54  68
ATOM     68  C   UNL A   1      40.659  27.795  29.190  1.00  0.00     0.023 A 
ATOM     69  C   UNL A   1      41.581  28.033  28.155  1.00  0.00     0.031 A 
ATOM     70  C   UNL A   1      39.803  26.687  29.066  1.00  0.00     0.131 A 
ATOM     71  C   UNL A   1      41.581  27.217  27.015  1.00  0.00     0.055 A 
ATOM     72  C   UNL A   1      39.863  25.829  27.965  1.00  0.00     0.041 A 
ATOM     73  F   UNL A   1      38.886  26.421  30.009  1.00  0.00    -0.206 F 
ATOM     74  C   UNL A   1      40.747  26.100  26.925  1.00  0.00     0.022 A 
BRANCH  71  75
ATOM     75  S   UNL A   1      42.593  27.714  25.595  1.00  0.00     0.124 S 
ATOM     76  O   UNL A   1      43.907  27.881  26.213  1.00  0.00    -0.237 OA
ATOM     77  O   UNL A   1      42.451  26.578  24.692  1.00  0.00    -0.237 OA
ATOM     78  O   UNL A   1      41.964  28.954  25.142  1.00  0.00    -0.744 OA
ENDBRANCH  71  75
ENDBRANCH  54  68
BRANCH  55  79
ATOM     79  C   UNL A   1      39.636  33.961  37.047  1.00  0.00     0.023 A 
ATOM     80  C   UNL A   1      39.057  33.475  38.231  1.00  0.00     0.031 A 
ATOM     81  C   UNL A   1      39.990  35.322  37.001  1.00  0.00     0.131 A 
ATOM     82  C   UNL A   1      38.783  34.353  39.290  1.00  0.00     0.055 A 
ATOM     83  C   UNL A   1      39.778  36.177  38.084  1.00  0.00     0.041 A 
ATOM     84  F   UNL A   1      40.549  35.842  35.897  1.00  0.00    -0.206 F 
ATOM     85  C   UNL A   1      39.153  35.699  39.231  1.00  0.00     0.022 A 
BRANCH  82  86
ATOM     86  S   UNL A   1      37.819  33.737  40.698  1.00  0.00     0.124 S 
ATOM     87  O   UNL A   1      36.719  33.054  40.025  1.00  0.00    -0.237 OA
ATOM     88  O   UNL A   1      38.787  32.881  41.375  1.00  0.00    -0.237 OA
ATOM     89  O   UNL A   1      37.453  34.954  41.417  1.00  0.00    -0.744 OA
ENDBRANCH  82  86
ENDBRANCH  55  79
BRANCH  67  90
ATOM     90  C   UNL A   1      44.073  28.809  35.492  1.00  0.00     0.023 A 
ATOM     91  C   UNL A   1      43.970  27.737  36.394  1.00  0.00     0.031 A 
ATOM     92  C   UNL A   1      45.345  29.368  35.270  1.00  0.00     0.131 A 
ATOM     93  C   UNL A   1      45.110  27.291  37.081  1.00  0.00     0.055 A 
ATOM     94  C   UNL A   1      46.485  28.880  35.908  1.00  0.00     0.041 A 
ATOM     95  F   UNL A   1      45.501  30.397  34.420  1.00  0.00    -0.206 F 
ATOM     96  C   UNL A   1      46.368  27.844  36.830  1.00  0.00     0.022 A 
BRANCH  93  97
ATOM     97  S   UNL A   1      44.911  26.036  38.374  1.00  0.00     0.124 S 
ATOM     98  O   UNL A   1      46.296  25.725  38.711  1.00  0.00    -0.237 OA
ATOM     99  O   UNL A   1      44.152  26.753  39.393  1.00  0.00    -0.237 OA
ATOM    100  O   UNL A   1      44.182  24.962  37.701  1.00  0.00    -0.744 OA
ENDBRANCH  93  97
ENDBRANCH  67  90
ENDBRANCH  41  42
ENDBRANCH  33  36
ENDBRANCH  31  32
ENDBRANCH  30  31
ENDBRANCH   1  30
TORSDOF 17
ENDMDL
