MODEL 1
REMARK VINA RESULT:     -12.2      0.000      0.000
REMARK SMILES Cc1ccc(Cl)c(Nc2ccccc2C(=O)N[C@@H](C)C(=O)NCCCNC(=O)c2ccc(-c3c4nc(c(-c5cc(S(=O)(=O)[O-])ccc5F)c5ccc([nH]5)c(-c5cc(S(=O)(=O)[O-])ccc5F)c5nc(c(-c6cc(S(=O)(=O)[O-])ccc6F)c6ccc3[nH]6)C=C5)C=C4)cc2)c1Cl
REMARK SMILES IDX 23 1 22 2 20 3 21 4 18 6 19 7 17 8 15 9 16 10 14 12 9 13
REMARK SMILES IDX 10 14 11 15 13 16 12 17 8 18 7 20 1 21 2 22 3 23 92 24 4 25
REMARK SMILES IDX 93 26 5 27 6 28 24 29 25 30 26 31 27 32 28 34 29 35 30 36
REMARK SMILES IDX 91 37 31 38 90 39 32 40 33 41 34 42 84 43 35 44 89 45 83 46
REMARK SMILES IDX 85 47 36 48 88 49 82 50 81 51 37 53 69 54 49 55 68 56 50 57
REMARK SMILES IDX 53 58 67 59 86 60 51 61 52 62 66 64 87 65 54 66 38 67 39 68
REMARK SMILES IDX 47 69 40 70 46 71 48 72 45 73 41 74 42 75 43 76 44 77 70 78
REMARK SMILES IDX 71 79 79 80 72 81 78 82 80 83 77 84 73 85 74 86 75 87 76 88
REMARK SMILES IDX 55 89 56 90 64 91 57 92 63 93 65 94 62 95 58 96 59 97 60 98
REMARK SMILES IDX 61 99
REMARK H PARENT 22 5 17 11 8 19 26 33 85 52 53 63
REMARK Flexibility Score: inf
ROOT
ATOM      1  C   UNL A   1      31.598  30.468  26.344  1.00  0.00     0.117 C 
ENDROOT
BRANCH   1   2
ATOM      2  N   UNL A   1      32.439  29.709  27.258  1.00  0.00    -0.354 N 
ATOM      3  C   UNL A   1      32.248  28.353  27.337  1.00  0.00     0.242 C 
ATOM      4  O   UNL A   1      31.320  27.945  28.033  1.00  0.00    -0.273 OA
ATOM      5  H   UNL A   1      33.126  30.156  27.805  1.00  0.00     0.163 HD
BRANCH   3   6
ATOM      6  C   UNL A   1      33.230  27.413  26.596  1.00  0.00     0.168 C 
ATOM      7  C   UNL A   1      33.907  28.026  25.381  1.00  0.00     0.041 C 
BRANCH   6   8
ATOM      8  N   UNL A   1      32.426  26.251  26.243  1.00  0.00    -0.340 N 
ATOM      9  C   UNL A   1      32.817  24.933  26.183  1.00  0.00     0.254 C 
ATOM     10  O   UNL A   1      32.005  24.107  26.611  1.00  0.00    -0.269 OA
ATOM     11  H   UNL A   1      31.485  26.432  26.018  1.00  0.00     0.164 HD
BRANCH   9  12
ATOM     12  C   UNL A   1      33.966  24.439  25.362  1.00  0.00     0.063 A 
ATOM     13  C   UNL A   1      34.088  24.260  23.970  1.00  0.00     0.051 A 
ATOM     14  C   UNL A   1      35.292  23.694  23.478  1.00  0.00     0.027 A 
ATOM     15  C   UNL A   1      36.369  23.381  24.307  1.00  0.00     0.002 A 
ATOM     16  C   UNL A   1      35.082  24.128  26.182  1.00  0.00     0.016 A 
ATOM     17  C   UNL A   1      36.271  23.619  25.665  1.00  0.00     0.001 A 
BRANCH  13  18
ATOM     18  N   UNL A   1      33.200  24.677  22.962  1.00  0.00    -0.352 N 
ATOM     19  H   UNL A   1      33.383  24.253  22.092  1.00  0.00     0.167 HD
BRANCH  18  20
ATOM     20  C   UNL A   1      32.099  25.570  22.917  1.00  0.00     0.077 A 
ATOM     21  C   UNL A   1      31.145  29.284  22.674  1.00  0.00     0.046 C 
ATOM     22  C   UNL A   1      31.041  27.788  22.809  1.00  0.00    -0.030 A 
ATOM     23  C   UNL A   1      29.814  27.231  23.201  1.00  0.00     0.006 A 
ATOM     24  C   UNL A   1      32.167  26.948  22.619  1.00  0.00     0.069 A 
ATOM     25  C   UNL A   1      29.702  25.865  23.419  1.00  0.00     0.023 A 
ATOM     26  Cl  UNL A   1      33.586  27.647  21.898  1.00  0.00    -0.082 Cl
ATOM     27  C   UNL A   1      30.830  25.055  23.292  1.00  0.00     0.066 A 
ATOM     28  Cl  UNL A   1      30.636  23.365  23.654  1.00  0.00    -0.082 Cl
ENDBRANCH  18  20
ENDBRANCH  13  18
ENDBRANCH   9  12
ENDBRANCH   6   8
ENDBRANCH   3   6
ENDBRANCH   1   2
BRANCH   1  29
ATOM     29  C   UNL A   1      31.543  31.972  26.640  1.00  0.00     0.042 C 
BRANCH  29  30
ATOM     30  C   UNL A   1      32.864  32.569  27.119  1.00  0.00     0.118 C 
BRANCH  30  31
ATOM     31  N   UNL A   1      32.694  33.930  27.611  1.00  0.00    -0.352 N 
ATOM     32  C   UNL A   1      33.230  34.525  28.724  1.00  0.00     0.251 C 
ATOM     33  H   UNL A   1      32.110  34.506  27.066  1.00  0.00     0.163 HD
ATOM     34  O   UNL A   1      32.722  35.565  29.150  1.00  0.00    -0.269 OA
BRANCH  32  35
ATOM     35  C   UNL A   1      34.392  33.926  29.411  1.00  0.00     0.039 A 
ATOM     36  C   UNL A   1      35.681  34.343  29.065  1.00  0.00     0.014 A 
ATOM     37  C   UNL A   1      34.216  32.917  30.360  1.00  0.00     0.014 A 
ATOM     38  C   UNL A   1      36.787  33.786  29.712  1.00  0.00     0.010 A 
ATOM     39  C   UNL A   1      35.314  32.416  31.057  1.00  0.00     0.010 A 
ATOM     40  C   UNL A   1      36.612  32.835  30.732  1.00  0.00    -0.014 A 
BRANCH  40  41
ATOM     41  C   UNL A   1      37.774  32.248  31.451  1.00  0.00     0.031 A 
ATOM     42  C   UNL A   1      38.563  31.132  30.817  1.00  0.00     0.074 A 
ATOM     43  C   UNL A   1      38.079  32.673  32.694  1.00  0.00     0.049 A 
ATOM     44  N   UNL A   1      39.556  30.435  31.309  1.00  0.00    -0.248 NA
ATOM     45  C   UNL A   1      38.162  30.731  29.461  1.00  0.00     0.031 C 
ATOM     46  C   UNL A   1      37.364  33.719  33.427  1.00  0.00     0.029 A 
ATOM     47  N   UNL A   1      39.063  32.273  33.563  1.00  0.00    -0.354 N 
ATOM     48  C   UNL A   1      39.882  29.498  30.332  1.00  0.00     0.074 A 
ATOM     49  C   UNL A   1      38.941  29.682  29.248  1.00  0.00     0.031 C 
ATOM     50  C   UNL A   1      37.949  33.896  34.623  1.00  0.00     0.029 A 
ATOM     51  C   UNL A   1      39.049  32.948  34.762  1.00  0.00     0.049 A 
ATOM     52  H   UNL A   1      39.717  31.570  33.348  1.00  0.00     0.167 HD
ATOM     53  C   UNL A   1      40.885  28.585  30.332  1.00  0.00     0.034 A 
ATOM     54  C   UNL A   1      39.828  32.809  35.853  1.00  0.00     0.034 A 
ATOM     55  C   UNL A   1      41.825  28.429  31.416  1.00  0.00     0.049 A 
ATOM     56  C   UNL A   1      40.930  31.778  35.835  1.00  0.00     0.074 A 
ATOM     57  C   UNL A   1      42.914  27.578  31.498  1.00  0.00     0.029 A 
ATOM     58  N   UNL A   1      41.786  29.137  32.611  1.00  0.00    -0.354 N 
ATOM     59  N   UNL A   1      41.257  30.934  34.883  1.00  0.00    -0.248 NA
ATOM     60  C   UNL A   1      41.775  31.692  37.033  1.00  0.00     0.031 C 
ATOM     61  C   UNL A   1      43.491  27.722  32.764  1.00  0.00     0.029 A 
ATOM     62  C   UNL A   1      42.813  28.722  33.445  1.00  0.00     0.049 A 
ATOM     63  H   UNL A   1      41.125  29.832  32.834  1.00  0.00     0.167 HD
ATOM     64  C   UNL A   1      42.371  30.246  35.355  1.00  0.00     0.074 A 
ATOM     65  C   UNL A   1      42.664  30.781  36.668  1.00  0.00     0.031 C 
ATOM     66  C   UNL A   1      43.092  29.264  34.755  1.00  0.00     0.034 A 
BRANCH  53  67
ATOM     67  C   UNL A   1      40.996  27.672  29.132  1.00  0.00     0.023 A 
ATOM     68  C   UNL A   1      41.988  27.854  28.152  1.00  0.00     0.031 A 
ATOM     69  C   UNL A   1      40.080  26.621  28.950  1.00  0.00     0.131 A 
ATOM     70  C   UNL A   1      41.990  27.055  26.998  1.00  0.00     0.055 A 
ATOM     71  C   UNL A   1      40.140  25.774  27.841  1.00  0.00     0.041 A 
ATOM     72  F   UNL A   1      39.098  26.408  29.839  1.00  0.00    -0.206 F 
ATOM     73  C   UNL A   1      41.089  25.999  26.848  1.00  0.00     0.022 A 
BRANCH  70  74
ATOM     74  S   UNL A   1      43.089  27.513  25.629  1.00  0.00     0.124 S 
ATOM     75  O   UNL A   1      44.093  28.324  26.316  1.00  0.00    -0.237 OA
ATOM     76  O   UNL A   1      43.542  26.217  25.140  1.00  0.00    -0.237 OA
ATOM     77  O   UNL A   1      42.217  28.255  24.721  1.00  0.00    -0.744 OA
ENDBRANCH  70  74
ENDBRANCH  53  67
BRANCH  54  78
ATOM     78  C   UNL A   1      39.606  33.661  37.057  1.00  0.00     0.023 A 
ATOM     79  C   UNL A   1      38.949  33.154  38.189  1.00  0.00     0.031 A 
ATOM     80  C   UNL A   1      40.006  35.010  37.077  1.00  0.00     0.131 A 
ATOM     81  C   UNL A   1      38.664  33.999  39.272  1.00  0.00     0.055 A 
ATOM     82  C   UNL A   1      39.769  35.833  38.179  1.00  0.00     0.041 A 
ATOM     83  F   UNL A   1      40.643  35.545  36.023  1.00  0.00    -0.206 F 
ATOM     84  C   UNL A   1      39.080  35.332  39.280  1.00  0.00     0.022 A 
BRANCH  81  85
ATOM     85  S   UNL A   1      37.657  33.353  40.635  1.00  0.00     0.124 S 
ATOM     86  O   UNL A   1      38.483  32.253  41.120  1.00  0.00    -0.237 OA
ATOM     87  O   UNL A   1      37.554  34.515  41.512  1.00  0.00    -0.237 OA
ATOM     88  O   UNL A   1      36.411  32.958  39.980  1.00  0.00    -0.744 OA
ENDBRANCH  81  85
ENDBRANCH  54  78
BRANCH  66  89
ATOM     89  C   UNL A   1      44.305  28.753  35.494  1.00  0.00     0.023 A 
ATOM     90  C   UNL A   1      44.227  27.684  36.404  1.00  0.00     0.031 A 
ATOM     91  C   UNL A   1      45.558  29.360  35.294  1.00  0.00     0.131 A 
ATOM     92  C   UNL A   1      45.367  27.294  37.124  1.00  0.00     0.055 A 
ATOM     93  C   UNL A   1      46.702  28.928  35.965  1.00  0.00     0.041 A 
ATOM     94  F   UNL A   1      45.691  30.388  34.439  1.00  0.00    -0.206 F 
ATOM     95  C   UNL A   1      46.607  27.898  36.897  1.00  0.00     0.022 A 
BRANCH  92  96
ATOM     96  S   UNL A   1      45.189  26.052  38.434  1.00  0.00     0.124 S 
ATOM     97  O   UNL A   1      46.579  25.724  38.733  1.00  0.00    -0.237 OA
ATOM     98  O   UNL A   1      44.473  26.792  39.468  1.00  0.00    -0.237 OA
ATOM     99  O   UNL A   1      44.423  24.985  37.794  1.00  0.00    -0.744 OA
ENDBRANCH  92  96
ENDBRANCH  66  89
ENDBRANCH  40  41
ENDBRANCH  32  35
ENDBRANCH  30  31
ENDBRANCH  29  30
ENDBRANCH   1  29
TORSDOF 17
ENDMDL
MODEL 2
REMARK VINA RESULT:     -12.0      1.328      2.715
REMARK SMILES Cc1ccc(Cl)c(Nc2ccccc2C(=O)N[C@@H](C)C(=O)NCCCNC(=O)c2ccc(-c3c4nc(c(-c5cc(S(=O)(=O)[O-])ccc5F)c5ccc([nH]5)c(-c5cc(S(=O)(=O)[O-])ccc5F)c5nc(c(-c6cc(S(=O)(=O)[O-])ccc6F)c6ccc3[nH]6)C=C5)C=C4)cc2)c1Cl
REMARK SMILES IDX 23 1 22 2 20 3 21 4 18 6 19 7 17 8 15 9 16 10 14 12 9 13
REMARK SMILES IDX 10 14 11 15 13 16 12 17 8 18 7 20 1 21 2 22 3 23 92 24 4 25
REMARK SMILES IDX 93 26 5 27 6 28 24 29 25 30 26 31 27 32 28 34 29 35 30 36
REMARK SMILES IDX 91 37 31 38 90 39 32 40 33 41 34 42 84 43 35 44 89 45 83 46
REMARK SMILES IDX 85 47 36 48 88 49 82 50 81 51 37 53 69 54 49 55 68 56 50 57
REMARK SMILES IDX 53 58 67 59 86 60 51 61 52 62 66 64 87 65 54 66 38 67 39 68
REMARK SMILES IDX 47 69 40 70 46 71 48 72 45 73 41 74 42 75 43 76 44 77 70 78
REMARK SMILES IDX 71 79 79 80 72 81 78 82 80 83 77 84 73 85 74 86 75 87 76 88
REMARK SMILES IDX 55 89 56 90 64 91 57 92 63 93 65 94 62 95 58 96 59 97 60 98
REMARK SMILES IDX 61 99
REMARK H PARENT 22 5 17 11 8 19 26 33 85 52 53 63
REMARK Flexibility Score: inf
ROOT
ATOM      1  C   UNL A   1      31.030  31.524  25.466  1.00  0.00     0.117 C 
ENDROOT
BRANCH   1   2
ATOM      2  N   UNL A   1      31.057  30.110  25.119  1.00  0.00    -0.354 N 
ATOM      3  C   UNL A   1      32.243  29.436  25.248  1.00  0.00     0.242 C 
ATOM      4  O   UNL A   1      33.071  29.556  24.346  1.00  0.00    -0.273 OA
ATOM      5  H   UNL A   1      30.245  29.650  24.801  1.00  0.00     0.163 HD
BRANCH   3   6
ATOM      6  C   UNL A   1      32.460  28.527  26.483  1.00  0.00     0.168 C 
ATOM      7  C   UNL A   1      33.850  27.923  26.596  1.00  0.00     0.041 C 
BRANCH   6   8
ATOM      8  N   UNL A   1      31.430  27.505  26.369  1.00  0.00    -0.340 N 
ATOM      9  C   UNL A   1      31.546  26.233  25.854  1.00  0.00     0.254 C 
ATOM     10  O   UNL A   1      30.943  25.344  26.464  1.00  0.00    -0.269 OA
ATOM     11  H   UNL A   1      30.537  27.754  26.701  1.00  0.00     0.164 HD
BRANCH   9  12
ATOM     12  C   UNL A   1      32.056  25.932  24.481  1.00  0.00     0.063 A 
ATOM     13  C   UNL A   1      33.165  25.170  24.061  1.00  0.00     0.051 A 
ATOM     14  C   UNL A   1      33.449  25.123  22.672  1.00  0.00     0.027 A 
ATOM     15  C   UNL A   1      32.638  25.737  21.718  1.00  0.00     0.002 A 
ATOM     16  C   UNL A   1      31.238  26.533  23.489  1.00  0.00     0.016 A 
ATOM     17  C   UNL A   1      31.514  26.429  22.128  1.00  0.00     0.001 A 
BRANCH  13  18
ATOM     18  N   UNL A   1      33.988  24.337  24.841  1.00  0.00    -0.352 N 
ATOM     19  H   UNL A   1      34.394  24.809  25.604  1.00  0.00     0.167 HD
BRANCH  18  20
ATOM     20  C   UNL A   1      34.365  22.971  24.775  1.00  0.00     0.077 A 
ATOM     21  C   UNL A   1      32.981  19.388  24.704  1.00  0.00     0.046 C 
ATOM     22  C   UNL A   1      33.938  20.549  24.735  1.00  0.00    -0.030 A 
ATOM     23  C   UNL A   1      35.293  20.298  25.002  1.00  0.00     0.006 A 
ATOM     24  C   UNL A   1      33.488  21.884  24.572  1.00  0.00     0.069 A 
ATOM     25  C   UNL A   1      36.191  21.350  25.124  1.00  0.00     0.023 A 
ATOM     26  Cl  UNL A   1      31.865  22.126  24.000  1.00  0.00    -0.082 Cl
ATOM     27  C   UNL A   1      35.727  22.661  25.026  1.00  0.00     0.066 A 
ATOM     28  Cl  UNL A   1      36.892  23.931  25.264  1.00  0.00    -0.082 Cl
ENDBRANCH  18  20
ENDBRANCH  13  18
ENDBRANCH   9  12
ENDBRANCH   6   8
ENDBRANCH   3   6
ENDBRANCH   1   2
BRANCH   1  29
ATOM     29  C   UNL A   1      31.373  31.820  26.932  1.00  0.00     0.042 C 
BRANCH  29  30
ATOM     30  C   UNL A   1      32.736  32.475  27.140  1.00  0.00     0.118 C 
BRANCH  30  31
ATOM     31  N   UNL A   1      32.610  33.875  27.521  1.00  0.00    -0.352 N 
ATOM     32  C   UNL A   1      33.172  34.544  28.577  1.00  0.00     0.251 C 
ATOM     33  H   UNL A   1      32.037  34.422  26.935  1.00  0.00     0.163 HD
ATOM     34  O   UNL A   1      32.698  35.629  28.922  1.00  0.00    -0.269 OA
BRANCH  32  35
ATOM     35  C   UNL A   1      34.325  33.969  29.302  1.00  0.00     0.039 A 
ATOM     36  C   UNL A   1      34.095  33.107  30.379  1.00  0.00     0.014 A 
ATOM     37  C   UNL A   1      35.631  34.317  28.951  1.00  0.00     0.014 A 
ATOM     38  C   UNL A   1      35.179  32.554  31.068  1.00  0.00     0.010 A 
ATOM     39  C   UNL A   1      36.709  33.707  29.590  1.00  0.00     0.010 A 
ATOM     40  C   UNL A   1      36.496  32.830  30.663  1.00  0.00    -0.014 A 
BRANCH  40  41
ATOM     41  C   UNL A   1      37.662  32.232  31.366  1.00  0.00     0.031 A 
ATOM     42  C   UNL A   1      38.429  31.106  30.724  1.00  0.00     0.074 A 
ATOM     43  C   UNL A   1      37.992  32.659  32.601  1.00  0.00     0.049 A 
ATOM     44  N   UNL A   1      39.421  30.399  31.202  1.00  0.00    -0.248 NA
ATOM     45  C   UNL A   1      38.001  30.703  29.376  1.00  0.00     0.031 C 
ATOM     46  C   UNL A   1      37.300  33.716  33.341  1.00  0.00     0.029 A 
ATOM     47  N   UNL A   1      38.986  32.252  33.456  1.00  0.00    -0.354 N 
ATOM     48  C   UNL A   1      39.722  29.455  30.225  1.00  0.00     0.074 A 
ATOM     49  C   UNL A   1      38.766  29.644  29.155  1.00  0.00     0.031 C 
ATOM     50  C   UNL A   1      37.906  33.891  34.527  1.00  0.00     0.029 A 
ATOM     51  C   UNL A   1      38.998  32.931  34.653  1.00  0.00     0.049 A 
ATOM     52  H   UNL A   1      39.628  31.541  33.234  1.00  0.00     0.167 HD
ATOM     53  C   UNL A   1      40.714  28.530  30.212  1.00  0.00     0.034 A 
ATOM     54  C   UNL A   1      39.793  32.788  35.732  1.00  0.00     0.034 A 
ATOM     55  C   UNL A   1      41.670  28.368  31.282  1.00  0.00     0.049 A 
ATOM     56  C   UNL A   1      40.883  31.746  35.700  1.00  0.00     0.074 A 
ATOM     57  C   UNL A   1      42.750  27.505  31.351  1.00  0.00     0.029 A 
ATOM     58  N   UNL A   1      41.658  29.081  32.474  1.00  0.00    -0.354 N 
ATOM     59  N   UNL A   1      41.185  30.894  34.747  1.00  0.00    -0.248 NA
ATOM     60  C   UNL A   1      41.746  31.655  36.885  1.00  0.00     0.031 C 
ATOM     61  C   UNL A   1      43.349  27.648  32.606  1.00  0.00     0.029 A 
ATOM     62  C   UNL A   1      42.694  28.659  33.294  1.00  0.00     0.049 A 
ATOM     63  H   UNL A   1      41.008  29.784  32.705  1.00  0.00     0.167 HD
ATOM     64  C   UNL A   1      42.300  30.195  35.204  1.00  0.00     0.074 A 
ATOM     65  C   UNL A   1      42.619  30.733  36.510  1.00  0.00     0.031 C 
ATOM     66  C   UNL A   1      42.999  29.202  34.596  1.00  0.00     0.034 A 
BRANCH  53  67
ATOM     67  C   UNL A   1      40.795  27.611  29.015  1.00  0.00     0.023 A 
ATOM     68  C   UNL A   1      41.752  27.799  28.001  1.00  0.00     0.031 A 
ATOM     69  C   UNL A   1      39.886  26.549  28.869  1.00  0.00     0.131 A 
ATOM     70  C   UNL A   1      41.725  26.993  26.852  1.00  0.00     0.055 A 
ATOM     71  C   UNL A   1      39.919  25.696  27.764  1.00  0.00     0.041 A 
ATOM     72  F   UNL A   1      38.937  26.330  29.792  1.00  0.00    -0.206 F 
ATOM     73  C   UNL A   1      40.832  25.925  26.739  1.00  0.00     0.022 A 
BRANCH  70  74
ATOM     74  S   UNL A   1      42.773  27.455  25.445  1.00  0.00     0.124 S 
ATOM     75  O   UNL A   1      42.809  26.208  24.683  1.00  0.00    -0.237 OA
ATOM     76  O   UNL A   1      42.025  28.551  24.841  1.00  0.00    -0.237 OA
ATOM     77  O   UNL A   1      44.039  27.831  26.069  1.00  0.00    -0.744 OA
ENDBRANCH  70  74
ENDBRANCH  53  67
BRANCH  54  78
ATOM     78  C   UNL A   1      39.601  33.648  36.936  1.00  0.00     0.023 A 
ATOM     79  C   UNL A   1      38.955  33.153  38.079  1.00  0.00     0.031 A 
ATOM     80  C   UNL A   1      40.016  34.992  36.944  1.00  0.00     0.131 A 
ATOM     81  C   UNL A   1      38.697  34.006  39.163  1.00  0.00     0.055 A 
ATOM     82  C   UNL A   1      39.806  35.822  38.046  1.00  0.00     0.041 A 
ATOM     83  F   UNL A   1      40.643  35.515  35.878  1.00  0.00    -0.206 F 
ATOM     84  C   UNL A   1      39.129  35.334  39.159  1.00  0.00     0.022 A 
BRANCH  81  85
ATOM     85  S   UNL A   1      37.703  33.377  40.544  1.00  0.00     0.124 S 
ATOM     86  O   UNL A   1      38.545  32.299  41.049  1.00  0.00    -0.237 OA
ATOM     87  O   UNL A   1      37.590  34.557  41.396  1.00  0.00    -0.237 OA
ATOM     88  O   UNL A   1      36.460  32.953  39.904  1.00  0.00    -0.744 OA
ENDBRANCH  81  85
ENDBRANCH  54  78
BRANCH  66  89
ATOM     89  C   UNL A   1      44.218  28.681  35.319  1.00  0.00     0.023 A 
ATOM     90  C   UNL A   1      44.133  27.663  36.284  1.00  0.00     0.031 A 
ATOM     91  C   UNL A   1      45.485  29.227  35.044  1.00  0.00     0.131 A 
ATOM     92  C   UNL A   1      45.283  27.264  36.983  1.00  0.00     0.055 A 
ATOM     93  C   UNL A   1      46.635  28.783  35.696  1.00  0.00     0.041 A 
ATOM     94  F   UNL A   1      45.626  30.204  34.133  1.00  0.00    -0.206 F 
ATOM     95  C   UNL A   1      46.536  27.806  36.682  1.00  0.00     0.022 A 
BRANCH  92  96
ATOM     96  S   UNL A   1      45.106  26.097  38.361  1.00  0.00     0.124 S 
ATOM     97  O   UNL A   1      46.424  26.161  38.983  1.00  0.00    -0.237 OA
ATOM     98  O   UNL A   1      44.011  26.684  39.126  1.00  0.00    -0.237 OA
ATOM     99  O   UNL A   1      44.791  24.832  37.700  1.00  0.00    -0.744 OA
ENDBRANCH  92  96
ENDBRANCH  66  89
ENDBRANCH  40  41
ENDBRANCH  32  35
ENDBRANCH  30  31
ENDBRANCH  29  30
ENDBRANCH   1  29
TORSDOF 17
ENDMDL
MODEL 3
REMARK VINA RESULT:     -12.0      5.644     11.457
REMARK SMILES Cc1ccc(Cl)c(Nc2ccccc2C(=O)N[C@@H](C)C(=O)NCCCNC(=O)c2ccc(-c3c4nc(c(-c5cc(S(=O)(=O)[O-])ccc5F)c5ccc([nH]5)c(-c5cc(S(=O)(=O)[O-])ccc5F)c5nc(c(-c6cc(S(=O)(=O)[O-])ccc6F)c6ccc3[nH]6)C=C5)C=C4)cc2)c1Cl
REMARK SMILES IDX 23 1 22 2 20 3 21 4 18 6 19 7 17 8 15 9 16 10 14 12 9 13
REMARK SMILES IDX 10 14 11 15 13 16 12 17 8 18 7 20 1 21 2 22 3 23 92 24 4 25
REMARK SMILES IDX 93 26 5 27 6 28 24 29 25 30 26 31 27 32 28 34 29 35 30 36
REMARK SMILES IDX 91 37 31 38 90 39 32 40 33 41 34 42 84 43 35 44 89 45 83 46
REMARK SMILES IDX 85 47 36 48 88 49 82 50 81 51 37 53 69 54 49 55 68 56 50 57
REMARK SMILES IDX 53 58 67 59 86 60 51 61 52 62 66 64 87 65 54 66 38 67 39 68
REMARK SMILES IDX 47 69 40 70 46 71 48 72 45 73 41 74 42 75 43 76 44 77 70 78
REMARK SMILES IDX 71 79 79 80 72 81 78 82 80 83 77 84 73 85 74 86 75 87 76 88
REMARK SMILES IDX 55 89 56 90 64 91 57 92 63 93 65 94 62 95 58 96 59 97 60 98
REMARK SMILES IDX 61 99
REMARK H PARENT 22 5 17 11 8 19 26 33 85 52 53 63
REMARK Flexibility Score: inf
ROOT
ATOM      1  C   UNL A   1      37.073  20.781  24.772  1.00  0.00     0.117 C 
ENDROOT
BRANCH   1   2
ATOM      2  N   UNL A   1      37.547  22.145  24.591  1.00  0.00    -0.354 N 
ATOM      3  C   UNL A   1      36.748  23.020  23.901  1.00  0.00     0.242 C 
ATOM      4  O   UNL A   1      36.769  22.970  22.673  1.00  0.00    -0.273 OA
ATOM      5  H   UNL A   1      38.417  22.432  24.953  1.00  0.00     0.163 HD
BRANCH   3   6
ATOM      6  C   UNL A   1      35.905  24.050  24.694  1.00  0.00     0.168 C 
ATOM      7  C   UNL A   1      35.530  23.620  26.102  1.00  0.00     0.041 C 
BRANCH   6   8
ATOM      8  N   UNL A   1      34.730  24.276  23.863  1.00  0.00    -0.340 N 
ATOM      9  C   UNL A   1      33.974  25.421  23.752  1.00  0.00     0.254 C 
ATOM     10  O   UNL A   1      33.590  25.710  22.615  1.00  0.00    -0.269 OA
ATOM     11  H   UNL A   1      34.440  23.514  23.311  1.00  0.00     0.164 HD
BRANCH   9  12
ATOM     12  C   UNL A   1      33.338  26.117  24.914  1.00  0.00     0.063 A 
ATOM     13  C   UNL A   1      32.287  25.713  25.761  1.00  0.00     0.051 A 
ATOM     14  C   UNL A   1      31.839  26.631  26.746  1.00  0.00     0.027 A 
ATOM     15  C   UNL A   1      32.444  27.871  26.946  1.00  0.00     0.002 A 
ATOM     16  C   UNL A   1      33.946  27.377  25.149  1.00  0.00     0.016 A 
ATOM     17  C   UNL A   1      33.517  28.238  26.156  1.00  0.00     0.001 A 
BRANCH  13  18
ATOM     18  N   UNL A   1      31.675  24.448  25.839  1.00  0.00    -0.352 N 
ATOM     19  H   UNL A   1      30.986  24.401  26.541  1.00  0.00     0.167 HD
BRANCH  18  20
ATOM     20  C   UNL A   1      31.828  23.226  25.135  1.00  0.00     0.077 A 
ATOM     21  C   UNL A   1      33.624  19.831  25.197  1.00  0.00     0.046 C 
ATOM     22  C   UNL A   1      32.765  20.985  24.753  1.00  0.00    -0.030 A 
ATOM     23  C   UNL A   1      32.295  21.005  23.430  1.00  0.00     0.006 A 
ATOM     24  C   UNL A   1      32.485  22.074  25.616  1.00  0.00     0.069 A 
ATOM     25  C   UNL A   1      31.573  22.093  22.959  1.00  0.00     0.023 A 
ATOM     26  Cl  UNL A   1      32.871  21.891  27.301  1.00  0.00    -0.082 Cl
ATOM     27  C   UNL A   1      31.358  23.188  23.795  1.00  0.00     0.066 A 
ATOM     28  Cl  UNL A   1      30.513  24.547  23.117  1.00  0.00    -0.082 Cl
ENDBRANCH  18  20
ENDBRANCH  13  18
ENDBRANCH   9  12
ENDBRANCH   6   8
ENDBRANCH   3   6
ENDBRANCH   1   2
BRANCH   1  29
ATOM     29  C   UNL A   1      38.184  19.759  25.048  1.00  0.00     0.042 C 
BRANCH  29  30
ATOM     30  C   UNL A   1      39.302  20.272  25.952  1.00  0.00     0.118 C 
BRANCH  30  31
ATOM     31  N   UNL A   1      40.397  19.317  26.050  1.00  0.00    -0.352 N 
ATOM     32  C   UNL A   1      41.749  19.543  26.066  1.00  0.00     0.251 C 
ATOM     33  H   UNL A   1      40.129  18.371  26.113  1.00  0.00     0.163 HD
ATOM     34  O   UNL A   1      42.517  18.608  25.826  1.00  0.00    -0.269 OA
BRANCH  32  35
ATOM     35  C   UNL A   1      42.282  20.891  26.355  1.00  0.00     0.039 A 
ATOM     36  C   UNL A   1      42.526  21.772  25.297  1.00  0.00     0.014 A 
ATOM     37  C   UNL A   1      42.587  21.269  27.664  1.00  0.00     0.014 A 
ATOM     38  C   UNL A   1      43.025  23.050  25.560  1.00  0.00     0.010 A 
ATOM     39  C   UNL A   1      43.014  22.569  27.931  1.00  0.00     0.010 A 
ATOM     40  C   UNL A   1      43.249  23.469  26.882  1.00  0.00    -0.014 A 
BRANCH  40  41
ATOM     41  C   UNL A   1      43.756  24.834  27.187  1.00  0.00     0.031 A 
ATOM     42  C   UNL A   1      42.818  25.880  27.729  1.00  0.00     0.074 A 
ATOM     43  C   UNL A   1      45.039  25.149  26.918  1.00  0.00     0.049 A 
ATOM     44  N   UNL A   1      43.041  27.144  27.983  1.00  0.00    -0.248 NA
ATOM     45  C   UNL A   1      41.436  25.451  27.992  1.00  0.00     0.031 C 
ATOM     46  C   UNL A   1      46.033  24.232  26.356  1.00  0.00     0.029 A 
ATOM     47  N   UNL A   1      45.726  26.326  27.074  1.00  0.00    -0.354 N 
ATOM     48  C   UNL A   1      41.825  27.666  28.414  1.00  0.00     0.074 A 
ATOM     49  C   UNL A   1      40.857  26.593  28.328  1.00  0.00     0.031 C 
ATOM     50  C   UNL A   1      47.206  24.874  26.239  1.00  0.00     0.029 A 
ATOM     51  C   UNL A   1      47.040  26.258  26.672  1.00  0.00     0.049 A 
ATOM     52  H   UNL A   1      45.317  27.144  27.439  1.00  0.00     0.167 HD
ATOM     53  C   UNL A   1      41.547  28.917  28.859  1.00  0.00     0.034 A 
ATOM     54  C   UNL A   1      47.998  27.206  26.646  1.00  0.00     0.034 A 
ATOM     55  C   UNL A   1      42.530  29.969  28.955  1.00  0.00     0.049 A 
ATOM     56  C   UNL A   1      47.663  28.593  27.135  1.00  0.00     0.074 A 
ATOM     57  C   UNL A   1      42.374  31.255  29.444  1.00  0.00     0.029 A 
ATOM     58  N   UNL A   1      43.854  29.860  28.548  1.00  0.00    -0.354 N 
ATOM     59  N   UNL A   1      46.520  29.057  27.586  1.00  0.00    -0.248 NA
ATOM     60  C   UNL A   1      48.751  29.579  27.122  1.00  0.00     0.031 C 
ATOM     61  C   UNL A   1      43.581  31.941  29.272  1.00  0.00     0.029 A 
ATOM     62  C   UNL A   1      44.516  31.061  28.750  1.00  0.00     0.049 A 
ATOM     63  H   UNL A   1      44.264  29.048  28.170  1.00  0.00     0.167 HD
ATOM     64  C   UNL A   1      46.765  30.379  27.948  1.00  0.00     0.074 A 
ATOM     65  C   UNL A   1      48.164  30.632  27.672  1.00  0.00     0.031 C 
ATOM     66  C   UNL A   1      45.913  31.300  28.467  1.00  0.00     0.034 A 
BRANCH  53  67
ATOM     67  C   UNL A   1      40.117  29.216  29.250  1.00  0.00     0.023 A 
ATOM     68  C   UNL A   1      39.715  29.276  30.596  1.00  0.00     0.031 A 
ATOM     69  C   UNL A   1      39.136  29.415  28.263  1.00  0.00     0.131 A 
ATOM     70  C   UNL A   1      38.359  29.446  30.917  1.00  0.00     0.055 A 
ATOM     71  C   UNL A   1      37.802  29.670  28.590  1.00  0.00     0.041 A 
ATOM     72  F   UNL A   1      39.453  29.350  26.961  1.00  0.00    -0.206 F 
ATOM     73  C   UNL A   1      37.404  29.670  29.924  1.00  0.00     0.022 A 
BRANCH  70  74
ATOM     74  S   UNL A   1      37.842  29.219  32.641  1.00  0.00     0.124 S 
ATOM     75  O   UNL A   1      36.571  29.940  32.664  1.00  0.00    -0.237 OA
ATOM     76  O   UNL A   1      37.756  27.769  32.757  1.00  0.00    -0.237 OA
ATOM     77  O   UNL A   1      38.917  29.845  33.407  1.00  0.00    -0.744 OA
ENDBRANCH  70  74
ENDBRANCH  53  67
BRANCH  54  78
ATOM     78  C   UNL A   1      49.367  26.888  26.146  1.00  0.00     0.023 A 
ATOM     79  C   UNL A   1      49.775  27.282  24.862  1.00  0.00     0.031 A 
ATOM     80  C   UNL A   1      50.271  26.143  26.925  1.00  0.00     0.131 A 
ATOM     81  C   UNL A   1      51.031  26.889  24.374  1.00  0.00     0.055 A 
ATOM     82  C   UNL A   1      51.541  25.801  26.456  1.00  0.00     0.041 A 
ATOM     83  F   UNL A   1      49.934  25.744  28.162  1.00  0.00    -0.206 F 
ATOM     84  C   UNL A   1      51.921  26.161  25.167  1.00  0.00     0.022 A 
BRANCH  81  85
ATOM     85  S   UNL A   1      51.447  27.265  22.649  1.00  0.00     0.124 S 
ATOM     86  O   UNL A   1      52.586  26.384  22.419  1.00  0.00    -0.237 OA
ATOM     87  O   UNL A   1      50.212  26.911  21.957  1.00  0.00    -0.237 OA
ATOM     88  O   UNL A   1      51.755  28.693  22.676  1.00  0.00    -0.744 OA
ENDBRANCH  81  85
ENDBRANCH  54  78
BRANCH  66  89
ATOM     89  C   UNL A   1      46.493  32.646  28.828  1.00  0.00     0.023 A 
ATOM     90  C   UNL A   1      46.524  33.713  27.912  1.00  0.00     0.031 A 
ATOM     91  C   UNL A   1      47.039  32.857  30.107  1.00  0.00     0.131 A 
ATOM     92  C   UNL A   1      47.142  34.921  28.269  1.00  0.00     0.055 A 
ATOM     93  C   UNL A   1      47.596  34.081  30.477  1.00  0.00     0.041 A 
ATOM     94  F   UNL A   1      47.039  31.873  31.021  1.00  0.00    -0.206 F 
ATOM     95  C   UNL A   1      47.662  35.118  29.551  1.00  0.00     0.022 A 
BRANCH  92  96
ATOM     96  S   UNL A   1      47.347  36.203  27.001  1.00  0.00     0.124 S 
ATOM     97  O   UNL A   1      46.764  35.565  25.826  1.00  0.00    -0.237 OA
ATOM     98  O   UNL A   1      46.591  37.319  27.562  1.00  0.00    -0.237 OA
ATOM     99  O   UNL A   1      48.794  36.402  26.946  1.00  0.00    -0.744 OA
ENDBRANCH  92  96
ENDBRANCH  66  89
ENDBRANCH  40  41
ENDBRANCH  32  35
ENDBRANCH  30  31
ENDBRANCH  29  30
ENDBRANCH   1  29
TORSDOF 17
ENDMDL
