MODEL 1
REMARK VINA RESULT:     -12.0      0.000      0.000
REMARK SMILES CCC[C@@]1(C(=O)NCCCNC(=O)c2ccc(-c3c4nc(c(-c5cc(S(=O)(=O)[O-])ccc5F)c5ccc([nH]5)c(-c5cc(S(=O)(=O)[O-])ccc5F)c5nc(c(-c6cc(S(=O)(=O)[O-])ccc6F)c6ccc3[nH]6)C=C5)C=C4)cc2)CCCN(C(=O)C[C@H]2CCCCO2)C1
REMARK SMILES IDX 9 1 8 2 7 3 5 4 6 5 4 7 77 8 90 9 78 10 80 11 79 12 3 13
REMARK SMILES IDX 2 14 1 15 81 16 82 17 83 18 84 19 85 20 89 21 86 22 88 23
REMARK SMILES IDX 87 24 10 25 11 26 12 27 13 29 14 30 15 31 76 32 16 33 75 34
REMARK SMILES IDX 17 35 18 36 19 37 69 38 20 39 74 40 68 41 70 42 21 43 73 44
REMARK SMILES IDX 67 45 66 46 22 48 54 49 34 50 53 51 35 52 38 53 52 54 71 55
REMARK SMILES IDX 36 56 37 57 51 59 72 60 39 61 23 62 24 63 32 64 25 65 31 66
REMARK SMILES IDX 33 67 30 68 26 69 27 70 28 71 29 72 55 73 56 74 64 75 57 76
REMARK SMILES IDX 63 77 65 78 62 79 58 80 59 81 60 82 61 83 40 84 41 85 49 86
REMARK SMILES IDX 42 87 48 88 50 89 47 90 43 91 44 92 45 93 46 94
REMARK H PARENT 7 6 11 28 70 47 38 58
REMARK Flexibility Score: inf
ROOT
ATOM      1  C   UNL A   1      31.827  30.885  26.323  1.00  0.00     0.042 C 
ENDROOT
BRANCH   1   2
ATOM      2  C   UNL A   1      32.188  29.492  25.837  1.00  0.00     0.117 C 
BRANCH   2   3
ATOM      3  N   UNL A   1      33.173  29.477  24.764  1.00  0.00    -0.355 N 
ATOM      4  C   UNL A   1      33.616  28.480  23.943  1.00  0.00     0.228 C 
ATOM      5  O   UNL A   1      34.433  28.814  23.077  1.00  0.00    -0.274 OA
ATOM      6  H   UNL A   1      33.600  30.349  24.601  1.00  0.00     0.163 HD
BRANCH   4   7
ATOM      7  C   UNL A   1      33.233  26.992  24.148  1.00  0.00     0.067 C 
ATOM      8  C   UNL A   1      33.730  26.128  22.939  1.00  0.00     0.020 C 
ATOM      9  C   UNL A   1      31.691  26.810  24.222  1.00  0.00     0.136 C 
ATOM     10  C   UNL A   1      32.913  26.241  21.646  1.00  0.00     0.023 C 
ATOM     11  N   UNL A   1      31.052  27.068  22.923  1.00  0.00    -0.342 N 
ATOM     12  C   UNL A   1      31.422  26.104  21.908  1.00  0.00     0.119 C 
BRANCH   7  13
ATOM     13  C   UNL A   1      33.973  26.572  25.468  1.00  0.00     0.018 C 
BRANCH  13  14
ATOM     14  C   UNL A   1      34.448  25.125  25.666  1.00  0.00    -0.002 C 
ATOM     15  C   UNL A   1      33.362  24.139  26.090  1.00  0.00     0.004 C 
ENDBRANCH  13  14
ENDBRANCH   7  13
BRANCH  11  16
ATOM     16  C   UNL A   1      30.395  28.268  22.691  1.00  0.00     0.225 C 
ATOM     17  O   UNL A   1      31.012  29.277  22.333  1.00  0.00    -0.275 OA
BRANCH  16  18
ATOM     18  C   UNL A   1      28.890  28.393  22.912  1.00  0.00     0.132 C 
BRANCH  18  19
ATOM     19  C   UNL A   1      28.205  29.720  22.543  1.00  0.00     0.127 C 
ATOM     20  C   UNL A   1      28.455  30.877  23.515  1.00  0.00     0.033 C 
ATOM     21  O   UNL A   1      28.576  30.059  21.200  1.00  0.00    -0.378 OA
ATOM     22  C   UNL A   1      27.979  32.231  22.985  1.00  0.00     0.005 C 
ATOM     23  C   UNL A   1      27.902  31.210  20.705  1.00  0.00     0.160 C 
ATOM     24  C   UNL A   1      28.294  32.436  21.508  1.00  0.00     0.029 C 
ENDBRANCH  18  19
ENDBRANCH  16  18
ENDBRANCH  11  16
ENDBRANCH   4   7
ENDBRANCH   2   3
ENDBRANCH   1   2
BRANCH   1  25
ATOM     25  C   UNL A   1      32.926  31.585  27.105  1.00  0.00     0.118 C 
BRANCH  25  26
ATOM     26  N   UNL A   1      32.666  33.000  27.340  1.00  0.00    -0.352 N 
ATOM     27  C   UNL A   1      33.244  33.892  28.217  1.00  0.00     0.251 C 
ATOM     28  H   UNL A   1      31.957  33.383  26.776  1.00  0.00     0.163 HD
ATOM     29  O   UNL A   1      32.773  35.016  28.327  1.00  0.00    -0.269 OA
BRANCH  27  30
ATOM     30  C   UNL A   1      34.395  33.486  29.059  1.00  0.00     0.039 A 
ATOM     31  C   UNL A   1      34.157  32.697  30.188  1.00  0.00     0.014 A 
ATOM     32  C   UNL A   1      35.700  33.868  28.748  1.00  0.00     0.014 A 
ATOM     33  C   UNL A   1      35.233  32.218  30.941  1.00  0.00     0.010 A 
ATOM     34  C   UNL A   1      36.772  33.293  29.424  1.00  0.00     0.010 A 
ATOM     35  C   UNL A   1      36.554  32.466  30.534  1.00  0.00    -0.014 A 
BRANCH  35  36
ATOM     36  C   UNL A   1      37.711  31.869  31.256  1.00  0.00     0.031 A 
ATOM     37  C   UNL A   1      38.518  30.766  30.621  1.00  0.00     0.074 A 
ATOM     38  C   UNL A   1      37.999  32.281  32.507  1.00  0.00     0.049 A 
ATOM     39  N   UNL A   1      39.538  30.102  31.103  1.00  0.00    -0.248 NA
ATOM     40  C   UNL A   1      38.103  30.329  29.280  1.00  0.00     0.031 C 
ATOM     41  C   UNL A   1      37.256  33.301  33.254  1.00  0.00     0.029 A 
ATOM     42  N   UNL A   1      38.993  31.901  33.374  1.00  0.00    -0.354 N 
ATOM     43  C   UNL A   1      39.869  29.158  30.137  1.00  0.00     0.074 A 
ATOM     44  C   UNL A   1      38.896  29.290  29.075  1.00  0.00     0.031 C 
ATOM     45  C   UNL A   1      37.853  33.502  34.439  1.00  0.00     0.029 A 
ATOM     46  C   UNL A   1      38.985  32.591  34.564  1.00  0.00     0.049 A 
ATOM     47  H   UNL A   1      39.650  31.198  33.164  1.00  0.00     0.167 HD
ATOM     48  C   UNL A   1      40.904  28.281  30.124  1.00  0.00     0.034 A 
ATOM     49  C   UNL A   1      39.798  32.502  35.636  1.00  0.00     0.034 A 
ATOM     50  C   UNL A   1      41.877  28.177  31.185  1.00  0.00     0.049 A 
ATOM     51  C   UNL A   1      40.930  31.509  35.605  1.00  0.00     0.074 A 
ATOM     52  C   UNL A   1      43.008  27.381  31.243  1.00  0.00     0.029 A 
ATOM     53  N   UNL A   1      41.828  28.880  32.383  1.00  0.00    -0.354 N 
ATOM     54  N   UNL A   1      41.275  30.674  34.651  1.00  0.00    -0.248 NA
ATOM     55  C   UNL A   1      41.790  31.454  36.793  1.00  0.00     0.031 C 
ATOM     56  C   UNL A   1      43.593  27.541  32.504  1.00  0.00     0.029 A 
ATOM     57  C   UNL A   1      42.881  28.504  33.204  1.00  0.00     0.049 A 
ATOM     58  H   UNL A   1      41.143  29.549  32.617  1.00  0.00     0.167 HD
ATOM     59  C   UNL A   1      42.413  30.018  35.114  1.00  0.00     0.074 A 
ATOM     60  C   UNL A   1      42.705  30.573  36.420  1.00  0.00     0.031 C 
ATOM     61  C   UNL A   1      43.150  29.047  34.515  1.00  0.00     0.034 A 
BRANCH  48  62
ATOM     62  C   UNL A   1      41.011  27.347  28.938  1.00  0.00     0.023 A 
ATOM     63  C   UNL A   1      42.008  27.498  27.957  1.00  0.00     0.031 A 
ATOM     64  C   UNL A   1      40.079  26.307  28.767  1.00  0.00     0.131 A 
ATOM     65  C   UNL A   1      41.996  26.689  26.812  1.00  0.00     0.055 A 
ATOM     66  C   UNL A   1      40.127  25.445  27.669  1.00  0.00     0.041 A 
ATOM     67  F   UNL A   1      39.090  26.121  29.655  1.00  0.00    -0.206 F 
ATOM     68  C   UNL A   1      41.079  25.645  26.673  1.00  0.00     0.022 A 
BRANCH  65  69
ATOM     69  S   UNL A   1      43.086  27.128  25.429  1.00  0.00     0.124 S 
ATOM     70  O   UNL A   1      44.253  27.658  26.131  1.00  0.00    -0.237 OA
ATOM     71  O   UNL A   1      43.271  25.848  24.756  1.00  0.00    -0.237 OA
ATOM     72  O   UNL A   1      42.314  28.120  24.685  1.00  0.00    -0.744 OA
ENDBRANCH  65  69
ENDBRANCH  48  62
BRANCH  49  73
ATOM     73  C   UNL A   1      39.586  33.378  36.826  1.00  0.00     0.023 A 
ATOM     74  C   UNL A   1      38.939  32.889  37.972  1.00  0.00     0.031 A 
ATOM     75  C   UNL A   1      39.984  34.727  36.819  1.00  0.00     0.131 A 
ATOM     76  C   UNL A   1      38.667  33.752  39.045  1.00  0.00     0.055 A 
ATOM     77  C   UNL A   1      39.762  35.566  37.912  1.00  0.00     0.041 A 
ATOM     78  F   UNL A   1      40.608  35.245  35.750  1.00  0.00    -0.206 F 
ATOM     79  C   UNL A   1      39.087  35.083  39.029  1.00  0.00     0.022 A 
BRANCH  76  80
ATOM     80  S   UNL A   1      37.676  33.129  40.431  1.00  0.00     0.124 S 
ATOM     81  O   UNL A   1      38.458  31.976  40.862  1.00  0.00    -0.237 OA
ATOM     82  O   UNL A   1      37.666  34.274  41.336  1.00  0.00    -0.237 OA
ATOM     83  O   UNL A   1      36.389  32.815  39.813  1.00  0.00    -0.744 OA
ENDBRANCH  76  80
ENDBRANCH  49  73
BRANCH  61  84
ATOM     84  C   UNL A   1      44.366  28.554  35.266  1.00  0.00     0.023 A 
ATOM     85  C   UNL A   1      44.274  27.545  36.241  1.00  0.00     0.031 A 
ATOM     86  C   UNL A   1      45.627  29.129  35.030  1.00  0.00     0.131 A 
ATOM     87  C   UNL A   1      45.404  27.199  36.997  1.00  0.00     0.055 A 
ATOM     88  C   UNL A   1      46.764  28.726  35.733  1.00  0.00     0.041 A 
ATOM     89  F   UNL A   1      45.777  30.100  34.114  1.00  0.00    -0.206 F 
ATOM     90  C   UNL A   1      46.652  27.768  36.735  1.00  0.00     0.022 A 
BRANCH  87  91
ATOM     91  S   UNL A   1      45.191  26.088  38.416  1.00  0.00     0.124 S 
ATOM     92  O   UNL A   1      46.506  25.463  38.512  1.00  0.00    -0.237 OA
ATOM     93  O   UNL A   1      44.846  27.015  39.489  1.00  0.00    -0.237 OA
ATOM     94  O   UNL A   1      44.111  25.198  37.995  1.00  0.00    -0.744 OA
ENDBRANCH  87  91
ENDBRANCH  61  84
ENDBRANCH  35  36
ENDBRANCH  27  30
ENDBRANCH  25  26
ENDBRANCH   1  25
TORSDOF 18
ENDMDL
MODEL 2
REMARK VINA RESULT:     -12.0      5.849      8.702
REMARK SMILES CCC[C@@]1(C(=O)NCCCNC(=O)c2ccc(-c3c4nc(c(-c5cc(S(=O)(=O)[O-])ccc5F)c5ccc([nH]5)c(-c5cc(S(=O)(=O)[O-])ccc5F)c5nc(c(-c6cc(S(=O)(=O)[O-])ccc6F)c6ccc3[nH]6)C=C5)C=C4)cc2)CCCN(C(=O)C[C@H]2CCCCO2)C1
REMARK SMILES IDX 9 1 8 2 7 3 5 4 6 5 4 7 77 8 90 9 78 10 80 11 79 12 3 13
REMARK SMILES IDX 2 14 1 15 81 16 82 17 83 18 84 19 85 20 89 21 86 22 88 23
REMARK SMILES IDX 87 24 10 25 11 26 12 27 13 29 14 30 15 31 76 32 16 33 75 34
REMARK SMILES IDX 17 35 18 36 19 37 69 38 20 39 74 40 68 41 70 42 21 43 73 44
REMARK SMILES IDX 67 45 66 46 22 48 54 49 34 50 53 51 35 52 38 53 52 54 71 55
REMARK SMILES IDX 36 56 37 57 51 59 72 60 39 61 23 62 24 63 32 64 25 65 31 66
REMARK SMILES IDX 33 67 30 68 26 69 27 70 28 71 29 72 55 73 56 74 64 75 57 76
REMARK SMILES IDX 63 77 65 78 62 79 58 80 59 81 60 82 61 83 40 84 41 85 49 86
REMARK SMILES IDX 42 87 48 88 50 89 47 90 43 91 44 92 45 93 46 94
REMARK H PARENT 7 6 11 28 70 47 38 58
REMARK Flexibility Score: inf
ROOT
ATOM      1  C   UNL A   1      35.881  22.520  25.905  1.00  0.00     0.042 C 
ENDROOT
BRANCH   1   2
ATOM      2  C   UNL A   1      35.093  23.812  25.779  1.00  0.00     0.117 C 
BRANCH   2   3
ATOM      3  N   UNL A   1      33.745  23.738  26.326  1.00  0.00    -0.355 N 
ATOM      4  C   UNL A   1      32.622  24.480  26.093  1.00  0.00     0.228 C 
ATOM      5  O   UNL A   1      31.600  24.115  26.686  1.00  0.00    -0.274 OA
ATOM      6  H   UNL A   1      33.620  23.020  26.986  1.00  0.00     0.163 HD
BRANCH   4   7
ATOM      7  C   UNL A   1      32.634  25.777  25.246  1.00  0.00     0.067 C 
ATOM      8  C   UNL A   1      31.173  26.187  24.854  1.00  0.00     0.020 C 
ATOM      9  C   UNL A   1      33.414  25.578  23.917  1.00  0.00     0.136 C 
ATOM     10  C   UNL A   1      30.519  25.370  23.733  1.00  0.00     0.023 C 
ATOM     11  N   UNL A   1      32.701  24.675  23.001  1.00  0.00    -0.342 N 
ATOM     12  C   UNL A   1      31.442  25.218  22.535  1.00  0.00     0.119 C 
BRANCH   7  13
ATOM     13  C   UNL A   1      33.276  26.857  26.188  1.00  0.00     0.018 C 
BRANCH  13  14
ATOM     14  C   UNL A   1      32.391  27.701  27.119  1.00  0.00    -0.002 C 
ATOM     15  C   UNL A   1      32.311  29.184  26.768  1.00  0.00     0.004 C 
ENDBRANCH  13  14
ENDBRANCH   7  13
BRANCH  11  16
ATOM     16  C   UNL A   1      33.111  23.358  22.854  1.00  0.00     0.225 C 
ATOM     17  O   UNL A   1      34.254  23.083  22.473  1.00  0.00    -0.275 OA
BRANCH  16  18
ATOM     18  C   UNL A   1      32.148  22.203  23.117  1.00  0.00     0.132 C 
BRANCH  18  19
ATOM     19  C   UNL A   1      32.726  20.874  23.635  1.00  0.00     0.127 C 
ATOM     20  C   UNL A   1      32.580  20.639  25.141  1.00  0.00     0.033 C 
ATOM     21  O   UNL A   1      32.151  19.806  22.868  1.00  0.00    -0.378 OA
ATOM     22  C   UNL A   1      32.926  19.213  25.572  1.00  0.00     0.005 C 
ATOM     23  C   UNL A   1      32.706  18.533  23.176  1.00  0.00     0.160 C 
ATOM     24  C   UNL A   1      32.392  18.156  24.611  1.00  0.00     0.029 C 
ENDBRANCH  18  19
ENDBRANCH  16  18
ENDBRANCH  11  16
ENDBRANCH   4   7
ENDBRANCH   2   3
ENDBRANCH   1   2
BRANCH   1  25
ATOM     25  C   UNL A   1      37.124  22.451  25.035  1.00  0.00     0.118 C 
BRANCH  25  26
ATOM     26  N   UNL A   1      38.111  21.486  25.502  1.00  0.00    -0.352 N 
ATOM     27  C   UNL A   1      39.275  21.658  26.221  1.00  0.00     0.251 C 
ATOM     28  H   UNL A   1      37.914  20.552  25.263  1.00  0.00     0.163 HD
ATOM     29  O   UNL A   1      40.020  20.703  26.396  1.00  0.00    -0.269 OA
BRANCH  27  30
ATOM     30  C   UNL A   1      39.652  22.994  26.740  1.00  0.00     0.039 A 
ATOM     31  C   UNL A   1      40.639  23.079  27.727  1.00  0.00     0.014 A 
ATOM     32  C   UNL A   1      39.053  24.161  26.264  1.00  0.00     0.014 A 
ATOM     33  C   UNL A   1      41.083  24.331  28.160  1.00  0.00     0.010 A 
ATOM     34  C   UNL A   1      39.579  25.403  26.606  1.00  0.00     0.010 A 
ATOM     35  C   UNL A   1      40.597  25.506  27.564  1.00  0.00    -0.014 A 
BRANCH  35  36
ATOM     36  C   UNL A   1      41.141  26.842  27.931  1.00  0.00     0.031 A 
ATOM     37  C   UNL A   1      42.564  27.204  27.593  1.00  0.00     0.074 A 
ATOM     38  C   UNL A   1      40.369  27.709  28.619  1.00  0.00     0.049 A 
ATOM     39  N   UNL A   1      43.224  28.303  27.856  1.00  0.00    -0.248 NA
ATOM     40  C   UNL A   1      43.360  26.182  26.898  1.00  0.00     0.031 C 
ATOM     41  C   UNL A   1      38.993  27.454  29.055  1.00  0.00     0.029 A 
ATOM     42  N   UNL A   1      40.624  28.980  29.069  1.00  0.00    -0.354 N 
ATOM     43  C   UNL A   1      44.515  28.095  27.380  1.00  0.00     0.074 A 
ATOM     44  C   UNL A   1      44.560  26.740  26.878  1.00  0.00     0.031 C 
ATOM     45  C   UNL A   1      38.512  28.551  29.659  1.00  0.00     0.029 A 
ATOM     46  C   UNL A   1      39.555  29.568  29.705  1.00  0.00     0.049 A 
ATOM     47  H   UNL A   1      41.493  29.428  28.950  1.00  0.00     0.167 HD
ATOM     48  C   UNL A   1      45.557  28.963  27.340  1.00  0.00     0.034 A 
ATOM     49  C   UNL A   1      39.428  30.790  30.261  1.00  0.00     0.034 A 
ATOM     50  C   UNL A   1      45.487  30.319  27.829  1.00  0.00     0.049 A 
ATOM     51  C   UNL A   1      40.605  31.730  30.219  1.00  0.00     0.074 A 
ATOM     52  C   UNL A   1      46.453  31.308  27.770  1.00  0.00     0.029 A 
ATOM     53  N   UNL A   1      44.393  30.875  28.482  1.00  0.00    -0.354 N 
ATOM     54  N   UNL A   1      41.797  31.544  29.698  1.00  0.00    -0.248 NA
ATOM     55  C   UNL A   1      40.415  33.049  30.832  1.00  0.00     0.031 C 
ATOM     56  C   UNL A   1      45.977  32.430  28.458  1.00  0.00     0.029 A 
ATOM     57  C   UNL A   1      44.678  32.177  28.869  1.00  0.00     0.049 A 
ATOM     58  H   UNL A   1      43.540  30.413  28.646  1.00  0.00     0.167 HD
ATOM     59  C   UNL A   1      42.487  32.738  29.894  1.00  0.00     0.074 A 
ATOM     60  C   UNL A   1      41.568  33.639  30.559  1.00  0.00     0.031 C 
ATOM     61  C   UNL A   1      43.762  33.060  29.554  1.00  0.00     0.034 A 
BRANCH  48  62
ATOM     62  C   UNL A   1      46.866  28.454  26.778  1.00  0.00     0.023 A 
ATOM     63  C   UNL A   1      47.111  28.395  25.394  1.00  0.00     0.031 A 
ATOM     64  C   UNL A   1      47.876  27.986  27.639  1.00  0.00     0.131 A 
ATOM     65  C   UNL A   1      48.287  27.801  24.912  1.00  0.00     0.055 A 
ATOM     66  C   UNL A   1      49.084  27.481  27.155  1.00  0.00     0.041 A 
ATOM     67  F   UNL A   1      47.698  27.995  28.970  1.00  0.00    -0.206 F 
ATOM     68  C   UNL A   1      49.288  27.369  25.783  1.00  0.00     0.022 A 
BRANCH  65  69
ATOM     69  S   UNL A   1      48.415  27.450  23.136  1.00  0.00     0.124 S 
ATOM     70  O   UNL A   1      49.735  27.989  22.823  1.00  0.00    -0.237 OA
ATOM     71  O   UNL A   1      48.289  25.998  23.094  1.00  0.00    -0.237 OA
ATOM     72  O   UNL A   1      47.296  28.191  22.559  1.00  0.00    -0.744 OA
ENDBRANCH  65  69
ENDBRANCH  48  62
BRANCH  49  73
ATOM     73  C   UNL A   1      38.144  31.206  30.896  1.00  0.00     0.023 A 
ATOM     74  C   UNL A   1      37.143  31.843  30.144  1.00  0.00     0.031 A 
ATOM     75  C   UNL A   1      37.914  31.016  32.270  1.00  0.00     0.131 A 
ATOM     76  C   UNL A   1      35.980  32.308  30.777  1.00  0.00     0.055 A 
ATOM     77  C   UNL A   1      36.731  31.430  32.884  1.00  0.00     0.041 A 
ATOM     78  F   UNL A   1      38.836  30.411  33.035  1.00  0.00    -0.206 F 
ATOM     79  C   UNL A   1      35.760  32.093  32.139  1.00  0.00     0.022 A 
BRANCH  76  80
ATOM     80  S   UNL A   1      34.793  33.279  29.808  1.00  0.00     0.124 S 
ATOM     81  O   UNL A   1      35.666  34.243  29.148  1.00  0.00    -0.237 OA
ATOM     82  O   UNL A   1      34.196  32.261  28.950  1.00  0.00    -0.237 OA
ATOM     83  O   UNL A   1      33.901  33.836  30.823  1.00  0.00    -0.744 OA
ENDBRANCH  76  80
ENDBRANCH  49  73
BRANCH  61  84
ATOM     84  C   UNL A   1      44.216  34.466  29.872  1.00  0.00     0.023 A 
ATOM     85  C   UNL A   1      43.916  35.550  29.027  1.00  0.00     0.031 A 
ATOM     86  C   UNL A   1      44.995  34.719  31.016  1.00  0.00     0.131 A 
ATOM     87  C   UNL A   1      44.455  36.817  29.296  1.00  0.00     0.055 A 
ATOM     88  C   UNL A   1      45.465  35.998  31.319  1.00  0.00     0.041 A 
ATOM     89  F   UNL A   1      45.319  33.724  31.858  1.00  0.00    -0.206 F 
ATOM     90  C   UNL A   1      45.211  37.052  30.447  1.00  0.00     0.022 A 
BRANCH  87  91
ATOM     91  S   UNL A   1      44.264  38.123  28.051  1.00  0.00     0.124 S 
ATOM     92  O   UNL A   1      43.331  39.032  28.707  1.00  0.00    -0.237 OA
ATOM     93  O   UNL A   1      45.631  38.611  27.898  1.00  0.00    -0.237 OA
ATOM     94  O   UNL A   1      43.727  37.413  26.891  1.00  0.00    -0.744 OA
ENDBRANCH  87  91
ENDBRANCH  61  84
ENDBRANCH  35  36
ENDBRANCH  27  30
ENDBRANCH  25  26
ENDBRANCH   1  25
TORSDOF 18
ENDMDL
MODEL 3
REMARK VINA RESULT:     -11.8      6.017     11.305
REMARK SMILES CCC[C@@]1(C(=O)NCCCNC(=O)c2ccc(-c3c4nc(c(-c5cc(S(=O)(=O)[O-])ccc5F)c5ccc([nH]5)c(-c5cc(S(=O)(=O)[O-])ccc5F)c5nc(c(-c6cc(S(=O)(=O)[O-])ccc6F)c6ccc3[nH]6)C=C5)C=C4)cc2)CCCN(C(=O)C[C@H]2CCCCO2)C1
REMARK SMILES IDX 9 1 8 2 7 3 5 4 6 5 4 7 77 8 90 9 78 10 80 11 79 12 3 13
REMARK SMILES IDX 2 14 1 15 81 16 82 17 83 18 84 19 85 20 89 21 86 22 88 23
REMARK SMILES IDX 87 24 10 25 11 26 12 27 13 29 14 30 15 31 76 32 16 33 75 34
REMARK SMILES IDX 17 35 18 36 19 37 69 38 20 39 74 40 68 41 70 42 21 43 73 44
REMARK SMILES IDX 67 45 66 46 22 48 54 49 34 50 53 51 35 52 38 53 52 54 71 55
REMARK SMILES IDX 36 56 37 57 51 59 72 60 39 61 23 62 24 63 32 64 25 65 31 66
REMARK SMILES IDX 33 67 30 68 26 69 27 70 28 71 29 72 55 73 56 74 64 75 57 76
REMARK SMILES IDX 63 77 65 78 62 79 58 80 59 81 60 82 61 83 40 84 41 85 49 86
REMARK SMILES IDX 42 87 48 88 50 89 47 90 43 91 44 92 45 93 46 94
REMARK H PARENT 7 6 11 28 70 47 38 58
REMARK Flexibility Score: inf
ROOT
ATOM      1  C   UNL A   1      36.982  22.139  23.911  1.00  0.00     0.042 C 
ENDROOT
BRANCH   1   2
ATOM      2  C   UNL A   1      35.848  23.096  23.584  1.00  0.00     0.117 C 
BRANCH   2   3
ATOM      3  N   UNL A   1      35.419  23.911  24.713  1.00  0.00    -0.355 N 
ATOM      4  C   UNL A   1      34.188  24.357  25.104  1.00  0.00     0.228 C 
ATOM      5  O   UNL A   1      34.155  24.991  26.165  1.00  0.00    -0.274 OA
ATOM      6  H   UNL A   1      36.153  24.193  25.305  1.00  0.00     0.163 HD
BRANCH   4   7
ATOM      7  C   UNL A   1      32.922  24.202  24.224  1.00  0.00     0.067 C 
ATOM      8  C   UNL A   1      31.647  24.649  25.018  1.00  0.00     0.020 C 
ATOM      9  C   UNL A   1      32.696  22.721  23.813  1.00  0.00     0.136 C 
ATOM     10  C   UNL A   1      31.129  23.664  26.074  1.00  0.00     0.023 C 
ATOM     11  N   UNL A   1      32.316  21.891  24.966  1.00  0.00    -0.342 N 
ATOM     12  C   UNL A   1      31.028  22.251  25.523  1.00  0.00     0.119 C 
BRANCH   7  13
ATOM     13  C   UNL A   1      33.173  25.156  23.002  1.00  0.00     0.018 C 
BRANCH  13  14
ATOM     14  C   UNL A   1      32.035  25.478  22.022  1.00  0.00    -0.002 C 
ATOM     15  C   UNL A   1      32.449  25.574  20.556  1.00  0.00     0.004 C 
ENDBRANCH  13  14
ENDBRANCH   7  13
BRANCH  11  16
ATOM     16  C   UNL A   1      33.247  21.057  25.568  1.00  0.00     0.225 C 
ATOM     17  O   UNL A   1      33.472  21.120  26.781  1.00  0.00    -0.275 OA
BRANCH  16  18
ATOM     18  C   UNL A   1      34.058  20.063  24.741  1.00  0.00     0.132 C 
BRANCH  18  19
ATOM     19  C   UNL A   1      33.473  18.658  24.508  1.00  0.00     0.127 C 
ATOM     20  C   UNL A   1      34.435  17.646  23.878  1.00  0.00     0.033 C 
ATOM     21  O   UNL A   1      32.934  18.185  25.750  1.00  0.00    -0.378 OA
ATOM     22  C   UNL A   1      33.908  16.210  23.902  1.00  0.00     0.005 C 
ATOM     23  C   UNL A   1      32.254  16.941  25.628  1.00  0.00     0.160 C 
ATOM     24  C   UNL A   1      33.223  15.850  25.215  1.00  0.00     0.029 C 
ENDBRANCH  18  19
ENDBRANCH  16  18
ENDBRANCH  11  16
ENDBRANCH   4   7
ENDBRANCH   2   3
ENDBRANCH   1   2
BRANCH   1  25
ATOM     25  C   UNL A   1      37.011  21.665  25.354  1.00  0.00     0.118 C 
BRANCH  25  26
ATOM     26  N   UNL A   1      38.046  20.676  25.624  1.00  0.00    -0.352 N 
ATOM     27  C   UNL A   1      39.323  20.816  26.124  1.00  0.00     0.251 C 
ATOM     28  H   UNL A   1      37.790  19.750  25.411  1.00  0.00     0.163 HD
ATOM     29  O   UNL A   1      40.068  19.845  26.149  1.00  0.00    -0.269 OA
BRANCH  27  30
ATOM     30  C   UNL A   1      39.814  22.137  26.584  1.00  0.00     0.039 A 
ATOM     31  C   UNL A   1      40.914  22.183  27.446  1.00  0.00     0.014 A 
ATOM     32  C   UNL A   1      39.211  23.326  26.173  1.00  0.00     0.014 A 
ATOM     33  C   UNL A   1      41.457  23.416  27.814  1.00  0.00     0.010 A 
ATOM     34  C   UNL A   1      39.825  24.545  26.440  1.00  0.00     0.010 A 
ATOM     35  C   UNL A   1      40.953  24.609  27.270  1.00  0.00    -0.014 A 
BRANCH  35  36
ATOM     36  C   UNL A   1      41.591  25.922  27.559  1.00  0.00     0.031 A 
ATOM     37  C   UNL A   1      40.867  26.957  28.380  1.00  0.00     0.074 A 
ATOM     38  C   UNL A   1      42.801  26.204  27.033  1.00  0.00     0.049 A 
ATOM     39  N   UNL A   1      41.244  28.166  28.710  1.00  0.00    -0.248 NA
ATOM     40  C   UNL A   1      39.526  26.599  28.865  1.00  0.00     0.031 C 
ATOM     41  C   UNL A   1      43.580  25.306  26.174  1.00  0.00     0.029 A 
ATOM     42  N   UNL A   1      43.594  27.319  27.144  1.00  0.00    -0.354 N 
ATOM     43  C   UNL A   1      40.182  28.717  29.419  1.00  0.00     0.074 A 
ATOM     44  C   UNL A   1      39.120  27.735  29.407  1.00  0.00     0.031 C 
ATOM     45  C   UNL A   1      44.755  25.884  25.883  1.00  0.00     0.029 A 
ATOM     46  C   UNL A   1      44.797  27.212  26.486  1.00  0.00     0.049 A 
ATOM     47  H   UNL A   1      43.324  28.122  27.646  1.00  0.00     0.167 HD
ATOM     48  C   UNL A   1      40.108  29.919  30.045  1.00  0.00     0.034 A 
ATOM     49  C   UNL A   1      45.820  28.083  26.379  1.00  0.00     0.034 A 
ATOM     50  C   UNL A   1      41.186  30.878  30.061  1.00  0.00     0.049 A 
ATOM     51  C   UNL A   1      45.708  29.418  27.069  1.00  0.00     0.074 A 
ATOM     52  C   UNL A   1      41.251  32.091  30.726  1.00  0.00     0.029 A 
ATOM     53  N   UNL A   1      42.384  30.743  29.370  1.00  0.00    -0.354 N 
ATOM     54  N   UNL A   1      44.725  29.895  27.799  1.00  0.00    -0.248 NA
ATOM     55  C   UNL A   1      46.850  30.329  26.928  1.00  0.00     0.031 C 
ATOM     56  C   UNL A   1      42.448  32.723  30.370  1.00  0.00     0.029 A 
ATOM     57  C   UNL A   1      43.175  31.869  29.555  1.00  0.00     0.049 A 
ATOM     58  H   UNL A   1      42.636  29.962  28.825  1.00  0.00     0.167 HD
ATOM     59  C   UNL A   1      45.147  31.150  28.231  1.00  0.00     0.074 A 
ATOM     60  C   UNL A   1      46.480  31.342  27.697  1.00  0.00     0.031 C 
ATOM     61  C   UNL A   1      44.494  32.060  28.998  1.00  0.00     0.034 A 
BRANCH  48  62
ATOM     62  C   UNL A   1      38.806  30.269  30.731  1.00  0.00     0.023 A 
ATOM     63  C   UNL A   1      37.774  30.956  30.067  1.00  0.00     0.031 A 
ATOM     64  C   UNL A   1      38.606  29.940  32.085  1.00  0.00     0.131 A 
ATOM     65  C   UNL A   1      36.635  31.369  30.775  1.00  0.00     0.055 A 
ATOM     66  C   UNL A   1      37.430  30.275  32.760  1.00  0.00     0.041 A 
ATOM     67  F   UNL A   1      39.560  29.304  32.783  1.00  0.00    -0.206 F 
ATOM     68  C   UNL A   1      36.443  31.010  32.110  1.00  0.00     0.022 A 
BRANCH  65  69
ATOM     69  S   UNL A   1      35.490  32.526  29.973  1.00  0.00     0.124 S 
ATOM     70  O   UNL A   1      36.300  33.740  29.900  1.00  0.00    -0.237 OA
ATOM     71  O   UNL A   1      35.212  31.865  28.704  1.00  0.00    -0.237 OA
ATOM     72  O   UNL A   1      34.365  32.593  30.902  1.00  0.00    -0.744 OA
ENDBRANCH  65  69
ENDBRANCH  48  62
BRANCH  49  73
ATOM     73  C   UNL A   1      47.044  27.728  25.602  1.00  0.00     0.023 A 
ATOM     74  C   UNL A   1      47.132  28.015  24.230  1.00  0.00     0.031 A 
ATOM     75  C   UNL A   1      48.122  27.057  26.205  1.00  0.00     0.131 A 
ATOM     76  C   UNL A   1      48.252  27.592  23.497  1.00  0.00     0.055 A 
ATOM     77  C   UNL A   1      49.258  26.689  25.483  1.00  0.00     0.041 A 
ATOM     78  F   UNL A   1      48.091  26.760  27.514  1.00  0.00    -0.206 F 
ATOM     79  C   UNL A   1      49.322  26.944  24.116  1.00  0.00     0.022 A 
BRANCH  76  80
ATOM     80  S   UNL A   1      48.250  27.825  21.698  1.00  0.00     0.124 S 
ATOM     81  O   UNL A   1      46.911  28.356  21.469  1.00  0.00    -0.237 OA
ATOM     82  O   UNL A   1      49.353  28.761  21.512  1.00  0.00    -0.237 OA
ATOM     83  O   UNL A   1      48.485  26.478  21.181  1.00  0.00    -0.744 OA
ENDBRANCH  76  80
ENDBRANCH  49  73
BRANCH  61  84
ATOM     84  C   UNL A   1      45.240  33.332  29.330  1.00  0.00     0.023 A 
ATOM     85  C   UNL A   1      45.147  34.477  28.519  1.00  0.00     0.031 A 
ATOM     86  C   UNL A   1      46.086  33.387  30.451  1.00  0.00     0.131 A 
ATOM     87  C   UNL A   1      45.945  35.597  28.795  1.00  0.00     0.055 A 
ATOM     88  C   UNL A   1      46.821  34.532  30.765  1.00  0.00     0.041 A 
ATOM     89  F   UNL A   1      46.221  32.324  31.261  1.00  0.00    -0.206 F 
ATOM     90  C   UNL A   1      46.766  35.639  29.924  1.00  0.00     0.022 A 
BRANCH  87  91
ATOM     91  S   UNL A   1      45.993  36.948  27.584  1.00  0.00     0.124 S 
ATOM     92  O   UNL A   1      44.595  37.365  27.540  1.00  0.00    -0.237 OA
ATOM     93  O   UNL A   1      46.920  37.889  28.204  1.00  0.00    -0.237 OA
ATOM     94  O   UNL A   1      46.487  36.301  26.370  1.00  0.00    -0.744 OA
ENDBRANCH  87  91
ENDBRANCH  61  84
ENDBRANCH  35  36
ENDBRANCH  27  30
ENDBRANCH  25  26
ENDBRANCH   1  25
TORSDOF 18
ENDMDL
