MODEL 1
REMARK VINA RESULT:     -11.5      0.000      0.000
REMARK SMILES O=C(CCCNC(=O)COc1ccc2c3c(c(=O)oc2c1)CCC3)NCCCNC(=O)c1ccc(-c2c3nc(c(-c4cc(S(=O)(=O)[O-])ccc4F)c4ccc([nH]4)c(-c4cc(S(=O)(=O)[O-])ccc4F)c4nc(c(-c5cc(S(=O)(=O)[O-])ccc5F)c5ccc2[nH]5)C=C4)C=C3)cc1
REMARK SMILES IDX 1 1 2 2 25 3 3 5 4 6 5 7 6 8 7 9 8 11 9 12 10 13 11 14 12 15
REMARK SMILES IDX 21 16 13 17 20 18 14 19 19 20 15 21 17 22 16 23 24 24 18 25
REMARK SMILES IDX 22 26 23 27 26 28 27 29 28 30 29 31 30 32 31 34 32 35 33 36
REMARK SMILES IDX 94 37 34 38 93 39 35 40 36 41 37 42 87 43 38 44 92 45 86 46
REMARK SMILES IDX 88 47 39 48 91 49 85 50 84 51 40 53 72 54 52 55 71 56 53 57
REMARK SMILES IDX 56 58 70 59 89 60 54 61 55 62 69 64 90 65 57 66 41 67 42 68
REMARK SMILES IDX 50 69 43 70 49 71 51 72 48 73 44 74 45 75 46 76 47 77 73 78
REMARK SMILES IDX 74 79 82 80 75 81 81 82 83 83 80 84 76 85 77 86 78 87 79 88
REMARK SMILES IDX 58 89 59 90 67 91 60 92 66 93 68 94 65 95 61 96 62 97 63 98
REMARK SMILES IDX 64 99
REMARK H PARENT 25 4 6 10 29 33 88 52 56 63
REMARK Flexibility Score: inf
ROOT
ATOM      1  O   UNL A   1      34.696  21.981  23.966  1.00  0.00    -0.275 OA
ATOM      2  C   UNL A   1      34.716  21.112  24.829  1.00  0.00     0.220 C 
ATOM      3  N   UNL A   1      35.853  20.462  25.244  1.00  0.00    -0.356 N 
ATOM      4  H   UNL A   1      35.780  19.822  25.989  1.00  0.00     0.163 HD
ENDROOT
BRANCH   2   5
ATOM      5  C   UNL A   1      33.456  20.621  25.514  1.00  0.00     0.102 C 
BRANCH   5   6
ATOM      6  C   UNL A   1      32.211  20.802  24.640  1.00  0.00     0.031 C 
BRANCH   6   7
ATOM      7  C   UNL A   1      31.797  22.252  24.373  1.00  0.00     0.116 C 
BRANCH   7   8
ATOM      8  N   UNL A   1      31.276  22.912  25.555  1.00  0.00    -0.353 N 
ATOM      9  C   UNL A   1      31.861  23.855  26.344  1.00  0.00     0.257 C 
ATOM     10  H   UNL A   1      30.369  22.639  25.826  1.00  0.00     0.163 HD
ATOM     11  O   UNL A   1      31.179  24.346  27.245  1.00  0.00    -0.271 OA
BRANCH   9  12
ATOM     12  C   UNL A   1      33.317  24.273  26.122  1.00  0.00     0.329 C 
BRANCH  12  13
ATOM     13  O   UNL A   1      33.632  25.155  25.056  1.00  0.00    -0.484 OA
BRANCH  13  14
ATOM     14  C   UNL A   1      32.757  26.170  24.791  1.00  0.00     0.123 A 
ATOM     15  C   UNL A   1      31.916  25.953  23.693  1.00  0.00     0.047 A 
ATOM     16  C   UNL A   1      32.704  27.389  25.458  1.00  0.00     0.094 A 
ATOM     17  C   UNL A   1      31.016  26.938  23.268  1.00  0.00     0.016 A 
ATOM     18  C   UNL A   1      31.820  28.370  25.013  1.00  0.00     0.142 A 
ATOM     19  C   UNL A   1      30.968  28.166  23.926  1.00  0.00     0.021 A 
ATOM     20  O   UNL A   1      31.843  29.603  25.711  1.00  0.00    -0.422 OA
ATOM     21  C   UNL A   1      30.094  29.257  23.554  1.00  0.00    -0.027 A 
ATOM     22  C   UNL A   1      31.015  30.664  25.361  1.00  0.00     0.339 A 
ATOM     23  C   UNL A   1      30.119  30.407  24.231  1.00  0.00     0.042 A 
ATOM     24  C   UNL A   1      29.096  29.287  22.449  1.00  0.00     0.037 C 
ATOM     25  O   UNL A   1      31.033  31.739  25.942  1.00  0.00    -0.246 OA
ATOM     26  C   UNL A   1      29.146  31.398  23.708  1.00  0.00     0.044 C 
ATOM     27  C   UNL A   1      28.770  30.784  22.356  1.00  0.00     0.010 C 
ENDBRANCH  13  14
ENDBRANCH  12  13
ENDBRANCH   9  12
ENDBRANCH   7   8
ENDBRANCH   6   7
ENDBRANCH   5   6
ENDBRANCH   2   5
BRANCH   3  28
ATOM     28  C   UNL A   1      37.154  20.671  24.643  1.00  0.00     0.117 C 
BRANCH  28  29
ATOM     29  C   UNL A   1      38.137  19.566  25.009  1.00  0.00     0.042 C 
BRANCH  29  30
ATOM     30  C   UNL A   1      39.134  19.922  26.110  1.00  0.00     0.118 C 
BRANCH  30  31
ATOM     31  N   UNL A   1      40.323  19.088  26.103  1.00  0.00    -0.352 N 
ATOM     32  C   UNL A   1      41.648  19.446  26.191  1.00  0.00     0.251 C 
ATOM     33  H   UNL A   1      40.155  18.121  26.024  1.00  0.00     0.163 HD
ATOM     34  O   UNL A   1      42.505  18.584  26.014  1.00  0.00    -0.269 OA
BRANCH  32  35
ATOM     35  C   UNL A   1      42.046  20.849  26.460  1.00  0.00     0.039 A 
ATOM     36  C   UNL A   1      42.222  21.712  25.375  1.00  0.00     0.014 A 
ATOM     37  C   UNL A   1      42.282  21.316  27.757  1.00  0.00     0.014 A 
ATOM     38  C   UNL A   1      42.587  23.044  25.591  1.00  0.00     0.010 A 
ATOM     39  C   UNL A   1      42.559  22.667  27.976  1.00  0.00     0.010 A 
ATOM     40  C   UNL A   1      42.734  23.545  26.896  1.00  0.00    -0.014 A 
BRANCH  40  41
ATOM     41  C   UNL A   1      43.108  24.969  27.126  1.00  0.00     0.031 A 
ATOM     42  C   UNL A   1      42.139  25.913  27.792  1.00  0.00     0.074 A 
ATOM     43  C   UNL A   1      44.316  25.418  26.729  1.00  0.00     0.049 A 
ATOM     44  N   UNL A   1      42.287  27.180  28.090  1.00  0.00    -0.248 NA
ATOM     45  C   UNL A   1      40.819  25.368  28.143  1.00  0.00     0.031 C 
ATOM     46  C   UNL A   1      45.328  24.618  26.036  1.00  0.00     0.029 A 
ATOM     47  N   UNL A   1      44.904  26.653  26.857  1.00  0.00    -0.354 N 
ATOM     48  C   UNL A   1      41.082  27.583  28.657  1.00  0.00     0.074 A 
ATOM     49  C   UNL A   1      40.191  26.444  28.592  1.00  0.00     0.031 C 
ATOM     50  C   UNL A   1      46.423  25.369  25.839  1.00  0.00     0.029 A 
ATOM     51  C   UNL A   1      46.182  26.715  26.348  1.00  0.00     0.049 A 
ATOM     52  H   UNL A   1      44.453  27.423  27.273  1.00  0.00     0.167 HD
ATOM     53  C   UNL A   1      40.755  28.778  29.211  1.00  0.00     0.034 A 
ATOM     54  C   UNL A   1      47.059  27.736  26.297  1.00  0.00     0.034 A 
ATOM     55  C   UNL A   1      41.656  29.906  29.272  1.00  0.00     0.049 A 
ATOM     56  C   UNL A   1      46.668  29.064  26.901  1.00  0.00     0.074 A 
ATOM     57  C   UNL A   1      41.441  31.150  29.840  1.00  0.00     0.029 A 
ATOM     58  N   UNL A   1      42.939  29.932  28.742  1.00  0.00    -0.354 N 
ATOM     59  N   UNL A   1      45.542  29.411  27.483  1.00  0.00    -0.248 NA
ATOM     60  C   UNL A   1      47.678  30.128  26.862  1.00  0.00     0.031 C 
ATOM     61  C   UNL A   1      42.562  31.949  29.586  1.00  0.00     0.029 A 
ATOM     62  C   UNL A   1      43.517  31.177  28.946  1.00  0.00     0.049 A 
ATOM     63  H   UNL A   1      43.377  29.176  28.287  1.00  0.00     0.167 HD
ATOM     64  C   UNL A   1      45.728  30.722  27.916  1.00  0.00     0.074 A 
ATOM     65  C   UNL A   1      47.078  31.090  27.546  1.00  0.00     0.031 C 
ATOM     66  C   UNL A   1      44.862  31.543  28.567  1.00  0.00     0.034 A 
BRANCH  53  67
ATOM     67  C   UNL A   1      39.356  28.929  29.766  1.00  0.00     0.023 A 
ATOM     68  C   UNL A   1      38.292  29.396  28.973  1.00  0.00     0.031 A 
ATOM     69  C   UNL A   1      39.086  28.631  31.113  1.00  0.00     0.131 A 
ATOM     70  C   UNL A   1      37.034  29.629  29.551  1.00  0.00     0.055 A 
ATOM     71  C   UNL A   1      37.810  28.778  31.660  1.00  0.00     0.041 A 
ATOM     72  F   UNL A   1      40.062  28.202  31.928  1.00  0.00    -0.206 F 
ATOM     73  C   UNL A   1      36.778  29.295  30.882  1.00  0.00     0.022 A 
BRANCH  70  74
ATOM     74  S   UNL A   1      35.785  30.516  28.579  1.00  0.00     0.124 S 
ATOM     75  O   UNL A   1      36.617  31.248  27.628  1.00  0.00    -0.237 OA
ATOM     76  O   UNL A   1      34.984  29.430  28.027  1.00  0.00    -0.237 OA
ATOM     77  O   UNL A   1      35.108  31.350  29.572  1.00  0.00    -0.744 OA
ENDBRANCH  70  74
ENDBRANCH  53  67
BRANCH  54  78
ATOM     78  C   UNL A   1      48.397  27.559  25.658  1.00  0.00     0.023 A 
ATOM     79  C   UNL A   1      48.568  27.711  24.271  1.00  0.00     0.031 A 
ATOM     80  C   UNL A   1      49.516  27.180  26.420  1.00  0.00     0.131 A 
ATOM     81  C   UNL A   1      49.812  27.429  23.684  1.00  0.00     0.055 A 
ATOM     82  C   UNL A   1      50.767  26.960  25.838  1.00  0.00     0.041 A 
ATOM     83  F   UNL A   1      49.412  27.022  27.749  1.00  0.00    -0.206 F 
ATOM     84  C   UNL A   1      50.915  27.069  24.459  1.00  0.00     0.022 A 
BRANCH  81  85
ATOM     85  S   UNL A   1      49.941  27.440  21.874  1.00  0.00     0.124 S 
ATOM     86  O   UNL A   1      48.782  26.643  21.488  1.00  0.00    -0.237 OA
ATOM     87  O   UNL A   1      49.867  28.866  21.574  1.00  0.00    -0.237 OA
ATOM     88  O   UNL A   1      51.240  26.818  21.622  1.00  0.00    -0.744 OA
ENDBRANCH  81  85
ENDBRANCH  54  78
BRANCH  66  89
ATOM     89  C   UNL A   1      45.383  32.903  28.976  1.00  0.00     0.023 A 
ATOM     90  C   UNL A   1      45.298  34.022  28.129  1.00  0.00     0.031 A 
ATOM     91  C   UNL A   1      46.018  33.069  30.222  1.00  0.00     0.131 A 
ATOM     92  C   UNL A   1      45.914  35.228  28.497  1.00  0.00     0.055 A 
ATOM     93  C   UNL A   1      46.557  34.294  30.617  1.00  0.00     0.041 A 
ATOM     94  F   UNL A   1      46.133  32.038  31.074  1.00  0.00    -0.206 F 
ATOM     95  C   UNL A   1      46.527  35.376  29.744  1.00  0.00     0.022 A 
BRANCH  92  96
ATOM     96  S   UNL A   1      46.036  36.554  27.265  1.00  0.00     0.124 S 
ATOM     97  O   UNL A   1      46.723  37.601  28.014  1.00  0.00    -0.237 OA
ATOM     98  O   UNL A   1      46.810  35.921  26.202  1.00  0.00    -0.237 OA
ATOM     99  O   UNL A   1      44.643  36.842  26.931  1.00  0.00    -0.744 OA
ENDBRANCH  92  96
ENDBRANCH  66  89
ENDBRANCH  40  41
ENDBRANCH  32  35
ENDBRANCH  30  31
ENDBRANCH  29  30
ENDBRANCH  28  29
ENDBRANCH   3  28
TORSDOF 19
ENDMDL
MODEL 2
REMARK VINA RESULT:     -11.2      9.389     15.170
REMARK SMILES O=C(CCCNC(=O)COc1ccc2c3c(c(=O)oc2c1)CCC3)NCCCNC(=O)c1ccc(-c2c3nc(c(-c4cc(S(=O)(=O)[O-])ccc4F)c4ccc([nH]4)c(-c4cc(S(=O)(=O)[O-])ccc4F)c4nc(c(-c5cc(S(=O)(=O)[O-])ccc5F)c5ccc2[nH]5)C=C4)C=C3)cc1
REMARK SMILES IDX 1 1 2 2 25 3 3 5 4 6 5 7 6 8 7 9 8 11 9 12 10 13 11 14 12 15
REMARK SMILES IDX 21 16 13 17 20 18 14 19 19 20 15 21 17 22 16 23 24 24 18 25
REMARK SMILES IDX 22 26 23 27 26 28 27 29 28 30 29 31 30 32 31 34 32 35 33 36
REMARK SMILES IDX 94 37 34 38 93 39 35 40 36 41 37 42 87 43 38 44 92 45 86 46
REMARK SMILES IDX 88 47 39 48 91 49 85 50 84 51 40 53 72 54 52 55 71 56 53 57
REMARK SMILES IDX 56 58 70 59 89 60 54 61 55 62 69 64 90 65 57 66 41 67 42 68
REMARK SMILES IDX 50 69 43 70 49 71 51 72 48 73 44 74 45 75 46 76 47 77 73 78
REMARK SMILES IDX 74 79 82 80 75 81 81 82 83 83 80 84 76 85 77 86 78 87 79 88
REMARK SMILES IDX 58 89 59 90 67 91 60 92 66 93 68 94 65 95 61 96 62 97 63 98
REMARK SMILES IDX 64 99
REMARK H PARENT 25 4 6 10 29 33 88 52 56 63
REMARK Flexibility Score: inf
ROOT
ATOM      1  O   UNL A   1      49.232  24.956  40.267  1.00  0.00    -0.275 OA
ATOM      2  C   UNL A   1      48.245  24.422  39.776  1.00  0.00     0.220 C 
ATOM      3  N   UNL A   1      47.026  25.039  39.626  1.00  0.00    -0.356 N 
ATOM      4  H   UNL A   1      46.309  24.550  39.162  1.00  0.00     0.163 HD
ENDROOT
BRANCH   2   5
ATOM      5  C   UNL A   1      48.252  22.979  39.310  1.00  0.00     0.102 C 
BRANCH   5   6
ATOM      6  C   UNL A   1      46.882  22.527  38.799  1.00  0.00     0.031 C 
BRANCH   6   7
ATOM      7  C   UNL A   1      46.501  21.079  39.122  1.00  0.00     0.116 C 
BRANCH   7   8
ATOM      8  N   UNL A   1      47.082  20.612  40.366  1.00  0.00    -0.353 N 
ATOM      9  C   UNL A   1      46.851  19.454  41.043  1.00  0.00     0.257 C 
ATOM     10  H   UNL A   1      47.738  21.220  40.779  1.00  0.00     0.163 HD
ATOM     11  O   UNL A   1      47.544  19.229  42.037  1.00  0.00    -0.271 OA
BRANCH   9  12
ATOM     12  C   UNL A   1      45.759  18.482  40.590  1.00  0.00     0.329 C 
BRANCH  12  13
ATOM     13  O   UNL A   1      44.499  18.500  41.244  1.00  0.00    -0.484 OA
BRANCH  13  14
ATOM     14  C   UNL A   1      43.961  17.301  41.621  1.00  0.00     0.123 A 
ATOM     15  C   UNL A   1      44.227  16.927  42.943  1.00  0.00     0.047 A 
ATOM     16  C   UNL A   1      43.270  16.426  40.791  1.00  0.00     0.094 A 
ATOM     17  C   UNL A   1      43.793  15.692  43.444  1.00  0.00     0.016 A 
ATOM     18  C   UNL A   1      42.864  15.191  41.293  1.00  0.00     0.142 A 
ATOM     19  C   UNL A   1      43.111  14.806  42.612  1.00  0.00     0.021 A 
ATOM     20  O   UNL A   1      42.199  14.330  40.385  1.00  0.00    -0.422 OA
ATOM     21  C   UNL A   1      42.642  13.500  43.022  1.00  0.00    -0.027 A 
ATOM     22  C   UNL A   1      41.749  13.068  40.761  1.00  0.00     0.339 A 
ATOM     23  C   UNL A   1      42.006  12.707  42.157  1.00  0.00     0.042 A 
ATOM     24  C   UNL A   1      42.772  12.866  44.362  1.00  0.00     0.037 C 
ATOM     25  O   UNL A   1      41.188  12.307  39.988  1.00  0.00    -0.246 OA
ATOM     26  C   UNL A   1      41.594  11.417  42.764  1.00  0.00     0.044 C 
ATOM     27  C   UNL A   1      42.412  11.405  44.060  1.00  0.00     0.010 C 
ENDBRANCH  13  14
ENDBRANCH  12  13
ENDBRANCH   9  12
ENDBRANCH   7   8
ENDBRANCH   6   7
ENDBRANCH   5   6
ENDBRANCH   2   5
BRANCH   3  28
ATOM     28  C   UNL A   1      46.744  26.372  40.115  1.00  0.00     0.117 C 
BRANCH  28  29
ATOM     29  C   UNL A   1      46.220  27.286  39.015  1.00  0.00     0.042 C 
BRANCH  29  30
ATOM     30  C   UNL A   1      47.275  28.158  38.337  1.00  0.00     0.118 C 
BRANCH  30  31
ATOM     31  N   UNL A   1      48.112  27.429  37.400  1.00  0.00    -0.352 N 
ATOM     32  C   UNL A   1      47.833  26.994  36.126  1.00  0.00     0.251 C 
ATOM     33  H   UNL A   1      49.016  27.214  37.727  1.00  0.00     0.163 HD
ATOM     34  O   UNL A   1      48.640  26.259  35.562  1.00  0.00    -0.269 OA
BRANCH  32  35
ATOM     35  C   UNL A   1      46.568  27.370  35.448  1.00  0.00     0.039 A 
ATOM     36  C   UNL A   1      46.527  28.570  34.732  1.00  0.00     0.014 A 
ATOM     37  C   UNL A   1      45.418  26.580  35.535  1.00  0.00     0.014 A 
ATOM     38  C   UNL A   1      45.355  28.951  34.072  1.00  0.00     0.010 A 
ATOM     39  C   UNL A   1      44.278  26.918  34.802  1.00  0.00     0.010 A 
ATOM     40  C   UNL A   1      44.224  28.117  34.077  1.00  0.00    -0.014 A 
BRANCH  40  41
ATOM     41  C   UNL A   1      42.981  28.518  33.360  1.00  0.00     0.031 A 
ATOM     42  C   UNL A   1      41.962  29.400  34.037  1.00  0.00     0.074 A 
ATOM     43  C   UNL A   1      42.761  28.083  32.103  1.00  0.00     0.049 A 
ATOM     44  N   UNL A   1      40.828  29.865  33.573  1.00  0.00    -0.248 NA
ATOM     45  C   UNL A   1      42.240  29.786  35.428  1.00  0.00     0.031 C 
ATOM     46  C   UNL A   1      43.647  27.191  31.352  1.00  0.00     0.029 A 
ATOM     47  N   UNL A   1      41.732  28.336  31.230  1.00  0.00    -0.354 N 
ATOM     48  C   UNL A   1      40.259  30.592  34.614  1.00  0.00     0.074 A 
ATOM     49  C   UNL A   1      41.137  30.442  35.754  1.00  0.00     0.031 C 
ATOM     50  C   UNL A   1      43.145  27.007  30.120  1.00  0.00     0.029 A 
ATOM     51  C   UNL A   1      41.881  27.727  30.004  1.00  0.00     0.049 A 
ATOM     52  H   UNL A   1      40.957  28.899  31.460  1.00  0.00     0.167 HD
ATOM     53  C   UNL A   1      39.128  31.341  34.614  1.00  0.00     0.034 A 
ATOM     54  C   UNL A   1      41.093  27.746  28.910  1.00  0.00     0.034 A 
ATOM     55  C   UNL A   1      38.261  31.485  33.467  1.00  0.00     0.049 A 
ATOM     56  C   UNL A   1      39.828  28.570  28.939  1.00  0.00     0.074 A 
ATOM     57  C   UNL A   1      37.111  32.245  33.346  1.00  0.00     0.029 A 
ATOM     58  N   UNL A   1      38.443  30.849  32.245  1.00  0.00    -0.354 N 
ATOM     59  N   UNL A   1      39.333  29.296  29.915  1.00  0.00    -0.248 NA
ATOM     60  C   UNL A   1      39.032  28.596  27.707  1.00  0.00     0.031 C 
ATOM     61  C   UNL A   1      36.559  32.010  32.081  1.00  0.00     0.029 A 
ATOM     62  C   UNL A   1      37.413  31.179  31.375  1.00  0.00     0.049 A 
ATOM     63  H   UNL A   1      39.194  30.251  32.027  1.00  0.00     0.167 HD
ATOM     64  C   UNL A   1      38.188  29.897  29.397  1.00  0.00     0.074 A 
ATOM     65  C   UNL A   1      38.082  29.464  28.020  1.00  0.00     0.031 C 
ATOM     66  C   UNL A   1      37.308  30.737  30.004  1.00  0.00     0.034 A 
BRANCH  53  67
ATOM     67  C   UNL A   1      38.753  32.037  35.904  1.00  0.00     0.023 A 
ATOM     68  C   UNL A   1      38.101  31.358  36.949  1.00  0.00     0.031 A 
ATOM     69  C   UNL A   1      39.024  33.405  36.082  1.00  0.00     0.131 A 
ATOM     70  C   UNL A   1      37.671  32.062  38.085  1.00  0.00     0.055 A 
ATOM     71  C   UNL A   1      38.675  34.081  37.253  1.00  0.00     0.041 A 
ATOM     72  F   UNL A   1      39.624  34.116  35.114  1.00  0.00    -0.206 F 
ATOM     73  C   UNL A   1      37.978  33.413  38.257  1.00  0.00     0.022 A 
BRANCH  70  74
ATOM     74  S   UNL A   1      36.571  31.223  39.259  1.00  0.00     0.124 S 
ATOM     75  O   UNL A   1      37.407  31.164  40.455  1.00  0.00    -0.237 OA
ATOM     76  O   UNL A   1      35.428  32.126  39.321  1.00  0.00    -0.237 OA
ATOM     77  O   UNL A   1      36.313  29.931  38.624  1.00  0.00    -0.744 OA
ENDBRANCH  70  74
ENDBRANCH  53  67
BRANCH  54  78
ATOM     78  C   UNL A   1      41.465  26.969  27.691  1.00  0.00     0.023 A 
ATOM     79  C   UNL A   1      41.319  25.572  27.644  1.00  0.00     0.031 A 
ATOM     80  C   UNL A   1      42.025  27.609  26.571  1.00  0.00     0.131 A 
ATOM     81  C   UNL A   1      41.781  24.856  26.528  1.00  0.00     0.055 A 
ATOM     82  C   UNL A   1      42.426  26.898  25.437  1.00  0.00     0.041 A 
ATOM     83  F   UNL A   1      42.186  28.942  26.558  1.00  0.00    -0.206 F 
ATOM     84  C   UNL A   1      42.319  25.511  25.419  1.00  0.00     0.022 A 
BRANCH  81  85
ATOM     85  S   UNL A   1      41.761  23.043  26.588  1.00  0.00     0.124 S 
ATOM     86  O   UNL A   1      42.179  22.787  27.962  1.00  0.00    -0.237 OA
ATOM     87  O   UNL A   1      40.366  22.745  26.277  1.00  0.00    -0.237 OA
ATOM     88  O   UNL A   1      42.724  22.658  25.559  1.00  0.00    -0.744 OA
ENDBRANCH  81  85
ENDBRANCH  54  78
BRANCH  66  89
ATOM     89  C   UNL A   1      36.189  31.292  29.150  1.00  0.00     0.023 A 
ATOM     90  C   UNL A   1      35.132  30.487  28.688  1.00  0.00     0.031 A 
ATOM     91  C   UNL A   1      36.207  32.643  28.755  1.00  0.00     0.131 A 
ATOM     92  C   UNL A   1      34.191  31.014  27.791  1.00  0.00     0.055 A 
ATOM     93  C   UNL A   1      35.221  33.182  27.928  1.00  0.00     0.041 A 
ATOM     94  F   UNL A   1      37.191  33.461  29.161  1.00  0.00    -0.206 F 
ATOM     95  C   UNL A   1      34.218  32.361  27.422  1.00  0.00     0.022 A 
BRANCH  92  96
ATOM     96  S   UNL A   1      33.020  29.881  26.993  1.00  0.00     0.124 S 
ATOM     97  O   UNL A   1      33.049  28.733  27.893  1.00  0.00    -0.237 OA
ATOM     98  O   UNL A   1      31.786  30.658  26.992  1.00  0.00    -0.237 OA
ATOM     99  O   UNL A   1      33.609  29.650  25.675  1.00  0.00    -0.744 OA
ENDBRANCH  92  96
ENDBRANCH  66  89
ENDBRANCH  40  41
ENDBRANCH  32  35
ENDBRANCH  30  31
ENDBRANCH  29  30
ENDBRANCH  28  29
ENDBRANCH   3  28
TORSDOF 19
ENDMDL
MODEL 3
REMARK VINA RESULT:     -11.1      1.960      2.274
REMARK SMILES O=C(CCCNC(=O)COc1ccc2c3c(c(=O)oc2c1)CCC3)NCCCNC(=O)c1ccc(-c2c3nc(c(-c4cc(S(=O)(=O)[O-])ccc4F)c4ccc([nH]4)c(-c4cc(S(=O)(=O)[O-])ccc4F)c4nc(c(-c5cc(S(=O)(=O)[O-])ccc5F)c5ccc2[nH]5)C=C4)C=C3)cc1
REMARK SMILES IDX 1 1 2 2 25 3 3 5 4 6 5 7 6 8 7 9 8 11 9 12 10 13 11 14 12 15
REMARK SMILES IDX 21 16 13 17 20 18 14 19 19 20 15 21 17 22 16 23 24 24 18 25
REMARK SMILES IDX 22 26 23 27 26 28 27 29 28 30 29 31 30 32 31 34 32 35 33 36
REMARK SMILES IDX 94 37 34 38 93 39 35 40 36 41 37 42 87 43 38 44 92 45 86 46
REMARK SMILES IDX 88 47 39 48 91 49 85 50 84 51 40 53 72 54 52 55 71 56 53 57
REMARK SMILES IDX 56 58 70 59 89 60 54 61 55 62 69 64 90 65 57 66 41 67 42 68
REMARK SMILES IDX 50 69 43 70 49 71 51 72 48 73 44 74 45 75 46 76 47 77 73 78
REMARK SMILES IDX 74 79 82 80 75 81 81 82 83 83 80 84 76 85 77 86 78 87 79 88
REMARK SMILES IDX 58 89 59 90 67 91 60 92 66 93 68 94 65 95 61 96 62 97 63 98
REMARK SMILES IDX 64 99
REMARK H PARENT 25 4 6 10 29 33 88 52 56 63
REMARK Flexibility Score: inf
ROOT
ATOM      1  O   UNL A   1      34.854  22.103  23.991  1.00  0.00    -0.275 OA
ATOM      2  C   UNL A   1      34.972  21.340  24.942  1.00  0.00     0.220 C 
ATOM      3  N   UNL A   1      36.177  20.906  25.439  1.00  0.00    -0.356 N 
ATOM      4  H   UNL A   1      36.174  20.343  26.247  1.00  0.00     0.163 HD
ENDROOT
BRANCH   2   5
ATOM      5  C   UNL A   1      33.775  20.747  25.659  1.00  0.00     0.102 C 
BRANCH   5   6
ATOM      6  C   UNL A   1      32.574  20.561  24.728  1.00  0.00     0.031 C 
BRANCH   6   7
ATOM      7  C   UNL A   1      31.694  21.798  24.529  1.00  0.00     0.116 C 
BRANCH   7   8
ATOM      8  N   UNL A   1      31.150  22.304  25.775  1.00  0.00    -0.353 N 
ATOM      9  C   UNL A   1      31.383  23.493  26.396  1.00  0.00     0.257 C 
ATOM     10  H   UNL A   1      30.524  21.701  26.238  1.00  0.00     0.163 HD
ATOM     11  O   UNL A   1      30.723  23.745  27.407  1.00  0.00    -0.271 OA
BRANCH   9  12
ATOM     12  C   UNL A   1      32.435  24.468  25.863  1.00  0.00     0.329 C 
BRANCH  12  13
ATOM     13  O   UNL A   1      32.315  24.962  24.537  1.00  0.00    -0.484 OA
BRANCH  13  14
ATOM     14  C   UNL A   1      31.624  26.126  24.353  1.00  0.00     0.123 A 
ATOM     15  C   UNL A   1      30.721  26.113  23.284  1.00  0.00     0.047 A 
ATOM     16  C   UNL A   1      31.811  27.302  25.072  1.00  0.00     0.094 A 
ATOM     17  C   UNL A   1      29.994  27.260  22.940  1.00  0.00     0.016 A 
ATOM     18  C   UNL A   1      31.100  28.443  24.706  1.00  0.00     0.142 A 
ATOM     19  C   UNL A   1      30.188  28.444  23.649  1.00  0.00     0.021 A 
ATOM     20  O   UNL A   1      31.365  29.617  25.453  1.00  0.00    -0.422 OA
ATOM     21  C   UNL A   1      29.507  29.687  23.360  1.00  0.00    -0.027 A 
ATOM     22  C   UNL A   1      30.725  30.822  25.184  1.00  0.00     0.339 A 
ATOM     23  C   UNL A   1      29.759  30.781  24.083  1.00  0.00     0.042 A 
ATOM     24  C   UNL A   1      28.493  29.946  22.302  1.00  0.00     0.037 C 
ATOM     25  O   UNL A   1      30.953  31.848  25.807  1.00  0.00    -0.246 OA
ATOM     26  C   UNL A   1      28.958  31.951  23.645  1.00  0.00     0.044 C 
ATOM     27  C   UNL A   1      28.433  31.479  22.285  1.00  0.00     0.010 C 
ENDBRANCH  13  14
ENDBRANCH  12  13
ENDBRANCH   9  12
ENDBRANCH   7   8
ENDBRANCH   6   7
ENDBRANCH   5   6
ENDBRANCH   2   5
BRANCH   3  28
ATOM     28  C   UNL A   1      37.452  21.236  24.836  1.00  0.00     0.117 C 
BRANCH  28  29
ATOM     29  C   UNL A   1      38.459  20.101  24.971  1.00  0.00     0.042 C 
BRANCH  29  30
ATOM     30  C   UNL A   1      39.420  20.221  26.151  1.00  0.00     0.118 C 
BRANCH  30  31
ATOM     31  N   UNL A   1      40.548  19.309  26.072  1.00  0.00    -0.352 N 
ATOM     32  C   UNL A   1      41.897  19.575  26.101  1.00  0.00     0.251 C 
ATOM     33  H   UNL A   1      40.311  18.357  25.985  1.00  0.00     0.163 HD
ATOM     34  O   UNL A   1      42.684  18.660  25.868  1.00  0.00    -0.269 OA
BRANCH  32  35
ATOM     35  C   UNL A   1      42.403  20.942  26.374  1.00  0.00     0.039 A 
ATOM     36  C   UNL A   1      42.652  21.789  25.290  1.00  0.00     0.014 A 
ATOM     37  C   UNL A   1      42.666  21.389  27.672  1.00  0.00     0.014 A 
ATOM     38  C   UNL A   1      43.119  23.088  25.510  1.00  0.00     0.010 A 
ATOM     39  C   UNL A   1      43.047  22.714  27.894  1.00  0.00     0.010 A 
ATOM     40  C   UNL A   1      43.297  23.576  26.816  1.00  0.00    -0.014 A 
BRANCH  40  41
ATOM     41  C   UNL A   1      43.780  24.966  27.049  1.00  0.00     0.031 A 
ATOM     42  C   UNL A   1      42.862  26.002  27.647  1.00  0.00     0.074 A 
ATOM     43  C   UNL A   1      45.043  25.303  26.715  1.00  0.00     0.049 A 
ATOM     44  N   UNL A   1      43.103  27.256  27.938  1.00  0.00    -0.248 NA
ATOM     45  C   UNL A   1      41.482  25.579  27.929  1.00  0.00     0.031 C 
ATOM     46  C   UNL A   1      46.018  24.406  26.091  1.00  0.00     0.029 A 
ATOM     47  N   UNL A   1      45.728  26.484  26.861  1.00  0.00    -0.354 N 
ATOM     48  C   UNL A   1      41.908  27.770  28.431  1.00  0.00     0.074 A 
ATOM     49  C   UNL A   1      40.927  26.712  28.329  1.00  0.00     0.031 C 
ATOM     50  C   UNL A   1      47.184  25.057  25.946  1.00  0.00     0.029 A 
ATOM     51  C   UNL A   1      47.033  26.427  26.424  1.00  0.00     0.049 A 
ATOM     52  H   UNL A   1      45.323  27.297  27.242  1.00  0.00     0.167 HD
ATOM     53  C   UNL A   1      41.657  28.999  28.950  1.00  0.00     0.034 A 
ATOM     54  C   UNL A   1      47.998  27.368  26.411  1.00  0.00     0.034 A 
ATOM     55  C   UNL A   1      42.647  30.046  29.049  1.00  0.00     0.049 A 
ATOM     56  C   UNL A   1      47.690  28.734  26.975  1.00  0.00     0.074 A 
ATOM     57  C   UNL A   1      42.511  31.313  29.589  1.00  0.00     0.029 A 
ATOM     58  N   UNL A   1      43.955  29.952  28.591  1.00  0.00    -0.354 N 
ATOM     59  N   UNL A   1      46.569  29.187  27.488  1.00  0.00    -0.248 NA
ATOM     60  C   UNL A   1      48.789  29.706  26.981  1.00  0.00     0.031 C 
ATOM     61  C   UNL A   1      43.709  32.008  29.389  1.00  0.00     0.029 A 
ATOM     62  C   UNL A   1      44.627  31.146  28.812  1.00  0.00     0.049 A 
ATOM     63  H   UNL A   1      44.350  29.153  28.172  1.00  0.00     0.167 HD
ATOM     64  C   UNL A   1      46.843  30.484  27.915  1.00  0.00     0.074 A 
ATOM     65  C   UNL A   1      48.239  30.729  27.617  1.00  0.00     0.031 C 
ATOM     66  C   UNL A   1      46.018  31.387  28.506  1.00  0.00     0.034 A 
BRANCH  53  67
ATOM     67  C   UNL A   1      40.248  29.280  29.424  1.00  0.00     0.023 A 
ATOM     68  C   UNL A   1      39.933  29.384  30.791  1.00  0.00     0.031 A 
ATOM     69  C   UNL A   1      39.197  29.418  28.499  1.00  0.00     0.131 A 
ATOM     70  C   UNL A   1      38.598  29.536  31.196  1.00  0.00     0.055 A 
ATOM     71  C   UNL A   1      37.884  29.660  28.905  1.00  0.00     0.041 A 
ATOM     72  F   UNL A   1      39.427  29.307  27.181  1.00  0.00    -0.206 F 
ATOM     73  C   UNL A   1      37.574  29.703  30.262  1.00  0.00     0.022 A 
BRANCH  70  74
ATOM     74  S   UNL A   1      38.200  29.355  32.957  1.00  0.00     0.124 S 
ATOM     75  O   UNL A   1      37.468  30.591  33.222  1.00  0.00    -0.237 OA
ATOM     76  O   UNL A   1      37.414  28.128  32.980  1.00  0.00    -0.237 OA
ATOM     77  O   UNL A   1      39.512  29.269  33.598  1.00  0.00    -0.744 OA
ENDBRANCH  70  74
ENDBRANCH  53  67
BRANCH  54  78
ATOM     78  C   UNL A   1      49.348  27.065  25.850  1.00  0.00     0.023 A 
ATOM     79  C   UNL A   1      49.734  27.535  24.584  1.00  0.00     0.031 A 
ATOM     80  C   UNL A   1      50.254  26.251  26.553  1.00  0.00     0.131 A 
ATOM     81  C   UNL A   1      50.965  27.142  24.036  1.00  0.00     0.055 A 
ATOM     82  C   UNL A   1      51.504  25.913  26.029  1.00  0.00     0.041 A 
ATOM     83  F   UNL A   1      49.940  25.775  27.768  1.00  0.00    -0.206 F 
ATOM     84  C   UNL A   1      51.859  26.347  24.755  1.00  0.00     0.022 A 
BRANCH  81  85
ATOM     85  S   UNL A   1      51.341  27.602  22.321  1.00  0.00     0.124 S 
ATOM     86  O   UNL A   1      52.761  27.284  22.232  1.00  0.00    -0.237 OA
ATOM     87  O   UNL A   1      50.440  26.733  21.570  1.00  0.00    -0.237 OA
ATOM     88  O   UNL A   1      51.014  29.026  22.272  1.00  0.00    -0.744 OA
ENDBRANCH  81  85
ENDBRANCH  54  78
BRANCH  66  89
ATOM     89  C   UNL A   1      46.632  32.705  28.927  1.00  0.00     0.023 A 
ATOM     90  C   UNL A   1      47.184  32.897  30.207  1.00  0.00     0.031 A 
ATOM     91  C   UNL A   1      46.622  33.801  28.045  1.00  0.00     0.131 A 
ATOM     92  C   UNL A   1      47.619  34.172  30.597  1.00  0.00     0.055 A 
ATOM     93  C   UNL A   1      47.132  35.048  28.412  1.00  0.00     0.041 A 
ATOM     94  F   UNL A   1      46.106  33.682  26.811  1.00  0.00    -0.206 F 
ATOM     95  C   UNL A   1      47.614  35.245  29.702  1.00  0.00     0.022 A 
BRANCH  92  96
ATOM     96  S   UNL A   1      48.051  34.448  32.338  1.00  0.00     0.124 S 
ATOM     97  O   UNL A   1      49.497  34.249  32.326  1.00  0.00    -0.237 OA
ATOM     98  O   UNL A   1      47.600  35.818  32.557  1.00  0.00    -0.237 OA
ATOM     99  O   UNL A   1      47.289  33.423  33.048  1.00  0.00    -0.744 OA
ENDBRANCH  92  96
ENDBRANCH  66  89
ENDBRANCH  40  41
ENDBRANCH  32  35
ENDBRANCH  30  31
ENDBRANCH  29  30
ENDBRANCH  28  29
ENDBRANCH   3  28
TORSDOF 19
ENDMDL
