MODEL 1
REMARK VINA RESULT:     -11.6      0.000      0.000
REMARK SMILES COC(=O)c1cncc(N2CC[C@H](C(=O)NCCCNC(=O)c3ccc(-c4c5nc(c(-c6cc(S(=O)(=O)[O-])ccc6F)c6ccc([nH]6)c(-c6cc(S(=O)(=O)[O-])ccc6F)c6nc(c(-c7cc(S(=O)(=O)[O-])ccc7F)c7ccc4[nH]7)C=C6)C=C5)cc3)C2)n1
REMARK SMILES IDX 18 1 17 2 16 3 14 4 15 5 13 7 10 8 11 9 86 10 12 11 9 12
REMARK SMILES IDX 5 13 6 14 87 15 7 16 8 17 3 18 4 19 2 20 1 21 19 22 20 23
REMARK SMILES IDX 21 24 22 26 23 27 24 28 85 29 25 30 84 31 26 32 27 33 28 34
REMARK SMILES IDX 78 35 29 36 83 37 77 38 79 39 30 40 82 41 76 42 75 43 31 45
REMARK SMILES IDX 63 46 43 47 62 48 44 49 47 50 61 51 80 52 45 53 46 54 60 56
REMARK SMILES IDX 81 57 48 58 32 59 33 60 41 61 34 62 40 63 42 64 39 65 35 66
REMARK SMILES IDX 36 67 37 68 38 69 64 70 65 71 73 72 66 73 72 74 74 75 71 76
REMARK SMILES IDX 67 77 68 78 69 79 70 80 49 81 50 82 58 83 51 84 57 85 59 86
REMARK SMILES IDX 56 87 52 88 53 89 54 90 55 91
REMARK H PARENT 16 6 20 25 79 44 47 55
REMARK Flexibility Score: inf
ROOT
ATOM      1  C   UNL A   1      31.607  31.623  27.014  1.00  0.00     0.042 C 
ENDROOT
BRANCH   1   2
ATOM      2  C   UNL A   1      31.902  30.128  26.948  1.00  0.00     0.117 C 
BRANCH   2   3
ATOM      3  N   UNL A   1      33.216  29.780  27.472  1.00  0.00    -0.356 N 
ATOM      4  C   UNL A   1      34.213  29.004  26.966  1.00  0.00     0.224 C 
ATOM      5  O   UNL A   1      35.266  28.942  27.608  1.00  0.00    -0.275 OA
ATOM      6  H   UNL A   1      33.421  30.177  28.349  1.00  0.00     0.163 HD
BRANCH   4   7
ATOM      7  C   UNL A   1      34.083  28.239  25.662  1.00  0.00     0.099 C 
ATOM      8  N   UNL A   1      32.248  27.632  24.297  1.00  0.00    -0.354 N 
ATOM      9  C   UNL A   1      32.808  26.374  24.764  1.00  0.00     0.119 C 
ATOM     10  C   UNL A   1      32.987  28.798  24.757  1.00  0.00     0.131 C 
ATOM     11  C   UNL A   1      33.808  26.751  25.845  1.00  0.00     0.037 C 
BRANCH   8  12
ATOM     12  C   UNL A   1      30.921  27.733  23.958  1.00  0.00     0.148 A 
ATOM     13  C   UNL A   1      29.184  28.909  22.979  1.00  0.00     0.169 A 
ATOM     14  C   UNL A   1      28.296  27.886  23.272  1.00  0.00     0.147 A 
ATOM     15  N   UNL A   1      30.498  28.847  23.328  1.00  0.00    -0.221 NA
ATOM     16  N   UNL A   1      28.684  26.755  23.906  1.00  0.00    -0.258 NA
ATOM     17  C   UNL A   1      30.005  26.707  24.224  1.00  0.00     0.157 A 
BRANCH  13  18
ATOM     18  C   UNL A   1      28.761  30.091  22.192  1.00  0.00     0.358 C 
ATOM     19  O   UNL A   1      28.401  30.046  21.022  1.00  0.00    -0.244 OA
BRANCH  18  20
ATOM     20  O   UNL A   1      28.845  31.211  22.955  1.00  0.00    -0.464 OA
ATOM     21  C   UNL A   1      27.617  31.580  23.590  1.00  0.00     0.282 C 
ENDBRANCH  18  20
ENDBRANCH  13  18
ENDBRANCH   8  12
ENDBRANCH   4   7
ENDBRANCH   2   3
ENDBRANCH   1   2
BRANCH   1  22
ATOM     22  C   UNL A   1      32.841  32.517  27.036  1.00  0.00     0.118 C 
BRANCH  22  23
ATOM     23  N   UNL A   1      32.557  33.864  27.509  1.00  0.00    -0.352 N 
ATOM     24  C   UNL A   1      33.096  34.573  28.556  1.00  0.00     0.251 C 
ATOM     25  H   UNL A   1      31.867  34.345  26.996  1.00  0.00     0.163 HD
ATOM     26  O   UNL A   1      32.572  35.635  28.886  1.00  0.00    -0.269 OA
BRANCH  24  27
ATOM     27  C   UNL A   1      34.275  34.067  29.296  1.00  0.00     0.039 A 
ATOM     28  C   UNL A   1      34.072  33.210  30.383  1.00  0.00     0.014 A 
ATOM     29  C   UNL A   1      35.574  34.457  28.959  1.00  0.00     0.014 A 
ATOM     30  C   UNL A   1      35.166  32.691  31.081  1.00  0.00     0.010 A 
ATOM     31  C   UNL A   1      36.667  33.883  29.607  1.00  0.00     0.010 A 
ATOM     32  C   UNL A   1      36.476  32.993  30.676  1.00  0.00    -0.014 A 
BRANCH  32  33
ATOM     33  C   UNL A   1      37.658  32.400  31.361  1.00  0.00     0.031 A 
ATOM     34  C   UNL A   1      38.393  31.245  30.732  1.00  0.00     0.074 A 
ATOM     35  C   UNL A   1      38.032  32.857  32.574  1.00  0.00     0.049 A 
ATOM     36  N   UNL A   1      39.365  30.517  31.219  1.00  0.00    -0.248 NA
ATOM     37  C   UNL A   1      37.957  30.842  29.387  1.00  0.00     0.031 C 
ATOM     38  C   UNL A   1      37.383  33.951  33.302  1.00  0.00     0.029 A 
ATOM     39  N   UNL A   1      39.037  32.452  33.417  1.00  0.00    -0.354 N 
ATOM     40  C   UNL A   1      39.651  29.564  30.247  1.00  0.00     0.074 A 
ATOM     41  C   UNL A   1      38.709  29.773  29.167  1.00  0.00     0.031 C 
ATOM     42  C   UNL A   1      38.015  34.136  34.472  1.00  0.00     0.029 A 
ATOM     43  C   UNL A   1      39.081  33.147  34.603  1.00  0.00     0.049 A 
ATOM     44  H   UNL A   1      39.668  31.730  33.192  1.00  0.00     0.167 HD
ATOM     45  C   UNL A   1      40.621  28.616  30.244  1.00  0.00     0.034 A 
ATOM     46  C   UNL A   1      39.875  32.996  35.682  1.00  0.00     0.034 A 
ATOM     47  C   UNL A   1      41.564  28.425  31.319  1.00  0.00     0.049 A 
ATOM     48  C   UNL A   1      40.933  31.919  35.662  1.00  0.00     0.074 A 
ATOM     49  C   UNL A   1      42.600  27.511  31.407  1.00  0.00     0.029 A 
ATOM     50  N   UNL A   1      41.590  29.165  32.494  1.00  0.00    -0.354 N 
ATOM     51  N   UNL A   1      41.201  31.041  34.723  1.00  0.00    -0.248 NA
ATOM     52  C   UNL A   1      41.803  31.822  36.842  1.00  0.00     0.031 C 
ATOM     53  C   UNL A   1      43.220  27.664  32.652  1.00  0.00     0.029 A 
ATOM     54  C   UNL A   1      42.613  28.718  33.315  1.00  0.00     0.049 A 
ATOM     55  H   UNL A   1      40.972  29.900  32.711  1.00  0.00     0.167 HD
ATOM     56  C   UNL A   1      42.293  30.313  35.187  1.00  0.00     0.074 A 
ATOM     57  C   UNL A   1      42.643  30.863  36.480  1.00  0.00     0.031 C 
ATOM     58  C   UNL A   1      42.950  29.282  34.600  1.00  0.00     0.034 A 
BRANCH  45  59
ATOM     59  C   UNL A   1      40.700  27.706  29.044  1.00  0.00     0.023 A 
ATOM     60  C   UNL A   1      41.618  27.940  28.004  1.00  0.00     0.031 A 
ATOM     61  C   UNL A   1      39.845  26.596  28.930  1.00  0.00     0.131 A 
ATOM     62  C   UNL A   1      41.618  27.114  26.871  1.00  0.00     0.055 A 
ATOM     63  C   UNL A   1      39.901  25.733  27.832  1.00  0.00     0.041 A 
ATOM     64  F   UNL A   1      38.936  26.333  29.881  1.00  0.00    -0.206 F 
ATOM     65  C   UNL A   1      40.784  25.997  26.789  1.00  0.00     0.022 A 
BRANCH  62  66
ATOM     66  S   UNL A   1      42.646  27.587  25.454  1.00  0.00     0.124 S 
ATOM     67  O   UNL A   1      42.448  26.452  24.556  1.00  0.00    -0.237 OA
ATOM     68  O   UNL A   1      42.045  28.848  25.032  1.00  0.00    -0.237 OA
ATOM     69  O   UNL A   1      43.988  27.696  26.025  1.00  0.00    -0.744 OA
ENDBRANCH  62  66
ENDBRANCH  45  59
BRANCH  46  70
ATOM     70  C   UNL A   1      39.700  33.857  36.888  1.00  0.00     0.023 A 
ATOM     71  C   UNL A   1      39.107  33.353  38.056  1.00  0.00     0.031 A 
ATOM     72  C   UNL A   1      40.055  35.218  36.864  1.00  0.00     0.131 A 
ATOM     73  C   UNL A   1      38.828  34.215  39.127  1.00  0.00     0.055 A 
ATOM     74  C   UNL A   1      39.830  36.058  37.956  1.00  0.00     0.041 A 
ATOM     75  F   UNL A   1      40.628  35.752  35.773  1.00  0.00    -0.206 F 
ATOM     76  C   UNL A   1      39.195  35.561  39.090  1.00  0.00     0.022 A 
BRANCH  73  77
ATOM     77  S   UNL A   1      37.865  33.575  40.526  1.00  0.00     0.124 S 
ATOM     78  O   UNL A   1      37.552  34.797  41.257  1.00  0.00    -0.237 OA
ATOM     79  O   UNL A   1      36.746  32.926  39.850  1.00  0.00    -0.237 OA
ATOM     80  O   UNL A   1      38.797  32.669  41.194  1.00  0.00    -0.744 OA
ENDBRANCH  73  77
ENDBRANCH  46  70
BRANCH  58  81
ATOM     81  C   UNL A   1      44.149  28.728  35.330  1.00  0.00     0.023 A 
ATOM     82  C   UNL A   1      44.026  27.704  36.284  1.00  0.00     0.031 A 
ATOM     83  C   UNL A   1      45.430  29.249  35.076  1.00  0.00     0.131 A 
ATOM     84  C   UNL A   1      45.157  27.270  36.991  1.00  0.00     0.055 A 
ATOM     85  C   UNL A   1      46.559  28.775  35.743  1.00  0.00     0.041 A 
ATOM     86  F   UNL A   1      45.603  30.229  34.174  1.00  0.00    -0.206 F 
ATOM     87  C   UNL A   1      46.425  27.788  36.716  1.00  0.00     0.022 A 
BRANCH  84  88
ATOM     88  S   UNL A   1      44.938  26.073  38.337  1.00  0.00     0.124 S 
ATOM     89  O   UNL A   1      46.285  25.989  38.891  1.00  0.00    -0.237 OA
ATOM     90  O   UNL A   1      43.942  26.728  39.179  1.00  0.00    -0.237 OA
ATOM     91  O   UNL A   1      44.472  24.868  37.652  1.00  0.00    -0.744 OA
ENDBRANCH  84  88
ENDBRANCH  58  81
ENDBRANCH  32  33
ENDBRANCH  24  27
ENDBRANCH  22  23
ENDBRANCH   1  22
TORSDOF 16
ENDMDL
MODEL 2
REMARK VINA RESULT:     -11.5      5.055      9.868
REMARK SMILES COC(=O)c1cncc(N2CC[C@H](C(=O)NCCCNC(=O)c3ccc(-c4c5nc(c(-c6cc(S(=O)(=O)[O-])ccc6F)c6ccc([nH]6)c(-c6cc(S(=O)(=O)[O-])ccc6F)c6nc(c(-c7cc(S(=O)(=O)[O-])ccc7F)c7ccc4[nH]7)C=C6)C=C5)cc3)C2)n1
REMARK SMILES IDX 18 1 17 2 16 3 14 4 15 5 13 7 10 8 11 9 86 10 12 11 9 12
REMARK SMILES IDX 5 13 6 14 87 15 7 16 8 17 3 18 4 19 2 20 1 21 19 22 20 23
REMARK SMILES IDX 21 24 22 26 23 27 24 28 85 29 25 30 84 31 26 32 27 33 28 34
REMARK SMILES IDX 78 35 29 36 83 37 77 38 79 39 30 40 82 41 76 42 75 43 31 45
REMARK SMILES IDX 63 46 43 47 62 48 44 49 47 50 61 51 80 52 45 53 46 54 60 56
REMARK SMILES IDX 81 57 48 58 32 59 33 60 41 61 34 62 40 63 42 64 39 65 35 66
REMARK SMILES IDX 36 67 37 68 38 69 64 70 65 71 73 72 66 73 72 74 74 75 71 76
REMARK SMILES IDX 67 77 68 78 69 79 70 80 49 81 50 82 58 83 51 84 57 85 59 86
REMARK SMILES IDX 56 87 52 88 53 89 54 90 55 91
REMARK H PARENT 16 6 20 25 79 44 47 55
REMARK Flexibility Score: inf
ROOT
ATOM      1  C   UNL A   1      32.143  27.752  26.832  1.00  0.00     0.042 C 
ENDROOT
BRANCH   1   2
ATOM      2  C   UNL A   1      32.286  26.436  26.075  1.00  0.00     0.117 C 
BRANCH   2   3
ATOM      3  N   UNL A   1      31.435  25.377  26.601  1.00  0.00    -0.356 N 
ATOM      4  C   UNL A   1      31.688  24.068  26.876  1.00  0.00     0.224 C 
ATOM      5  O   UNL A   1      30.778  23.410  27.391  1.00  0.00    -0.275 OA
ATOM      6  H   UNL A   1      30.510  25.657  26.791  1.00  0.00     0.163 HD
BRANCH   4   7
ATOM      7  C   UNL A   1      33.024  23.408  26.591  1.00  0.00     0.099 C 
ATOM      8  N   UNL A   1      33.662  21.414  25.489  1.00  0.00    -0.354 N 
ATOM      9  C   UNL A   1      34.079  21.235  26.871  1.00  0.00     0.119 C 
ATOM     10  C   UNL A   1      33.060  22.714  25.231  1.00  0.00     0.131 C 
ATOM     11  C   UNL A   1      33.441  22.383  27.638  1.00  0.00     0.037 C 
BRANCH   8  12
ATOM     12  C   UNL A   1      33.361  20.334  24.696  1.00  0.00     0.148 A 
ATOM     13  C   UNL A   1      33.644  18.101  24.155  1.00  0.00     0.169 A 
ATOM     14  C   UNL A   1      32.719  18.208  23.129  1.00  0.00     0.147 A 
ATOM     15  N   UNL A   1      33.982  19.162  24.938  1.00  0.00    -0.221 NA
ATOM     16  N   UNL A   1      32.078  19.369  22.855  1.00  0.00    -0.258 NA
ATOM     17  C   UNL A   1      32.416  20.408  23.666  1.00  0.00     0.157 A 
BRANCH  13  18
ATOM     18  C   UNL A   1      34.255  16.797  24.505  1.00  0.00     0.358 C 
ATOM     19  O   UNL A   1      35.376  16.668  24.983  1.00  0.00    -0.244 OA
BRANCH  18  20
ATOM     20  O   UNL A   1      33.397  15.788  24.208  1.00  0.00    -0.464 OA
ATOM     21  C   UNL A   1      32.815  15.157  25.353  1.00  0.00     0.282 C 
ENDBRANCH  18  20
ENDBRANCH  13  18
ENDBRANCH   8  12
ENDBRANCH   4   7
ENDBRANCH   2   3
ENDBRANCH   1   2
BRANCH   1  22
ATOM     22  C   UNL A   1      33.461  28.403  27.235  1.00  0.00     0.118 C 
BRANCH  22  23
ATOM     23  N   UNL A   1      33.368  29.851  27.343  1.00  0.00    -0.352 N 
ATOM     24  C   UNL A   1      34.223  30.759  27.923  1.00  0.00     0.251 C 
ATOM     25  H   UNL A   1      32.563  30.245  26.935  1.00  0.00     0.163 HD
ATOM     26  O   UNL A   1      33.851  31.923  28.057  1.00  0.00    -0.269 OA
BRANCH  24  27
ATOM     27  C   UNL A   1      35.564  30.348  28.402  1.00  0.00     0.039 A 
ATOM     28  C   UNL A   1      35.676  29.759  29.665  1.00  0.00     0.014 A 
ATOM     29  C   UNL A   1      36.713  30.574  27.640  1.00  0.00     0.014 A 
ATOM     30  C   UNL A   1      36.924  29.333  30.130  1.00  0.00     0.010 A 
ATOM     31  C   UNL A   1      37.945  30.083  28.072  1.00  0.00     0.010 A 
ATOM     32  C   UNL A   1      38.065  29.457  29.322  1.00  0.00    -0.014 A 
BRANCH  32  33
ATOM     33  C   UNL A   1      39.392  28.950  29.768  1.00  0.00     0.031 A 
ATOM     34  C   UNL A   1      40.156  29.678  30.843  1.00  0.00     0.074 A 
ATOM     35  C   UNL A   1      39.937  27.873  29.164  1.00  0.00     0.049 A 
ATOM     36  N   UNL A   1      41.370  29.468  31.284  1.00  0.00    -0.248 NA
ATOM     37  C   UNL A   1      39.471  30.809  31.486  1.00  0.00     0.031 C 
ATOM     38  C   UNL A   1      39.311  27.098  28.090  1.00  0.00     0.029 A 
ATOM     39  N   UNL A   1      41.147  27.252  29.356  1.00  0.00    -0.354 N 
ATOM     40  C   UNL A   1      41.598  30.444  32.249  1.00  0.00     0.074 A 
ATOM     41  C   UNL A   1      40.417  31.280  32.285  1.00  0.00     0.031 C 
ATOM     42  C   UNL A   1      40.134  26.101  27.730  1.00  0.00     0.029 A 
ATOM     43  C   UNL A   1      41.365  26.190  28.508  1.00  0.00     0.049 A 
ATOM     44  H   UNL A   1      41.797  27.540  30.036  1.00  0.00     0.167 HD
ATOM     45  C   UNL A   1      42.682  30.615  33.046  1.00  0.00     0.034 A 
ATOM     46  C   UNL A   1      42.441  25.390  28.361  1.00  0.00     0.034 A 
ATOM     47  C   UNL A   1      43.849  29.766  33.013  1.00  0.00     0.049 A 
ATOM     48  C   UNL A   1      43.642  25.615  29.245  1.00  0.00     0.074 A 
ATOM     49  C   UNL A   1      44.991  29.837  33.792  1.00  0.00     0.029 A 
ATOM     50  N   UNL A   1      44.023  28.687  32.156  1.00  0.00    -0.354 N 
ATOM     51  N   UNL A   1      43.830  26.531  30.167  1.00  0.00    -0.248 NA
ATOM     52  C   UNL A   1      44.772  24.691  29.078  1.00  0.00     0.031 C 
ATOM     53  C   UNL A   1      45.873  28.835  33.375  1.00  0.00     0.029 A 
ATOM     54  C   UNL A   1      45.256  28.096  32.379  1.00  0.00     0.049 A 
ATOM     55  H   UNL A   1      43.364  28.386  31.488  1.00  0.00     0.167 HD
ATOM     56  C   UNL A   1      45.085  26.268  30.712  1.00  0.00     0.074 A 
ATOM     57  C   UNL A   1      45.600  25.101  30.027  1.00  0.00     0.031 C 
ATOM     58  C   UNL A   1      45.752  26.930  31.690  1.00  0.00     0.034 A 
BRANCH  45  59
ATOM     59  C   UNL A   1      42.658  31.772  34.013  1.00  0.00     0.023 A 
ATOM     60  C   UNL A   1      42.186  31.620  35.329  1.00  0.00     0.031 A 
ATOM     61  C   UNL A   1      43.105  33.045  33.616  1.00  0.00     0.131 A 
ATOM     62  C   UNL A   1      42.114  32.732  36.180  1.00  0.00     0.055 A 
ATOM     63  C   UNL A   1      43.100  34.132  34.493  1.00  0.00     0.041 A 
ATOM     64  F   UNL A   1      43.549  33.255  32.368  1.00  0.00    -0.206 F 
ATOM     65  C   UNL A   1      42.592  33.982  35.780  1.00  0.00     0.022 A 
BRANCH  62  66
ATOM     66  S   UNL A   1      41.282  32.546  37.780  1.00  0.00     0.124 S 
ATOM     67  O   UNL A   1      42.166  31.606  38.463  1.00  0.00    -0.237 OA
ATOM     68  O   UNL A   1      41.278  33.911  38.297  1.00  0.00    -0.237 OA
ATOM     69  O   UNL A   1      39.969  32.011  37.424  1.00  0.00    -0.744 OA
ENDBRANCH  62  66
ENDBRANCH  45  59
BRANCH  46  70
ATOM     70  C   UNL A   1      42.458  24.315  27.326  1.00  0.00     0.023 A 
ATOM     71  C   UNL A   1      41.807  23.091  27.545  1.00  0.00     0.031 A 
ATOM     72  C   UNL A   1      43.187  24.469  26.133  1.00  0.00     0.131 A 
ATOM     73  C   UNL A   1      41.952  22.046  26.619  1.00  0.00     0.055 A 
ATOM     74  C   UNL A   1      43.277  23.447  25.187  1.00  0.00     0.041 A 
ATOM     75  F   UNL A   1      43.826  25.620  25.871  1.00  0.00    -0.206 F 
ATOM     76  C   UNL A   1      42.672  22.219  25.436  1.00  0.00     0.022 A 
BRANCH  73  77
ATOM     77  S   UNL A   1      41.281  20.414  27.044  1.00  0.00     0.124 S 
ATOM     78  O   UNL A   1      40.203  20.272  26.072  1.00  0.00    -0.237 OA
ATOM     79  O   UNL A   1      42.441  19.551  26.848  1.00  0.00    -0.237 OA
ATOM     80  O   UNL A   1      40.853  20.574  28.433  1.00  0.00    -0.744 OA
ENDBRANCH  73  77
ENDBRANCH  46  70
BRANCH  58  81
ATOM     81  C   UNL A   1      47.085  26.364  32.112  1.00  0.00     0.023 A 
ATOM     82  C   UNL A   1      48.291  26.805  31.540  1.00  0.00     0.031 A 
ATOM     83  C   UNL A   1      47.144  25.357  33.091  1.00  0.00     0.131 A 
ATOM     84  C   UNL A   1      49.501  26.199  31.911  1.00  0.00     0.055 A 
ATOM     85  C   UNL A   1      48.356  24.798  33.496  1.00  0.00     0.041 A 
ATOM     86  F   UNL A   1      46.022  24.900  33.670  1.00  0.00    -0.206 F 
ATOM     87  C   UNL A   1      49.543  25.209  32.896  1.00  0.00     0.022 A 
BRANCH  84  88
ATOM     88  S   UNL A   1      51.016  26.667  31.029  1.00  0.00     0.124 S 
ATOM     89  O   UNL A   1      51.655  25.373  30.816  1.00  0.00    -0.237 OA
ATOM     90  O   UNL A   1      50.492  27.324  29.835  1.00  0.00    -0.237 OA
ATOM     91  O   UNL A   1      51.702  27.551  31.970  1.00  0.00    -0.744 OA
ENDBRANCH  84  88
ENDBRANCH  58  81
ENDBRANCH  32  33
ENDBRANCH  24  27
ENDBRANCH  22  23
ENDBRANCH   1  22
TORSDOF 16
ENDMDL
MODEL 3
REMARK VINA RESULT:     -11.4      1.839      3.359
REMARK SMILES COC(=O)c1cncc(N2CC[C@H](C(=O)NCCCNC(=O)c3ccc(-c4c5nc(c(-c6cc(S(=O)(=O)[O-])ccc6F)c6ccc([nH]6)c(-c6cc(S(=O)(=O)[O-])ccc6F)c6nc(c(-c7cc(S(=O)(=O)[O-])ccc7F)c7ccc4[nH]7)C=C6)C=C5)cc3)C2)n1
REMARK SMILES IDX 18 1 17 2 16 3 14 4 15 5 13 7 10 8 11 9 86 10 12 11 9 12
REMARK SMILES IDX 5 13 6 14 87 15 7 16 8 17 3 18 4 19 2 20 1 21 19 22 20 23
REMARK SMILES IDX 21 24 22 26 23 27 24 28 85 29 25 30 84 31 26 32 27 33 28 34
REMARK SMILES IDX 78 35 29 36 83 37 77 38 79 39 30 40 82 41 76 42 75 43 31 45
REMARK SMILES IDX 63 46 43 47 62 48 44 49 47 50 61 51 80 52 45 53 46 54 60 56
REMARK SMILES IDX 81 57 48 58 32 59 33 60 41 61 34 62 40 63 42 64 39 65 35 66
REMARK SMILES IDX 36 67 37 68 38 69 64 70 65 71 73 72 66 73 72 74 74 75 71 76
REMARK SMILES IDX 67 77 68 78 69 79 70 80 49 81 50 82 58 83 51 84 57 85 59 86
REMARK SMILES IDX 56 87 52 88 53 89 54 90 55 91
REMARK H PARENT 16 6 20 25 79 44 47 55
REMARK Flexibility Score: inf
ROOT
ATOM      1  C   UNL A   1      31.590  31.729  26.526  1.00  0.00     0.042 C 
ENDROOT
BRANCH   1   2
ATOM      2  C   UNL A   1      31.768  30.282  26.078  1.00  0.00     0.117 C 
BRANCH   2   3
ATOM      3  N   UNL A   1      31.472  30.079  24.665  1.00  0.00    -0.356 N 
ATOM      4  C   UNL A   1      31.002  28.997  23.988  1.00  0.00     0.224 C 
ATOM      5  O   UNL A   1      30.776  29.136  22.782  1.00  0.00    -0.275 OA
ATOM      6  H   UNL A   1      31.643  30.866  24.099  1.00  0.00     0.163 HD
BRANCH   4   7
ATOM      7  C   UNL A   1      30.741  27.657  24.652  1.00  0.00     0.099 C 
ATOM      8  N   UNL A   1      31.672  25.497  24.399  1.00  0.00    -0.354 N 
ATOM      9  C   UNL A   1      30.281  25.361  24.000  1.00  0.00     0.119 C 
ATOM     10  C   UNL A   1      32.015  26.838  24.848  1.00  0.00     0.131 C 
ATOM     11  C   UNL A   1      29.747  26.780  23.900  1.00  0.00     0.037 C 
BRANCH   8  12
ATOM     12  C   UNL A   1      32.638  24.658  23.898  1.00  0.00     0.148 A 
ATOM     13  C   UNL A   1      34.290  23.073  24.235  1.00  0.00     0.169 A 
ATOM     14  C   UNL A   1      34.517  22.986  22.871  1.00  0.00     0.147 A 
ATOM     15  N   UNL A   1      33.360  23.916  24.761  1.00  0.00    -0.221 NA
ATOM     16  N   UNL A   1      33.813  23.718  21.975  1.00  0.00    -0.258 NA
ATOM     17  C   UNL A   1      32.874  24.535  22.524  1.00  0.00     0.157 A 
BRANCH  13  18
ATOM     18  C   UNL A   1      34.998  22.187  25.190  1.00  0.00     0.358 C 
ATOM     19  O   UNL A   1      34.597  21.933  26.319  1.00  0.00    -0.244 OA
BRANCH  18  20
ATOM     20  O   UNL A   1      36.143  21.721  24.629  1.00  0.00    -0.464 OA
ATOM     21  C   UNL A   1      36.496  20.395  25.034  1.00  0.00     0.282 C 
ENDBRANCH  18  20
ENDBRANCH  13  18
ENDBRANCH   8  12
ENDBRANCH   4   7
ENDBRANCH   2   3
ENDBRANCH   1   2
BRANCH   1  22
ATOM     22  C   UNL A   1      32.797  32.331  27.236  1.00  0.00     0.118 C 
BRANCH  22  23
ATOM     23  N   UNL A   1      32.605  33.727  27.597  1.00  0.00    -0.352 N 
ATOM     24  C   UNL A   1      33.221  34.492  28.559  1.00  0.00     0.251 C 
ATOM     25  H   UNL A   1      31.923  34.200  27.067  1.00  0.00     0.163 HD
ATOM     26  O   UNL A   1      32.768  35.607  28.811  1.00  0.00    -0.269 OA
BRANCH  24  27
ATOM     27  C   UNL A   1      34.398  33.985  29.302  1.00  0.00     0.039 A 
ATOM     28  C   UNL A   1      34.190  33.168  30.418  1.00  0.00     0.014 A 
ATOM     29  C   UNL A   1      35.700  34.336  28.936  1.00  0.00     0.014 A 
ATOM     30  C   UNL A   1      35.282  32.649  31.120  1.00  0.00     0.010 A 
ATOM     31  C   UNL A   1      36.789  33.760  29.591  1.00  0.00     0.010 A 
ATOM     32  C   UNL A   1      36.593  32.910  30.690  1.00  0.00    -0.014 A 
BRANCH  32  33
ATOM     33  C   UNL A   1      37.770  32.314  31.380  1.00  0.00     0.031 A 
ATOM     34  C   UNL A   1      38.527  31.181  30.738  1.00  0.00     0.074 A 
ATOM     35  C   UNL A   1      38.120  32.749  32.609  1.00  0.00     0.049 A 
ATOM     36  N   UNL A   1      39.499  30.452  31.225  1.00  0.00    -0.248 NA
ATOM     37  C   UNL A   1      38.116  30.803  29.378  1.00  0.00     0.031 C 
ATOM     38  C   UNL A   1      37.449  33.819  33.350  1.00  0.00     0.029 A 
ATOM     39  N   UNL A   1      39.117  32.335  33.458  1.00  0.00    -0.354 N 
ATOM     40  C   UNL A   1      39.809  29.523  30.236  1.00  0.00     0.074 A 
ATOM     41  C   UNL A   1      38.883  29.746  29.147  1.00  0.00     0.031 C 
ATOM     42  C   UNL A   1      38.061  33.985  34.534  1.00  0.00     0.029 A 
ATOM     43  C   UNL A   1      39.135  33.005  34.660  1.00  0.00     0.049 A 
ATOM     44  H   UNL A   1      39.758  31.625  33.228  1.00  0.00     0.167 HD
ATOM     45  C   UNL A   1      40.790  28.586  30.228  1.00  0.00     0.034 A 
ATOM     46  C   UNL A   1      39.914  32.838  35.748  1.00  0.00     0.034 A 
ATOM     47  C   UNL A   1      41.719  28.382  31.313  1.00  0.00     0.049 A 
ATOM     48  C   UNL A   1      40.983  31.773  35.721  1.00  0.00     0.074 A 
ATOM     49  C   UNL A   1      42.762  27.477  31.397  1.00  0.00     0.029 A 
ATOM     50  N   UNL A   1      41.718  29.095  32.504  1.00  0.00    -0.354 N 
ATOM     51  N   UNL A   1      41.275  30.919  34.767  1.00  0.00    -0.248 NA
ATOM     52  C   UNL A   1      41.836  31.659  36.912  1.00  0.00     0.031 C 
ATOM     53  C   UNL A   1      43.361  27.609  32.655  1.00  0.00     0.029 A 
ATOM     54  C   UNL A   1      42.733  28.641  33.332  1.00  0.00     0.049 A 
ATOM     55  H   UNL A   1      41.089  29.820  32.728  1.00  0.00     0.167 HD
ATOM     56  C   UNL A   1      42.368  30.191  35.232  1.00  0.00     0.074 A 
ATOM     57  C   UNL A   1      42.692  30.717  36.543  1.00  0.00     0.031 C 
ATOM     58  C   UNL A   1      43.045  29.180  34.633  1.00  0.00     0.034 A 
BRANCH  45  59
ATOM     59  C   UNL A   1      40.897  27.704  29.010  1.00  0.00     0.023 A 
ATOM     60  C   UNL A   1      41.913  27.890  28.055  1.00  0.00     0.031 A 
ATOM     61  C   UNL A   1      39.971  26.668  28.793  1.00  0.00     0.131 A 
ATOM     62  C   UNL A   1      41.942  27.096  26.900  1.00  0.00     0.055 A 
ATOM     63  C   UNL A   1      40.051  25.832  27.676  1.00  0.00     0.041 A 
ATOM     64  F   UNL A   1      38.969  26.454  29.659  1.00  0.00    -0.206 F 
ATOM     65  C   UNL A   1      41.034  26.051  26.716  1.00  0.00     0.022 A 
BRANCH  62  66
ATOM     66  S   UNL A   1      43.117  27.521  25.586  1.00  0.00     0.124 S 
ATOM     67  O   UNL A   1      42.270  28.278  24.668  1.00  0.00    -0.237 OA
ATOM     68  O   UNL A   1      44.130  28.290  26.302  1.00  0.00    -0.237 OA
ATOM     69  O   UNL A   1      43.560  26.220  25.087  1.00  0.00    -0.744 OA
ENDBRANCH  62  66
ENDBRANCH  45  59
BRANCH  46  70
ATOM     70  C   UNL A   1      39.711  33.671  36.969  1.00  0.00     0.023 A 
ATOM     71  C   UNL A   1      39.050  33.154  38.094  1.00  0.00     0.031 A 
ATOM     72  C   UNL A   1      40.110  35.019  37.001  1.00  0.00     0.131 A 
ATOM     73  C   UNL A   1      38.748  33.996  39.176  1.00  0.00     0.055 A 
ATOM     74  C   UNL A   1      39.862  35.836  38.105  1.00  0.00     0.041 A 
ATOM     75  F   UNL A   1      40.749  35.564  35.953  1.00  0.00    -0.206 F 
ATOM     76  C   UNL A   1      39.160  35.329  39.195  1.00  0.00     0.022 A 
BRANCH  73  77
ATOM     77  S   UNL A   1      37.702  33.349  40.511  1.00  0.00     0.124 S 
ATOM     78  O   UNL A   1      37.524  34.529  41.348  1.00  0.00    -0.237 OA
ATOM     79  O   UNL A   1      36.524  32.897  39.778  1.00  0.00    -0.237 OA
ATOM     80  O   UNL A   1      38.517  32.285  41.096  1.00  0.00    -0.744 OA
ENDBRANCH  73  77
ENDBRANCH  46  70
BRANCH  58  81
ATOM     81  C   UNL A   1      44.238  28.624  35.370  1.00  0.00     0.023 A 
ATOM     82  C   UNL A   1      44.101  27.633  36.358  1.00  0.00     0.031 A 
ATOM     83  C   UNL A   1      45.527  29.106  35.087  1.00  0.00     0.131 A 
ATOM     84  C   UNL A   1      45.229  27.197  37.068  1.00  0.00     0.055 A 
ATOM     85  C   UNL A   1      46.653  28.628  35.759  1.00  0.00     0.041 A 
ATOM     86  F   UNL A   1      45.714  30.052  34.152  1.00  0.00    -0.206 F 
ATOM     87  C   UNL A   1      46.506  27.676  36.765  1.00  0.00     0.022 A 
BRANCH  84  88
ATOM     88  S   UNL A   1      44.996  26.050  38.454  1.00  0.00     0.124 S 
ATOM     89  O   UNL A   1      44.384  24.900  37.797  1.00  0.00    -0.237 OA
ATOM     90  O   UNL A   1      46.362  25.857  38.933  1.00  0.00    -0.237 OA
ATOM     91  O   UNL A   1      44.120  26.785  39.365  1.00  0.00    -0.744 OA
ENDBRANCH  84  88
ENDBRANCH  58  81
ENDBRANCH  32  33
ENDBRANCH  24  27
ENDBRANCH  22  23
ENDBRANCH   1  22
TORSDOF 16
ENDMDL
