MODEL 1
REMARK VINA RESULT:     -11.6      0.000      0.000
REMARK SMILES COc1ccc(CSc2ncccc2C(=O)NCCCNC(=O)c2ccc(-c3c4nc(c(-c5cc(S(=O)(=O)[O-])ccc5F)c5ccc([nH]5)c(-c5cc(S(=O)(=O)[O-])ccc5F)c5nc(c(-c6cc(S(=O)(=O)[O-])ccc6F)c6ccc3[nH]6)C=C5)C=C4)cc2)cc1
REMARK SMILES IDX 18 1 17 2 15 3 16 4 14 6 9 7 10 8 11 9 13 10 12 11 8 12 7 13
REMARK SMILES IDX 6 14 3 15 4 16 88 17 5 18 87 19 2 20 1 21 19 22 20 23 21 24
REMARK SMILES IDX 22 25 23 27 24 28 25 29 86 30 26 31 85 32 27 33 28 34 29 35
REMARK SMILES IDX 79 36 30 37 84 38 78 39 80 40 31 41 83 42 77 43 76 44 32 46
REMARK SMILES IDX 64 47 44 48 63 49 45 50 48 51 62 52 81 53 46 54 47 55 61 57
REMARK SMILES IDX 82 58 49 59 33 60 34 61 42 62 35 63 41 64 43 65 40 66 36 67
REMARK SMILES IDX 37 68 38 69 39 70 65 71 66 72 74 73 67 74 73 75 75 76 72 77
REMARK SMILES IDX 68 78 69 79 70 80 71 81 50 82 51 83 59 84 52 85 58 86 60 87
REMARK SMILES IDX 57 88 53 89 54 90 55 91 56 92
REMARK H PARENT 17 5 21 26 80 45 48 56
REMARK Flexibility Score: inf
ROOT
ATOM      1  C   UNL A   1      32.062  27.478  26.772  1.00  0.00     0.118 C 
ENDROOT
BRANCH   1   2
ATOM      2  N   UNL A   1      31.186  26.342  26.556  1.00  0.00    -0.352 N 
ATOM      3  C   UNL A   1      31.391  24.992  26.408  1.00  0.00     0.254 C 
ATOM      4  O   UNL A   1      30.517  24.278  26.904  1.00  0.00    -0.269 OA
ATOM      5  H   UNL A   1      30.235  26.595  26.503  1.00  0.00     0.163 HD
BRANCH   3   6
ATOM      6  C   UNL A   1      32.537  24.365  25.681  1.00  0.00     0.072 A 
ATOM      7  C   UNL A   1      32.495  24.193  24.283  1.00  0.00     0.109 A 
ATOM      8  N   UNL A   1      33.483  23.559  23.581  1.00  0.00    -0.249 NA
ATOM      9  C   UNL A   1      34.538  23.073  24.256  1.00  0.00     0.112 A 
ATOM     10  C   UNL A   1      33.676  23.867  26.328  1.00  0.00     0.018 A 
ATOM     11  C   UNL A   1      34.684  23.214  25.617  1.00  0.00     0.021 A 
BRANCH   7  12
ATOM     12  S   UNL A   1      31.201  24.743  23.184  1.00  0.00    -0.101 SA
BRANCH  12  13
ATOM     13  C   UNL A   1      31.693  26.480  22.998  1.00  0.00     0.112 C 
BRANCH  13  14
ATOM     14  C   UNL A   1      30.543  27.459  22.971  1.00  0.00    -0.037 A 
ATOM     15  C   UNL A   1      28.381  29.268  22.847  1.00  0.00     0.118 A 
ATOM     16  C   UNL A   1      28.226  28.021  23.450  1.00  0.00     0.047 A 
ATOM     17  C   UNL A   1      29.621  29.618  22.315  1.00  0.00     0.047 A 
ATOM     18  C   UNL A   1      29.289  27.116  23.496  1.00  0.00     0.008 A 
ATOM     19  C   UNL A   1      30.694  28.719  22.378  1.00  0.00     0.008 A 
BRANCH  15  20
ATOM     20  O   UNL A   1      27.271  30.064  22.878  1.00  0.00    -0.497 OA
ATOM     21  C   UNL A   1      27.381  31.277  23.614  1.00  0.00     0.278 C 
ENDBRANCH  15  20
ENDBRANCH  13  14
ENDBRANCH  12  13
ENDBRANCH   7  12
ENDBRANCH   3   6
ENDBRANCH   1   2
BRANCH   1  22
ATOM     22  C   UNL A   1      31.519  28.799  26.242  1.00  0.00     0.042 C 
BRANCH  22  23
ATOM     23  C   UNL A   1      32.591  29.752  25.709  1.00  0.00     0.118 C 
BRANCH  23  24
ATOM     24  N   UNL A   1      32.394  31.129  26.140  1.00  0.00    -0.352 N 
ATOM     25  C   UNL A   1      33.031  31.904  27.075  1.00  0.00     0.251 C 
ATOM     26  H   UNL A   1      31.663  31.592  25.671  1.00  0.00     0.163 HD
ATOM     27  O   UNL A   1      32.532  32.988  27.366  1.00  0.00    -0.269 OA
BRANCH  25  28
ATOM     28  C   UNL A   1      34.279  31.468  27.744  1.00  0.00     0.039 A 
ATOM     29  C   UNL A   1      35.300  32.411  27.907  1.00  0.00     0.014 A 
ATOM     30  C   UNL A   1      34.498  30.146  28.138  1.00  0.00     0.014 A 
ATOM     31  C   UNL A   1      36.507  32.043  28.507  1.00  0.00     0.010 A 
ATOM     32  C   UNL A   1      35.676  29.795  28.803  1.00  0.00     0.010 A 
ATOM     33  C   UNL A   1      36.695  30.739  28.990  1.00  0.00    -0.014 A 
BRANCH  33  34
ATOM     34  C   UNL A   1      37.953  30.382  29.700  1.00  0.00     0.031 A 
ATOM     35  C   UNL A   1      38.218  30.869  31.099  1.00  0.00     0.074 A 
ATOM     36  C   UNL A   1      38.868  29.620  29.067  1.00  0.00     0.049 A 
ATOM     37  N   UNL A   1      39.237  30.619  31.882  1.00  0.00    -0.248 NA
ATOM     38  C   UNL A   1      37.222  31.778  31.683  1.00  0.00     0.031 C 
ATOM     39  C   UNL A   1      38.752  29.137  27.688  1.00  0.00     0.029 A 
ATOM     40  N   UNL A   1      40.067  29.109  29.496  1.00  0.00    -0.354 N 
ATOM     41  C   UNL A   1      39.009  31.341  33.050  1.00  0.00     0.074 A 
ATOM     42  C   UNL A   1      37.785  32.087  32.842  1.00  0.00     0.031 C 
ATOM     43  C   UNL A   1      39.813  28.367  27.401  1.00  0.00     0.029 A 
ATOM     44  C   UNL A   1      40.699  28.325  28.559  1.00  0.00     0.049 A 
ATOM     45  H   UNL A   1      40.438  29.286  30.390  1.00  0.00     0.167 HD
ATOM     46  C   UNL A   1      39.736  31.360  34.196  1.00  0.00     0.034 A 
ATOM     47  C   UNL A   1      41.857  27.640  28.627  1.00  0.00     0.034 A 
ATOM     48  C   UNL A   1      40.951  30.603  34.390  1.00  0.00     0.049 A 
ATOM     49  C   UNL A   1      42.635  27.657  29.916  1.00  0.00     0.074 A 
ATOM     50  C   UNL A   1      41.741  30.508  35.523  1.00  0.00     0.029 A 
ATOM     51  N   UNL A   1      41.560  29.813  33.421  1.00  0.00    -0.354 N 
ATOM     52  N   UNL A   1      42.370  28.293  31.034  1.00  0.00    -0.248 NA
ATOM     53  C   UNL A   1      43.855  26.845  29.957  1.00  0.00     0.031 C 
ATOM     54  C   UNL A   1      42.854  29.713  35.223  1.00  0.00     0.029 A 
ATOM     55  C   UNL A   1      42.726  29.250  33.923  1.00  0.00     0.049 A 
ATOM     56  H   UNL A   1      41.214  29.672  32.510  1.00  0.00     0.167 HD
ATOM     57  C   UNL A   1      43.385  27.941  31.919  1.00  0.00     0.074 A 
ATOM     58  C   UNL A   1      44.244  27.011  31.212  1.00  0.00     0.031 C 
ATOM     59  C   UNL A   1      43.591  28.349  33.197  1.00  0.00     0.034 A 
BRANCH  46  60
ATOM     60  C   UNL A   1      39.243  32.248  35.316  1.00  0.00     0.023 A 
ATOM     61  C   UNL A   1      39.660  33.586  35.437  1.00  0.00     0.031 A 
ATOM     62  C   UNL A   1      38.368  31.744  36.296  1.00  0.00     0.131 A 
ATOM     63  C   UNL A   1      39.269  34.347  36.549  1.00  0.00     0.055 A 
ATOM     64  C   UNL A   1      37.917  32.532  37.357  1.00  0.00     0.041 A 
ATOM     65  F   UNL A   1      37.948  30.470  36.247  1.00  0.00    -0.206 F 
ATOM     66  C   UNL A   1      38.380  33.837  37.498  1.00  0.00     0.022 A 
BRANCH  63  67
ATOM     67  S   UNL A   1      40.056  35.959  36.815  1.00  0.00     0.124 S 
ATOM     68  O   UNL A   1      41.452  35.577  37.006  1.00  0.00    -0.237 OA
ATOM     69  O   UNL A   1      39.749  36.667  35.579  1.00  0.00    -0.237 OA
ATOM     70  O   UNL A   1      39.390  36.473  38.011  1.00  0.00    -0.744 OA
ENDBRANCH  63  67
ENDBRANCH  46  60
BRANCH  47  71
ATOM     71  C   UNL A   1      42.346  26.868  27.450  1.00  0.00     0.023 A 
ATOM     72  C   UNL A   1      42.188  25.475  27.379  1.00  0.00     0.031 A 
ATOM     73  C   UNL A   1      43.011  27.512  26.391  1.00  0.00     0.131 A 
ATOM     74  C   UNL A   1      42.727  24.764  26.296  1.00  0.00     0.055 A 
ATOM     75  C   UNL A   1      43.504  26.806  25.293  1.00  0.00     0.041 A 
ATOM     76  F   UNL A   1      43.179  28.845  26.405  1.00  0.00    -0.206 F 
ATOM     77  C   UNL A   1      43.375  25.421  25.248  1.00  0.00     0.022 A 
BRANCH  74  78
ATOM     78  S   UNL A   1      42.635  22.953  26.315  1.00  0.00     0.124 S 
ATOM     79  O   UNL A   1      41.335  22.726  26.936  1.00  0.00    -0.237 OA
ATOM     80  O   UNL A   1      42.734  22.632  24.895  1.00  0.00    -0.237 OA
ATOM     81  O   UNL A   1      43.790  22.563  27.122  1.00  0.00    -0.744 OA
ENDBRANCH  74  78
ENDBRANCH  47  71
BRANCH  59  82
ATOM     82  C   UNL A   1      44.791  27.766  33.905  1.00  0.00     0.023 A 
ATOM     83  C   UNL A   1      44.709  26.550  34.607  1.00  0.00     0.031 A 
ATOM     84  C   UNL A   1      46.013  28.460  33.927  1.00  0.00     0.131 A 
ATOM     85  C   UNL A   1      45.800  26.107  35.370  1.00  0.00     0.055 A 
ATOM     86  C   UNL A   1      47.118  27.979  34.631  1.00  0.00     0.041 A 
ATOM     87  F   UNL A   1      46.150  29.625  33.275  1.00  0.00    -0.206 F 
ATOM     88  C   UNL A   1      47.009  26.807  35.375  1.00  0.00     0.022 A 
BRANCH  85  89
ATOM     89  S   UNL A   1      45.572  24.676  36.462  1.00  0.00     0.124 S 
ATOM     90  O   UNL A   1      44.215  24.255  36.131  1.00  0.00    -0.237 OA
ATOM     91  O   UNL A   1      46.640  23.782  36.027  1.00  0.00    -0.237 OA
ATOM     92  O   UNL A   1      45.739  25.237  37.801  1.00  0.00    -0.744 OA
ENDBRANCH  85  89
ENDBRANCH  59  82
ENDBRANCH  33  34
ENDBRANCH  25  28
ENDBRANCH  23  24
ENDBRANCH  22  23
ENDBRANCH   1  22
TORSDOF 17
ENDMDL
MODEL 2
REMARK VINA RESULT:     -11.4      3.977      7.424
REMARK SMILES COc1ccc(CSc2ncccc2C(=O)NCCCNC(=O)c2ccc(-c3c4nc(c(-c5cc(S(=O)(=O)[O-])ccc5F)c5ccc([nH]5)c(-c5cc(S(=O)(=O)[O-])ccc5F)c5nc(c(-c6cc(S(=O)(=O)[O-])ccc6F)c6ccc3[nH]6)C=C5)C=C4)cc2)cc1
REMARK SMILES IDX 18 1 17 2 15 3 16 4 14 6 9 7 10 8 11 9 13 10 12 11 8 12 7 13
REMARK SMILES IDX 6 14 3 15 4 16 88 17 5 18 87 19 2 20 1 21 19 22 20 23 21 24
REMARK SMILES IDX 22 25 23 27 24 28 25 29 86 30 26 31 85 32 27 33 28 34 29 35
REMARK SMILES IDX 79 36 30 37 84 38 78 39 80 40 31 41 83 42 77 43 76 44 32 46
REMARK SMILES IDX 64 47 44 48 63 49 45 50 48 51 62 52 81 53 46 54 47 55 61 57
REMARK SMILES IDX 82 58 49 59 33 60 34 61 42 62 35 63 41 64 43 65 40 66 36 67
REMARK SMILES IDX 37 68 38 69 39 70 65 71 66 72 74 73 67 74 73 75 75 76 72 77
REMARK SMILES IDX 68 78 69 79 70 80 71 81 50 82 51 83 59 84 52 85 58 86 60 87
REMARK SMILES IDX 57 88 53 89 54 90 55 91 56 92
REMARK H PARENT 17 5 21 26 80 45 48 56
REMARK Flexibility Score: inf
ROOT
ATOM      1  C   UNL A   1      33.887  34.478  30.114  1.00  0.00     0.118 C 
ENDROOT
BRANCH   1   2
ATOM      2  N   UNL A   1      34.336  33.239  30.721  1.00  0.00    -0.352 N 
ATOM      3  C   UNL A   1      35.483  32.856  31.373  1.00  0.00     0.254 C 
ATOM      4  O   UNL A   1      35.312  32.060  32.298  1.00  0.00    -0.269 OA
ATOM      5  H   UNL A   1      33.674  32.513  30.649  1.00  0.00     0.163 HD
BRANCH   3   6
ATOM      6  C   UNL A   1      36.868  33.294  31.019  1.00  0.00     0.072 A 
ATOM      7  C   UNL A   1      37.621  34.090  31.907  1.00  0.00     0.109 A 
ATOM      8  N   UNL A   1      38.860  34.579  31.599  1.00  0.00    -0.249 NA
ATOM      9  C   UNL A   1      39.381  34.292  30.394  1.00  0.00     0.112 A 
ATOM     10  C   UNL A   1      37.475  33.002  29.790  1.00  0.00     0.018 A 
ATOM     11  C   UNL A   1      38.737  33.504  29.470  1.00  0.00     0.021 A 
BRANCH   7  12
ATOM     12  S   UNL A   1      37.135  34.601  33.546  1.00  0.00    -0.101 SA
BRANCH  12  13
ATOM     13  C   UNL A   1      38.579  34.013  34.476  1.00  0.00     0.112 C 
BRANCH  13  14
ATOM     14  C   UNL A   1      38.247  33.145  35.667  1.00  0.00    -0.037 A 
ATOM     15  C   UNL A   1      37.703  31.506  37.897  1.00  0.00     0.118 A 
ATOM     16  C   UNL A   1      37.769  32.891  38.038  1.00  0.00     0.047 A 
ATOM     17  C   UNL A   1      37.897  30.938  36.640  1.00  0.00     0.047 A 
ATOM     18  C   UNL A   1      38.057  33.704  36.939  1.00  0.00     0.008 A 
ATOM     19  C   UNL A   1      38.167  31.753  35.532  1.00  0.00     0.008 A 
BRANCH  15  20
ATOM     20  O   UNL A   1      37.401  30.826  39.044  1.00  0.00    -0.497 OA
ATOM     21  C   UNL A   1      37.091  31.614  40.187  1.00  0.00     0.278 C 
ENDBRANCH  15  20
ENDBRANCH  13  14
ENDBRANCH  12  13
ENDBRANCH   7  12
ENDBRANCH   3   6
ENDBRANCH   1   2
BRANCH   1  22
ATOM     22  C   UNL A   1      33.939  34.486  28.592  1.00  0.00     0.042 C 
BRANCH  22  23
ATOM     23  C   UNL A   1      34.775  33.356  27.986  1.00  0.00     0.118 C 
BRANCH  23  24
ATOM     24  N   UNL A   1      33.984  32.184  27.642  1.00  0.00    -0.352 N 
ATOM     25  C   UNL A   1      34.280  30.845  27.619  1.00  0.00     0.251 C 
ATOM     26  H   UNL A   1      33.060  32.390  27.375  1.00  0.00     0.163 HD
ATOM     27  O   UNL A   1      33.467  30.080  27.105  1.00  0.00    -0.269 OA
BRANCH  25  28
ATOM     28  C   UNL A   1      35.542  30.305  28.176  1.00  0.00     0.039 A 
ATOM     29  C   UNL A   1      36.675  30.303  27.354  1.00  0.00     0.014 A 
ATOM     30  C   UNL A   1      35.617  29.731  29.448  1.00  0.00     0.014 A 
ATOM     31  C   UNL A   1      37.882  29.779  27.822  1.00  0.00     0.010 A 
ATOM     32  C   UNL A   1      36.842  29.274  29.943  1.00  0.00     0.010 A 
ATOM     33  C   UNL A   1      37.986  29.288  29.133  1.00  0.00    -0.014 A 
BRANCH  33  34
ATOM     34  C   UNL A   1      39.298  28.808  29.647  1.00  0.00     0.031 A 
ATOM     35  C   UNL A   1      39.911  29.408  30.884  1.00  0.00     0.074 A 
ATOM     36  C   UNL A   1      39.943  27.831  28.980  1.00  0.00     0.049 A 
ATOM     37  N   UNL A   1      41.022  29.083  31.497  1.00  0.00    -0.248 NA
ATOM     38  C   UNL A   1      39.198  30.537  31.496  1.00  0.00     0.031 C 
ATOM     39  C   UNL A   1      39.479  27.212  27.735  1.00  0.00     0.029 A 
ATOM     40  N   UNL A   1      41.118  27.177  29.255  1.00  0.00    -0.354 N 
ATOM     41  C   UNL A   1      41.144  29.968  32.563  1.00  0.00     0.074 A 
ATOM     42  C   UNL A   1      40.024  30.882  32.472  1.00  0.00     0.031 C 
ATOM     43  C   UNL A   1      40.336  26.244  27.379  1.00  0.00     0.029 A 
ATOM     44  C   UNL A   1      41.425  26.190  28.348  1.00  0.00     0.049 A 
ATOM     45  H   UNL A   1      41.686  27.394  30.029  1.00  0.00     0.167 HD
ATOM     46  C   UNL A   1      42.085  29.999  33.541  1.00  0.00     0.034 A 
ATOM     47  C   UNL A   1      42.461  25.329  28.307  1.00  0.00     0.034 A 
ATOM     48  C   UNL A   1      43.192  29.074  33.622  1.00  0.00     0.049 A 
ATOM     49  C   UNL A   1      43.480  25.367  29.414  1.00  0.00     0.074 A 
ATOM     50  C   UNL A   1      44.174  28.982  34.593  1.00  0.00     0.029 A 
ATOM     51  N   UNL A   1      43.469  28.081  32.689  1.00  0.00    -0.354 N 
ATOM     52  N   UNL A   1      43.544  26.169  30.452  1.00  0.00    -0.248 NA
ATOM     53  C   UNL A   1      44.553  24.369  29.354  1.00  0.00     0.031 C 
ATOM     54  C   UNL A   1      45.075  27.977  34.218  1.00  0.00     0.029 A 
ATOM     55  C   UNL A   1      44.619  27.391  33.049  1.00  0.00     0.049 A 
ATOM     56  H   UNL A   1      42.927  27.893  31.888  1.00  0.00     0.167 HD
ATOM     57  C   UNL A   1      44.657  25.757  31.180  1.00  0.00     0.074 A 
ATOM     58  C   UNL A   1      45.210  24.616  30.477  1.00  0.00     0.031 C 
ATOM     59  C   UNL A   1      45.178  26.274  32.322  1.00  0.00     0.034 A 
BRANCH  46  60
ATOM     60  C   UNL A   1      41.965  31.086  34.585  1.00  0.00     0.023 A 
ATOM     61  C   UNL A   1      42.221  32.436  34.279  1.00  0.00     0.031 A 
ATOM     62  C   UNL A   1      41.621  30.769  35.911  1.00  0.00     0.131 A 
ATOM     63  C   UNL A   1      42.207  33.402  35.297  1.00  0.00     0.055 A 
ATOM     64  C   UNL A   1      41.529  31.749  36.903  1.00  0.00     0.041 A 
ATOM     65  F   UNL A   1      41.383  29.498  36.271  1.00  0.00    -0.206 F 
ATOM     66  C   UNL A   1      41.838  33.072  36.603  1.00  0.00     0.022 A 
BRANCH  63  67
ATOM     67  S   UNL A   1      42.820  35.066  34.919  1.00  0.00     0.124 S 
ATOM     68  O   UNL A   1      41.774  35.571  34.033  1.00  0.00    -0.237 OA
ATOM     69  O   UNL A   1      42.895  35.682  36.237  1.00  0.00    -0.237 OA
ATOM     70  O   UNL A   1      44.107  34.818  34.270  1.00  0.00    -0.744 OA
ENDBRANCH  63  67
ENDBRANCH  46  60
BRANCH  47  71
ATOM     71  C   UNL A   1      42.582  24.350  27.190  1.00  0.00     0.023 A 
ATOM     72  C   UNL A   1      41.973  23.087  27.264  1.00  0.00     0.031 A 
ATOM     73  C   UNL A   1      43.340  24.651  26.045  1.00  0.00     0.131 A 
ATOM     74  C   UNL A   1      42.168  22.154  26.234  1.00  0.00     0.055 A 
ATOM     75  C   UNL A   1      43.491  23.738  25.000  1.00  0.00     0.041 A 
ATOM     76  F   UNL A   1      43.934  25.849  25.919  1.00  0.00    -0.206 F 
ATOM     77  C   UNL A   1      42.915  22.476  25.098  1.00  0.00     0.022 A 
BRANCH  74  78
ATOM     78  S   UNL A   1      41.492  20.484  26.435  1.00  0.00     0.124 S 
ATOM     79  O   UNL A   1      40.065  20.713  26.241  1.00  0.00    -0.237 OA
ATOM     80  O   UNL A   1      42.175  19.752  25.374  1.00  0.00    -0.237 OA
ATOM     81  O   UNL A   1      41.888  20.119  27.794  1.00  0.00    -0.744 OA
ENDBRANCH  74  78
ENDBRANCH  47  71
BRANCH  59  82
ATOM     82  C   UNL A   1      46.400  25.584  32.878  1.00  0.00     0.023 A 
ATOM     83  C   UNL A   1      46.289  24.539  33.814  1.00  0.00     0.031 A 
ATOM     84  C   UNL A   1      47.688  26.010  32.515  1.00  0.00     0.131 A 
ATOM     85  C   UNL A   1      47.443  24.015  34.417  1.00  0.00     0.055 A 
ATOM     86  C   UNL A   1      48.835  25.437  33.066  1.00  0.00     0.041 A 
ATOM     87  F   UNL A   1      47.855  27.004  31.627  1.00  0.00    -0.206 F 
ATOM     88  C   UNL A   1      48.716  24.447  34.038  1.00  0.00     0.022 A 
BRANCH  85  89
ATOM     89  S   UNL A   1      47.249  22.855  35.799  1.00  0.00     0.124 S 
ATOM     90  O   UNL A   1      48.000  21.695  35.329  1.00  0.00    -0.237 OA
ATOM     91  O   UNL A   1      47.845  23.592  36.908  1.00  0.00    -0.237 OA
ATOM     92  O   UNL A   1      45.802  22.663  35.886  1.00  0.00    -0.744 OA
ENDBRANCH  85  89
ENDBRANCH  59  82
ENDBRANCH  33  34
ENDBRANCH  25  28
ENDBRANCH  23  24
ENDBRANCH  22  23
ENDBRANCH   1  22
TORSDOF 17
ENDMDL
MODEL 3
REMARK VINA RESULT:     -11.2      2.240      4.209
REMARK SMILES COc1ccc(CSc2ncccc2C(=O)NCCCNC(=O)c2ccc(-c3c4nc(c(-c5cc(S(=O)(=O)[O-])ccc5F)c5ccc([nH]5)c(-c5cc(S(=O)(=O)[O-])ccc5F)c5nc(c(-c6cc(S(=O)(=O)[O-])ccc6F)c6ccc3[nH]6)C=C5)C=C4)cc2)cc1
REMARK SMILES IDX 18 1 17 2 15 3 16 4 14 6 9 7 10 8 11 9 13 10 12 11 8 12 7 13
REMARK SMILES IDX 6 14 3 15 4 16 88 17 5 18 87 19 2 20 1 21 19 22 20 23 21 24
REMARK SMILES IDX 22 25 23 27 24 28 25 29 86 30 26 31 85 32 27 33 28 34 29 35
REMARK SMILES IDX 79 36 30 37 84 38 78 39 80 40 31 41 83 42 77 43 76 44 32 46
REMARK SMILES IDX 64 47 44 48 63 49 45 50 48 51 62 52 81 53 46 54 47 55 61 57
REMARK SMILES IDX 82 58 49 59 33 60 34 61 42 62 35 63 41 64 43 65 40 66 36 67
REMARK SMILES IDX 37 68 38 69 39 70 65 71 66 72 74 73 67 74 73 75 75 76 72 77
REMARK SMILES IDX 68 78 69 79 70 80 71 81 50 82 51 83 59 84 52 85 58 86 60 87
REMARK SMILES IDX 57 88 53 89 54 90 55 91 56 92
REMARK H PARENT 17 5 21 26 80 45 48 56
REMARK Flexibility Score: inf
ROOT
ATOM      1  C   UNL A   1      32.182  28.005  27.334  1.00  0.00     0.118 C 
ENDROOT
BRANCH   1   2
ATOM      2  N   UNL A   1      31.028  27.160  27.089  1.00  0.00    -0.352 N 
ATOM      3  C   UNL A   1      30.703  26.247  26.115  1.00  0.00     0.254 C 
ATOM      4  O   UNL A   1      30.057  25.276  26.510  1.00  0.00    -0.269 OA
ATOM      5  H   UNL A   1      30.324  27.263  27.770  1.00  0.00     0.163 HD
BRANCH   3   6
ATOM      6  C   UNL A   1      31.035  26.376  24.663  1.00  0.00     0.072 A 
ATOM      7  C   UNL A   1      32.236  25.845  24.149  1.00  0.00     0.109 A 
ATOM      8  N   UNL A   1      32.622  26.001  22.846  1.00  0.00    -0.249 NA
ATOM      9  C   UNL A   1      31.822  26.697  22.020  1.00  0.00     0.112 A 
ATOM     10  C   UNL A   1      30.227  27.064  23.748  1.00  0.00     0.018 A 
ATOM     11  C   UNL A   1      30.620  27.231  22.420  1.00  0.00     0.021 A 
BRANCH   7  12
ATOM     12  S   UNL A   1      33.451  24.899  25.053  1.00  0.00    -0.101 SA
BRANCH  12  13
ATOM     13  C   UNL A   1      34.024  23.809  23.718  1.00  0.00     0.112 C 
BRANCH  13  14
ATOM     14  C   UNL A   1      33.916  22.334  24.024  1.00  0.00    -0.037 A 
ATOM     15  C   UNL A   1      33.732  19.563  24.520  1.00  0.00     0.118 A 
ATOM     16  C   UNL A   1      34.870  20.274  24.896  1.00  0.00     0.047 A 
ATOM     17  C   UNL A   1      32.678  20.237  23.906  1.00  0.00     0.047 A 
ATOM     18  C   UNL A   1      34.972  21.642  24.634  1.00  0.00     0.008 A 
ATOM     19  C   UNL A   1      32.770  21.614  23.661  1.00  0.00     0.008 A 
BRANCH  15  20
ATOM     20  O   UNL A   1      33.751  18.235  24.843  1.00  0.00    -0.497 OA
ATOM     21  C   UNL A   1      32.599  17.726  25.507  1.00  0.00     0.278 C 
ENDBRANCH  15  20
ENDBRANCH  13  14
ENDBRANCH  12  13
ENDBRANCH   7  12
ENDBRANCH   3   6
ENDBRANCH   1   2
BRANCH   1  22
ATOM     22  C   UNL A   1      32.276  29.218  26.417  1.00  0.00     0.042 C 
BRANCH  22  23
ATOM     23  C   UNL A   1      33.644  29.904  26.420  1.00  0.00     0.118 C 
BRANCH  23  24
ATOM     24  N   UNL A   1      33.623  31.213  27.057  1.00  0.00    -0.352 N 
ATOM     25  C   UNL A   1      34.400  31.775  28.037  1.00  0.00     0.251 C 
ATOM     26  H   UNL A   1      32.917  31.809  26.720  1.00  0.00     0.163 HD
ATOM     27  O   UNL A   1      34.039  32.846  28.520  1.00  0.00    -0.269 OA
BRANCH  25  28
ATOM     28  C   UNL A   1      35.636  31.127  28.534  1.00  0.00     0.039 A 
ATOM     29  C   UNL A   1      36.856  31.771  28.297  1.00  0.00     0.014 A 
ATOM     30  C   UNL A   1      35.632  29.873  29.149  1.00  0.00     0.014 A 
ATOM     31  C   UNL A   1      38.053  31.188  28.720  1.00  0.00     0.010 A 
ATOM     32  C   UNL A   1      36.821  29.323  29.637  1.00  0.00     0.010 A 
ATOM     33  C   UNL A   1      38.045  29.973  29.423  1.00  0.00    -0.014 A 
BRANCH  33  34
ATOM     34  C   UNL A   1      39.318  29.403  29.940  1.00  0.00     0.031 A 
ATOM     35  C   UNL A   1      39.954  29.940  31.194  1.00  0.00     0.074 A 
ATOM     36  C   UNL A   1      39.909  28.400  29.261  1.00  0.00     0.049 A 
ATOM     37  N   UNL A   1      41.036  29.535  31.811  1.00  0.00    -0.248 NA
ATOM     38  C   UNL A   1      39.306  31.099  31.821  1.00  0.00     0.031 C 
ATOM     39  C   UNL A   1      39.421  27.835  27.999  1.00  0.00     0.029 A 
ATOM     40  N   UNL A   1      41.038  27.669  29.534  1.00  0.00    -0.354 N 
ATOM     41  C   UNL A   1      41.201  30.390  32.896  1.00  0.00     0.074 A 
ATOM     42  C   UNL A   1      40.142  31.374  32.812  1.00  0.00     0.031 C 
ATOM     43  C   UNL A   1      40.221  26.822  27.632  1.00  0.00     0.029 A 
ATOM     44  C   UNL A   1      41.293  26.682  28.611  1.00  0.00     0.049 A 
ATOM     45  H   UNL A   1      41.610  27.836  30.318  1.00  0.00     0.167 HD
ATOM     46  C   UNL A   1      42.132  30.344  33.884  1.00  0.00     0.034 A 
ATOM     47  C   UNL A   1      42.275  25.760  28.563  1.00  0.00     0.034 A 
ATOM     48  C   UNL A   1      43.178  29.350  33.957  1.00  0.00     0.049 A 
ATOM     49  C   UNL A   1      43.281  25.713  29.681  1.00  0.00     0.074 A 
ATOM     50  C   UNL A   1      44.142  29.180  34.936  1.00  0.00     0.029 A 
ATOM     51  N   UNL A   1      43.403  28.360  33.008  1.00  0.00    -0.354 N 
ATOM     52  N   UNL A   1      43.384  26.490  30.734  1.00  0.00    -0.248 NA
ATOM     53  C   UNL A   1      44.291  24.652  29.611  1.00  0.00     0.031 C 
ATOM     54  C   UNL A   1      44.983  28.128  34.550  1.00  0.00     0.029 A 
ATOM     55  C   UNL A   1      44.504  27.593  33.365  1.00  0.00     0.049 A 
ATOM     56  H   UNL A   1      42.859  28.222  32.198  1.00  0.00     0.167 HD
ATOM     57  C   UNL A   1      44.461  25.996  31.465  1.00  0.00     0.074 A 
ATOM     58  C   UNL A   1      44.950  24.836  30.745  1.00  0.00     0.031 C 
ATOM     59  C   UNL A   1      45.000  26.458  32.622  1.00  0.00     0.034 A 
BRANCH  46  60
ATOM     60  C   UNL A   1      42.068  31.417  34.947  1.00  0.00     0.023 A 
ATOM     61  C   UNL A   1      41.018  31.470  35.881  1.00  0.00     0.031 A 
ATOM     62  C   UNL A   1      43.052  32.420  35.011  1.00  0.00     0.131 A 
ATOM     63  C   UNL A   1      40.932  32.542  36.783  1.00  0.00     0.055 A 
ATOM     64  C   UNL A   1      43.005  33.439  35.965  1.00  0.00     0.041 A 
ATOM     65  F   UNL A   1      44.071  32.436  34.137  1.00  0.00    -0.206 F 
ATOM     66  C   UNL A   1      41.932  33.514  36.848  1.00  0.00     0.022 A 
BRANCH  63  67
ATOM     67  S   UNL A   1      39.420  32.726  37.767  1.00  0.00     0.124 S 
ATOM     68  O   UNL A   1      39.947  32.672  39.129  1.00  0.00    -0.237 OA
ATOM     69  O   UNL A   1      38.913  34.019  37.328  1.00  0.00    -0.237 OA
ATOM     70  O   UNL A   1      38.612  31.572  37.375  1.00  0.00    -0.744 OA
ENDBRANCH  63  67
ENDBRANCH  46  60
BRANCH  47  71
ATOM     71  C   UNL A   1      42.346  24.796  27.429  1.00  0.00     0.023 A 
ATOM     72  C   UNL A   1      41.588  23.614  27.432  1.00  0.00     0.031 A 
ATOM     73  C   UNL A   1      43.204  25.027  26.338  1.00  0.00     0.131 A 
ATOM     74  C   UNL A   1      41.734  22.687  26.389  1.00  0.00     0.055 A 
ATOM     75  C   UNL A   1      43.309  24.124  25.279  1.00  0.00     0.041 A 
ATOM     76  F   UNL A   1      43.943  26.147  26.281  1.00  0.00    -0.206 F 
ATOM     77  C   UNL A   1      42.582  22.939  25.308  1.00  0.00     0.022 A 
BRANCH  74  78
ATOM     78  S   UNL A   1      40.852  21.106  26.504  1.00  0.00     0.124 S 
ATOM     79  O   UNL A   1      41.755  20.208  25.793  1.00  0.00    -0.237 OA
ATOM     80  O   UNL A   1      40.761  20.916  27.948  1.00  0.00    -0.237 OA
ATOM     81  O   UNL A   1      39.582  21.376  25.833  1.00  0.00    -0.744 OA
ENDBRANCH  74  78
ENDBRANCH  47  71
BRANCH  59  82
ATOM     82  C   UNL A   1      46.171  25.682  33.176  1.00  0.00     0.023 A 
ATOM     83  C   UNL A   1      45.982  24.581  34.031  1.00  0.00     0.031 A 
ATOM     84  C   UNL A   1      47.488  26.081  32.895  1.00  0.00     0.131 A 
ATOM     85  C   UNL A   1      47.088  23.970  34.641  1.00  0.00     0.055 A 
ATOM     86  C   UNL A   1      48.589  25.426  33.451  1.00  0.00     0.041 A 
ATOM     87  F   UNL A   1      47.730  27.126  32.088  1.00  0.00    -0.206 F 
ATOM     88  C   UNL A   1      48.392  24.377  34.345  1.00  0.00     0.022 A 
BRANCH  85  89
ATOM     89  S   UNL A   1      46.793  22.726  35.928  1.00  0.00     0.124 S 
ATOM     90  O   UNL A   1      47.595  21.603  35.455  1.00  0.00    -0.237 OA
ATOM     91  O   UNL A   1      47.285  23.399  37.127  1.00  0.00    -0.237 OA
ATOM     92  O   UNL A   1      45.347  22.521  35.881  1.00  0.00    -0.744 OA
ENDBRANCH  85  89
ENDBRANCH  59  82
ENDBRANCH  33  34
ENDBRANCH  25  28
ENDBRANCH  23  24
ENDBRANCH  22  23
ENDBRANCH   1  22
TORSDOF 17
ENDMDL
