MODEL 1
REMARK VINA RESULT:      -9.8      0.000      0.000
REMARK SMILES C=Cc1cncc(-c2ccc([C@@H](C)C(=O)NCCCNC(=O)c3ccc(-c4c5nc(c(-c6cc(S(=O)(=O)[O-])ccc6F)c6ccc([nH]6)c(-c6cc(S(=O)(=O)[O-])ccc6F)c6nc(c(-c7cc(S(=O)(=O)[O-])ccc7F)c7ccc4[nH]7)C=C6)C=C5)cc3)cc2)c1
REMARK SMILES IDX 18 1 17 2 16 3 14 4 15 5 12 7 13 8 11 9 8 10 9 11 87 12
REMARK SMILES IDX 10 13 86 14 7 15 3 16 4 17 88 18 5 19 6 20 2 21 1 22 19 23
REMARK SMILES IDX 20 24 21 25 22 27 23 28 24 29 85 30 25 31 84 32 26 33 27 34
REMARK SMILES IDX 28 35 78 36 29 37 83 38 77 39 79 40 30 41 82 42 76 43 75 44
REMARK SMILES IDX 31 46 63 47 43 48 62 49 44 50 47 51 61 52 80 53 45 54 46 55
REMARK SMILES IDX 60 57 81 58 48 59 32 60 33 61 41 62 34 63 40 64 42 65 39 66
REMARK SMILES IDX 35 67 36 68 37 69 38 70 64 71 65 72 73 73 66 74 72 75 74 76
REMARK SMILES IDX 71 77 67 78 68 79 69 80 70 81 49 82 50 83 58 84 51 85 57 86
REMARK SMILES IDX 59 87 56 88 52 89 53 90 54 91 55 92
REMARK H PARENT 16 6 20 26 79 45 47 56
REMARK Flexibility Score: inf
ROOT
ATOM      1  C   UNL A   1      33.374  34.303  28.701  1.00  0.00     0.042 C 
ENDROOT
BRANCH   1   2
ATOM      2  C   UNL A   1      34.115  35.496  29.296  1.00  0.00     0.117 C 
BRANCH   2   3
ATOM      3  N   UNL A   1      34.051  35.522  30.745  1.00  0.00    -0.356 N 
ATOM      4  C   UNL A   1      34.529  34.672  31.693  1.00  0.00     0.227 C 
ATOM      5  O   UNL A   1      34.261  34.955  32.868  1.00  0.00    -0.274 OA
ATOM      6  H   UNL A   1      33.573  36.301  31.110  1.00  0.00     0.163 HD
BRANCH   4   7
ATOM      7  C   UNL A   1      35.375  33.426  31.386  1.00  0.00     0.105 C 
ATOM      8  C   UNL A   1      35.264  32.316  32.432  1.00  0.00     0.023 C 
BRANCH   7   9
ATOM      9  C   UNL A   1      36.781  33.748  30.904  1.00  0.00    -0.036 A 
ATOM     10  C   UNL A   1      39.492  34.216  30.129  1.00  0.00    -0.017 A 
ATOM     11  C   UNL A   1      38.551  33.682  29.235  1.00  0.00     0.009 A 
ATOM     12  C   UNL A   1      39.034  34.546  31.413  1.00  0.00     0.009 A 
ATOM     13  C   UNL A   1      37.216  33.483  29.605  1.00  0.00     0.005 A 
ATOM     14  C   UNL A   1      37.708  34.301  31.800  1.00  0.00     0.005 A 
BRANCH  10  15
ATOM     15  C   UNL A   1      40.901  34.410  29.726  1.00  0.00     0.001 A 
ATOM     16  C   UNL A   1      43.251  33.743  29.712  1.00  0.00    -0.007 A 
ATOM     17  C   UNL A   1      43.496  34.829  28.877  1.00  0.00     0.119 A 
ATOM     18  C   UNL A   1      41.931  33.550  30.141  1.00  0.00     0.020 A 
ATOM     19  N   UNL A   1      42.549  35.698  28.461  1.00  0.00    -0.263 NA
ATOM     20  C   UNL A   1      41.287  35.461  28.889  1.00  0.00     0.119 A 
BRANCH  16  21
ATOM     21  C   UNL A   1      44.366  32.897  30.150  1.00  0.00     0.002 C 
ATOM     22  C   UNL A   1      44.263  31.586  30.403  1.00  0.00     0.009 C 
ENDBRANCH  16  21
ENDBRANCH  10  15
ENDBRANCH   7   9
ENDBRANCH   4   7
ENDBRANCH   2   3
ENDBRANCH   1   2
BRANCH   1  23
ATOM     23  C   UNL A   1      34.284  33.289  28.018  1.00  0.00     0.118 C 
BRANCH  23  24
ATOM     24  N   UNL A   1      33.559  32.101  27.589  1.00  0.00    -0.352 N 
ATOM     25  C   UNL A   1      33.979  30.800  27.445  1.00  0.00     0.251 C 
ATOM     26  H   UNL A   1      32.613  32.256  27.366  1.00  0.00     0.163 HD
ATOM     27  O   UNL A   1      33.254  30.012  26.842  1.00  0.00    -0.269 OA
BRANCH  25  28
ATOM     28  C   UNL A   1      35.282  30.345  27.985  1.00  0.00     0.039 A 
ATOM     29  C   UNL A   1      35.328  29.824  29.284  1.00  0.00     0.014 A 
ATOM     30  C   UNL A   1      36.465  30.478  27.255  1.00  0.00     0.014 A 
ATOM     31  C   UNL A   1      36.544  29.389  29.822  1.00  0.00     0.010 A 
ATOM     32  C   UNL A   1      37.661  29.968  27.759  1.00  0.00     0.010 A 
ATOM     33  C   UNL A   1      37.718  29.428  29.053  1.00  0.00    -0.014 A 
BRANCH  33  34
ATOM     34  C   UNL A   1      39.019  28.944  29.590  1.00  0.00     0.031 A 
ATOM     35  C   UNL A   1      39.640  29.629  30.780  1.00  0.00     0.074 A 
ATOM     36  C   UNL A   1      39.667  27.933  28.977  1.00  0.00     0.049 A 
ATOM     37  N   UNL A   1      40.815  29.443  31.325  1.00  0.00    -0.248 NA
ATOM     38  C   UNL A   1      38.842  30.685  31.424  1.00  0.00     0.031 C 
ATOM     39  C   UNL A   1      39.182  27.208  27.801  1.00  0.00     0.029 A 
ATOM     40  N   UNL A   1      40.880  27.348  29.246  1.00  0.00    -0.354 N 
ATOM     41  C   UNL A   1      40.902  30.363  32.366  1.00  0.00     0.074 A 
ATOM     42  C   UNL A   1      39.687  31.148  32.333  1.00  0.00     0.031 C 
ATOM     43  C   UNL A   1      40.079  26.269  27.460  1.00  0.00     0.029 A 
ATOM     44  C   UNL A   1      41.226  26.355  28.358  1.00  0.00     0.049 A 
ATOM     45  H   UNL A   1      41.449  27.614  30.005  1.00  0.00     0.167 HD
ATOM     46  C   UNL A   1      41.891  30.521  33.279  1.00  0.00     0.034 A 
ATOM     47  C   UNL A   1      42.349  25.612  28.266  1.00  0.00     0.034 A 
ATOM     48  C   UNL A   1      43.091  29.721  33.310  1.00  0.00     0.049 A 
ATOM     49  C   UNL A   1      43.447  25.827  29.279  1.00  0.00     0.074 A 
ATOM     50  C   UNL A   1      44.145  29.779  34.205  1.00  0.00     0.029 A 
ATOM     51  N   UNL A   1      43.396  28.711  32.406  1.00  0.00    -0.354 N 
ATOM     52  N   UNL A   1      43.500  26.685  30.273  1.00  0.00    -0.248 NA
ATOM     53  C   UNL A   1      44.632  24.965  29.168  1.00  0.00     0.031 C 
ATOM     54  C   UNL A   1      45.110  28.847  33.811  1.00  0.00     0.029 A 
ATOM     55  C   UNL A   1      44.627  28.153  32.714  1.00  0.00     0.049 A 
ATOM     56  H   UNL A   1      42.821  28.432  31.657  1.00  0.00     0.167 HD
ATOM     57  C   UNL A   1      44.704  26.436  30.924  1.00  0.00     0.074 A 
ATOM     58  C   UNL A   1      45.339  25.340  30.223  1.00  0.00     0.031 C 
ATOM     59  C   UNL A   1      45.241  27.055  32.007  1.00  0.00     0.034 A 
BRANCH  46  60
ATOM     60  C   UNL A   1      41.720  31.610  34.311  1.00  0.00     0.023 A 
ATOM     61  C   UNL A   1      40.755  31.512  35.329  1.00  0.00     0.031 A 
ATOM     62  C   UNL A   1      42.525  32.763  34.277  1.00  0.00     0.131 A 
ATOM     63  C   UNL A   1      40.575  32.573  36.229  1.00  0.00     0.055 A 
ATOM     64  C   UNL A   1      42.394  33.780  35.225  1.00  0.00     0.041 A 
ATOM     65  F   UNL A   1      43.450  32.922  33.317  1.00  0.00    -0.206 F 
ATOM     66  C   UNL A   1      41.406  33.695  36.200  1.00  0.00     0.022 A 
BRANCH  63  67
ATOM     67  S   UNL A   1      39.158  32.519  37.360  1.00  0.00     0.124 S 
ATOM     68  O   UNL A   1      38.387  33.680  36.921  1.00  0.00    -0.237 OA
ATOM     69  O   UNL A   1      38.571  31.216  37.070  1.00  0.00    -0.237 OA
ATOM     70  O   UNL A   1      39.769  32.648  38.681  1.00  0.00    -0.744 OA
ENDBRANCH  63  67
ENDBRANCH  46  60
BRANCH  47  71
ATOM     71  C   UNL A   1      42.514  24.611  27.171  1.00  0.00     0.023 A 
ATOM     72  C   UNL A   1      41.942  23.333  27.266  1.00  0.00     0.031 A 
ATOM     73  C   UNL A   1      43.308  24.893  26.044  1.00  0.00     0.131 A 
ATOM     74  C   UNL A   1      42.226  22.363  26.292  1.00  0.00     0.055 A 
ATOM     75  C   UNL A   1      43.532  23.946  25.042  1.00  0.00     0.041 A 
ATOM     76  F   UNL A   1      43.879  26.099  25.900  1.00  0.00    -0.206 F 
ATOM     77  C   UNL A   1      43.005  22.665  25.173  1.00  0.00     0.022 A 
BRANCH  74  78
ATOM     78  S   UNL A   1      41.664  20.661  26.574  1.00  0.00     0.124 S 
ATOM     79  O   UNL A   1      40.216  20.806  26.470  1.00  0.00    -0.237 OA
ATOM     80  O   UNL A   1      42.318  19.943  25.485  1.00  0.00    -0.237 OA
ATOM     81  O   UNL A   1      42.165  20.354  27.912  1.00  0.00    -0.744 OA
ENDBRANCH  74  78
ENDBRANCH  47  71
BRANCH  59  82
ATOM     82  C   UNL A   1      46.546  26.513  32.533  1.00  0.00     0.023 A 
ATOM     83  C   UNL A   1      46.592  25.481  33.486  1.00  0.00     0.031 A 
ATOM     84  C   UNL A   1      47.765  27.045  32.074  1.00  0.00     0.131 A 
ATOM     85  C   UNL A   1      47.829  25.050  33.990  1.00  0.00     0.055 A 
ATOM     86  C   UNL A   1      48.994  26.572  32.535  1.00  0.00     0.041 A 
ATOM     87  F   UNL A   1      47.780  28.033  31.164  1.00  0.00    -0.206 F 
ATOM     88  C   UNL A   1      49.030  25.578  33.508  1.00  0.00     0.022 A 
BRANCH  85  89
ATOM     89  S   UNL A   1      47.846  23.849  35.348  1.00  0.00     0.124 S 
ATOM     90  O   UNL A   1      46.662  24.234  36.109  1.00  0.00    -0.237 OA
ATOM     91  O   UNL A   1      47.761  22.576  34.641  1.00  0.00    -0.237 OA
ATOM     92  O   UNL A   1      49.122  24.103  36.015  1.00  0.00    -0.744 OA
ENDBRANCH  85  89
ENDBRANCH  59  82
ENDBRANCH  33  34
ENDBRANCH  25  28
ENDBRANCH  23  24
ENDBRANCH   1  23
TORSDOF 16
ENDMDL
MODEL 2
REMARK VINA RESULT:      -9.8      3.234      6.229
REMARK SMILES C=Cc1cncc(-c2ccc([C@@H](C)C(=O)NCCCNC(=O)c3ccc(-c4c5nc(c(-c6cc(S(=O)(=O)[O-])ccc6F)c6ccc([nH]6)c(-c6cc(S(=O)(=O)[O-])ccc6F)c6nc(c(-c7cc(S(=O)(=O)[O-])ccc7F)c7ccc4[nH]7)C=C6)C=C5)cc3)cc2)c1
REMARK SMILES IDX 18 1 17 2 16 3 14 4 15 5 12 7 13 8 11 9 8 10 9 11 87 12
REMARK SMILES IDX 10 13 86 14 7 15 3 16 4 17 88 18 5 19 6 20 2 21 1 22 19 23
REMARK SMILES IDX 20 24 21 25 22 27 23 28 24 29 85 30 25 31 84 32 26 33 27 34
REMARK SMILES IDX 28 35 78 36 29 37 83 38 77 39 79 40 30 41 82 42 76 43 75 44
REMARK SMILES IDX 31 46 63 47 43 48 62 49 44 50 47 51 61 52 80 53 45 54 46 55
REMARK SMILES IDX 60 57 81 58 48 59 32 60 33 61 41 62 34 63 40 64 42 65 39 66
REMARK SMILES IDX 35 67 36 68 37 69 38 70 64 71 65 72 73 73 66 74 72 75 74 76
REMARK SMILES IDX 71 77 67 78 68 79 69 80 70 81 49 82 50 83 58 84 51 85 57 86
REMARK SMILES IDX 59 87 56 88 52 89 53 90 54 91 55 92
REMARK H PARENT 16 6 20 26 79 45 47 56
REMARK Flexibility Score: inf
ROOT
ATOM      1  C   UNL A   1      32.967  29.226  24.916  1.00  0.00     0.042 C 
ENDROOT
BRANCH   1   2
ATOM      2  C   UNL A   1      31.449  29.379  24.928  1.00  0.00     0.117 C 
BRANCH   2   3
ATOM      3  N   UNL A   1      30.926  29.809  23.646  1.00  0.00    -0.356 N 
ATOM      4  C   UNL A   1      30.242  29.149  22.673  1.00  0.00     0.227 C 
ATOM      5  O   UNL A   1      29.974  29.798  21.654  1.00  0.00    -0.274 OA
ATOM      6  H   UNL A   1      31.097  30.757  23.441  1.00  0.00     0.163 HD
BRANCH   4   7
ATOM      7  C   UNL A   1      29.785  27.685  22.782  1.00  0.00     0.105 C 
ATOM      8  C   UNL A   1      28.457  27.492  23.514  1.00  0.00     0.023 C 
BRANCH   7   9
ATOM      9  C   UNL A   1      30.902  26.727  23.167  1.00  0.00    -0.036 A 
ATOM     10  C   UNL A   1      32.870  24.774  23.862  1.00  0.00    -0.017 A 
ATOM     11  C   UNL A   1      32.997  25.573  22.716  1.00  0.00     0.009 A 
ATOM     12  C   UNL A   1      31.749  25.001  24.675  1.00  0.00     0.009 A 
ATOM     13  C   UNL A   1      32.050  26.552  22.393  1.00  0.00     0.005 A 
ATOM     14  C   UNL A   1      30.774  25.947  24.326  1.00  0.00     0.005 A 
BRANCH  10  15
ATOM     15  C   UNL A   1      33.874  23.738  24.184  1.00  0.00     0.001 A 
ATOM     16  C   UNL A   1      36.124  23.045  24.837  1.00  0.00    -0.007 A 
ATOM     17  C   UNL A   1      35.664  21.732  24.819  1.00  0.00     0.119 A 
ATOM     18  C   UNL A   1      35.206  24.050  24.505  1.00  0.00     0.020 A 
ATOM     19  N   UNL A   1      34.401  21.372  24.501  1.00  0.00    -0.263 NA
ATOM     20  C   UNL A   1      33.547  22.379  24.201  1.00  0.00     0.119 A 
BRANCH  16  21
ATOM     21  C   UNL A   1      37.533  23.317  25.140  1.00  0.00     0.002 C 
ATOM     22  C   UNL A   1      37.980  23.738  26.330  1.00  0.00     0.009 C 
ENDBRANCH  16  21
ENDBRANCH  10  15
ENDBRANCH   7   9
ENDBRANCH   4   7
ENDBRANCH   2   3
ENDBRANCH   1   2
BRANCH   1  23
ATOM     23  C   UNL A   1      33.618  29.410  26.281  1.00  0.00     0.118 C 
BRANCH  23  24
ATOM     24  N   UNL A   1      33.531  30.786  26.750  1.00  0.00    -0.352 N 
ATOM     25  C   UNL A   1      34.273  31.459  27.692  1.00  0.00     0.251 C 
ATOM     26  H   UNL A   1      32.825  31.322  26.322  1.00  0.00     0.163 HD
ATOM     27  O   UNL A   1      33.866  32.547  28.092  1.00  0.00    -0.269 OA
BRANCH  25  28
ATOM     28  C   UNL A   1      35.530  30.891  28.234  1.00  0.00     0.039 A 
ATOM     29  C   UNL A   1      35.453  29.844  29.159  1.00  0.00     0.014 A 
ATOM     30  C   UNL A   1      36.779  31.412  27.888  1.00  0.00     0.014 A 
ATOM     31  C   UNL A   1      36.623  29.289  29.690  1.00  0.00     0.010 A 
ATOM     32  C   UNL A   1      37.945  30.806  28.352  1.00  0.00     0.010 A 
ATOM     33  C   UNL A   1      37.881  29.744  29.268  1.00  0.00    -0.014 A 
BRANCH  33  34
ATOM     34  C   UNL A   1      39.142  29.152  29.794  1.00  0.00     0.031 A 
ATOM     35  C   UNL A   1      39.832  29.785  30.974  1.00  0.00     0.074 A 
ATOM     36  C   UNL A   1      39.695  28.087  29.178  1.00  0.00     0.049 A 
ATOM     37  N   UNL A   1      40.992  29.500  31.508  1.00  0.00    -0.248 NA
ATOM     38  C   UNL A   1      39.135  30.908  31.621  1.00  0.00     0.031 C 
ATOM     39  C   UNL A   1      39.136  27.402  28.010  1.00  0.00     0.029 A 
ATOM     40  N   UNL A   1      40.855  27.401  29.438  1.00  0.00    -0.354 N 
ATOM     41  C   UNL A   1      41.169  30.413  32.544  1.00  0.00     0.074 A 
ATOM     42  C   UNL A   1      40.025  31.299  32.520  1.00  0.00     0.031 C 
ATOM     43  C   UNL A   1      39.946  26.388  27.664  1.00  0.00     0.029 A 
ATOM     44  C   UNL A   1      41.105  26.378  28.550  1.00  0.00     0.049 A 
ATOM     45  H   UNL A   1      41.453  27.620  30.190  1.00  0.00     0.167 HD
ATOM     46  C   UNL A   1      42.178  30.489  33.446  1.00  0.00     0.034 A 
ATOM     47  C   UNL A   1      42.159  25.541  28.449  1.00  0.00     0.034 A 
ATOM     48  C   UNL A   1      43.304  29.588  33.469  1.00  0.00     0.049 A 
ATOM     49  C   UNL A   1      43.283  25.665  29.451  1.00  0.00     0.074 A 
ATOM     50  C   UNL A   1      44.369  29.559  34.353  1.00  0.00     0.029 A 
ATOM     51  N   UNL A   1      43.512  28.553  32.566  1.00  0.00    -0.354 N 
ATOM     52  N   UNL A   1      43.419  26.519  30.440  1.00  0.00    -0.248 NA
ATOM     53  C   UNL A   1      44.387  24.704  29.331  1.00  0.00     0.031 C 
ATOM     54  C   UNL A   1      45.246  28.546  33.952  1.00  0.00     0.029 A 
ATOM     55  C   UNL A   1      44.694  27.893  32.863  1.00  0.00     0.049 A 
ATOM     56  H   UNL A   1      42.907  28.322  31.823  1.00  0.00     0.167 HD
ATOM     57  C   UNL A   1      44.605  26.169  31.081  1.00  0.00     0.074 A 
ATOM     58  C   UNL A   1      45.135  25.020  30.378  1.00  0.00     0.031 C 
ATOM     59  C   UNL A   1      45.204  26.744  32.155  1.00  0.00     0.034 A 
BRANCH  46  60
ATOM     60  C   UNL A   1      42.112  31.592  34.476  1.00  0.00     0.023 A 
ATOM     61  C   UNL A   1      41.180  31.559  35.528  1.00  0.00     0.031 A 
ATOM     62  C   UNL A   1      42.984  32.692  34.404  1.00  0.00     0.131 A 
ATOM     63  C   UNL A   1      41.099  32.634  36.426  1.00  0.00     0.055 A 
ATOM     64  C   UNL A   1      42.951  33.721  35.347  1.00  0.00     0.041 A 
ATOM     65  F   UNL A   1      43.882  32.789  33.410  1.00  0.00    -0.206 F 
ATOM     66  C   UNL A   1      41.995  33.703  36.359  1.00  0.00     0.022 A 
BRANCH  63  67
ATOM     67  S   UNL A   1      39.723  32.674  37.607  1.00  0.00     0.124 S 
ATOM     68  O   UNL A   1      38.929  31.526  37.173  1.00  0.00    -0.237 OA
ATOM     69  O   UNL A   1      40.402  32.531  38.889  1.00  0.00    -0.237 OA
ATOM     70  O   UNL A   1      39.105  33.976  37.369  1.00  0.00    -0.744 OA
ENDBRANCH  63  67
ENDBRANCH  46  60
BRANCH  47  71
ATOM     71  C   UNL A   1      42.226  24.527  27.357  1.00  0.00     0.023 A 
ATOM     72  C   UNL A   1      41.561  23.296  27.471  1.00  0.00     0.031 A 
ATOM     73  C   UNL A   1      43.017  24.743  26.214  1.00  0.00     0.131 A 
ATOM     74  C   UNL A   1      41.751  22.303  26.497  1.00  0.00     0.055 A 
ATOM     75  C   UNL A   1      43.148  23.777  25.213  1.00  0.00     0.041 A 
ATOM     76  F   UNL A   1      43.675  25.901  26.051  1.00  0.00    -0.206 F 
ATOM     77  C   UNL A   1      42.529  22.541  25.361  1.00  0.00     0.022 A 
BRANCH  74  78
ATOM     78  S   UNL A   1      41.068  20.650  26.799  1.00  0.00     0.124 S 
ATOM     79  O   UNL A   1      39.836  20.691  26.018  1.00  0.00    -0.237 OA
ATOM     80  O   UNL A   1      42.126  19.787  26.285  1.00  0.00    -0.237 OA
ATOM     81  O   UNL A   1      40.886  20.617  28.249  1.00  0.00    -0.744 OA
ENDBRANCH  74  78
ENDBRANCH  47  71
BRANCH  59  82
ATOM     82  C   UNL A   1      46.463  26.093  32.670  1.00  0.00     0.023 A 
ATOM     83  C   UNL A   1      46.429  25.034  33.593  1.00  0.00     0.031 A 
ATOM     84  C   UNL A   1      47.720  26.548  32.231  1.00  0.00     0.131 A 
ATOM     85  C   UNL A   1      47.628  24.500  34.089  1.00  0.00     0.055 A 
ATOM     86  C   UNL A   1      48.908  25.973  32.682  1.00  0.00     0.041 A 
ATOM     87  F   UNL A   1      47.812  27.557  31.350  1.00  0.00    -0.206 F 
ATOM     88  C   UNL A   1      48.866  24.952  33.627  1.00  0.00     0.022 A 
BRANCH  85  89
ATOM     89  S   UNL A   1      47.549  23.263  35.413  1.00  0.00     0.124 S 
ATOM     90  O   UNL A   1      46.371  23.691  36.159  1.00  0.00    -0.237 OA
ATOM     91  O   UNL A   1      47.412  22.016  34.667  1.00  0.00    -0.237 OA
ATOM     92  O   UNL A   1      48.821  23.429  36.113  1.00  0.00    -0.744 OA
ENDBRANCH  85  89
ENDBRANCH  59  82
ENDBRANCH  33  34
ENDBRANCH  25  28
ENDBRANCH  23  24
ENDBRANCH   1  23
TORSDOF 16
ENDMDL
MODEL 3
REMARK VINA RESULT:      -9.6      3.759      9.815
REMARK SMILES C=Cc1cncc(-c2ccc([C@@H](C)C(=O)NCCCNC(=O)c3ccc(-c4c5nc(c(-c6cc(S(=O)(=O)[O-])ccc6F)c6ccc([nH]6)c(-c6cc(S(=O)(=O)[O-])ccc6F)c6nc(c(-c7cc(S(=O)(=O)[O-])ccc7F)c7ccc4[nH]7)C=C6)C=C5)cc3)cc2)c1
REMARK SMILES IDX 18 1 17 2 16 3 14 4 15 5 12 7 13 8 11 9 8 10 9 11 87 12
REMARK SMILES IDX 10 13 86 14 7 15 3 16 4 17 88 18 5 19 6 20 2 21 1 22 19 23
REMARK SMILES IDX 20 24 21 25 22 27 23 28 24 29 85 30 25 31 84 32 26 33 27 34
REMARK SMILES IDX 28 35 78 36 29 37 83 38 77 39 79 40 30 41 82 42 76 43 75 44
REMARK SMILES IDX 31 46 63 47 43 48 62 49 44 50 47 51 61 52 80 53 45 54 46 55
REMARK SMILES IDX 60 57 81 58 48 59 32 60 33 61 41 62 34 63 40 64 42 65 39 66
REMARK SMILES IDX 35 67 36 68 37 69 38 70 64 71 65 72 73 73 66 74 72 75 74 76
REMARK SMILES IDX 71 77 67 78 68 79 69 80 70 81 49 82 50 83 58 84 51 85 57 86
REMARK SMILES IDX 59 87 56 88 52 89 53 90 54 91 55 92
REMARK H PARENT 16 6 20 26 79 45 47 56
REMARK Flexibility Score: inf
ROOT
ATOM      1  C   UNL A   1      32.954  27.638  26.520  1.00  0.00     0.042 C 
ENDROOT
BRANCH   1   2
ATOM      2  C   UNL A   1      31.477  27.692  26.141  1.00  0.00     0.117 C 
BRANCH   2   3
ATOM      3  N   UNL A   1      30.762  26.491  26.528  1.00  0.00    -0.356 N 
ATOM      4  C   UNL A   1      30.670  25.260  25.956  1.00  0.00     0.227 C 
ATOM      5  O   UNL A   1      29.924  24.449  26.518  1.00  0.00    -0.274 OA
ATOM      6  H   UNL A   1      30.247  26.583  27.362  1.00  0.00     0.163 HD
BRANCH   4   7
ATOM      7  C   UNL A   1      31.438  24.838  24.693  1.00  0.00     0.105 C 
ATOM      8  C   UNL A   1      30.666  23.891  23.773  1.00  0.00     0.023 C 
BRANCH   7   9
ATOM      9  C   UNL A   1      32.889  24.469  24.959  1.00  0.00    -0.036 A 
ATOM     10  C   UNL A   1      35.557  23.585  25.482  1.00  0.00    -0.017 A 
ATOM     11  C   UNL A   1      35.186  24.115  24.237  1.00  0.00     0.009 A 
ATOM     12  C   UNL A   1      34.567  23.542  26.475  1.00  0.00     0.009 A 
ATOM     13  C   UNL A   1      33.889  24.578  23.991  1.00  0.00     0.005 A 
ATOM     14  C   UNL A   1      33.253  23.959  26.215  1.00  0.00     0.005 A 
BRANCH  10  15
ATOM     15  C   UNL A   1      36.929  23.091  25.721  1.00  0.00     0.001 A 
ATOM     16  C   UNL A   1      39.147  23.288  26.728  1.00  0.00    -0.007 A 
ATOM     17  C   UNL A   1      39.455  22.060  26.152  1.00  0.00     0.119 A 
ATOM     18  C   UNL A   1      37.864  23.801  26.493  1.00  0.00     0.020 A 
ATOM     19  N   UNL A   1      38.603  21.342  25.388  1.00  0.00    -0.263 NA
ATOM     20  C   UNL A   1      37.372  21.872  25.201  1.00  0.00     0.119 A 
BRANCH  16  21
ATOM     21  C   UNL A   1      40.169  24.010  27.493  1.00  0.00     0.002 C 
ATOM     22  C   UNL A   1      39.935  25.119  28.205  1.00  0.00     0.009 C 
ENDBRANCH  16  21
ENDBRANCH  10  15
ENDBRANCH   7   9
ENDBRANCH   4   7
ENDBRANCH   2   3
ENDBRANCH   1   2
BRANCH   1  23
ATOM     23  C   UNL A   1      33.797  28.733  25.879  1.00  0.00     0.118 C 
BRANCH  23  24
ATOM     24  N   UNL A   1      33.249  30.060  26.120  1.00  0.00    -0.352 N 
ATOM     25  C   UNL A   1      33.618  31.031  27.020  1.00  0.00     0.251 C 
ATOM     26  H   UNL A   1      32.488  30.301  25.543  1.00  0.00     0.163 HD
ATOM     27  O   UNL A   1      32.860  31.981  27.204  1.00  0.00    -0.269 OA
BRANCH  25  28
ATOM     28  C   UNL A   1      34.893  30.942  27.771  1.00  0.00     0.039 A 
ATOM     29  C   UNL A   1      35.198  29.752  28.442  1.00  0.00     0.014 A 
ATOM     30  C   UNL A   1      35.762  32.030  27.871  1.00  0.00     0.014 A 
ATOM     31  C   UNL A   1      36.393  29.639  29.160  1.00  0.00     0.010 A 
ATOM     32  C   UNL A   1      36.990  31.891  28.517  1.00  0.00     0.010 A 
ATOM     33  C   UNL A   1      37.316  30.697  29.180  1.00  0.00    -0.014 A 
BRANCH  33  34
ATOM     34  C   UNL A   1      38.607  30.593  29.912  1.00  0.00     0.031 A 
ATOM     35  C   UNL A   1      39.746  29.808  29.315  1.00  0.00     0.074 A 
ATOM     36  C   UNL A   1      38.736  31.150  31.133  1.00  0.00     0.049 A 
ATOM     37  N   UNL A   1      40.904  29.496  29.839  1.00  0.00    -0.248 NA
ATOM     38  C   UNL A   1      39.542  29.279  27.957  1.00  0.00     0.031 C 
ATOM     39  C   UNL A   1      37.697  31.913  31.829  1.00  0.00     0.029 A 
ATOM     40  N   UNL A   1      39.790  31.154  32.013  1.00  0.00    -0.354 N 
ATOM     41  C   UNL A   1      41.561  28.727  28.883  1.00  0.00     0.074 A 
ATOM     42  C   UNL A   1      40.645  28.568  27.774  1.00  0.00     0.031 C 
ATOM     43  C   UNL A   1      38.169  32.319  33.018  1.00  0.00     0.029 A 
ATOM     44  C   UNL A   1      39.524  31.807  33.195  1.00  0.00     0.049 A 
ATOM     45  H   UNL A   1      40.657  30.728  31.817  1.00  0.00     0.167 HD
ATOM     46  C   UNL A   1      42.818  28.223  28.915  1.00  0.00     0.034 A 
ATOM     47  C   UNL A   1      40.279  31.960  34.304  1.00  0.00     0.034 A 
ATOM     48  C   UNL A   1      43.727  28.403  30.021  1.00  0.00     0.049 A 
ATOM     49  C   UNL A   1      41.666  31.364  34.324  1.00  0.00     0.074 A 
ATOM     50  C   UNL A   1      45.031  27.956  30.149  1.00  0.00     0.029 A 
ATOM     51  N   UNL A   1      43.428  29.088  31.192  1.00  0.00    -0.354 N 
ATOM     52  N   UNL A   1      42.279  30.662  33.399  1.00  0.00    -0.248 NA
ATOM     53  C   UNL A   1      42.469  31.594  35.534  1.00  0.00     0.031 C 
ATOM     54  C   UNL A   1      45.500  28.322  31.415  1.00  0.00     0.029 A 
ATOM     55  C   UNL A   1      44.516  29.061  32.050  1.00  0.00     0.049 A 
ATOM     56  H   UNL A   1      42.568  29.529  31.384  1.00  0.00     0.167 HD
ATOM     57  C   UNL A   1      43.551  30.402  33.901  1.00  0.00     0.074 A 
ATOM     58  C   UNL A   1      43.623  31.035  35.202  1.00  0.00     0.031 C 
ATOM     59  C   UNL A   1      44.572  29.704  33.340  1.00  0.00     0.034 A 
BRANCH  46  60
ATOM     60  C   UNL A   1      43.279  27.418  27.723  1.00  0.00     0.023 A 
ATOM     61  C   UNL A   1      43.276  26.011  27.742  1.00  0.00     0.031 A 
ATOM     62  C   UNL A   1      43.732  28.060  26.557  1.00  0.00     0.131 A 
ATOM     63  C   UNL A   1      43.776  25.296  26.644  1.00  0.00     0.055 A 
ATOM     64  C   UNL A   1      44.155  27.339  25.438  1.00  0.00     0.041 A 
ATOM     65  F   UNL A   1      43.778  29.400  26.489  1.00  0.00    -0.206 F 
ATOM     66  C   UNL A   1      44.191  25.949  25.482  1.00  0.00     0.022 A 
BRANCH  63  67
ATOM     67  S   UNL A   1      43.992  23.502  26.806  1.00  0.00     0.124 S 
ATOM     68  O   UNL A   1      43.541  23.274  28.177  1.00  0.00    -0.237 OA
ATOM     69  O   UNL A   1      43.125  22.983  25.754  1.00  0.00    -0.237 OA
ATOM     70  O   UNL A   1      45.424  23.308  26.588  1.00  0.00    -0.744 OA
ENDBRANCH  63  67
ENDBRANCH  46  60
BRANCH  47  71
ATOM     71  C   UNL A   1      39.746  32.683  35.496  1.00  0.00     0.023 A 
ATOM     72  C   UNL A   1      39.046  32.000  36.503  1.00  0.00     0.031 A 
ATOM     73  C   UNL A   1      39.865  34.080  35.610  1.00  0.00     0.131 A 
ATOM     74  C   UNL A   1      38.435  32.719  37.542  1.00  0.00     0.055 A 
ATOM     75  C   UNL A   1      39.313  34.783  36.683  1.00  0.00     0.041 A 
ATOM     76  F   UNL A   1      40.524  34.784  34.677  1.00  0.00    -0.206 F 
ATOM     77  C   UNL A   1      38.575  34.104  37.647  1.00  0.00     0.022 A 
BRANCH  74  78
ATOM     78  S   UNL A   1      37.345  31.828  38.687  1.00  0.00     0.124 S 
ATOM     79  O   UNL A   1      38.122  31.860  39.922  1.00  0.00    -0.237 OA
ATOM     80  O   UNL A   1      36.142  32.654  38.664  1.00  0.00    -0.237 OA
ATOM     81  O   UNL A   1      37.208  30.510  38.071  1.00  0.00    -0.744 OA
ENDBRANCH  74  78
ENDBRANCH  47  71
BRANCH  59  82
ATOM     82  C   UNL A   1      45.870  29.649  34.106  1.00  0.00     0.023 A 
ATOM     83  C   UNL A   1      46.880  30.610  33.926  1.00  0.00     0.031 A 
ATOM     84  C   UNL A   1      46.100  28.612  35.028  1.00  0.00     0.131 A 
ATOM     85  C   UNL A   1      48.095  30.484  34.617  1.00  0.00     0.055 A 
ATOM     86  C   UNL A   1      47.286  28.525  35.756  1.00  0.00     0.041 A 
ATOM     87  F   UNL A   1      45.169  27.667  35.239  1.00  0.00    -0.206 F 
ATOM     88  C   UNL A   1      48.298  29.457  35.543  1.00  0.00     0.022 A 
BRANCH  85  89
ATOM     89  S   UNL A   1      49.443  31.633  34.226  1.00  0.00     0.124 S 
ATOM     90  O   UNL A   1      49.691  32.262  35.518  1.00  0.00    -0.237 OA
ATOM     91  O   UNL A   1      50.488  30.736  33.744  1.00  0.00    -0.237 OA
ATOM     92  O   UNL A   1      48.862  32.509  33.210  1.00  0.00    -0.744 OA
ENDBRANCH  85  89
ENDBRANCH  59  82
ENDBRANCH  33  34
ENDBRANCH  25  28
ENDBRANCH  23  24
ENDBRANCH   1  23
TORSDOF 16
ENDMDL
