MODEL 1
REMARK VINA RESULT:     -11.3      0.000      0.000
REMARK SMILES COc1cc(OC)cc(-c2cnc(Cl)c(C(=O)NCCCNC(=O)c3ccc(-c4c5nc(c(-c6cc(S(=O)(=O)[O-])ccc6F)c6ccc([nH]6)c(-c6cc(S(=O)(=O)[O-])ccc6F)c6nc(c(-c7cc(S(=O)(=O)[O-])ccc7F)c7ccc4[nH]7)C=C6)C=C5)cc3)c2)c1
REMARK SMILES IDX 20 1 19 2 18 3 16 4 17 5 15 7 10 8 11 9 88 10 12 11 13 12
REMARK SMILES IDX 14 13 9 14 3 15 4 16 89 17 5 18 8 19 2 20 1 21 6 22 7 23
REMARK SMILES IDX 21 24 22 25 23 26 24 28 25 29 26 30 87 31 27 32 86 33 28 34
REMARK SMILES IDX 29 35 30 36 80 37 31 38 85 39 79 40 81 41 32 42 84 43 78 44
REMARK SMILES IDX 77 45 33 47 65 48 45 49 64 50 46 51 49 52 63 53 82 54 47 55
REMARK SMILES IDX 48 56 62 58 83 59 50 60 34 61 35 62 43 63 36 64 42 65 44 66
REMARK SMILES IDX 41 67 37 68 38 69 39 70 40 71 66 72 67 73 75 74 68 75 74 76
REMARK SMILES IDX 76 77 73 78 69 79 70 80 71 81 72 82 51 83 52 84 60 85 53 86
REMARK SMILES IDX 59 87 61 88 58 89 54 90 55 91 56 92 57 93
REMARK H PARENT 18 6 22 27 81 46 49 57
REMARK Flexibility Score: inf
ROOT
ATOM      1  C   UNL A   1      35.585  22.753  25.169  1.00  0.00     0.042 C 
ENDROOT
BRANCH   1   2
ATOM      2  C   UNL A   1      35.394  21.468  25.979  1.00  0.00     0.118 C 
BRANCH   2   3
ATOM      3  N   UNL A   1      34.549  21.724  27.131  1.00  0.00    -0.352 N 
ATOM      4  C   UNL A   1      33.402  22.435  27.341  1.00  0.00     0.254 C 
ATOM      5  O   UNL A   1      33.024  22.493  28.516  1.00  0.00    -0.269 OA
ATOM      6  H   UNL A   1      34.878  21.284  27.948  1.00  0.00     0.163 HD
BRANCH   4   7
ATOM      7  C   UNL A   1      32.518  23.042  26.313  1.00  0.00     0.077 A 
ATOM      8  C   UNL A   1      31.713  25.210  25.464  1.00  0.00     0.001 A 
ATOM      9  C   UNL A   1      31.060  24.506  24.465  1.00  0.00     0.121 A 
ATOM     10  C   UNL A   1      32.411  24.449  26.409  1.00  0.00     0.027 A 
ATOM     11  N   UNL A   1      31.123  23.169  24.328  1.00  0.00    -0.243 NA
ATOM     12  C   UNL A   1      31.889  22.475  25.214  1.00  0.00     0.141 A 
ATOM     13  Cl  UNL A   1      32.099  20.887  24.612  1.00  0.00    -0.061 Cl
BRANCH   8  14
ATOM     14  C   UNL A   1      31.726  26.673  25.483  1.00  0.00    -0.009 A 
ATOM     15  C   UNL A   1      30.985  28.793  24.544  1.00  0.00     0.123 A 
ATOM     16  C   UNL A   1      31.682  29.465  25.550  1.00  0.00     0.092 A 
ATOM     17  C   UNL A   1      31.019  27.400  24.507  1.00  0.00     0.055 A 
ATOM     18  C   UNL A   1      32.396  28.763  26.524  1.00  0.00     0.123 A 
ATOM     19  C   UNL A   1      32.408  27.369  26.491  1.00  0.00     0.055 A 
BRANCH  15  20
ATOM     20  O   UNL A   1      30.325  29.602  23.659  1.00  0.00    -0.497 OA
ATOM     21  C   UNL A   1      30.163  29.105  22.335  1.00  0.00     0.278 C 
ENDBRANCH  15  20
BRANCH  18  22
ATOM     22  O   UNL A   1      33.028  29.543  27.454  1.00  0.00    -0.497 OA
ATOM     23  C   UNL A   1      34.324  30.018  27.116  1.00  0.00     0.278 C 
ENDBRANCH  18  22
ENDBRANCH   8  14
ENDBRANCH   4   7
ENDBRANCH   2   3
ENDBRANCH   1   2
BRANCH   1  24
ATOM     24  C   UNL A   1      36.955  23.402  25.328  1.00  0.00     0.118 C 
BRANCH  24  25
ATOM     25  N   UNL A   1      37.963  22.440  25.734  1.00  0.00    -0.352 N 
ATOM     26  C   UNL A   1      39.208  22.641  26.272  1.00  0.00     0.251 C 
ATOM     27  H   UNL A   1      37.714  21.497  25.603  1.00  0.00     0.163 HD
ATOM     28  O   UNL A   1      40.003  21.697  26.270  1.00  0.00    -0.269 OA
BRANCH  26  29
ATOM     29  C   UNL A   1      39.617  23.948  26.842  1.00  0.00     0.039 A 
ATOM     30  C   UNL A   1      40.085  24.937  25.972  1.00  0.00     0.014 A 
ATOM     31  C   UNL A   1      39.620  24.189  28.220  1.00  0.00     0.014 A 
ATOM     32  C   UNL A   1      40.520  26.167  26.474  1.00  0.00     0.010 A 
ATOM     33  C   UNL A   1      39.982  25.445  28.716  1.00  0.00     0.010 A 
ATOM     34  C   UNL A   1      40.449  26.442  27.849  1.00  0.00    -0.014 A 
BRANCH  34  35
ATOM     35  C   UNL A   1      40.874  27.766  28.381  1.00  0.00     0.031 A 
ATOM     36  C   UNL A   1      42.337  28.106  28.507  1.00  0.00     0.074 A 
ATOM     37  C   UNL A   1      39.937  28.652  28.772  1.00  0.00     0.049 A 
ATOM     38  N   UNL A   1      42.896  29.204  28.952  1.00  0.00    -0.248 NA
ATOM     39  C   UNL A   1      43.295  27.068  28.103  1.00  0.00     0.031 C 
ATOM     40  C   UNL A   1      38.491  28.418  28.743  1.00  0.00     0.029 A 
ATOM     41  N   UNL A   1      40.054  29.926  29.270  1.00  0.00    -0.354 N 
ATOM     42  C   UNL A   1      44.270  28.985  28.889  1.00  0.00     0.074 A 
ATOM     43  C   UNL A   1      44.453  27.628  28.419  1.00  0.00     0.031 C 
ATOM     44  C   UNL A   1      37.857  29.521  29.170  1.00  0.00     0.029 A 
ATOM     45  C   UNL A   1      38.847  30.529  29.539  1.00  0.00     0.049 A 
ATOM     46  H   UNL A   1      40.921  30.368  29.419  1.00  0.00     0.167 HD
ATOM     47  C   UNL A   1      45.282  29.843  29.173  1.00  0.00     0.034 A 
ATOM     48  C   UNL A   1      38.568  31.752  30.028  1.00  0.00     0.034 A 
ATOM     49  C   UNL A   1      45.082  31.197  29.631  1.00  0.00     0.049 A 
ATOM     50  C   UNL A   1      39.710  32.686  30.334  1.00  0.00     0.074 A 
ATOM     51  C   UNL A   1      46.031  32.168  29.904  1.00  0.00     0.029 A 
ATOM     52  N   UNL A   1      43.843  31.774  29.890  1.00  0.00    -0.354 N 
ATOM     53  N   UNL A   1      41.002  32.481  30.216  1.00  0.00    -0.248 NA
ATOM     54  C   UNL A   1      39.353  34.024  30.824  1.00  0.00     0.031 C 
ATOM     55  C   UNL A   1      45.373  33.307  30.384  1.00  0.00     0.029 A 
ATOM     56  C   UNL A   1      44.007  33.076  30.345  1.00  0.00     0.049 A 
ATOM     57  H   UNL A   1      42.976  31.325  29.769  1.00  0.00     0.167 HD
ATOM     58  C   UNL A   1      41.611  33.673  30.598  1.00  0.00     0.074 A 
ATOM     59  C   UNL A   1      40.542  34.599  30.917  1.00  0.00     0.031 C 
ATOM     60  C   UNL A   1      42.931  33.978  30.682  1.00  0.00     0.034 A 
BRANCH  47  61
ATOM     61  C   UNL A   1      46.695  29.330  29.016  1.00  0.00     0.023 A 
ATOM     62  C   UNL A   1      47.304  29.216  27.753  1.00  0.00     0.031 A 
ATOM     63  C   UNL A   1      47.439  28.930  30.141  1.00  0.00     0.131 A 
ATOM     64  C   UNL A   1      48.584  28.651  27.639  1.00  0.00     0.055 A 
ATOM     65  C   UNL A   1      48.744  28.443  30.028  1.00  0.00     0.041 A 
ATOM     66  F   UNL A   1      46.908  28.998  31.372  1.00  0.00    -0.206 F 
ATOM     67  C   UNL A   1      49.318  28.287  28.770  1.00  0.00     0.022 A 
BRANCH  64  68
ATOM     68  S   UNL A   1      49.223  28.277  25.982  1.00  0.00     0.124 S 
ATOM     69  O   UNL A   1      49.702  26.907  26.154  1.00  0.00    -0.237 OA
ATOM     70  O   UNL A   1      48.041  28.441  25.143  1.00  0.00    -0.237 OA
ATOM     71  O   UNL A   1      50.272  29.275  25.786  1.00  0.00    -0.744 OA
ENDBRANCH  64  68
ENDBRANCH  47  61
BRANCH  48  72
ATOM     72  C   UNL A   1      37.156  32.173  30.260  1.00  0.00     0.023 A 
ATOM     73  C   UNL A   1      36.407  32.787  29.244  1.00  0.00     0.031 A 
ATOM     74  C   UNL A   1      36.551  32.011  31.519  1.00  0.00     0.131 A 
ATOM     75  C   UNL A   1      35.115  33.263  29.516  1.00  0.00     0.055 A 
ATOM     76  C   UNL A   1      35.245  32.438  31.770  1.00  0.00     0.041 A 
ATOM     77  F   UNL A   1      37.220  31.425  32.524  1.00  0.00    -0.206 F 
ATOM     78  C   UNL A   1      34.525  33.083  30.769  1.00  0.00     0.022 A 
BRANCH  75  79
ATOM     79  S   UNL A   1      34.250  34.210  28.233  1.00  0.00     0.124 S 
ATOM     80  O   UNL A   1      33.151  33.315  27.892  1.00  0.00    -0.237 OA
ATOM     81  O   UNL A   1      33.888  35.428  28.950  1.00  0.00    -0.237 OA
ATOM     82  O   UNL A   1      35.263  34.380  27.194  1.00  0.00    -0.744 OA
ENDBRANCH  75  79
ENDBRANCH  48  72
BRANCH  60  83
ATOM     83  C   UNL A   1      43.274  35.383  31.114  1.00  0.00     0.023 A 
ATOM     84  C   UNL A   1      43.495  36.407  30.176  1.00  0.00     0.031 A 
ATOM     85  C   UNL A   1      43.431  35.689  32.477  1.00  0.00     0.131 A 
ATOM     86  C   UNL A   1      43.935  37.666  30.605  1.00  0.00     0.055 A 
ATOM     87  C   UNL A   1      43.805  36.964  32.904  1.00  0.00     0.041 A 
ATOM     88  F   UNL A   1      43.236  34.752  33.416  1.00  0.00    -0.206 F 
ATOM     89  C   UNL A   1      44.078  37.957  31.965  1.00  0.00     0.022 A 
BRANCH  86  90
ATOM     90  S   UNL A   1      44.439  38.883  29.358  1.00  0.00     0.124 S 
ATOM     91  O   UNL A   1      43.411  39.909  29.502  1.00  0.00    -0.237 OA
ATOM     92  O   UNL A   1      45.777  39.252  29.805  1.00  0.00    -0.237 OA
ATOM     93  O   UNL A   1      44.390  38.130  28.105  1.00  0.00    -0.744 OA
ENDBRANCH  86  90
ENDBRANCH  60  83
ENDBRANCH  34  35
ENDBRANCH  26  29
ENDBRANCH  24  25
ENDBRANCH   1  24
TORSDOF 16
ENDMDL
MODEL 2
REMARK VINA RESULT:     -11.2      4.924      9.926
REMARK SMILES COc1cc(OC)cc(-c2cnc(Cl)c(C(=O)NCCCNC(=O)c3ccc(-c4c5nc(c(-c6cc(S(=O)(=O)[O-])ccc6F)c6ccc([nH]6)c(-c6cc(S(=O)(=O)[O-])ccc6F)c6nc(c(-c7cc(S(=O)(=O)[O-])ccc7F)c7ccc4[nH]7)C=C6)C=C5)cc3)c2)c1
REMARK SMILES IDX 20 1 19 2 18 3 16 4 17 5 15 7 10 8 11 9 88 10 12 11 13 12
REMARK SMILES IDX 14 13 9 14 3 15 4 16 89 17 5 18 8 19 2 20 1 21 6 22 7 23
REMARK SMILES IDX 21 24 22 25 23 26 24 28 25 29 26 30 87 31 27 32 86 33 28 34
REMARK SMILES IDX 29 35 30 36 80 37 31 38 85 39 79 40 81 41 32 42 84 43 78 44
REMARK SMILES IDX 77 45 33 47 65 48 45 49 64 50 46 51 49 52 63 53 82 54 47 55
REMARK SMILES IDX 48 56 62 58 83 59 50 60 34 61 35 62 43 63 36 64 42 65 44 66
REMARK SMILES IDX 41 67 37 68 38 69 39 70 40 71 66 72 67 73 75 74 68 75 74 76
REMARK SMILES IDX 76 77 73 78 69 79 70 80 71 81 72 82 51 83 52 84 60 85 53 86
REMARK SMILES IDX 59 87 61 88 58 89 54 90 55 91 56 92 57 93
REMARK H PARENT 18 6 22 27 81 46 49 57
REMARK Flexibility Score: inf
ROOT
ATOM      1  C   UNL A   1      32.939  29.233  24.809  1.00  0.00     0.042 C 
ENDROOT
BRANCH   1   2
ATOM      2  C   UNL A   1      31.416  29.086  24.889  1.00  0.00     0.118 C 
BRANCH   2   3
ATOM      3  N   UNL A   1      31.067  27.953  25.725  1.00  0.00    -0.352 N 
ATOM      4  C   UNL A   1      31.071  26.598  25.557  1.00  0.00     0.254 C 
ATOM      5  O   UNL A   1      30.601  25.947  26.497  1.00  0.00    -0.269 OA
ATOM      6  H   UNL A   1      30.756  28.223  26.619  1.00  0.00     0.163 HD
BRANCH   4   7
ATOM      7  C   UNL A   1      31.670  25.832  24.433  1.00  0.00     0.077 A 
ATOM      8  C   UNL A   1      32.812  23.715  23.903  1.00  0.00     0.001 A 
ATOM      9  C   UNL A   1      32.764  24.093  22.572  1.00  0.00     0.121 A 
ATOM     10  C   UNL A   1      32.289  24.624  24.830  1.00  0.00     0.027 A 
ATOM     11  N   UNL A   1      32.191  25.232  22.138  1.00  0.00    -0.243 NA
ATOM     12  C   UNL A   1      31.612  26.045  23.064  1.00  0.00     0.141 A 
ATOM     13  Cl  UNL A   1      30.656  27.199  22.239  1.00  0.00    -0.061 Cl
BRANCH   8  14
ATOM     14  C   UNL A   1      33.319  22.403  24.305  1.00  0.00    -0.009 A 
ATOM     15  C   UNL A   1      32.914  20.051  24.790  1.00  0.00     0.123 A 
ATOM     16  C   UNL A   1      34.283  19.875  25.002  1.00  0.00     0.092 A 
ATOM     17  C   UNL A   1      32.436  21.317  24.454  1.00  0.00     0.055 A 
ATOM     18  C   UNL A   1      35.176  20.940  24.868  1.00  0.00     0.123 A 
ATOM     19  C   UNL A   1      34.691  22.199  24.512  1.00  0.00     0.055 A 
BRANCH  15  20
ATOM     20  O   UNL A   1      32.154  18.925  24.949  1.00  0.00    -0.497 OA
ATOM     21  C   UNL A   1      32.375  17.866  24.024  1.00  0.00     0.278 C 
ENDBRANCH  15  20
BRANCH  18  22
ATOM     22  O   UNL A   1      36.489  20.629  25.097  1.00  0.00    -0.497 OA
ATOM     23  C   UNL A   1      37.366  21.716  25.361  1.00  0.00     0.278 C 
ENDBRANCH  18  22
ENDBRANCH   8  14
ENDBRANCH   4   7
ENDBRANCH   2   3
ENDBRANCH   1   2
BRANCH   1  24
ATOM     24  C   UNL A   1      33.621  29.478  26.151  1.00  0.00     0.118 C 
BRANCH  24  25
ATOM     25  N   UNL A   1      33.471  30.854  26.588  1.00  0.00    -0.352 N 
ATOM     26  C   UNL A   1      34.137  31.547  27.566  1.00  0.00     0.251 C 
ATOM     27  H   UNL A   1      32.785  31.370  26.106  1.00  0.00     0.163 HD
ATOM     28  O   UNL A   1      33.651  32.610  27.961  1.00  0.00    -0.269 OA
BRANCH  26  29
ATOM     29  C   UNL A   1      35.405  31.051  28.155  1.00  0.00     0.039 A 
ATOM     30  C   UNL A   1      35.399  29.812  28.803  1.00  0.00     0.014 A 
ATOM     31  C   UNL A   1      36.576  31.816  28.149  1.00  0.00     0.014 A 
ATOM     32  C   UNL A   1      36.563  29.329  29.408  1.00  0.00     0.010 A 
ATOM     33  C   UNL A   1      37.758  31.300  28.686  1.00  0.00     0.010 A 
ATOM     34  C   UNL A   1      37.761  30.058  29.335  1.00  0.00    -0.014 A 
BRANCH  34  35
ATOM     35  C   UNL A   1      39.011  29.526  29.944  1.00  0.00     0.031 A 
ATOM     36  C   UNL A   1      39.486  30.034  31.281  1.00  0.00     0.074 A 
ATOM     37  C   UNL A   1      39.729  28.601  29.278  1.00  0.00     0.049 A 
ATOM     38  N   UNL A   1      40.551  29.695  31.964  1.00  0.00    -0.248 NA
ATOM     39  C   UNL A   1      38.672  31.078  31.920  1.00  0.00     0.031 C 
ATOM     40  C   UNL A   1      39.395  28.067  27.954  1.00  0.00     0.029 A 
ATOM     41  N   UNL A   1      40.884  27.943  29.615  1.00  0.00    -0.354 N 
ATOM     42  C   UNL A   1      40.538  30.488  33.109  1.00  0.00     0.074 A 
ATOM     43  C   UNL A   1      39.392  31.364  32.995  1.00  0.00     0.031 C 
ATOM     44  C   UNL A   1      40.304  27.142  27.610  1.00  0.00     0.029 A 
ATOM     45  C   UNL A   1      41.307  27.041  28.665  1.00  0.00     0.049 A 
ATOM     46  H   UNL A   1      41.367  28.100  30.459  1.00  0.00     0.167 HD
ATOM     47  C   UNL A   1      41.388  30.468  34.167  1.00  0.00     0.034 A 
ATOM     48  C   UNL A   1      42.379  26.226  28.646  1.00  0.00     0.034 A 
ATOM     49  C   UNL A   1      42.521  29.580  34.270  1.00  0.00     0.049 A 
ATOM     50  C   UNL A   1      43.307  26.223  29.833  1.00  0.00     0.074 A 
ATOM     51  C   UNL A   1      43.420  29.441  35.314  1.00  0.00     0.029 A 
ATOM     52  N   UNL A   1      42.916  28.677  33.288  1.00  0.00    -0.354 N 
ATOM     53  N   UNL A   1      43.248  26.941  30.932  1.00  0.00    -0.248 NA
ATOM     54  C   UNL A   1      44.437  25.287  29.783  1.00  0.00     0.031 C 
ATOM     55  C   UNL A   1      44.390  28.503  34.940  1.00  0.00     0.029 A 
ATOM     56  C   UNL A   1      44.059  28.001  33.692  1.00  0.00     0.049 A 
ATOM     57  H   UNL A   1      42.453  28.539  32.431  1.00  0.00     0.167 HD
ATOM     58  C   UNL A   1      44.323  26.525  31.713  1.00  0.00     0.074 A 
ATOM     59  C   UNL A   1      44.990  25.473  30.971  1.00  0.00     0.031 C 
ATOM     60  C   UNL A   1      44.726  26.972  32.930  1.00  0.00     0.034 A 
BRANCH  47  61
ATOM     61  C   UNL A   1      41.133  31.454  35.283  1.00  0.00     0.023 A 
ATOM     62  C   UNL A   1      40.009  31.346  36.123  1.00  0.00     0.031 A 
ATOM     63  C   UNL A   1      42.013  32.530  35.502  1.00  0.00     0.131 A 
ATOM     64  C   UNL A   1      39.758  32.331  37.091  1.00  0.00     0.055 A 
ATOM     65  C   UNL A   1      41.799  33.463  36.519  1.00  0.00     0.041 A 
ATOM     66  F   UNL A   1      43.093  32.698  34.723  1.00  0.00    -0.206 F 
ATOM     67  C   UNL A   1      40.659  33.375  37.312  1.00  0.00     0.022 A 
BRANCH  64  68
ATOM     68  S   UNL A   1      38.170  32.301  37.969  1.00  0.00     0.124 S 
ATOM     69  O   UNL A   1      37.595  31.044  37.493  1.00  0.00    -0.237 OA
ATOM     70  O   UNL A   1      38.582  32.327  39.368  1.00  0.00    -0.237 OA
ATOM     71  O   UNL A   1      37.494  33.506  37.494  1.00  0.00    -0.744 OA
ENDBRANCH  64  68
ENDBRANCH  47  61
BRANCH  48  72
ATOM     72  C   UNL A   1      42.641  25.344  27.472  1.00  0.00     0.023 A 
ATOM     73  C   UNL A   1      42.133  24.037  27.421  1.00  0.00     0.031 A 
ATOM     74  C   UNL A   1      43.445  25.781  26.404  1.00  0.00     0.131 A 
ATOM     75  C   UNL A   1      42.475  23.193  26.353  1.00  0.00     0.055 A 
ATOM     76  C   UNL A   1      43.739  24.956  25.317  1.00  0.00     0.041 A 
ATOM     77  F   UNL A   1      43.951  27.024  26.399  1.00  0.00    -0.206 F 
ATOM     78  C   UNL A   1      43.265  23.648  25.295  1.00  0.00     0.022 A 
BRANCH  75  79
ATOM     79  S   UNL A   1      41.949  21.458  26.414  1.00  0.00     0.124 S 
ATOM     80  O   UNL A   1      40.526  21.567  26.114  1.00  0.00    -0.237 OA
ATOM     81  O   UNL A   1      42.779  20.855  25.376  1.00  0.00    -0.237 OA
ATOM     82  O   UNL A   1      42.271  21.052  27.780  1.00  0.00    -0.744 OA
ENDBRANCH  75  79
ENDBRANCH  48  72
BRANCH  60  83
ATOM     83  C   UNL A   1      45.934  26.294  33.531  1.00  0.00     0.023 A 
ATOM     84  C   UNL A   1      45.809  25.140  34.324  1.00  0.00     0.031 A 
ATOM     85  C   UNL A   1      47.217  26.837  33.352  1.00  0.00     0.131 A 
ATOM     86  C   UNL A   1      46.934  24.610  34.971  1.00  0.00     0.055 A 
ATOM     87  C   UNL A   1      48.345  26.267  33.944  1.00  0.00     0.041 A 
ATOM     88  F   UNL A   1      47.397  27.939  32.607  1.00  0.00    -0.206 F 
ATOM     89  C   UNL A   1      48.205  25.157  34.774  1.00  0.00     0.022 A 
BRANCH  86  90
ATOM     90  S   UNL A   1      46.696  23.272  36.172  1.00  0.00     0.124 S 
ATOM     91  O   UNL A   1      47.443  22.178  35.560  1.00  0.00    -0.237 OA
ATOM     92  O   UNL A   1      47.274  23.837  37.387  1.00  0.00    -0.237 OA
ATOM     93  O   UNL A   1      45.246  23.091  36.202  1.00  0.00    -0.744 OA
ENDBRANCH  86  90
ENDBRANCH  60  83
ENDBRANCH  34  35
ENDBRANCH  26  29
ENDBRANCH  24  25
ENDBRANCH   1  24
TORSDOF 16
ENDMDL
MODEL 3
REMARK VINA RESULT:     -11.2      3.204      8.591
REMARK SMILES COc1cc(OC)cc(-c2cnc(Cl)c(C(=O)NCCCNC(=O)c3ccc(-c4c5nc(c(-c6cc(S(=O)(=O)[O-])ccc6F)c6ccc([nH]6)c(-c6cc(S(=O)(=O)[O-])ccc6F)c6nc(c(-c7cc(S(=O)(=O)[O-])ccc7F)c7ccc4[nH]7)C=C6)C=C5)cc3)c2)c1
REMARK SMILES IDX 20 1 19 2 18 3 16 4 17 5 15 7 10 8 11 9 88 10 12 11 13 12
REMARK SMILES IDX 14 13 9 14 3 15 4 16 89 17 5 18 8 19 2 20 1 21 6 22 7 23
REMARK SMILES IDX 21 24 22 25 23 26 24 28 25 29 26 30 87 31 27 32 86 33 28 34
REMARK SMILES IDX 29 35 30 36 80 37 31 38 85 39 79 40 81 41 32 42 84 43 78 44
REMARK SMILES IDX 77 45 33 47 65 48 45 49 64 50 46 51 49 52 63 53 82 54 47 55
REMARK SMILES IDX 48 56 62 58 83 59 50 60 34 61 35 62 43 63 36 64 42 65 44 66
REMARK SMILES IDX 41 67 37 68 38 69 39 70 40 71 66 72 67 73 75 74 68 75 74 76
REMARK SMILES IDX 76 77 73 78 69 79 70 80 71 81 72 82 51 83 52 84 60 85 53 86
REMARK SMILES IDX 59 87 61 88 58 89 54 90 55 91 56 92 57 93
REMARK H PARENT 18 6 22 27 81 46 49 57
REMARK Flexibility Score: inf
ROOT
ATOM      1  C   UNL A   1      38.410  19.889  24.930  1.00  0.00     0.042 C 
ENDROOT
BRANCH   1   2
ATOM      2  C   UNL A   1      37.060  20.610  24.998  1.00  0.00     0.118 C 
BRANCH   2   3
ATOM      3  N   UNL A   1      37.029  21.702  24.043  1.00  0.00    -0.352 N 
ATOM      4  C   UNL A   1      36.113  22.657  23.706  1.00  0.00     0.254 C 
ATOM      5  O   UNL A   1      36.426  23.375  22.750  1.00  0.00    -0.269 OA
ATOM      6  H   UNL A   1      37.858  21.769  23.517  1.00  0.00     0.163 HD
BRANCH   4   7
ATOM      7  C   UNL A   1      34.856  22.991  24.423  1.00  0.00     0.077 A 
ATOM      8  C   UNL A   1      33.507  24.894  25.217  1.00  0.00     0.001 A 
ATOM      9  C   UNL A   1      32.551  23.972  25.611  1.00  0.00     0.121 A 
ATOM     10  C   UNL A   1      34.679  24.375  24.655  1.00  0.00     0.027 A 
ATOM     11  N   UNL A   1      32.667  22.645  25.419  1.00  0.00    -0.243 NA
ATOM     12  C   UNL A   1      33.783  22.189  24.785  1.00  0.00     0.141 A 
ATOM     13  Cl  UNL A   1      33.519  20.559  24.342  1.00  0.00    -0.061 Cl
BRANCH   8  14
ATOM     14  C   UNL A   1      33.268  26.333  25.322  1.00  0.00    -0.009 A 
ATOM     15  C   UNL A   1      33.805  28.486  26.325  1.00  0.00     0.123 A 
ATOM     16  C   UNL A   1      32.873  29.094  25.482  1.00  0.00     0.092 A 
ATOM     17  C   UNL A   1      33.990  27.106  26.250  1.00  0.00     0.055 A 
ATOM     18  C   UNL A   1      32.139  28.345  24.559  1.00  0.00     0.123 A 
ATOM     19  C   UNL A   1      32.346  26.968  24.476  1.00  0.00     0.055 A 
BRANCH  15  20
ATOM     20  O   UNL A   1      34.456  29.336  27.176  1.00  0.00    -0.497 OA
ATOM     21  C   UNL A   1      33.966  30.670  27.249  1.00  0.00     0.278 C 
ENDBRANCH  15  20
BRANCH  18  22
ATOM     22  O   UNL A   1      31.266  29.066  23.790  1.00  0.00    -0.497 OA
ATOM     23  C   UNL A   1      30.883  28.489  22.548  1.00  0.00     0.278 C 
ENDBRANCH  18  22
ENDBRANCH   8  14
ENDBRANCH   4   7
ENDBRANCH   2   3
ENDBRANCH   1   2
BRANCH   1  24
ATOM     24  C   UNL A   1      39.300  20.099  26.150  1.00  0.00     0.118 C 
BRANCH  24  25
ATOM     25  N   UNL A   1      40.478  19.253  26.110  1.00  0.00    -0.352 N 
ATOM     26  C   UNL A   1      41.803  19.588  26.003  1.00  0.00     0.251 C 
ATOM     27  H   UNL A   1      40.296  18.287  26.170  1.00  0.00     0.163 HD
ATOM     28  O   UNL A   1      42.606  18.702  25.699  1.00  0.00    -0.269 OA
BRANCH  26  29
ATOM     29  C   UNL A   1      42.284  20.972  26.236  1.00  0.00     0.039 A 
ATOM     30  C   UNL A   1      42.512  21.386  27.552  1.00  0.00     0.014 A 
ATOM     31  C   UNL A   1      42.439  21.890  25.192  1.00  0.00     0.014 A 
ATOM     32  C   UNL A   1      42.926  22.695  27.816  1.00  0.00     0.010 A 
ATOM     33  C   UNL A   1      42.925  23.175  25.448  1.00  0.00     0.010 A 
ATOM     34  C   UNL A   1      43.159  23.596  26.765  1.00  0.00    -0.014 A 
BRANCH  34  35
ATOM     35  C   UNL A   1      43.637  24.978  27.042  1.00  0.00     0.031 A 
ATOM     36  C   UNL A   1      42.700  26.012  27.608  1.00  0.00     0.074 A 
ATOM     37  C   UNL A   1      44.914  25.305  26.759  1.00  0.00     0.049 A 
ATOM     38  N   UNL A   1      42.933  27.266  27.909  1.00  0.00    -0.248 NA
ATOM     39  C   UNL A   1      41.311  25.590  27.844  1.00  0.00     0.031 C 
ATOM     40  C   UNL A   1      45.902  24.402  26.164  1.00  0.00     0.029 A 
ATOM     41  N   UNL A   1      45.603  26.478  26.933  1.00  0.00    -0.354 N 
ATOM     42  C   UNL A   1      41.722  27.782  28.362  1.00  0.00     0.074 A 
ATOM     43  C   UNL A   1      40.745  26.721  28.237  1.00  0.00     0.031 C 
ATOM     44  C   UNL A   1      47.076  25.044  26.054  1.00  0.00     0.029 A 
ATOM     45  C   UNL A   1      46.918  26.413  26.534  1.00  0.00     0.049 A 
ATOM     46  H   UNL A   1      45.195  27.292  27.309  1.00  0.00     0.167 HD
ATOM     47  C   UNL A   1      41.456  29.018  28.856  1.00  0.00     0.034 A 
ATOM     48  C   UNL A   1      47.886  27.349  26.551  1.00  0.00     0.034 A 
ATOM     49  C   UNL A   1      42.444  30.062  28.983  1.00  0.00     0.049 A 
ATOM     50  C   UNL A   1      47.565  28.713  27.106  1.00  0.00     0.074 A 
ATOM     51  C   UNL A   1      42.297  31.333  29.512  1.00  0.00     0.029 A 
ATOM     52  N   UNL A   1      43.768  29.959  28.570  1.00  0.00    -0.354 N 
ATOM     53  N   UNL A   1      46.427  29.166  27.580  1.00  0.00    -0.248 NA
ATOM     54  C   UNL A   1      48.665  29.684  27.143  1.00  0.00     0.031 C 
ATOM     55  C   UNL A   1      43.510  32.016  29.365  1.00  0.00     0.029 A 
ATOM     56  C   UNL A   1      44.438  31.151  28.808  1.00  0.00     0.049 A 
ATOM     57  H   UNL A   1      44.171  29.157  28.166  1.00  0.00     0.167 HD
ATOM     58  C   UNL A   1      46.682  30.471  27.992  1.00  0.00     0.074 A 
ATOM     59  C   UNL A   1      48.088  30.717  27.739  1.00  0.00     0.031 C 
ATOM     60  C   UNL A   1      45.834  31.387  28.527  1.00  0.00     0.034 A 
BRANCH  47  61
ATOM     61  C   UNL A   1      40.033  29.308  29.275  1.00  0.00     0.023 A 
ATOM     62  C   UNL A   1      39.654  29.348  30.629  1.00  0.00     0.031 A 
ATOM     63  C   UNL A   1      39.035  29.529  28.308  1.00  0.00     0.131 A 
ATOM     64  C   UNL A   1      38.306  29.532  30.976  1.00  0.00     0.055 A 
ATOM     65  C   UNL A   1      37.708  29.790  28.663  1.00  0.00     0.041 A 
ATOM     66  F   UNL A   1      39.329  29.486  26.999  1.00  0.00    -0.206 F 
ATOM     67  C   UNL A   1      37.335  29.779  30.003  1.00  0.00     0.022 A 
BRANCH  64  68
ATOM     68  S   UNL A   1      37.819  29.313  32.710  1.00  0.00     0.124 S 
ATOM     69  O   UNL A   1      37.733  27.858  32.810  1.00  0.00    -0.237 OA
ATOM     70  O   UNL A   1      38.922  29.940  33.430  1.00  0.00    -0.237 OA
ATOM     71  O   UNL A   1      36.539  30.013  32.797  1.00  0.00    -0.744 OA
ENDBRANCH  64  68
ENDBRANCH  47  61
BRANCH  48  72
ATOM     72  C   UNL A   1      49.250  27.041  26.031  1.00  0.00     0.023 A 
ATOM     73  C   UNL A   1      49.657  27.482  24.762  1.00  0.00     0.031 A 
ATOM     74  C   UNL A   1      50.149  26.259  26.777  1.00  0.00     0.131 A 
ATOM     75  C   UNL A   1      50.907  27.096  24.254  1.00  0.00     0.055 A 
ATOM     76  C   UNL A   1      51.414  25.923  26.290  1.00  0.00     0.041 A 
ATOM     77  F   UNL A   1      49.813  25.817  27.999  1.00  0.00    -0.206 F 
ATOM     78  C   UNL A   1      51.793  26.329  25.014  1.00  0.00     0.022 A 
BRANCH  75  79
ATOM     79  S   UNL A   1      51.323  27.533  22.543  1.00  0.00     0.124 S 
ATOM     80  O   UNL A   1      51.157  28.982  22.556  1.00  0.00    -0.237 OA
ATOM     81  O   UNL A   1      52.693  27.045  22.432  1.00  0.00    -0.237 OA
ATOM     82  O   UNL A   1      50.336  26.798  21.755  1.00  0.00    -0.744 OA
ENDBRANCH  75  79
ENDBRANCH  48  72
BRANCH  60  83
ATOM     83  C   UNL A   1      46.429  32.725  28.892  1.00  0.00     0.023 A 
ATOM     84  C   UNL A   1      46.505  33.774  27.958  1.00  0.00     0.031 A 
ATOM     85  C   UNL A   1      46.973  32.938  30.170  1.00  0.00     0.131 A 
ATOM     86  C   UNL A   1      47.177  34.959  28.289  1.00  0.00     0.055 A 
ATOM     87  C   UNL A   1      47.583  34.145  30.517  1.00  0.00     0.041 A 
ATOM     88  F   UNL A   1      46.931  31.973  31.101  1.00  0.00    -0.206 F 
ATOM     89  C   UNL A   1      47.704  35.157  29.568  1.00  0.00     0.022 A 
BRANCH  86  90
ATOM     90  S   UNL A   1      47.464  36.189  26.987  1.00  0.00     0.124 S 
ATOM     91  O   UNL A   1      47.243  37.443  27.699  1.00  0.00    -0.237 OA
ATOM     92  O   UNL A   1      48.841  35.912  26.595  1.00  0.00    -0.237 OA
ATOM     93  O   UNL A   1      46.456  35.863  25.979  1.00  0.00    -0.744 OA
ENDBRANCH  86  90
ENDBRANCH  60  83
ENDBRANCH  34  35
ENDBRANCH  26  29
ENDBRANCH  24  25
ENDBRANCH   1  24
TORSDOF 16
ENDMDL
