MODEL 1
REMARK VINA RESULT:     -11.5      0.000      0.000
REMARK SMILES CCCC[C@@H](C(=O)NCCCNC(=O)c1ccc(-c2c3nc(c(-c4cc(S(=O)(=O)[O-])ccc4F)c4ccc([nH]4)c(-c4cc(S(=O)(=O)[O-])ccc4F)c4nc(c(-c5cc(S(=O)(=O)[O-])ccc5F)c5ccc2[nH]5)C=C4)C=C3)cc1)[C@]1(O)COc2cc(O)ccc21
REMARK SMILES IDX 10 1 9 2 8 3 6 4 7 5 5 7 4 8 3 9 2 10 1 11 78 12 80 13 88 14
REMARK SMILES IDX 81 15 82 16 87 17 83 18 86 19 84 20 79 21 85 23 11 25 12 26
REMARK SMILES IDX 13 27 14 29 15 30 16 31 77 32 17 33 76 34 18 35 19 36 20 37
REMARK SMILES IDX 70 38 21 39 75 40 69 41 71 42 22 43 74 44 68 45 67 46 23 48
REMARK SMILES IDX 55 49 35 50 54 51 36 52 39 53 53 54 72 55 37 56 38 57 52 59
REMARK SMILES IDX 73 60 40 61 24 62 25 63 33 64 26 65 32 66 34 67 31 68 27 69
REMARK SMILES IDX 28 70 29 71 30 72 56 73 57 74 65 75 58 76 64 77 66 78 63 79
REMARK SMILES IDX 59 80 60 81 61 82 62 83 41 84 42 85 50 86 43 87 49 88 51 89
REMARK SMILES IDX 48 90 44 91 45 92 46 93 47 94
REMARK H PARENT 8 6 79 22 85 24 12 28 71 47 39 58
REMARK Flexibility Score: inf
ROOT
ATOM      1  C   UNL A   1      33.278  29.084  23.436  1.00  0.00     0.042 C 
ENDROOT
BRANCH   1   2
ATOM      2  C   UNL A   1      31.928  28.577  22.924  1.00  0.00     0.117 C 
BRANCH   2   3
ATOM      3  N   UNL A   1      32.122  27.469  22.007  1.00  0.00    -0.356 N 
ATOM      4  C   UNL A   1      32.936  26.386  22.203  1.00  0.00     0.226 C 
ATOM      5  O   UNL A   1      33.653  26.045  21.266  1.00  0.00    -0.275 OA
ATOM      6  H   UNL A   1      31.619  27.499  21.160  1.00  0.00     0.163 HD
BRANCH   4   7
ATOM      7  C   UNL A   1      32.875  25.626  23.530  1.00  0.00     0.118 C 
BRANCH   7   8
ATOM      8  C   UNL A   1      34.165  24.805  23.804  1.00  0.00     0.017 C 
BRANCH   8   9
ATOM      9  C   UNL A   1      34.800  24.816  25.194  1.00  0.00     0.001 C 
BRANCH   9  10
ATOM     10  C   UNL A   1      35.458  23.517  25.656  1.00  0.00    -0.003 C 
ATOM     11  C   UNL A   1      36.916  23.706  26.040  1.00  0.00     0.004 C 
ENDBRANCH   9  10
ENDBRANCH   8   9
ENDBRANCH   7   8
BRANCH   7  12
ATOM     12  C   UNL A   1      31.613  24.678  23.584  1.00  0.00     0.139 C 
ATOM     13  C   UNL A   1      30.607  24.930  24.742  1.00  0.00     0.270 C 
ATOM     14  C   UNL A   1      31.845  23.221  23.878  1.00  0.00     0.030 A 
ATOM     15  O   UNL A   1      30.911  24.047  25.838  1.00  0.00    -0.490 OA
ATOM     16  C   UNL A   1      31.470  22.969  25.201  1.00  0.00     0.129 A 
ATOM     17  C   UNL A   1      32.358  22.189  23.107  1.00  0.00     0.014 A 
ATOM     18  C   UNL A   1      31.665  21.753  25.820  1.00  0.00     0.093 A 
ATOM     19  C   UNL A   1      32.524  20.927  23.701  1.00  0.00     0.047 A 
ATOM     20  C   UNL A   1      32.202  20.730  25.053  1.00  0.00     0.119 A 
BRANCH  12  21
ATOM     21  O   UNL A   1      30.911  24.840  22.337  1.00  0.00    -0.381 OA
ATOM     22  H   UNL A   1      30.317  25.605  22.398  1.00  0.00     0.212 HD
ENDBRANCH  12  21
BRANCH  20  23
ATOM     23  O   UNL A   1      32.402  19.524  25.659  1.00  0.00    -0.508 OA
ATOM     24  H   UNL A   1      32.154  18.733  25.222  1.00  0.00     0.293 HD
ENDBRANCH  20  23
ENDBRANCH   7  12
ENDBRANCH   4   7
ENDBRANCH   2   3
ENDBRANCH   1   2
BRANCH   1  25
ATOM     25  C   UNL A   1      33.379  29.155  24.950  1.00  0.00     0.118 C 
BRANCH  25  26
ATOM     26  N   UNL A   1      32.742  30.344  25.483  1.00  0.00    -0.352 N 
ATOM     27  C   UNL A   1      32.994  31.008  26.659  1.00  0.00     0.251 C 
ATOM     28  H   UNL A   1      32.030  30.731  24.923  1.00  0.00     0.163 HD
ATOM     29  O   UNL A   1      32.190  31.847  27.055  1.00  0.00    -0.269 OA
BRANCH  27  30
ATOM     30  C   UNL A   1      34.209  30.696  27.448  1.00  0.00     0.039 A 
ATOM     31  C   UNL A   1      35.171  31.692  27.629  1.00  0.00     0.014 A 
ATOM     32  C   UNL A   1      34.414  29.424  27.990  1.00  0.00     0.014 A 
ATOM     33  C   UNL A   1      36.312  31.424  28.388  1.00  0.00     0.010 A 
ATOM     34  C   UNL A   1      35.500  29.189  28.827  1.00  0.00     0.010 A 
ATOM     35  C   UNL A   1      36.474  30.179  29.018  1.00  0.00    -0.014 A 
BRANCH  35  36
ATOM     36  C   UNL A   1      37.673  29.882  29.845  1.00  0.00     0.031 A 
ATOM     37  C   UNL A   1      38.749  28.974  29.305  1.00  0.00     0.074 A 
ATOM     38  C   UNL A   1      37.774  30.390  31.090  1.00  0.00     0.049 A 
ATOM     39  N   UNL A   1      39.837  28.541  29.887  1.00  0.00    -0.248 NA
ATOM     40  C   UNL A   1      38.555  28.460  27.940  1.00  0.00     0.031 C 
ATOM     41  C   UNL A   1      36.777  31.250  31.733  1.00  0.00     0.029 A 
ATOM     42  N   UNL A   1      38.756  30.257  32.038  1.00  0.00    -0.354 N 
ATOM     43  C   UNL A   1      40.449  27.695  28.967  1.00  0.00     0.074 A 
ATOM     44  C   UNL A   1      39.573  27.620  27.819  1.00  0.00     0.031 C 
ATOM     45  C   UNL A   1      37.216  31.594  32.954  1.00  0.00     0.029 A 
ATOM     46  C   UNL A   1      38.496  30.940  33.205  1.00  0.00     0.049 A 
ATOM     47  H   UNL A   1      39.572  29.724  31.897  1.00  0.00     0.167 HD
ATOM     48  C   UNL A   1      41.644  27.061  29.060  1.00  0.00     0.034 A 
ATOM     49  C   UNL A   1      39.203  31.018  34.350  1.00  0.00     0.034 A 
ATOM     50  C   UNL A   1      42.510  27.160  30.208  1.00  0.00     0.049 A 
ATOM     51  C   UNL A   1      40.516  30.280  34.442  1.00  0.00     0.074 A 
ATOM     52  C   UNL A   1      43.764  26.603  30.392  1.00  0.00     0.029 A 
ATOM     53  N   UNL A   1      42.210  27.855  31.374  1.00  0.00    -0.354 N 
ATOM     54  N   UNL A   1      41.104  29.525  33.542  1.00  0.00    -0.248 NA
ATOM     55  C   UNL A   1      41.265  30.415  35.697  1.00  0.00     0.031 C 
ATOM     56  C   UNL A   1      44.188  26.898  31.693  1.00  0.00     0.029 A 
ATOM     57  C   UNL A   1      43.240  27.713  32.291  1.00  0.00     0.049 A 
ATOM     58  H   UNL A   1      41.386  28.373  31.525  1.00  0.00     0.167 HD
ATOM     59  C   UNL A   1      42.309  29.123  34.112  1.00  0.00     0.074 A 
ATOM     60  C   UNL A   1      42.369  29.734  35.424  1.00  0.00     0.031 C 
ATOM     61  C   UNL A   1      43.279  28.325  33.599  1.00  0.00     0.034 A 
BRANCH  48  62
ATOM     62  C   UNL A   1      42.065  26.192  27.898  1.00  0.00     0.023 A 
ATOM     63  C   UNL A   1      41.603  24.871  27.754  1.00  0.00     0.031 A 
ATOM     64  C   UNL A   1      42.960  26.680  26.929  1.00  0.00     0.131 A 
ATOM     65  C   UNL A   1      42.095  24.063  26.719  1.00  0.00     0.055 A 
ATOM     66  C   UNL A   1      43.380  25.898  25.850  1.00  0.00     0.041 A 
ATOM     67  F   UNL A   1      43.456  27.925  27.022  1.00  0.00    -0.206 F 
ATOM     68  C   UNL A   1      42.959  24.576  25.749  1.00  0.00     0.022 A 
BRANCH  65  69
ATOM     69  S   UNL A   1      41.708  22.291  26.744  1.00  0.00     0.124 S 
ATOM     70  O   UNL A   1      42.650  21.797  27.746  1.00  0.00    -0.237 OA
ATOM     71  O   UNL A   1      40.302  22.280  27.129  1.00  0.00    -0.237 OA
ATOM     72  O   UNL A   1      41.984  21.859  25.375  1.00  0.00    -0.744 OA
ENDBRANCH  65  69
ENDBRANCH  48  62
BRANCH  49  73
ATOM     73  C   UNL A   1      38.691  31.812  35.506  1.00  0.00     0.023 A 
ATOM     74  C   UNL A   1      38.155  31.181  36.639  1.00  0.00     0.031 A 
ATOM     75  C   UNL A   1      38.683  33.219  35.473  1.00  0.00     0.131 A 
ATOM     76  C   UNL A   1      37.588  31.948  37.668  1.00  0.00     0.055 A 
ATOM     77  C   UNL A   1      38.172  33.980  36.526  1.00  0.00     0.041 A 
ATOM     78  F   UNL A   1      39.184  33.877  34.414  1.00  0.00    -0.206 F 
ATOM     79  C   UNL A   1      37.607  33.344  37.626  1.00  0.00     0.022 A 
BRANCH  76  80
ATOM     80  S   UNL A   1      36.733  31.092  39.019  1.00  0.00     0.124 S 
ATOM     81  O   UNL A   1      37.697  31.216  40.107  1.00  0.00    -0.237 OA
ATOM     82  O   UNL A   1      35.512  31.880  39.151  1.00  0.00    -0.237 OA
ATOM     83  O   UNL A   1      36.546  29.739  38.501  1.00  0.00    -0.744 OA
ENDBRANCH  76  80
ENDBRANCH  49  73
BRANCH  61  84
ATOM     84  C   UNL A   1      44.513  28.112  34.445  1.00  0.00     0.023 A 
ATOM     85  C   UNL A   1      44.622  27.034  35.340  1.00  0.00     0.031 A 
ATOM     86  C   UNL A   1      45.592  29.010  34.356  1.00  0.00     0.131 A 
ATOM     87  C   UNL A   1      45.758  26.915  36.154  1.00  0.00     0.055 A 
ATOM     88  C   UNL A   1      46.749  28.847  35.118  1.00  0.00     0.041 A 
ATOM     89  F   UNL A   1      45.542  30.060  33.520  1.00  0.00    -0.206 F 
ATOM     90  C   UNL A   1      46.831  27.802  36.034  1.00  0.00     0.022 A 
BRANCH  87  91
ATOM     91  S   UNL A   1      45.773  25.643  37.447  1.00  0.00     0.124 S 
ATOM     92  O   UNL A   1      46.093  26.425  38.636  1.00  0.00    -0.237 OA
ATOM     93  O   UNL A   1      44.415  25.113  37.378  1.00  0.00    -0.237 OA
ATOM     94  O   UNL A   1      46.821  24.722  37.010  1.00  0.00    -0.744 OA
ENDBRANCH  87  91
ENDBRANCH  61  84
ENDBRANCH  35  36
ENDBRANCH  27  30
ENDBRANCH  25  26
ENDBRANCH   1  25
TORSDOF 19
ENDMDL
MODEL 2
REMARK VINA RESULT:     -11.3      5.221      7.445
REMARK SMILES CCCC[C@@H](C(=O)NCCCNC(=O)c1ccc(-c2c3nc(c(-c4cc(S(=O)(=O)[O-])ccc4F)c4ccc([nH]4)c(-c4cc(S(=O)(=O)[O-])ccc4F)c4nc(c(-c5cc(S(=O)(=O)[O-])ccc5F)c5ccc2[nH]5)C=C4)C=C3)cc1)[C@]1(O)COc2cc(O)ccc21
REMARK SMILES IDX 10 1 9 2 8 3 6 4 7 5 5 7 4 8 3 9 2 10 1 11 78 12 80 13 88 14
REMARK SMILES IDX 81 15 82 16 87 17 83 18 86 19 84 20 79 21 85 23 11 25 12 26
REMARK SMILES IDX 13 27 14 29 15 30 16 31 77 32 17 33 76 34 18 35 19 36 20 37
REMARK SMILES IDX 70 38 21 39 75 40 69 41 71 42 22 43 74 44 68 45 67 46 23 48
REMARK SMILES IDX 55 49 35 50 54 51 36 52 39 53 53 54 72 55 37 56 38 57 52 59
REMARK SMILES IDX 73 60 40 61 24 62 25 63 33 64 26 65 32 66 34 67 31 68 27 69
REMARK SMILES IDX 28 70 29 71 30 72 56 73 57 74 65 75 58 76 64 77 66 78 63 79
REMARK SMILES IDX 59 80 60 81 61 82 62 83 41 84 42 85 50 86 43 87 49 88 51 89
REMARK SMILES IDX 48 90 44 91 45 92 46 93 47 94
REMARK H PARENT 8 6 79 22 85 24 12 28 71 47 39 58
REMARK Flexibility Score: inf
ROOT
ATOM      1  C   UNL A   1      35.143  21.889  26.537  1.00  0.00     0.042 C 
ENDROOT
BRANCH   1   2
ATOM      2  C   UNL A   1      33.976  21.454  25.648  1.00  0.00     0.117 C 
BRANCH   2   3
ATOM      3  N   UNL A   1      32.712  21.791  26.275  1.00  0.00    -0.356 N 
ATOM      4  C   UNL A   1      32.312  23.038  26.673  1.00  0.00     0.226 C 
ATOM      5  O   UNL A   1      31.801  23.136  27.787  1.00  0.00    -0.275 OA
ATOM      6  H   UNL A   1      32.081  21.051  26.430  1.00  0.00     0.163 HD
BRANCH   4   7
ATOM      7  C   UNL A   1      32.456  24.221  25.713  1.00  0.00     0.118 C 
BRANCH   7   8
ATOM      8  C   UNL A   1      32.315  25.590  26.432  1.00  0.00     0.017 C 
BRANCH   8   9
ATOM      9  C   UNL A   1      33.315  26.711  26.151  1.00  0.00     0.001 C 
BRANCH   9  10
ATOM     10  C   UNL A   1      33.070  28.042  26.860  1.00  0.00    -0.003 C 
ATOM     11  C   UNL A   1      31.675  28.138  27.453  1.00  0.00     0.004 C 
ENDBRANCH   9  10
ENDBRANCH   8   9
ENDBRANCH   7   8
BRANCH   7  12
ATOM     12  C   UNL A   1      31.412  24.124  24.531  1.00  0.00     0.139 C 
ATOM     13  C   UNL A   1      31.929  23.507  23.201  1.00  0.00     0.270 C 
ATOM     14  C   UNL A   1      30.910  25.411  23.935  1.00  0.00     0.030 A 
ATOM     15  O   UNL A   1      32.342  24.564  22.315  1.00  0.00    -0.490 OA
ATOM     16  C   UNL A   1      31.538  25.605  22.702  1.00  0.00     0.129 A 
ATOM     17  C   UNL A   1      30.016  26.363  24.402  1.00  0.00     0.014 A 
ATOM     18  C   UNL A   1      31.382  26.749  21.950  1.00  0.00     0.093 A 
ATOM     19  C   UNL A   1      29.805  27.517  23.631  1.00  0.00     0.047 A 
ATOM     20  C   UNL A   1      30.507  27.711  22.432  1.00  0.00     0.119 A 
BRANCH  12  21
ATOM     21  O   UNL A   1      30.316  23.319  25.003  1.00  0.00    -0.381 OA
ATOM     22  H   UNL A   1      30.264  23.377  25.969  1.00  0.00     0.212 HD
ENDBRANCH  12  21
BRANCH  20  23
ATOM     23  O   UNL A   1      30.351  28.848  21.696  1.00  0.00    -0.508 OA
ATOM     24  H   UNL A   1      30.468  28.824  20.766  1.00  0.00     0.293 HD
ENDBRANCH  20  23
ENDBRANCH   7  12
ENDBRANCH   4   7
ENDBRANCH   2   3
ENDBRANCH   1   2
BRANCH   1  25
ATOM     25  C   UNL A   1      36.405  22.248  25.770  1.00  0.00     0.118 C 
BRANCH  25  26
ATOM     26  N   UNL A   1      37.411  21.207  25.861  1.00  0.00    -0.352 N 
ATOM     27  C   UNL A   1      38.766  21.327  26.056  1.00  0.00     0.251 C 
ATOM     28  H   UNL A   1      37.077  20.286  25.772  1.00  0.00     0.163 HD
ATOM     29  O   UNL A   1      39.487  20.354  25.860  1.00  0.00    -0.269 OA
BRANCH  27  30
ATOM     30  C   UNL A   1      39.348  22.624  26.476  1.00  0.00     0.039 A 
ATOM     31  C   UNL A   1      40.342  22.632  27.457  1.00  0.00     0.014 A 
ATOM     32  C   UNL A   1      38.905  23.830  25.926  1.00  0.00     0.014 A 
ATOM     33  C   UNL A   1      40.920  23.842  27.850  1.00  0.00     0.010 A 
ATOM     34  C   UNL A   1      39.548  25.021  26.245  1.00  0.00     0.010 A 
ATOM     35  C   UNL A   1      40.548  25.045  27.228  1.00  0.00    -0.014 A 
BRANCH  35  36
ATOM     36  C   UNL A   1      41.164  26.340  27.620  1.00  0.00     0.031 A 
ATOM     37  C   UNL A   1      42.585  26.644  27.222  1.00  0.00     0.074 A 
ATOM     38  C   UNL A   1      40.463  27.217  28.367  1.00  0.00     0.049 A 
ATOM     39  N   UNL A   1      43.324  27.683  27.516  1.00  0.00    -0.248 NA
ATOM     40  C   UNL A   1      43.277  25.629  26.413  1.00  0.00     0.031 C 
ATOM     41  C   UNL A   1      39.093  27.014  28.843  1.00  0.00     0.029 A 
ATOM     42  N   UNL A   1      40.805  28.452  28.859  1.00  0.00    -0.354 N 
ATOM     43  C   UNL A   1      44.568  27.440  26.942  1.00  0.00     0.074 A 
ATOM     44  C   UNL A   1      44.504  26.124  26.346  1.00  0.00     0.031 C 
ATOM     45  C   UNL A   1      38.701  28.100  29.529  1.00  0.00     0.029 A 
ATOM     46  C   UNL A   1      39.803  29.054  29.587  1.00  0.00     0.049 A 
ATOM     47  H   UNL A   1      41.683  28.869  28.705  1.00  0.00     0.167 HD
ATOM     48  C   UNL A   1      45.654  28.250  26.892  1.00  0.00     0.034 A 
ATOM     49  C   UNL A   1      39.783  30.234  30.239  1.00  0.00     0.034 A 
ATOM     50  C   UNL A   1      45.693  29.566  27.481  1.00  0.00     0.049 A 
ATOM     51  C   UNL A   1      41.013  31.106  30.195  1.00  0.00     0.074 A 
ATOM     52  C   UNL A   1      46.719  30.494  27.450  1.00  0.00     0.029 A 
ATOM     53  N   UNL A   1      44.662  30.139  28.216  1.00  0.00    -0.354 N 
ATOM     54  N   UNL A   1      42.165  30.882  29.603  1.00  0.00    -0.248 NA
ATOM     55  C   UNL A   1      40.937  32.393  30.895  1.00  0.00     0.031 C 
ATOM     56  C   UNL A   1      46.339  31.593  28.228  1.00  0.00     0.029 A 
ATOM     57  C   UNL A   1      45.042  31.393  28.671  1.00  0.00     0.049 A 
ATOM     58  H   UNL A   1      43.790  29.716  28.390  1.00  0.00     0.167 HD
ATOM     59  C   UNL A   1      42.937  32.017  29.833  1.00  0.00     0.074 A 
ATOM     60  C   UNL A   1      42.114  32.929  30.601  1.00  0.00     0.031 C 
ATOM     61  C   UNL A   1      44.209  32.285  29.443  1.00  0.00     0.034 A 
BRANCH  48  62
ATOM     62  C   UNL A   1      46.888  27.722  26.197  1.00  0.00     0.023 A 
ATOM     63  C   UNL A   1      47.154  28.004  24.846  1.00  0.00     0.031 A 
ATOM     64  C   UNL A   1      47.801  26.905  26.888  1.00  0.00     0.131 A 
ATOM     65  C   UNL A   1      48.256  27.413  24.209  1.00  0.00     0.055 A 
ATOM     66  C   UNL A   1      48.944  26.390  26.271  1.00  0.00     0.041 A 
ATOM     67  F   UNL A   1      47.591  26.580  28.174  1.00  0.00    -0.206 F 
ATOM     68  C   UNL A   1      49.169  26.631  24.919  1.00  0.00     0.022 A 
BRANCH  65  69
ATOM     69  S   UNL A   1      48.396  27.560  22.406  1.00  0.00     0.124 S 
ATOM     70  O   UNL A   1      49.563  28.430  22.270  1.00  0.00    -0.237 OA
ATOM     71  O   UNL A   1      48.581  26.174  21.990  1.00  0.00    -0.237 OA
ATOM     72  O   UNL A   1      47.127  28.167  22.010  1.00  0.00    -0.744 OA
ENDBRANCH  65  69
ENDBRANCH  48  62
BRANCH  49  73
ATOM     73  C   UNL A   1      38.569  30.662  30.995  1.00  0.00     0.023 A 
ATOM     74  C   UNL A   1      37.506  31.313  30.350  1.00  0.00     0.031 A 
ATOM     75  C   UNL A   1      38.476  30.471  32.386  1.00  0.00     0.131 A 
ATOM     76  C   UNL A   1      36.421  31.796  31.099  1.00  0.00     0.055 A 
ATOM     77  C   UNL A   1      37.367  30.899  33.117  1.00  0.00     0.041 A 
ATOM     78  F   UNL A   1      39.462  29.852  33.054  1.00  0.00    -0.206 F 
ATOM     79  C   UNL A   1      36.337  31.580  32.476  1.00  0.00     0.022 A 
BRANCH  76  80
ATOM     80  S   UNL A   1      35.166  32.802  30.260  1.00  0.00     0.124 S 
ATOM     81  O   UNL A   1      35.955  33.942  29.804  1.00  0.00    -0.237 OA
ATOM     82  O   UNL A   1      34.692  31.892  29.223  1.00  0.00    -0.237 OA
ATOM     83  O   UNL A   1      34.201  33.093  31.318  1.00  0.00    -0.744 OA
ENDBRANCH  76  80
ENDBRANCH  49  73
BRANCH  61  84
ATOM     84  C   UNL A   1      44.766  33.644  29.800  1.00  0.00     0.023 A 
ATOM     85  C   UNL A   1      44.591  34.759  28.964  1.00  0.00     0.031 A 
ATOM     86  C   UNL A   1      45.489  33.818  30.994  1.00  0.00     0.131 A 
ATOM     87  C   UNL A   1      45.183  35.985  29.303  1.00  0.00     0.055 A 
ATOM     88  C   UNL A   1      46.016  35.056  31.359  1.00  0.00     0.041 A 
ATOM     89  F   UNL A   1      45.690  32.786  31.829  1.00  0.00    -0.206 F 
ATOM     90  C   UNL A   1      45.877  36.146  30.505  1.00  0.00     0.022 A 
BRANCH  87  91
ATOM     91  S   UNL A   1      45.122  37.343  28.102  1.00  0.00     0.124 S 
ATOM     92  O   UNL A   1      46.503  37.396  27.636  1.00  0.00    -0.237 OA
ATOM     93  O   UNL A   1      44.140  36.861  27.137  1.00  0.00    -0.237 OA
ATOM     94  O   UNL A   1      44.693  38.490  28.902  1.00  0.00    -0.744 OA
ENDBRANCH  87  91
ENDBRANCH  61  84
ENDBRANCH  35  36
ENDBRANCH  27  30
ENDBRANCH  25  26
ENDBRANCH   1  25
TORSDOF 19
ENDMDL
MODEL 3
REMARK VINA RESULT:     -11.2      0.908      7.605
REMARK SMILES CCCC[C@@H](C(=O)NCCCNC(=O)c1ccc(-c2c3nc(c(-c4cc(S(=O)(=O)[O-])ccc4F)c4ccc([nH]4)c(-c4cc(S(=O)(=O)[O-])ccc4F)c4nc(c(-c5cc(S(=O)(=O)[O-])ccc5F)c5ccc2[nH]5)C=C4)C=C3)cc1)[C@]1(O)COc2cc(O)ccc21
REMARK SMILES IDX 10 1 9 2 8 3 6 4 7 5 5 7 4 8 3 9 2 10 1 11 78 12 80 13 88 14
REMARK SMILES IDX 81 15 82 16 87 17 83 18 86 19 84 20 79 21 85 23 11 25 12 26
REMARK SMILES IDX 13 27 14 29 15 30 16 31 77 32 17 33 76 34 18 35 19 36 20 37
REMARK SMILES IDX 70 38 21 39 75 40 69 41 71 42 22 43 74 44 68 45 67 46 23 48
REMARK SMILES IDX 55 49 35 50 54 51 36 52 39 53 53 54 72 55 37 56 38 57 52 59
REMARK SMILES IDX 73 60 40 61 24 62 25 63 33 64 26 65 32 66 34 67 31 68 27 69
REMARK SMILES IDX 28 70 29 71 30 72 56 73 57 74 65 75 58 76 64 77 66 78 63 79
REMARK SMILES IDX 59 80 60 81 61 82 62 83 41 84 42 85 50 86 43 87 49 88 51 89
REMARK SMILES IDX 48 90 44 91 45 92 46 93 47 94
REMARK H PARENT 8 6 79 22 85 24 12 28 71 47 39 58
REMARK Flexibility Score: inf
ROOT
ATOM      1  C   UNL A   1      33.390  28.998  23.874  1.00  0.00     0.042 C 
ENDROOT
BRANCH   1   2
ATOM      2  C   UNL A   1      32.016  28.573  23.353  1.00  0.00     0.117 C 
BRANCH   2   3
ATOM      3  N   UNL A   1      32.161  27.613  22.274  1.00  0.00    -0.356 N 
ATOM      4  C   UNL A   1      32.988  26.522  22.266  1.00  0.00     0.226 C 
ATOM      5  O   UNL A   1      33.653  26.329  21.250  1.00  0.00    -0.275 OA
ATOM      6  H   UNL A   1      31.612  27.761  21.470  1.00  0.00     0.163 HD
BRANCH   4   7
ATOM      7  C   UNL A   1      33.003  25.575  23.468  1.00  0.00     0.118 C 
BRANCH   7   8
ATOM      8  C   UNL A   1      34.280  24.693  23.513  1.00  0.00     0.017 C 
BRANCH   8   9
ATOM      9  C   UNL A   1      34.990  24.438  24.842  1.00  0.00     0.001 C 
BRANCH   9  10
ATOM     10  C   UNL A   1      35.511  23.022  25.080  1.00  0.00    -0.003 C 
ATOM     11  C   UNL A   1      36.396  22.529  23.948  1.00  0.00     0.004 C 
ENDBRANCH   9  10
ENDBRANCH   8   9
ENDBRANCH   7   8
BRANCH   7  12
ATOM     12  C   UNL A   1      31.716  24.660  23.487  1.00  0.00     0.139 C 
ATOM     13  C   UNL A   1      30.677  24.949  24.607  1.00  0.00     0.270 C 
ATOM     14  C   UNL A   1      31.900  23.201  23.802  1.00  0.00     0.030 A 
ATOM     15  O   UNL A   1      30.921  24.069  25.720  1.00  0.00    -0.490 OA
ATOM     16  C   UNL A   1      31.473  22.971  25.113  1.00  0.00     0.129 A 
ATOM     17  C   UNL A   1      32.413  22.149  23.058  1.00  0.00     0.014 A 
ATOM     18  C   UNL A   1      31.616  21.757  25.749  1.00  0.00     0.093 A 
ATOM     19  C   UNL A   1      32.525  20.889  23.669  1.00  0.00     0.047 A 
ATOM     20  C   UNL A   1      32.153  20.714  25.010  1.00  0.00     0.119 A 
BRANCH  12  21
ATOM     21  O   UNL A   1      31.061  24.828  22.215  1.00  0.00    -0.381 OA
ATOM     22  H   UNL A   1      31.621  25.364  21.632  1.00  0.00     0.212 HD
ENDBRANCH  12  21
BRANCH  20  23
ATOM     23  O   UNL A   1      32.301  19.509  25.634  1.00  0.00    -0.508 OA
ATOM     24  H   UNL A   1      32.683  18.787  25.174  1.00  0.00     0.293 HD
ENDBRANCH  20  23
ENDBRANCH   7  12
ENDBRANCH   4   7
ENDBRANCH   2   3
ENDBRANCH   1   2
BRANCH   1  25
ATOM     25  C   UNL A   1      33.460  29.148  25.385  1.00  0.00     0.118 C 
BRANCH  25  26
ATOM     26  N   UNL A   1      33.027  30.461  25.822  1.00  0.00    -0.352 N 
ATOM     27  C   UNL A   1      33.452  31.198  26.901  1.00  0.00     0.251 C 
ATOM     28  H   UNL A   1      32.332  30.885  25.268  1.00  0.00     0.163 HD
ATOM     29  O   UNL A   1      32.798  32.176  27.251  1.00  0.00    -0.269 OA
BRANCH  27  30
ATOM     30  C   UNL A   1      34.671  30.800  27.643  1.00  0.00     0.039 A 
ATOM     31  C   UNL A   1      34.720  29.534  28.232  1.00  0.00     0.014 A 
ATOM     32  C   UNL A   1      35.754  31.673  27.781  1.00  0.00     0.014 A 
ATOM     33  C   UNL A   1      35.869  29.131  28.916  1.00  0.00     0.010 A 
ATOM     34  C   UNL A   1      36.933  31.235  28.375  1.00  0.00     0.010 A 
ATOM     35  C   UNL A   1      36.998  29.966  28.970  1.00  0.00    -0.014 A 
BRANCH  35  36
ATOM     36  C   UNL A   1      38.235  29.548  29.678  1.00  0.00     0.031 A 
ATOM     37  C   UNL A   1      38.556  30.128  31.032  1.00  0.00     0.074 A 
ATOM     38  C   UNL A   1      39.087  28.684  29.088  1.00  0.00     0.049 A 
ATOM     39  N   UNL A   1      39.611  29.943  31.784  1.00  0.00    -0.248 NA
ATOM     40  C   UNL A   1      37.574  31.066  31.598  1.00  0.00     0.031 C 
ATOM     41  C   UNL A   1      38.900  28.087  27.764  1.00  0.00     0.029 A 
ATOM     42  N   UNL A   1      40.279  28.161  29.521  1.00  0.00    -0.354 N 
ATOM     43  C   UNL A   1      39.426  30.750  32.902  1.00  0.00     0.074 A 
ATOM     44  C   UNL A   1      38.194  31.479  32.693  1.00  0.00     0.031 C 
ATOM     45  C   UNL A   1      39.923  27.255  27.509  1.00  0.00     0.029 A 
ATOM     46  C   UNL A   1      40.864  27.297  28.623  1.00  0.00     0.049 A 
ATOM     47  H   UNL A   1      40.679  28.383  30.393  1.00  0.00     0.167 HD
ATOM     48  C   UNL A   1      40.197  30.854  34.012  1.00  0.00     0.034 A 
ATOM     49  C   UNL A   1      42.032  26.627  28.686  1.00  0.00     0.034 A 
ATOM     50  C   UNL A   1      41.415  30.107  34.208  1.00  0.00     0.049 A 
ATOM     51  C   UNL A   1      42.888  26.780  29.918  1.00  0.00     0.074 A 
ATOM     52  C   UNL A   1      42.249  30.092  35.312  1.00  0.00     0.029 A 
ATOM     53  N   UNL A   1      41.978  29.246  33.273  1.00  0.00    -0.354 N 
ATOM     54  N   UNL A   1      42.673  27.509  30.990  1.00  0.00    -0.248 NA
ATOM     55  C   UNL A   1      44.138  26.011  29.956  1.00  0.00     0.031 C 
ATOM     56  C   UNL A   1      43.353  29.285  35.016  1.00  0.00     0.029 A 
ATOM     57  C   UNL A   1      43.166  28.723  33.763  1.00  0.00     0.049 A 
ATOM     58  H   UNL A   1      41.591  29.038  32.392  1.00  0.00     0.167 HD
ATOM     59  C   UNL A   1      43.745  27.259  31.842  1.00  0.00     0.074 A 
ATOM     60  C   UNL A   1      44.594  26.299  31.167  1.00  0.00     0.031 C 
ATOM     61  C   UNL A   1      44.004  27.772  33.071  1.00  0.00     0.034 A 
BRANCH  48  62
ATOM     62  C   UNL A   1      39.753  31.823  35.083  1.00  0.00     0.023 A 
ATOM     63  C   UNL A   1      39.043  31.398  36.219  1.00  0.00     0.031 A 
ATOM     64  C   UNL A   1      40.023  33.198  34.957  1.00  0.00     0.131 A 
ATOM     65  C   UNL A   1      38.560  32.341  37.140  1.00  0.00     0.055 A 
ATOM     66  C   UNL A   1      39.616  34.123  35.922  1.00  0.00     0.041 A 
ATOM     67  F   UNL A   1      40.678  33.671  33.884  1.00  0.00    -0.206 F 
ATOM     68  C   UNL A   1      38.866  33.697  37.014  1.00  0.00     0.022 A 
BRANCH  65  69
ATOM     69  S   UNL A   1      37.402  31.786  38.421  1.00  0.00     0.124 S 
ATOM     70  O   UNL A   1      36.281  32.703  38.223  1.00  0.00    -0.237 OA
ATOM     71  O   UNL A   1      37.163  30.396  38.051  1.00  0.00    -0.237 OA
ATOM     72  O   UNL A   1      38.144  31.983  39.665  1.00  0.00    -0.744 OA
ENDBRANCH  65  69
ENDBRANCH  48  62
BRANCH  49  73
ATOM     73  C   UNL A   1      42.470  25.758  27.554  1.00  0.00     0.023 A 
ATOM     74  C   UNL A   1      42.022  24.432  27.442  1.00  0.00     0.031 A 
ATOM     75  C   UNL A   1      43.385  26.225  26.593  1.00  0.00     0.131 A 
ATOM     76  C   UNL A   1      42.526  23.605  26.427  1.00  0.00     0.055 A 
ATOM     77  C   UNL A   1      43.837  25.417  25.549  1.00  0.00     0.041 A 
ATOM     78  F   UNL A   1      43.845  27.486  26.649  1.00  0.00    -0.206 F 
ATOM     79  C   UNL A   1      43.420  24.093  25.470  1.00  0.00     0.022 A 
BRANCH  76  80
ATOM     80  S   UNL A   1      42.075  21.848  26.434  1.00  0.00     0.124 S 
ATOM     81  O   UNL A   1      42.928  21.318  25.375  1.00  0.00    -0.237 OA
ATOM     82  O   UNL A   1      42.420  21.452  27.795  1.00  0.00    -0.237 OA
ATOM     83  O   UNL A   1      40.645  21.862  26.135  1.00  0.00    -0.744 OA
ENDBRANCH  76  80
ENDBRANCH  49  73
BRANCH  61  84
ATOM     84  C   UNL A   1      45.234  27.260  33.784  1.00  0.00     0.023 A 
ATOM     85  C   UNL A   1      45.202  26.100  34.577  1.00  0.00     0.031 A 
ATOM     86  C   UNL A   1      46.453  27.952  33.672  1.00  0.00     0.131 A 
ATOM     87  C   UNL A   1      46.352  25.700  35.275  1.00  0.00     0.055 A 
ATOM     88  C   UNL A   1      47.610  27.510  34.313  1.00  0.00     0.041 A 
ATOM     89  F   UNL A   1      46.541  29.068  32.931  1.00  0.00    -0.206 F 
ATOM     90  C   UNL A   1      47.561  26.386  35.132  1.00  0.00     0.022 A 
BRANCH  87  91
ATOM     91  S   UNL A   1      46.221  24.330  36.456  1.00  0.00     0.124 S 
ATOM     92  O   UNL A   1      44.845  24.462  36.922  1.00  0.00    -0.237 OA
ATOM     93  O   UNL A   1      46.502  23.169  35.618  1.00  0.00    -0.237 OA
ATOM     94  O   UNL A   1      47.245  24.637  37.453  1.00  0.00    -0.744 OA
ENDBRANCH  87  91
ENDBRANCH  61  84
ENDBRANCH  35  36
ENDBRANCH  27  30
ENDBRANCH  25  26
ENDBRANCH   1  25
TORSDOF 19
ENDMDL
