MODEL 1
REMARK VINA RESULT:     -12.1      0.000      0.000
REMARK SMILES C[C@H]1SC[C@H](C(=O)NCCCNC(=O)c2ccc(-c3c4nc(c(-c5cc(S(=O)(=O)[O-])ccc5F)c5ccc([nH]5)c(-c5cc(S(=O)(=O)[O-])ccc5F)c5nc(c(-c6cc(S(=O)(=O)[O-])ccc6F)c6ccc3[nH]6)C=C5)C=C4)cc2)N1C(=O)[C@@H]1CSc2ccccc21
REMARK SMILES IDX 10 1 9 2 8 3 6 4 7 5 5 7 1 8 2 9 3 10 78 11 4 12 79 13 80 14
REMARK SMILES IDX 81 15 82 16 89 17 83 18 84 19 88 20 85 21 87 22 86 23 11 24
REMARK SMILES IDX 12 25 13 26 14 28 15 29 16 30 77 31 17 32 76 33 18 34 19 35
REMARK SMILES IDX 20 36 70 37 21 38 75 39 69 40 71 41 22 42 74 43 68 44 67 45
REMARK SMILES IDX 23 47 55 48 35 49 54 50 36 51 39 52 53 53 72 54 37 55 38 56
REMARK SMILES IDX 52 58 73 59 40 60 24 61 25 62 33 63 26 64 32 65 34 66 31 67
REMARK SMILES IDX 27 68 28 69 29 70 30 71 56 72 57 73 65 74 58 75 64 76 66 77
REMARK SMILES IDX 63 78 59 79 60 80 61 81 62 82 41 83 42 84 50 85 43 86 49 87
REMARK SMILES IDX 51 88 48 89 44 90 45 91 46 92 47 93
REMARK H PARENT 8 6 12 27 71 46 39 57
REMARK Flexibility Score: inf
ROOT
ATOM      1  C   UNL A   1      31.787  31.639  26.824  1.00  0.00     0.042 C 
ENDROOT
BRANCH   1   2
ATOM      2  C   UNL A   1      32.076  30.178  26.544  1.00  0.00     0.117 C 
BRANCH   2   3
ATOM      3  N   UNL A   1      32.506  29.919  25.184  1.00  0.00    -0.354 N 
ATOM      4  C   UNL A   1      32.174  28.898  24.344  1.00  0.00     0.243 C 
ATOM      5  O   UNL A   1      32.751  28.855  23.252  1.00  0.00    -0.273 OA
ATOM      6  H   UNL A   1      33.133  30.580  24.811  1.00  0.00     0.163 HD
BRANCH   4   7
ATOM      7  C   UNL A   1      31.293  27.727  24.810  1.00  0.00     0.185 C 
ATOM      8  C   UNL A   1      30.331  24.953  26.026  1.00  0.00     0.043 C 
ATOM      9  C   UNL A   1      30.908  25.347  24.663  1.00  0.00     0.141 C 
ATOM     10  S   UNL A   1      29.554  26.021  23.667  1.00  0.00    -0.135 SA
ATOM     11  N   UNL A   1      31.916  26.388  24.772  1.00  0.00    -0.318 N 
ATOM     12  C   UNL A   1      30.041  27.740  23.923  1.00  0.00     0.107 C 
BRANCH  11  13
ATOM     13  C   UNL A   1      33.067  26.190  25.521  1.00  0.00     0.232 C 
ATOM     14  O   UNL A   1      33.314  26.960  26.459  1.00  0.00    -0.274 OA
BRANCH  13  15
ATOM     15  C   UNL A   1      34.146  25.158  25.147  1.00  0.00     0.120 C 
ATOM     16  C   UNL A   1      34.224  25.134  23.597  1.00  0.00     0.093 C 
ATOM     17  C   UNL A   1      34.056  23.728  25.612  1.00  0.00    -0.021 A 
ATOM     18  S   UNL A   1      33.858  23.458  22.990  1.00  0.00    -0.125 SA
ATOM     19  C   UNL A   1      33.772  22.791  24.617  1.00  0.00     0.011 A 
ATOM     20  C   UNL A   1      34.312  23.279  26.906  1.00  0.00     0.006 A 
ATOM     21  C   UNL A   1      33.556  21.452  24.915  1.00  0.00     0.015 A 
ATOM     22  C   UNL A   1      34.113  21.930  27.219  1.00  0.00     0.000 A 
ATOM     23  C   UNL A   1      33.701  21.027  26.233  1.00  0.00     0.001 A 
ENDBRANCH  13  15
ENDBRANCH  11  13
ENDBRANCH   4   7
ENDBRANCH   2   3
ENDBRANCH   1   2
BRANCH   1  24
ATOM     24  C   UNL A   1      32.995  32.407  27.347  1.00  0.00     0.118 C 
BRANCH  24  25
ATOM     25  N   UNL A   1      32.696  33.797  27.672  1.00  0.00    -0.352 N 
ATOM     26  C   UNL A   1      33.244  34.624  28.623  1.00  0.00     0.251 C 
ATOM     27  H   UNL A   1      31.990  34.209  27.122  1.00  0.00     0.163 HD
ATOM     28  O   UNL A   1      32.746  35.729  28.825  1.00  0.00    -0.269 OA
BRANCH  26  29
ATOM     29  C   UNL A   1      34.399  34.172  29.427  1.00  0.00     0.039 A 
ATOM     30  C   UNL A   1      34.161  33.430  30.589  1.00  0.00     0.014 A 
ATOM     31  C   UNL A   1      35.708  34.459  29.037  1.00  0.00     0.014 A 
ATOM     32  C   UNL A   1      35.238  32.905  31.305  1.00  0.00     0.010 A 
ATOM     33  C   UNL A   1      36.773  33.854  29.694  1.00  0.00     0.010 A 
ATOM     34  C   UNL A   1      36.552  33.070  30.836  1.00  0.00    -0.014 A 
BRANCH  34  35
ATOM     35  C   UNL A   1      37.708  32.443  31.527  1.00  0.00     0.031 A 
ATOM     36  C   UNL A   1      38.433  31.294  30.879  1.00  0.00     0.074 A 
ATOM     37  C   UNL A   1      38.059  32.860  32.760  1.00  0.00     0.049 A 
ATOM     38  N   UNL A   1      39.388  30.540  31.358  1.00  0.00    -0.248 NA
ATOM     39  C   UNL A   1      37.998  30.922  29.524  1.00  0.00     0.031 C 
ATOM     40  C   UNL A   1      37.403  33.937  33.507  1.00  0.00     0.029 A 
ATOM     41  N   UNL A   1      39.044  32.424  33.608  1.00  0.00    -0.354 N 
ATOM     42  C   UNL A   1      39.661  29.601  30.370  1.00  0.00     0.074 A 
ATOM     43  C   UNL A   1      38.718  29.834  29.297  1.00  0.00     0.031 C 
ATOM     44  C   UNL A   1      38.019  34.090  34.690  1.00  0.00     0.029 A 
ATOM     45  C   UNL A   1      39.078  33.094  34.811  1.00  0.00     0.049 A 
ATOM     46  H   UNL A   1      39.669  31.698  33.381  1.00  0.00     0.167 HD
ATOM     47  C   UNL A   1      40.631  28.652  30.344  1.00  0.00     0.034 A 
ATOM     48  C   UNL A   1      39.862  32.914  35.892  1.00  0.00     0.034 A 
ATOM     49  C   UNL A   1      41.570  28.440  31.419  1.00  0.00     0.049 A 
ATOM     50  C   UNL A   1      40.914  31.835  35.851  1.00  0.00     0.074 A 
ATOM     51  C   UNL A   1      42.609  27.529  31.489  1.00  0.00     0.029 A 
ATOM     52  N   UNL A   1      41.583  29.149  32.613  1.00  0.00    -0.354 N 
ATOM     53  N   UNL A   1      41.184  30.978  34.892  1.00  0.00    -0.248 NA
ATOM     54  C   UNL A   1      41.777  31.705  37.033  1.00  0.00     0.031 C 
ATOM     55  C   UNL A   1      43.212  27.648  32.746  1.00  0.00     0.029 A 
ATOM     56  C   UNL A   1      42.599  28.683  33.432  1.00  0.00     0.049 A 
ATOM     57  H   UNL A   1      40.962  29.878  32.844  1.00  0.00     0.167 HD
ATOM     58  C   UNL A   1      42.270  30.233  35.345  1.00  0.00     0.074 A 
ATOM     59  C   UNL A   1      42.614  30.753  36.652  1.00  0.00     0.031 C 
ATOM     60  C   UNL A   1      42.926  29.212  34.736  1.00  0.00     0.034 A 
BRANCH  47  61
ATOM     61  C   UNL A   1      40.704  27.772  29.119  1.00  0.00     0.023 A 
ATOM     62  C   UNL A   1      41.647  28.009  28.102  1.00  0.00     0.031 A 
ATOM     63  C   UNL A   1      39.806  26.705  28.945  1.00  0.00     0.131 A 
ATOM     64  C   UNL A   1      41.617  27.247  26.925  1.00  0.00     0.055 A 
ATOM     65  C   UNL A   1      39.838  25.894  27.808  1.00  0.00     0.041 A 
ATOM     66  F   UNL A   1      38.870  26.441  29.871  1.00  0.00    -0.206 F 
ATOM     67  C   UNL A   1      40.735  26.173  26.782  1.00  0.00     0.022 A 
BRANCH  64  68
ATOM     68  S   UNL A   1      42.646  27.774  25.527  1.00  0.00     0.124 S 
ATOM     69  O   UNL A   1      42.596  26.594  24.666  1.00  0.00    -0.237 OA
ATOM     70  O   UNL A   1      41.937  28.951  25.039  1.00  0.00    -0.237 OA
ATOM     71  O   UNL A   1      43.947  28.036  26.139  1.00  0.00    -0.744 OA
ENDBRANCH  64  68
ENDBRANCH  47  61
BRANCH  48  72
ATOM     72  C   UNL A   1      39.683  33.757  37.110  1.00  0.00     0.023 A 
ATOM     73  C   UNL A   1      40.514  34.863  37.353  1.00  0.00     0.031 A 
ATOM     74  C   UNL A   1      38.716  33.437  38.079  1.00  0.00     0.131 A 
ATOM     75  C   UNL A   1      40.404  35.570  38.561  1.00  0.00     0.055 A 
ATOM     76  C   UNL A   1      38.570  34.180  39.252  1.00  0.00     0.041 A 
ATOM     77  F   UNL A   1      37.891  32.394  37.897  1.00  0.00    -0.206 F 
ATOM     78  C   UNL A   1      39.429  35.244  39.506  1.00  0.00     0.022 A 
BRANCH  75  79
ATOM     79  S   UNL A   1      41.627  36.859  38.926  1.00  0.00     0.124 S 
ATOM     80  O   UNL A   1      40.776  37.966  39.347  1.00  0.00    -0.237 OA
ATOM     81  O   UNL A   1      42.426  36.229  39.973  1.00  0.00    -0.237 OA
ATOM     82  O   UNL A   1      42.313  37.048  37.650  1.00  0.00    -0.744 OA
ENDBRANCH  75  79
ENDBRANCH  48  72
BRANCH  60  83
ATOM     83  C   UNL A   1      44.114  28.633  35.463  1.00  0.00     0.023 A 
ATOM     84  C   UNL A   1      43.976  27.588  36.392  1.00  0.00     0.031 A 
ATOM     85  C   UNL A   1      45.401  29.147  35.229  1.00  0.00     0.131 A 
ATOM     86  C   UNL A   1      45.099  27.129  37.098  1.00  0.00     0.055 A 
ATOM     87  C   UNL A   1      46.524  28.645  35.889  1.00  0.00     0.041 A 
ATOM     88  F   UNL A   1      45.590  30.147  34.352  1.00  0.00    -0.206 F 
ATOM     89  C   UNL A   1      46.374  27.639  36.840  1.00  0.00     0.022 A 
BRANCH  86  90
ATOM     90  S   UNL A   1      44.857  25.919  38.427  1.00  0.00     0.124 S 
ATOM     91  O   UNL A   1      44.416  24.740  37.688  1.00  0.00    -0.237 OA
ATOM     92  O   UNL A   1      46.187  25.837  39.020  1.00  0.00    -0.237 OA
ATOM     93  O   UNL A   1      43.838  26.537  39.274  1.00  0.00    -0.744 OA
ENDBRANCH  86  90
ENDBRANCH  60  83
ENDBRANCH  34  35
ENDBRANCH  26  29
ENDBRANCH  24  25
ENDBRANCH   1  24
TORSDOF 15
ENDMDL
MODEL 2
REMARK VINA RESULT:     -11.9      6.027     11.603
REMARK SMILES C[C@H]1SC[C@H](C(=O)NCCCNC(=O)c2ccc(-c3c4nc(c(-c5cc(S(=O)(=O)[O-])ccc5F)c5ccc([nH]5)c(-c5cc(S(=O)(=O)[O-])ccc5F)c5nc(c(-c6cc(S(=O)(=O)[O-])ccc6F)c6ccc3[nH]6)C=C5)C=C4)cc2)N1C(=O)[C@@H]1CSc2ccccc21
REMARK SMILES IDX 10 1 9 2 8 3 6 4 7 5 5 7 1 8 2 9 3 10 78 11 4 12 79 13 80 14
REMARK SMILES IDX 81 15 82 16 89 17 83 18 84 19 88 20 85 21 87 22 86 23 11 24
REMARK SMILES IDX 12 25 13 26 14 28 15 29 16 30 77 31 17 32 76 33 18 34 19 35
REMARK SMILES IDX 20 36 70 37 21 38 75 39 69 40 71 41 22 42 74 43 68 44 67 45
REMARK SMILES IDX 23 47 55 48 35 49 54 50 36 51 39 52 53 53 72 54 37 55 38 56
REMARK SMILES IDX 52 58 73 59 40 60 24 61 25 62 33 63 26 64 32 65 34 66 31 67
REMARK SMILES IDX 27 68 28 69 29 70 30 71 56 72 57 73 65 74 58 75 64 76 66 77
REMARK SMILES IDX 63 78 59 79 60 80 61 81 62 82 41 83 42 84 50 85 43 86 49 87
REMARK SMILES IDX 51 88 48 89 44 90 45 91 46 92 47 93
REMARK H PARENT 8 6 12 27 71 46 39 57
REMARK Flexibility Score: inf
ROOT
ATOM      1  C   UNL A   1      38.280  20.524  25.063  1.00  0.00     0.042 C 
ENDROOT
BRANCH   1   2
ATOM      2  C   UNL A   1      37.548  21.846  24.936  1.00  0.00     0.117 C 
BRANCH   2   3
ATOM      3  N   UNL A   1      36.673  22.135  26.054  1.00  0.00    -0.354 N 
ATOM      4  C   UNL A   1      35.314  22.055  26.142  1.00  0.00     0.243 C 
ATOM      5  O   UNL A   1      34.792  22.447  27.191  1.00  0.00    -0.273 OA
ATOM      6  H   UNL A   1      37.127  22.438  26.873  1.00  0.00     0.163 HD
BRANCH   4   7
ATOM      7  C   UNL A   1      34.449  21.705  24.920  1.00  0.00     0.185 C 
ATOM      8  C   UNL A   1      32.390  21.900  22.506  1.00  0.00     0.043 C 
ATOM      9  C   UNL A   1      32.211  21.674  24.011  1.00  0.00     0.141 C 
ATOM     10  S   UNL A   1      32.518  19.921  24.345  1.00  0.00    -0.135 SA
ATOM     11  N   UNL A   1      33.168  22.433  24.798  1.00  0.00    -0.318 N 
ATOM     12  C   UNL A   1      34.181  20.196  24.989  1.00  0.00     0.107 C 
BRANCH  11  13
ATOM     13  C   UNL A   1      33.218  23.817  24.722  1.00  0.00     0.232 C 
ATOM     14  O   UNL A   1      33.951  24.347  23.877  1.00  0.00    -0.274 OA
BRANCH  13  15
ATOM     15  C   UNL A   1      32.529  24.740  25.745  1.00  0.00     0.120 C 
ATOM     16  C   UNL A   1      31.011  24.423  25.681  1.00  0.00     0.093 C 
ATOM     17  C   UNL A   1      32.676  26.237  25.671  1.00  0.00    -0.021 A 
ATOM     18  S   UNL A   1      30.089  25.925  25.232  1.00  0.00    -0.125 SA
ATOM     19  C   UNL A   1      31.530  26.933  25.281  1.00  0.00     0.011 A 
ATOM     20  C   UNL A   1      33.811  26.959  26.035  1.00  0.00     0.006 A 
ATOM     21  C   UNL A   1      31.547  28.305  25.068  1.00  0.00     0.015 A 
ATOM     22  C   UNL A   1      33.838  28.344  25.840  1.00  0.00     0.000 A 
ATOM     23  C   UNL A   1      32.721  29.009  25.325  1.00  0.00     0.001 A 
ENDBRANCH  13  15
ENDBRANCH  11  13
ENDBRANCH   4   7
ENDBRANCH   2   3
ENDBRANCH   1   2
BRANCH   1  24
ATOM     24  C   UNL A   1      39.289  20.497  26.203  1.00  0.00     0.118 C 
BRANCH  24  25
ATOM     25  N   UNL A   1      40.278  19.433  26.071  1.00  0.00    -0.352 N 
ATOM     26  C   UNL A   1      41.652  19.493  26.072  1.00  0.00     0.251 C 
ATOM     27  H   UNL A   1      39.903  18.529  25.964  1.00  0.00     0.163 HD
ATOM     28  O   UNL A   1      42.302  18.486  25.804  1.00  0.00    -0.269 OA
BRANCH  26  29
ATOM     29  C   UNL A   1      42.342  20.770  26.352  1.00  0.00     0.039 A 
ATOM     30  C   UNL A   1      42.699  21.592  25.279  1.00  0.00     0.014 A 
ATOM     31  C   UNL A   1      42.623  21.167  27.661  1.00  0.00     0.014 A 
ATOM     32  C   UNL A   1      43.257  22.847  25.526  1.00  0.00     0.010 A 
ATOM     33  C   UNL A   1      43.086  22.455  27.907  1.00  0.00     0.010 A 
ATOM     34  C   UNL A   1      43.408  23.310  26.844  1.00  0.00    -0.014 A 
BRANCH  34  35
ATOM     35  C   UNL A   1      43.911  24.678  27.134  1.00  0.00     0.031 A 
ATOM     36  C   UNL A   1      42.964  25.730  27.646  1.00  0.00     0.074 A 
ATOM     37  C   UNL A   1      45.196  24.989  26.871  1.00  0.00     0.049 A 
ATOM     38  N   UNL A   1      43.174  27.004  27.854  1.00  0.00    -0.248 NA
ATOM     39  C   UNL A   1      41.588  25.295  27.926  1.00  0.00     0.031 C 
ATOM     40  C   UNL A   1      46.198  24.064  26.333  1.00  0.00     0.029 A 
ATOM     41  N   UNL A   1      45.880  26.170  27.010  1.00  0.00    -0.354 N 
ATOM     42  C   UNL A   1      41.957  27.524  28.279  1.00  0.00     0.074 A 
ATOM     43  C   UNL A   1      40.997  26.442  28.225  1.00  0.00     0.031 C 
ATOM     44  C   UNL A   1      47.370  24.707  26.210  1.00  0.00     0.029 A 
ATOM     45  C   UNL A   1      47.196  26.099  26.610  1.00  0.00     0.049 A 
ATOM     46  H   UNL A   1      45.469  26.992  27.362  1.00  0.00     0.167 HD
ATOM     47  C   UNL A   1      41.672  28.779  28.707  1.00  0.00     0.034 A 
ATOM     48  C   UNL A   1      48.147  27.053  26.556  1.00  0.00     0.034 A 
ATOM     49  C   UNL A   1      42.644  29.844  28.765  1.00  0.00     0.049 A 
ATOM     50  C   UNL A   1      47.800  28.448  27.011  1.00  0.00     0.074 A 
ATOM     51  C   UNL A   1      42.475  31.144  29.206  1.00  0.00     0.029 A 
ATOM     52  N   UNL A   1      43.971  29.730  28.366  1.00  0.00    -0.354 N 
ATOM     53  N   UNL A   1      46.651  28.914  27.446  1.00  0.00    -0.248 NA
ATOM     54  C   UNL A   1      48.880  29.444  26.979  1.00  0.00     0.031 C 
ATOM     55  C   UNL A   1      43.680  31.830  29.022  1.00  0.00     0.029 A 
ATOM     56  C   UNL A   1      44.623  30.941  28.534  1.00  0.00     0.049 A 
ATOM     57  H   UNL A   1      44.386  28.909  28.017  1.00  0.00     0.167 HD
ATOM     58  C   UNL A   1      46.883  30.249  27.771  1.00  0.00     0.074 A 
ATOM     59  C   UNL A   1      48.283  30.505  27.499  1.00  0.00     0.031 C 
ATOM     60  C   UNL A   1      46.020  31.179  28.254  1.00  0.00     0.034 A 
BRANCH  47  61
ATOM     61  C   UNL A   1      40.249  29.059  29.130  1.00  0.00     0.023 A 
ATOM     62  C   UNL A   1      39.871  29.044  30.485  1.00  0.00     0.031 A 
ATOM     63  C   UNL A   1      39.252  29.313  28.173  1.00  0.00     0.131 A 
ATOM     64  C   UNL A   1      38.522  29.194  30.839  1.00  0.00     0.055 A 
ATOM     65  C   UNL A   1      37.924  29.549  28.539  1.00  0.00     0.041 A 
ATOM     66  F   UNL A   1      39.547  29.320  26.863  1.00  0.00    -0.206 F 
ATOM     67  C   UNL A   1      37.549  29.474  29.876  1.00  0.00     0.022 A 
BRANCH  64  68
ATOM     68  S   UNL A   1      38.038  28.874  32.558  1.00  0.00     0.124 S 
ATOM     69  O   UNL A   1      39.033  29.654  33.292  1.00  0.00    -0.237 OA
ATOM     70  O   UNL A   1      36.672  29.379  32.600  1.00  0.00    -0.237 OA
ATOM     71  O   UNL A   1      38.174  27.425  32.687  1.00  0.00    -0.744 OA
ENDBRANCH  64  68
ENDBRANCH  47  61
BRANCH  48  72
ATOM     72  C   UNL A   1      49.512  26.737  26.045  1.00  0.00     0.023 A 
ATOM     73  C   UNL A   1      49.923  27.156  24.768  1.00  0.00     0.031 A 
ATOM     74  C   UNL A   1      50.409  25.959  26.800  1.00  0.00     0.131 A 
ATOM     75  C   UNL A   1      51.167  26.747  24.263  1.00  0.00     0.055 A 
ATOM     76  C   UNL A   1      51.669  25.606  26.317  1.00  0.00     0.041 A 
ATOM     77  F   UNL A   1      50.072  25.536  28.028  1.00  0.00    -0.206 F 
ATOM     78  C   UNL A   1      52.048  25.986  25.033  1.00  0.00     0.022 A 
BRANCH  75  79
ATOM     79  S   UNL A   1      51.572  27.137  22.538  1.00  0.00     0.124 S 
ATOM     80  O   UNL A   1      50.329  26.796  21.857  1.00  0.00    -0.237 OA
ATOM     81  O   UNL A   1      51.892  28.559  22.617  1.00  0.00    -0.237 OA
ATOM     82  O   UNL A   1      52.704  26.261  22.249  1.00  0.00    -0.744 OA
ENDBRANCH  75  79
ENDBRANCH  48  72
BRANCH  60  83
ATOM     83  C   UNL A   1      46.587  32.542  28.565  1.00  0.00     0.023 A 
ATOM     84  C   UNL A   1      46.616  33.568  27.605  1.00  0.00     0.031 A 
ATOM     85  C   UNL A   1      47.118  32.809  29.838  1.00  0.00     0.131 A 
ATOM     86  C   UNL A   1      47.219  34.797  27.916  1.00  0.00     0.055 A 
ATOM     87  C   UNL A   1      47.660  34.054  30.162  1.00  0.00     0.041 A 
ATOM     88  F   UNL A   1      47.117  31.864  30.793  1.00  0.00    -0.206 F 
ATOM     89  C   UNL A   1      47.726  35.051  29.193  1.00  0.00     0.022 A 
BRANCH  86  90
ATOM     90  S   UNL A   1      47.415  36.028  26.599  1.00  0.00     0.124 S 
ATOM     91  O   UNL A   1      46.043  36.483  26.401  1.00  0.00    -0.237 OA
ATOM     92  O   UNL A   1      48.324  36.993  27.208  1.00  0.00    -0.237 OA
ATOM     93  O   UNL A   1      47.980  35.259  25.491  1.00  0.00    -0.744 OA
ENDBRANCH  86  90
ENDBRANCH  60  83
ENDBRANCH  34  35
ENDBRANCH  26  29
ENDBRANCH  24  25
ENDBRANCH   1  24
TORSDOF 15
ENDMDL
MODEL 3
REMARK VINA RESULT:     -11.9      2.878      8.306
REMARK SMILES C[C@H]1SC[C@H](C(=O)NCCCNC(=O)c2ccc(-c3c4nc(c(-c5cc(S(=O)(=O)[O-])ccc5F)c5ccc([nH]5)c(-c5cc(S(=O)(=O)[O-])ccc5F)c5nc(c(-c6cc(S(=O)(=O)[O-])ccc6F)c6ccc3[nH]6)C=C5)C=C4)cc2)N1C(=O)[C@@H]1CSc2ccccc21
REMARK SMILES IDX 10 1 9 2 8 3 6 4 7 5 5 7 1 8 2 9 3 10 78 11 4 12 79 13 80 14
REMARK SMILES IDX 81 15 82 16 89 17 83 18 84 19 88 20 85 21 87 22 86 23 11 24
REMARK SMILES IDX 12 25 13 26 14 28 15 29 16 30 77 31 17 32 76 33 18 34 19 35
REMARK SMILES IDX 20 36 70 37 21 38 75 39 69 40 71 41 22 42 74 43 68 44 67 45
REMARK SMILES IDX 23 47 55 48 35 49 54 50 36 51 39 52 53 53 72 54 37 55 38 56
REMARK SMILES IDX 52 58 73 59 40 60 24 61 25 62 33 63 26 64 32 65 34 66 31 67
REMARK SMILES IDX 27 68 28 69 29 70 30 71 56 72 57 73 65 74 58 75 64 76 66 77
REMARK SMILES IDX 63 78 59 79 60 80 61 81 62 82 41 83 42 84 50 85 43 86 49 87
REMARK SMILES IDX 51 88 48 89 44 90 45 91 46 92 47 93
REMARK H PARENT 8 6 12 27 71 46 39 57
REMARK Flexibility Score: inf
ROOT
ATOM      1  C   UNL A   1      32.043  29.180  27.133  1.00  0.00     0.042 C 
ENDROOT
BRANCH   1   2
ATOM      2  C   UNL A   1      32.467  27.725  27.088  1.00  0.00     0.117 C 
BRANCH   2   3
ATOM      3  N   UNL A   1      31.356  26.795  27.084  1.00  0.00    -0.354 N 
ATOM      4  C   UNL A   1      30.830  26.067  26.058  1.00  0.00     0.243 C 
ATOM      5  O   UNL A   1      29.814  25.406  26.296  1.00  0.00    -0.273 OA
ATOM      6  H   UNL A   1      30.912  26.670  27.955  1.00  0.00     0.163 HD
BRANCH   4   7
ATOM      7  C   UNL A   1      31.336  26.231  24.615  1.00  0.00     0.185 C 
ATOM      8  C   UNL A   1      33.094  26.018  21.976  1.00  0.00     0.043 C 
ATOM      9  C   UNL A   1      33.191  26.904  23.222  1.00  0.00     0.141 C 
ATOM     10  S   UNL A   1      32.029  28.277  23.012  1.00  0.00    -0.135 SA
ATOM     11  N   UNL A   1      32.802  26.198  24.431  1.00  0.00    -0.318 N 
ATOM     12  C   UNL A   1      30.781  27.566  24.103  1.00  0.00     0.107 C 
BRANCH  11  13
ATOM     13  C   UNL A   1      33.478  25.058  24.840  1.00  0.00     0.232 C 
ATOM     14  O   UNL A   1      34.122  25.087  25.898  1.00  0.00    -0.274 OA
BRANCH  13  15
ATOM     15  C   UNL A   1      33.607  23.797  23.965  1.00  0.00     0.120 C 
ATOM     16  C   UNL A   1      32.273  23.016  24.108  1.00  0.00     0.093 C 
ATOM     17  C   UNL A   1      34.727  22.811  24.171  1.00  0.00    -0.021 A 
ATOM     18  S   UNL A   1      32.605  21.353  24.767  1.00  0.00    -0.125 SA
ATOM     19  C   UNL A   1      34.350  21.580  24.710  1.00  0.00     0.011 A 
ATOM     20  C   UNL A   1      36.055  23.004  23.796  1.00  0.00     0.006 A 
ATOM     21  C   UNL A   1      35.288  20.615  25.052  1.00  0.00     0.015 A 
ATOM     22  C   UNL A   1      37.010  22.034  24.121  1.00  0.00     0.000 A 
ATOM     23  C   UNL A   1      36.631  20.859  24.779  1.00  0.00     0.001 A 
ENDBRANCH  13  15
ENDBRANCH  11  13
ENDBRANCH   4   7
ENDBRANCH   2   3
ENDBRANCH   1   2
BRANCH   1  24
ATOM     24  C   UNL A   1      32.943  30.099  26.318  1.00  0.00     0.118 C 
BRANCH  24  25
ATOM     25  N   UNL A   1      32.915  31.484  26.776  1.00  0.00    -0.352 N 
ATOM     26  C   UNL A   1      33.781  32.165  27.599  1.00  0.00     0.251 C 
ATOM     27  H   UNL A   1      32.157  32.017  26.442  1.00  0.00     0.163 HD
ATOM     28  O   UNL A   1      33.495  33.299  27.974  1.00  0.00    -0.269 OA
BRANCH  26  29
ATOM     29  C   UNL A   1      35.027  31.520  28.064  1.00  0.00     0.039 A 
ATOM     30  C   UNL A   1      36.214  32.260  28.049  1.00  0.00     0.014 A 
ATOM     31  C   UNL A   1      35.030  30.204  28.529  1.00  0.00     0.014 A 
ATOM     32  C   UNL A   1      37.380  31.706  28.580  1.00  0.00     0.010 A 
ATOM     33  C   UNL A   1      36.166  29.692  29.146  1.00  0.00     0.010 A 
ATOM     34  C   UNL A   1      37.354  30.436  29.180  1.00  0.00    -0.014 A 
BRANCH  34  35
ATOM     35  C   UNL A   1      38.557  29.862  29.836  1.00  0.00     0.031 A 
ATOM     36  C   UNL A   1      38.980  30.361  31.192  1.00  0.00     0.074 A 
ATOM     37  C   UNL A   1      39.303  28.947  29.185  1.00  0.00     0.049 A 
ATOM     38  N   UNL A   1      40.052  30.075  31.883  1.00  0.00    -0.248 NA
ATOM     39  C   UNL A   1      38.093  31.341  31.837  1.00  0.00     0.031 C 
ATOM     40  C   UNL A   1      39.017  28.418  27.848  1.00  0.00     0.029 A 
ATOM     41  N   UNL A   1      40.460  28.308  29.551  1.00  0.00    -0.354 N 
ATOM     42  C   UNL A   1      39.974  30.845  33.039  1.00  0.00     0.074 A 
ATOM     43  C   UNL A   1      38.788  31.666  32.916  1.00  0.00     0.031 C 
ATOM     44  C   UNL A   1      39.959  27.520  27.519  1.00  0.00     0.029 A 
ATOM     45  C   UNL A   1      40.944  27.444  28.593  1.00  0.00     0.049 A 
ATOM     46  H   UNL A   1      40.905  28.453  30.417  1.00  0.00     0.167 HD
ATOM     47  C   UNL A   1      40.797  30.844  34.117  1.00  0.00     0.034 A 
ATOM     48  C   UNL A   1      42.061  26.691  28.578  1.00  0.00     0.034 A 
ATOM     49  C   UNL A   1      41.970  30.012  34.227  1.00  0.00     0.049 A 
ATOM     50  C   UNL A   1      42.976  26.728  29.776  1.00  0.00     0.074 A 
ATOM     51  C   UNL A   1      42.859  29.908  35.281  1.00  0.00     0.029 A 
ATOM     52  N   UNL A   1      42.418  29.138  33.244  1.00  0.00    -0.354 N 
ATOM     53  N   UNL A   1      42.867  27.435  30.878  1.00  0.00    -0.248 NA
ATOM     54  C   UNL A   1      44.157  25.856  29.735  1.00  0.00     0.031 C 
ATOM     55  C   UNL A   1      43.873  29.017  34.915  1.00  0.00     0.029 A 
ATOM     56  C   UNL A   1      43.580  28.508  33.661  1.00  0.00     0.049 A 
ATOM     57  H   UNL A   1      41.975  28.988  32.378  1.00  0.00     0.167 HD
ATOM     58  C   UNL A   1      43.949  27.065  31.673  1.00  0.00     0.074 A 
ATOM     59  C   UNL A   1      44.685  26.061  30.932  1.00  0.00     0.031 C 
ATOM     60  C   UNL A   1      44.303  27.511  32.906  1.00  0.00     0.034 A 
BRANCH  47  61
ATOM     61  C   UNL A   1      40.454  31.785  35.248  1.00  0.00     0.023 A 
ATOM     62  C   UNL A   1      39.470  31.459  36.200  1.00  0.00     0.031 A 
ATOM     63  C   UNL A   1      41.090  33.033  35.363  1.00  0.00     0.131 A 
ATOM     64  C   UNL A   1      39.094  32.398  37.170  1.00  0.00     0.055 A 
ATOM     65  C   UNL A   1      40.771  33.930  36.386  1.00  0.00     0.041 A 
ATOM     66  F   UNL A   1      42.023  33.409  34.474  1.00  0.00    -0.206 F 
ATOM     67  C   UNL A   1      39.757  33.623  37.287  1.00  0.00     0.022 A 
BRANCH  64  68
ATOM     68  S   UNL A   1      37.628  32.056  38.183  1.00  0.00     0.124 S 
ATOM     69  O   UNL A   1      36.682  33.046  37.673  1.00  0.00    -0.237 OA
ATOM     70  O   UNL A   1      37.336  30.666  37.856  1.00  0.00    -0.237 OA
ATOM     71  O   UNL A   1      38.092  32.293  39.548  1.00  0.00    -0.744 OA
ENDBRANCH  64  68
ENDBRANCH  47  61
BRANCH  48  72
ATOM     72  C   UNL A   1      42.393  25.848  27.392  1.00  0.00     0.023 A 
ATOM     73  C   UNL A   1      41.969  24.511  27.313  1.00  0.00     0.031 A 
ATOM     74  C   UNL A   1      43.190  26.347  26.347  1.00  0.00     0.131 A 
ATOM     75  C   UNL A   1      42.392  23.704  26.245  1.00  0.00     0.055 A 
ATOM     76  C   UNL A   1      43.558  25.558  25.256  1.00  0.00     0.041 A 
ATOM     77  F   UNL A   1      43.619  27.619  26.368  1.00  0.00    -0.206 F 
ATOM     78  C   UNL A   1      43.172  24.222  25.209  1.00  0.00     0.022 A 
BRANCH  75  79
ATOM     79  S   UNL A   1      41.993  21.935  26.284  1.00  0.00     0.124 S 
ATOM     80  O   UNL A   1      42.365  21.577  27.648  1.00  0.00    -0.237 OA
ATOM     81  O   UNL A   1      40.563  21.941  25.990  1.00  0.00    -0.237 OA
ATOM     82  O   UNL A   1      42.841  21.372  25.237  1.00  0.00    -0.744 OA
ENDBRANCH  75  79
ENDBRANCH  48  72
BRANCH  60  83
ATOM     83  C   UNL A   1      45.511  26.872  33.544  1.00  0.00     0.023 A 
ATOM     84  C   UNL A   1      45.412  25.692  34.301  1.00  0.00     0.031 A 
ATOM     85  C   UNL A   1      46.778  27.464  33.402  1.00  0.00     0.131 A 
ATOM     86  C   UNL A   1      46.550  25.173  34.936  1.00  0.00     0.055 A 
ATOM     87  C   UNL A   1      47.918  26.909  33.984  1.00  0.00     0.041 A 
ATOM     88  F   UNL A   1      46.930  28.593  32.690  1.00  0.00    -0.206 F 
ATOM     89  C   UNL A   1      47.805  25.764  34.769  1.00  0.00     0.022 A 
BRANCH  86  90
ATOM     90  S   UNL A   1      46.353  23.765  36.062  1.00  0.00     0.124 S 
ATOM     91  O   UNL A   1      47.132  24.191  37.220  1.00  0.00    -0.237 OA
ATOM     92  O   UNL A   1      44.907  23.716  36.250  1.00  0.00    -0.237 OA
ATOM     93  O   UNL A   1      46.918  22.644  35.313  1.00  0.00    -0.744 OA
ENDBRANCH  86  90
ENDBRANCH  60  83
ENDBRANCH  34  35
ENDBRANCH  26  29
ENDBRANCH  24  25
ENDBRANCH   1  24
TORSDOF 15
ENDMDL
