MODEL 1
REMARK VINA RESULT:     -12.5      0.000      0.000
REMARK SMILES CCc1ccnc(C(=O)c2[nH]c3ccc(OC(F)(F)F)cc3c2CC(=O)NCCCNC(=O)c2ccc(-c3c4nc(c(-c5cc(S(=O)(=O)[O-])ccc5F)c5ccc([nH]5)c(-c5cc(S(=O)(=O)[O-])ccc5F)c5nc(c(-c6cc(S(=O)(=O)[O-])ccc6F)c6ccc3[nH]6)C=C5)C=C4)cc2)c1
REMARK SMILES IDX 28 1 27 2 25 3 26 4 24 6 23 7 10 8 11 9 12 10 22 12 13 13
REMARK SMILES IDX 21 14 14 15 15 16 8 17 9 18 7 19 3 20 4 21 97 22 5 23 6 24
REMARK SMILES IDX 2 25 1 26 16 27 17 28 18 29 19 30 20 31 29 32 30 33 31 34
REMARK SMILES IDX 32 35 33 37 34 38 35 39 96 40 36 41 95 42 37 43 38 44 39 45
REMARK SMILES IDX 89 46 40 47 94 48 88 49 90 50 41 51 93 52 87 53 86 54 42 56
REMARK SMILES IDX 74 57 54 58 73 59 55 60 58 61 72 62 91 63 56 64 57 65 71 67
REMARK SMILES IDX 92 68 59 69 43 70 44 71 52 72 45 73 51 74 53 75 50 76 46 77
REMARK SMILES IDX 47 78 48 79 49 80 75 81 76 82 84 83 77 84 83 85 85 86 82 87
REMARK SMILES IDX 78 88 79 89 80 90 81 91 60 92 61 93 69 94 62 95 68 96 70 97
REMARK SMILES IDX 67 98 63 99 64 100 65 101 66 102
REMARK H PARENT 27 5 11 11 31 36 90 55 58 66
REMARK Flexibility Score: inf
ROOT
ATOM      1  C   UNL A   1      31.794  30.421  25.786  1.00  0.00     0.117 C 
ENDROOT
BRANCH   1   2
ATOM      2  N   UNL A   1      31.386  29.206  26.464  1.00  0.00    -0.356 N 
ATOM      3  C   UNL A   1      31.995  27.985  26.505  1.00  0.00     0.224 C 
ATOM      4  O   UNL A   1      31.570  27.148  27.308  1.00  0.00    -0.275 OA
ATOM      5  H   UNL A   1      30.544  29.272  26.971  1.00  0.00     0.163 HD
BRANCH   3   6
ATOM      6  C   UNL A   1      33.235  27.701  25.675  1.00  0.00     0.138 C 
BRANCH   6   7
ATOM      7  C   UNL A   1      33.020  26.804  24.491  1.00  0.00    -0.002 A 
ATOM      8  C   UNL A   1      32.418  27.127  23.277  1.00  0.00     0.093 A 
ATOM      9  N   UNL A   1      32.518  26.024  22.460  1.00  0.00    -0.352 N 
ATOM     10  C   UNL A   1      33.052  24.961  23.144  1.00  0.00     0.046 A 
ATOM     11  H   UNL A   1      32.244  26.001  21.515  1.00  0.00     0.167 HD
ATOM     12  C   UNL A   1      33.365  25.412  24.422  1.00  0.00     0.008 A 
ATOM     13  C   UNL A   1      33.300  23.652  22.723  1.00  0.00     0.030 A 
ATOM     14  C   UNL A   1      33.945  24.497  25.327  1.00  0.00     0.057 A 
ATOM     15  C   UNL A   1      33.882  22.766  23.640  1.00  0.00     0.049 A 
ATOM     16  C   UNL A   1      34.204  23.176  24.932  1.00  0.00     0.130 A 
BRANCH   8  17
ATOM     17  C   UNL A   1      31.861  28.392  22.830  1.00  0.00     0.227 C 
ATOM     18  O   UNL A   1      32.582  29.270  22.370  1.00  0.00    -0.285 OA
BRANCH  17  19
ATOM     19  C   UNL A   1      30.363  28.589  22.915  1.00  0.00     0.113 A 
ATOM     20  C   UNL A   1      28.370  29.948  22.832  1.00  0.00    -0.044 A 
ATOM     21  C   UNL A   1      27.631  28.800  23.125  1.00  0.00     0.024 A 
ATOM     22  C   UNL A   1      29.761  29.832  22.710  1.00  0.00     0.036 A 
ATOM     23  C   UNL A   1      28.304  27.604  23.305  1.00  0.00     0.112 A 
ATOM     24  N   UNL A   1      29.643  27.476  23.215  1.00  0.00    -0.253 NA
BRANCH  20  25
ATOM     25  C   UNL A   1      27.687  31.281  22.645  1.00  0.00     0.032 C 
ATOM     26  C   UNL A   1      28.580  32.455  23.024  1.00  0.00     0.009 C 
ENDBRANCH  20  25
ENDBRANCH  17  19
ENDBRANCH   8  17
BRANCH  16  27
ATOM     27  O   UNL A   1      34.776  22.409  25.909  1.00  0.00    -0.406 OA
BRANCH  27  28
ATOM     28  C   UNL A   1      33.922  21.606  26.704  1.00  0.00     0.573 C 
ATOM     29  F   UNL A   1      34.482  21.343  27.905  1.00  0.00    -0.132 F 
ATOM     30  F   UNL A   1      32.720  22.191  26.879  1.00  0.00    -0.132 F 
ATOM     31  F   UNL A   1      33.729  20.427  26.069  1.00  0.00    -0.132 F 
ENDBRANCH  27  28
ENDBRANCH  16  27
ENDBRANCH   6   7
ENDBRANCH   3   6
ENDBRANCH   1   2
BRANCH   1  32
ATOM     32  C   UNL A   1      31.599  31.687  26.617  1.00  0.00     0.042 C 
BRANCH  32  33
ATOM     33  C   UNL A   1      32.883  32.315  27.154  1.00  0.00     0.118 C 
BRANCH  33  34
ATOM     34  N   UNL A   1      32.687  33.678  27.621  1.00  0.00    -0.352 N 
ATOM     35  C   UNL A   1      33.274  34.369  28.653  1.00  0.00     0.251 C 
ATOM     36  H   UNL A   1      32.020  34.194  27.112  1.00  0.00     0.163 HD
ATOM     37  O   UNL A   1      32.802  35.460  28.969  1.00  0.00    -0.269 OA
BRANCH  35  38
ATOM     38  C   UNL A   1      34.439  33.831  29.398  1.00  0.00     0.039 A 
ATOM     39  C   UNL A   1      35.719  34.271  29.033  1.00  0.00     0.014 A 
ATOM     40  C   UNL A   1      34.307  32.841  30.377  1.00  0.00     0.014 A 
ATOM     41  C   UNL A   1      36.852  33.761  29.675  1.00  0.00     0.010 A 
ATOM     42  C   UNL A   1      35.437  32.360  31.045  1.00  0.00     0.010 A 
ATOM     43  C   UNL A   1      36.719  32.814  30.699  1.00  0.00    -0.014 A 
BRANCH  43  44
ATOM     44  C   UNL A   1      37.910  32.267  31.398  1.00  0.00     0.031 A 
ATOM     45  C   UNL A   1      38.733  31.186  30.754  1.00  0.00     0.074 A 
ATOM     46  C   UNL A   1      38.222  32.702  32.632  1.00  0.00     0.049 A 
ATOM     47  N   UNL A   1      39.717  30.483  31.256  1.00  0.00    -0.248 NA
ATOM     48  C   UNL A   1      38.389  30.840  29.368  1.00  0.00     0.031 C 
ATOM     49  C   UNL A   1      37.498  33.732  33.378  1.00  0.00     0.029 A 
ATOM     50  N   UNL A   1      39.224  32.315  33.487  1.00  0.00    -0.354 N 
ATOM     51  C   UNL A   1      40.090  29.588  30.261  1.00  0.00     0.074 A 
ATOM     52  C   UNL A   1      39.219  29.835  29.128  1.00  0.00     0.031 C 
ATOM     53  C   UNL A   1      38.074  33.890  34.581  1.00  0.00     0.029 A 
ATOM     54  C   UNL A   1      39.189  32.956  34.702  1.00  0.00     0.049 A 
ATOM     55  H   UNL A   1      39.904  31.643  33.251  1.00  0.00     0.167 HD
ATOM     56  C   UNL A   1      41.062  28.641  30.288  1.00  0.00     0.034 A 
ATOM     57  C   UNL A   1      39.955  32.794  35.797  1.00  0.00     0.034 A 
ATOM     58  C   UNL A   1      41.936  28.405  31.409  1.00  0.00     0.049 A 
ATOM     59  C   UNL A   1      41.062  31.779  35.786  1.00  0.00     0.074 A 
ATOM     60  C   UNL A   1      42.945  27.465  31.539  1.00  0.00     0.029 A 
ATOM     61  N   UNL A   1      41.912  29.124  32.595  1.00  0.00    -0.354 N 
ATOM     62  N   UNL A   1      41.374  30.913  34.852  1.00  0.00    -0.248 NA
ATOM     63  C   UNL A   1      41.921  31.724  36.977  1.00  0.00     0.031 C 
ATOM     64  C   UNL A   1      43.518  27.604  32.811  1.00  0.00     0.029 A 
ATOM     65  C   UNL A   1      42.888  28.653  33.460  1.00  0.00     0.049 A 
ATOM     66  H   UNL A   1      41.292  29.863  32.795  1.00  0.00     0.167 HD
ATOM     67  C   UNL A   1      42.468  30.210  35.343  1.00  0.00     0.074 A 
ATOM     68  C   UNL A   1      42.768  30.758  36.651  1.00  0.00     0.031 C 
ATOM     69  C   UNL A   1      43.163  29.201  34.763  1.00  0.00     0.034 A 
BRANCH  56  70
ATOM     70  C   UNL A   1      41.182  27.760  29.076  1.00  0.00     0.023 A 
ATOM     71  C   UNL A   1      42.161  27.989  28.095  1.00  0.00     0.031 A 
ATOM     72  C   UNL A   1      40.271  26.708  28.878  1.00  0.00     0.131 A 
ATOM     73  C   UNL A   1      42.169  27.211  26.928  1.00  0.00     0.055 A 
ATOM     74  C   UNL A   1      40.322  25.900  27.740  1.00  0.00     0.041 A 
ATOM     75  F   UNL A   1      39.305  26.463  29.776  1.00  0.00    -0.206 F 
ATOM     76  C   UNL A   1      41.268  26.157  26.752  1.00  0.00     0.022 A 
BRANCH  73  77
ATOM     77  S   UNL A   1      43.312  27.657  25.592  1.00  0.00     0.124 S 
ATOM     78  O   UNL A   1      43.977  26.382  25.335  1.00  0.00    -0.237 OA
ATOM     79  O   UNL A   1      42.411  28.131  24.547  1.00  0.00    -0.237 OA
ATOM     80  O   UNL A   1      44.159  28.685  26.196  1.00  0.00    -0.744 OA
ENDBRANCH  73  77
ENDBRANCH  56  70
BRANCH  57  81
ATOM     81  C   UNL A   1      39.671  33.583  37.021  1.00  0.00     0.023 A 
ATOM     82  C   UNL A   1      38.881  33.058  38.053  1.00  0.00     0.031 A 
ATOM     83  C   UNL A   1      40.183  34.883  37.161  1.00  0.00     0.131 A 
ATOM     84  C   UNL A   1      38.605  33.845  39.182  1.00  0.00     0.055 A 
ATOM     85  C   UNL A   1      39.919  35.655  38.293  1.00  0.00     0.041 A 
ATOM     86  F   UNL A   1      40.955  35.414  36.200  1.00  0.00    -0.206 F 
ATOM     87  C   UNL A   1      39.120  35.138  39.308  1.00  0.00     0.022 A 
BRANCH  84  88
ATOM     88  S   UNL A   1      37.527  33.166  40.473  1.00  0.00     0.124 S 
ATOM     89  O   UNL A   1      37.346  34.316  41.352  1.00  0.00    -0.237 OA
ATOM     90  O   UNL A   1      36.358  32.757  39.702  1.00  0.00    -0.237 OA
ATOM     91  O   UNL A   1      38.316  32.071  41.032  1.00  0.00    -0.744 OA
ENDBRANCH  84  88
ENDBRANCH  57  81
BRANCH  69  92
ATOM     92  C   UNL A   1      44.329  28.657  35.537  1.00  0.00     0.023 A 
ATOM     93  C   UNL A   1      44.157  27.660  36.511  1.00  0.00     0.031 A 
ATOM     94  C   UNL A   1      45.621  29.162  35.313  1.00  0.00     0.131 A 
ATOM     95  C   UNL A   1      45.262  27.217  37.254  1.00  0.00     0.055 A 
ATOM     96  C   UNL A   1      46.720  28.700  36.038  1.00  0.00     0.041 A 
ATOM     97  F   UNL A   1      45.827  30.120  34.395  1.00  0.00    -0.206 F 
ATOM     98  C   UNL A   1      46.543  27.728  37.019  1.00  0.00     0.022 A 
BRANCH  95  99
ATOM     99  S   UNL A   1      44.999  25.995  38.569  1.00  0.00     0.124 S 
ATOM    100  O   UNL A   1      43.849  26.549  39.276  1.00  0.00    -0.237 OA
ATOM    101  O   UNL A   1      44.755  24.771  37.814  1.00  0.00    -0.237 OA
ATOM    102  O   UNL A   1      46.254  26.020  39.316  1.00  0.00    -0.744 OA
ENDBRANCH  95  99
ENDBRANCH  69  92
ENDBRANCH  43  44
ENDBRANCH  35  38
ENDBRANCH  33  34
ENDBRANCH  32  33
ENDBRANCH   1  32
TORSDOF 19
ENDMDL
MODEL 2
REMARK VINA RESULT:     -12.3      5.768     11.390
REMARK SMILES CCc1ccnc(C(=O)c2[nH]c3ccc(OC(F)(F)F)cc3c2CC(=O)NCCCNC(=O)c2ccc(-c3c4nc(c(-c5cc(S(=O)(=O)[O-])ccc5F)c5ccc([nH]5)c(-c5cc(S(=O)(=O)[O-])ccc5F)c5nc(c(-c6cc(S(=O)(=O)[O-])ccc6F)c6ccc3[nH]6)C=C5)C=C4)cc2)c1
REMARK SMILES IDX 28 1 27 2 25 3 26 4 24 6 23 7 10 8 11 9 12 10 22 12 13 13
REMARK SMILES IDX 21 14 14 15 15 16 8 17 9 18 7 19 3 20 4 21 97 22 5 23 6 24
REMARK SMILES IDX 2 25 1 26 16 27 17 28 18 29 19 30 20 31 29 32 30 33 31 34
REMARK SMILES IDX 32 35 33 37 34 38 35 39 96 40 36 41 95 42 37 43 38 44 39 45
REMARK SMILES IDX 89 46 40 47 94 48 88 49 90 50 41 51 93 52 87 53 86 54 42 56
REMARK SMILES IDX 74 57 54 58 73 59 55 60 58 61 72 62 91 63 56 64 57 65 71 67
REMARK SMILES IDX 92 68 59 69 43 70 44 71 52 72 45 73 51 74 53 75 50 76 46 77
REMARK SMILES IDX 47 78 48 79 49 80 75 81 76 82 84 83 77 84 83 85 85 86 82 87
REMARK SMILES IDX 78 88 79 89 80 90 81 91 60 92 61 93 69 94 62 95 68 96 70 97
REMARK SMILES IDX 67 98 63 99 64 100 65 101 66 102
REMARK H PARENT 27 5 11 11 31 36 90 55 58 66
REMARK Flexibility Score: inf
ROOT
ATOM      1  C   UNL A   1      37.143  20.352  24.619  1.00  0.00     0.117 C 
ENDROOT
BRANCH   1   2
ATOM      2  N   UNL A   1      37.346  21.734  25.011  1.00  0.00    -0.356 N 
ATOM      3  C   UNL A   1      36.538  22.560  25.738  1.00  0.00     0.224 C 
ATOM      4  O   UNL A   1      36.999  23.640  26.119  1.00  0.00    -0.275 OA
ATOM      5  H   UNL A   1      38.191  22.136  24.707  1.00  0.00     0.163 HD
BRANCH   3   6
ATOM      6  C   UNL A   1      35.152  22.114  26.173  1.00  0.00     0.138 C 
BRANCH   6   7
ATOM      7  C   UNL A   1      34.197  21.816  25.053  1.00  0.00    -0.002 A 
ATOM      8  C   UNL A   1      33.705  22.700  24.096  1.00  0.00     0.093 A 
ATOM      9  N   UNL A   1      32.932  21.973  23.220  1.00  0.00    -0.352 N 
ATOM     10  C   UNL A   1      32.808  20.675  23.646  1.00  0.00     0.046 A 
ATOM     11  H   UNL A   1      32.526  22.335  22.399  1.00  0.00     0.167 HD
ATOM     12  C   UNL A   1      33.577  20.546  24.799  1.00  0.00     0.008 A 
ATOM     13  C   UNL A   1      32.096  19.609  23.090  1.00  0.00     0.030 A 
ATOM     14  C   UNL A   1      33.622  19.286  25.431  1.00  0.00     0.057 A 
ATOM     15  C   UNL A   1      32.164  18.366  23.736  1.00  0.00     0.049 A 
ATOM     16  C   UNL A   1      32.917  18.197  24.896  1.00  0.00     0.130 A 
BRANCH   8  17
ATOM     17  C   UNL A   1      33.985  24.115  23.915  1.00  0.00     0.227 C 
ATOM     18  O   UNL A   1      34.762  24.496  23.046  1.00  0.00    -0.285 OA
BRANCH  17  19
ATOM     19  C   UNL A   1      33.269  25.110  24.802  1.00  0.00     0.113 A 
ATOM     20  C   UNL A   1      33.177  27.128  26.123  1.00  0.00    -0.044 A 
ATOM     21  C   UNL A   1      31.850  26.814  26.424  1.00  0.00     0.024 A 
ATOM     22  C   UNL A   1      33.891  26.264  25.282  1.00  0.00     0.036 A 
ATOM     23  C   UNL A   1      31.305  25.656  25.899  1.00  0.00     0.112 A 
ATOM     24  N   UNL A   1      31.982  24.800  25.109  1.00  0.00    -0.253 NA
BRANCH  20  25
ATOM     25  C   UNL A   1      33.826  28.369  26.684  1.00  0.00     0.032 C 
ATOM     26  C   UNL A   1      32.822  29.317  27.326  1.00  0.00     0.009 C 
ENDBRANCH  20  25
ENDBRANCH  17  19
ENDBRANCH   8  17
BRANCH  16  27
ATOM     27  O   UNL A   1      33.062  17.040  25.609  1.00  0.00    -0.406 OA
BRANCH  27  28
ATOM     28  C   UNL A   1      33.893  16.029  25.066  1.00  0.00     0.573 C 
ATOM     29  F   UNL A   1      34.141  16.253  23.757  1.00  0.00    -0.132 F 
ATOM     30  F   UNL A   1      35.056  15.935  25.742  1.00  0.00    -0.132 F 
ATOM     31  F   UNL A   1      33.248  14.844  25.170  1.00  0.00    -0.132 F 
ENDBRANCH  27  28
ENDBRANCH  16  27
ENDBRANCH   6   7
ENDBRANCH   3   6
ENDBRANCH   1   2
BRANCH   1  32
ATOM     32  C   UNL A   1      38.153  19.384  25.233  1.00  0.00     0.042 C 
BRANCH  32  33
ATOM     33  C   UNL A   1      39.404  20.035  25.817  1.00  0.00     0.118 C 
BRANCH  33  34
ATOM     34  N   UNL A   1      40.510  19.101  25.953  1.00  0.00    -0.352 N 
ATOM     35  C   UNL A   1      41.858  19.318  26.109  1.00  0.00     0.251 C 
ATOM     36  H   UNL A   1      40.250  18.152  25.927  1.00  0.00     0.163 HD
ATOM     37  O   UNL A   1      42.620  18.357  26.013  1.00  0.00    -0.269 OA
BRANCH  35  38
ATOM     38  C   UNL A   1      42.412  20.669  26.374  1.00  0.00     0.039 A 
ATOM     39  C   UNL A   1      42.544  21.081  27.707  1.00  0.00     0.014 A 
ATOM     40  C   UNL A   1      42.713  21.566  25.345  1.00  0.00     0.014 A 
ATOM     41  C   UNL A   1      43.020  22.362  28.008  1.00  0.00     0.010 A 
ATOM     42  C   UNL A   1      43.225  22.832  25.645  1.00  0.00     0.010 A 
ATOM     43  C   UNL A   1      43.381  23.242  26.977  1.00  0.00    -0.014 A 
BRANCH  43  44
ATOM     44  C   UNL A   1      43.896  24.602  27.277  1.00  0.00     0.031 A 
ATOM     45  C   UNL A   1      42.970  25.660  27.810  1.00  0.00     0.074 A 
ATOM     46  C   UNL A   1      45.182  24.905  27.021  1.00  0.00     0.049 A 
ATOM     47  N   UNL A   1      43.190  26.937  27.998  1.00  0.00    -0.248 NA
ATOM     48  C   UNL A   1      41.610  25.223  28.158  1.00  0.00     0.031 C 
ATOM     49  C   UNL A   1      46.182  23.978  26.488  1.00  0.00     0.029 A 
ATOM     50  N   UNL A   1      45.864  26.088  27.159  1.00  0.00    -0.354 N 
ATOM     51  C   UNL A   1      41.989  27.466  28.456  1.00  0.00     0.074 A 
ATOM     52  C   UNL A   1      41.043  26.369  28.510  1.00  0.00     0.031 C 
ATOM     53  C   UNL A   1      47.348  24.630  26.337  1.00  0.00     0.029 A 
ATOM     54  C   UNL A   1      47.169  26.023  26.736  1.00  0.00     0.049 A 
ATOM     55  H   UNL A   1      45.457  26.905  27.528  1.00  0.00     0.167 HD
ATOM     56  C   UNL A   1      41.697  28.747  28.793  1.00  0.00     0.034 A 
ATOM     57  C   UNL A   1      48.111  26.982  26.657  1.00  0.00     0.034 A 
ATOM     58  C   UNL A   1      42.642  29.835  28.753  1.00  0.00     0.049 A 
ATOM     59  C   UNL A   1      47.783  28.383  27.089  1.00  0.00     0.074 A 
ATOM     60  C   UNL A   1      42.443  31.169  29.066  1.00  0.00     0.029 A 
ATOM     61  N   UNL A   1      43.974  29.711  28.384  1.00  0.00    -0.354 N 
ATOM     62  N   UNL A   1      46.632  28.874  27.481  1.00  0.00    -0.248 NA
ATOM     63  C   UNL A   1      48.884  29.356  27.072  1.00  0.00     0.031 C 
ATOM     64  C   UNL A   1      43.649  31.855  28.867  1.00  0.00     0.029 A 
ATOM     65  C   UNL A   1      44.608  30.941  28.464  1.00  0.00     0.049 A 
ATOM     66  H   UNL A   1      44.407  28.871  28.106  1.00  0.00     0.167 HD
ATOM     67  C   UNL A   1      46.871  30.215  27.757  1.00  0.00     0.074 A 
ATOM     68  C   UNL A   1      48.277  30.454  27.497  1.00  0.00     0.031 C 
ATOM     69  C   UNL A   1      46.004  31.164  28.188  1.00  0.00     0.034 A 
BRANCH  56  70
ATOM     70  C   UNL A   1      40.275  29.036  29.184  1.00  0.00     0.023 A 
ATOM     71  C   UNL A   1      39.865  29.027  30.528  1.00  0.00     0.031 A 
ATOM     72  C   UNL A   1      39.307  29.275  28.193  1.00  0.00     0.131 A 
ATOM     73  C   UNL A   1      38.507  29.194  30.841  1.00  0.00     0.055 A 
ATOM     74  C   UNL A   1      37.967  29.499  28.516  1.00  0.00     0.041 A 
ATOM     75  F   UNL A   1      39.646  29.274  26.894  1.00  0.00    -0.206 F 
ATOM     76  C   UNL A   1      37.559  29.448  29.845  1.00  0.00     0.022 A 
BRANCH  73  77
ATOM     77  S   UNL A   1      37.978  28.977  32.562  1.00  0.00     0.124 S 
ATOM     78  O   UNL A   1      36.618  29.508  32.521  1.00  0.00    -0.237 OA
ATOM     79  O   UNL A   1      38.097  27.536  32.752  1.00  0.00    -0.237 OA
ATOM     80  O   UNL A   1      38.934  29.785  33.318  1.00  0.00    -0.744 OA
ENDBRANCH  73  77
ENDBRANCH  56  70
BRANCH  57  81
ATOM     81  C   UNL A   1      49.449  26.661  26.102  1.00  0.00     0.023 A 
ATOM     82  C   UNL A   1      49.820  27.086  24.819  1.00  0.00     0.031 A 
ATOM     83  C   UNL A   1      50.367  25.910  26.854  1.00  0.00     0.131 A 
ATOM     84  C   UNL A   1      51.081  26.736  24.311  1.00  0.00     0.055 A 
ATOM     85  C   UNL A   1      51.626  25.578  26.351  1.00  0.00     0.041 A 
ATOM     86  F   UNL A   1      50.052  25.498  28.091  1.00  0.00    -0.206 F 
ATOM     87  C   UNL A   1      51.985  25.987  25.070  1.00  0.00     0.022 A 
BRANCH  84  88
ATOM     88  S   UNL A   1      51.512  27.243  22.625  1.00  0.00     0.124 S 
ATOM     89  O   UNL A   1      52.746  26.501  22.391  1.00  0.00    -0.237 OA
ATOM     90  O   UNL A   1      50.344  26.798  21.872  1.00  0.00    -0.237 OA
ATOM     91  O   UNL A   1      51.665  28.691  22.735  1.00  0.00    -0.744 OA
ENDBRANCH  84  88
ENDBRANCH  57  81
BRANCH  69  92
ATOM     92  C   UNL A   1      46.573  32.532  28.430  1.00  0.00     0.023 A 
ATOM     93  C   UNL A   1      46.807  33.423  27.370  1.00  0.00     0.031 A 
ATOM     94  C   UNL A   1      46.907  32.937  29.733  1.00  0.00     0.131 A 
ATOM     95  C   UNL A   1      47.392  34.672  27.628  1.00  0.00     0.055 A 
ATOM     96  C   UNL A   1      47.466  34.189  29.987  1.00  0.00     0.041 A 
ATOM     97  F   UNL A   1      46.705  32.113  30.774  1.00  0.00    -0.206 F 
ATOM     98  C   UNL A   1      47.717  35.061  28.931  1.00  0.00     0.022 A 
BRANCH  95  99
ATOM     99  S   UNL A   1      47.768  35.767  26.232  1.00  0.00     0.124 S 
ATOM    100  O   UNL A   1      46.602  36.644  26.208  1.00  0.00    -0.237 OA
ATOM    101  O   UNL A   1      49.023  36.384  26.648  1.00  0.00    -0.237 OA
ATOM    102  O   UNL A   1      47.876  34.852  25.097  1.00  0.00    -0.744 OA
ENDBRANCH  95  99
ENDBRANCH  69  92
ENDBRANCH  43  44
ENDBRANCH  35  38
ENDBRANCH  33  34
ENDBRANCH  32  33
ENDBRANCH   1  32
TORSDOF 19
ENDMDL
MODEL 3
REMARK VINA RESULT:     -12.3      3.853      9.167
REMARK SMILES CCc1ccnc(C(=O)c2[nH]c3ccc(OC(F)(F)F)cc3c2CC(=O)NCCCNC(=O)c2ccc(-c3c4nc(c(-c5cc(S(=O)(=O)[O-])ccc5F)c5ccc([nH]5)c(-c5cc(S(=O)(=O)[O-])ccc5F)c5nc(c(-c6cc(S(=O)(=O)[O-])ccc6F)c6ccc3[nH]6)C=C5)C=C4)cc2)c1
REMARK SMILES IDX 28 1 27 2 25 3 26 4 24 6 23 7 10 8 11 9 12 10 22 12 13 13
REMARK SMILES IDX 21 14 14 15 15 16 8 17 9 18 7 19 3 20 4 21 97 22 5 23 6 24
REMARK SMILES IDX 2 25 1 26 16 27 17 28 18 29 19 30 20 31 29 32 30 33 31 34
REMARK SMILES IDX 32 35 33 37 34 38 35 39 96 40 36 41 95 42 37 43 38 44 39 45
REMARK SMILES IDX 89 46 40 47 94 48 88 49 90 50 41 51 93 52 87 53 86 54 42 56
REMARK SMILES IDX 74 57 54 58 73 59 55 60 58 61 72 62 91 63 56 64 57 65 71 67
REMARK SMILES IDX 92 68 59 69 43 70 44 71 52 72 45 73 51 74 53 75 50 76 46 77
REMARK SMILES IDX 47 78 48 79 49 80 75 81 76 82 84 83 77 84 83 85 85 86 82 87
REMARK SMILES IDX 78 88 79 89 80 90 81 91 60 92 61 93 69 94 62 95 68 96 70 97
REMARK SMILES IDX 67 98 63 99 64 100 65 101 66 102
REMARK H PARENT 27 5 11 11 31 36 90 55 58 66
REMARK Flexibility Score: inf
ROOT
ATOM      1  C   UNL A   1      33.641  27.124  25.293  1.00  0.00     0.117 C 
ENDROOT
BRANCH   1   2
ATOM      2  N   UNL A   1      33.936  27.961  24.146  1.00  0.00    -0.356 N 
ATOM      3  C   UNL A   1      33.705  27.734  22.820  1.00  0.00     0.224 C 
ATOM      4  O   UNL A   1      33.860  28.672  22.031  1.00  0.00    -0.275 OA
ATOM      5  H   UNL A   1      34.366  28.822  24.355  1.00  0.00     0.163 HD
BRANCH   3   6
ATOM      6  C   UNL A   1      33.157  26.401  22.338  1.00  0.00     0.138 C 
BRANCH   6   7
ATOM      7  C   UNL A   1      31.809  26.030  22.887  1.00  0.00    -0.002 A 
ATOM      8  C   UNL A   1      31.406  24.795  23.387  1.00  0.00     0.093 A 
ATOM      9  N   UNL A   1      30.121  24.940  23.858  1.00  0.00    -0.352 N 
ATOM     10  C   UNL A   1      29.637  26.190  23.569  1.00  0.00     0.046 A 
ATOM     11  H   UNL A   1      29.618  24.242  24.337  1.00  0.00     0.167 HD
ATOM     12  C   UNL A   1      30.665  26.894  22.949  1.00  0.00     0.008 A 
ATOM     13  C   UNL A   1      28.384  26.754  23.827  1.00  0.00     0.030 A 
ATOM     14  C   UNL A   1      30.417  28.226  22.558  1.00  0.00     0.057 A 
ATOM     15  C   UNL A   1      28.168  28.082  23.433  1.00  0.00     0.049 A 
ATOM     16  C   UNL A   1      29.168  28.819  22.803  1.00  0.00     0.130 A 
BRANCH   8  17
ATOM     17  C   UNL A   1      32.162  23.562  23.526  1.00  0.00     0.227 C 
ATOM     18  O   UNL A   1      31.936  22.600  22.800  1.00  0.00    -0.285 OA
BRANCH  17  19
ATOM     19  C   UNL A   1      33.260  23.503  24.566  1.00  0.00     0.113 A 
ATOM     20  C   UNL A   1      35.575  23.562  25.246  1.00  0.00    -0.044 A 
ATOM     21  C   UNL A   1      35.146  23.352  26.558  1.00  0.00     0.024 A 
ATOM     22  C   UNL A   1      34.608  23.656  24.236  1.00  0.00     0.036 A 
ATOM     23  C   UNL A   1      33.790  23.221  26.801  1.00  0.00     0.112 A 
ATOM     24  N   UNL A   1      32.847  23.284  25.841  1.00  0.00    -0.253 NA
BRANCH  20  25
ATOM     25  C   UNL A   1      37.043  23.693  24.924  1.00  0.00     0.032 C 
ATOM     26  C   UNL A   1      37.937  23.097  26.004  1.00  0.00     0.009 C 
ENDBRANCH  20  25
ENDBRANCH  17  19
ENDBRANCH   8  17
BRANCH  16  27
ATOM     27  O   UNL A   1      29.078  30.114  22.379  1.00  0.00    -0.406 OA
BRANCH  27  28
ATOM     28  C   UNL A   1      28.700  31.097  23.327  1.00  0.00     0.573 C 
ATOM     29  F   UNL A   1      27.470  30.844  23.826  1.00  0.00    -0.132 F 
ATOM     30  F   UNL A   1      29.594  31.176  24.333  1.00  0.00    -0.132 F 
ATOM     31  F   UNL A   1      28.658  32.297  22.706  1.00  0.00    -0.132 F 
ENDBRANCH  27  28
ENDBRANCH  16  27
ENDBRANCH   6   7
ENDBRANCH   3   6
ENDBRANCH   1   2
BRANCH   1  32
ATOM     32  C   UNL A   1      32.604  27.721  26.242  1.00  0.00     0.042 C 
BRANCH  32  33
ATOM     33  C   UNL A   1      33.174  28.359  27.507  1.00  0.00     0.118 C 
BRANCH  33  34
ATOM     34  N   UNL A   1      33.328  29.800  27.387  1.00  0.00    -0.352 N 
ATOM     35  C   UNL A   1      34.365  30.627  27.746  1.00  0.00     0.251 C 
ATOM     36  H   UNL A   1      32.560  30.261  26.980  1.00  0.00     0.163 HD
ATOM     37  O   UNL A   1      34.181  31.842  27.712  1.00  0.00    -0.269 OA
BRANCH  35  38
ATOM     38  C   UNL A   1      35.680  30.096  28.182  1.00  0.00     0.039 A 
ATOM     39  C   UNL A   1      35.812  29.656  29.506  1.00  0.00     0.014 A 
ATOM     40  C   UNL A   1      36.803  30.110  27.348  1.00  0.00     0.014 A 
ATOM     41  C   UNL A   1      37.043  29.188  29.977  1.00  0.00     0.010 A 
ATOM     42  C   UNL A   1      38.024  29.607  27.807  1.00  0.00     0.010 A 
ATOM     43  C   UNL A   1      38.156  29.144  29.125  1.00  0.00    -0.014 A 
BRANCH  43  44
ATOM     44  C   UNL A   1      39.469  28.643  29.605  1.00  0.00     0.031 A 
ATOM     45  C   UNL A   1      40.196  29.365  30.704  1.00  0.00     0.074 A 
ATOM     46  C   UNL A   1      40.034  27.571  29.018  1.00  0.00     0.049 A 
ATOM     47  N   UNL A   1      41.408  29.173  31.162  1.00  0.00    -0.248 NA
ATOM     48  C   UNL A   1      39.469  30.461  31.360  1.00  0.00     0.031 C 
ATOM     49  C   UNL A   1      39.444  26.790  27.930  1.00  0.00     0.029 A 
ATOM     50  N   UNL A   1      41.245  26.966  29.245  1.00  0.00    -0.354 N 
ATOM     51  C   UNL A   1      41.603  30.143  32.139  1.00  0.00     0.074 A 
ATOM     52  C   UNL A   1      40.384  30.925  32.199  1.00  0.00     0.031 C 
ATOM     53  C   UNL A   1      40.297  25.813  27.579  1.00  0.00     0.029 A 
ATOM     54  C   UNL A   1      41.502  25.916  28.397  1.00  0.00     0.049 A 
ATOM     55  H   UNL A   1      41.868  27.255  29.949  1.00  0.00     0.167 HD
ATOM     56  C   UNL A   1      42.697  30.367  32.908  1.00  0.00     0.034 A 
ATOM     57  C   UNL A   1      42.594  25.138  28.276  1.00  0.00     0.034 A 
ATOM     58  C   UNL A   1      43.903  29.580  32.857  1.00  0.00     0.049 A 
ATOM     59  C   UNL A   1      43.773  25.368  29.177  1.00  0.00     0.074 A 
ATOM     60  C   UNL A   1      45.070  29.732  33.589  1.00  0.00     0.029 A 
ATOM     61  N   UNL A   1      44.096  28.482  32.032  1.00  0.00    -0.354 N 
ATOM     62  N   UNL A   1      43.957  26.315  30.065  1.00  0.00    -0.248 NA
ATOM     63  C   UNL A   1      44.891  24.421  29.060  1.00  0.00     0.031 C 
ATOM     64  C   UNL A   1      45.974  28.738  33.191  1.00  0.00     0.029 A 
ATOM     65  C   UNL A   1      45.358  27.946  32.237  1.00  0.00     0.049 A 
ATOM     66  H   UNL A   1      43.433  28.134  31.393  1.00  0.00     0.167 HD
ATOM     67  C   UNL A   1      45.211  26.077  30.615  1.00  0.00     0.074 A 
ATOM     68  C   UNL A   1      45.736  24.892  29.965  1.00  0.00     0.031 C 
ATOM     69  C   UNL A   1      45.869  26.775  31.572  1.00  0.00     0.034 A 
BRANCH  56  70
ATOM     70  C   UNL A   1      42.642  31.552  33.832  1.00  0.00     0.023 A 
ATOM     71  C   UNL A   1      42.125  31.446  35.134  1.00  0.00     0.031 A 
ATOM     72  C   UNL A   1      43.068  32.814  33.385  1.00  0.00     0.131 A 
ATOM     73  C   UNL A   1      41.992  32.597  35.925  1.00  0.00     0.055 A 
ATOM     74  C   UNL A   1      42.987  33.946  34.198  1.00  0.00     0.041 A 
ATOM     75  F   UNL A   1      43.550  32.971  32.142  1.00  0.00    -0.206 F 
ATOM     76  C   UNL A   1      42.435  33.843  35.472  1.00  0.00     0.022 A 
BRANCH  73  77
ATOM     77  S   UNL A   1      41.137  32.464  37.519  1.00  0.00     0.124 S 
ATOM     78  O   UNL A   1      39.868  31.860  37.123  1.00  0.00    -0.237 OA
ATOM     79  O   UNL A   1      42.037  31.616  38.292  1.00  0.00    -0.237 OA
ATOM     80  O   UNL A   1      41.046  33.851  37.975  1.00  0.00    -0.744 OA
ENDBRANCH  73  77
ENDBRANCH  56  70
BRANCH  57  81
ATOM     81  C   UNL A   1      42.645  24.092  27.225  1.00  0.00     0.023 A 
ATOM     82  C   UNL A   1      42.079  22.827  27.436  1.00  0.00     0.031 A 
ATOM     83  C   UNL A   1      43.275  24.351  25.997  1.00  0.00     0.131 A 
ATOM     84  C   UNL A   1      42.174  21.850  26.433  1.00  0.00     0.055 A 
ATOM     85  C   UNL A   1      43.353  23.381  24.996  1.00  0.00     0.041 A 
ATOM     86  F   UNL A   1      43.816  25.555  25.754  1.00  0.00    -0.206 F 
ATOM     87  C   UNL A   1      42.806  22.121  25.215  1.00  0.00     0.022 A 
BRANCH  84  88
ATOM     88  S   UNL A   1      41.492  20.202  26.756  1.00  0.00     0.124 S 
ATOM     89  O   UNL A   1      40.149  20.518  27.231  1.00  0.00    -0.237 OA
ATOM     90  O   UNL A   1      41.577  19.579  25.439  1.00  0.00    -0.237 OA
ATOM     91  O   UNL A   1      42.396  19.651  27.762  1.00  0.00    -0.744 OA
ENDBRANCH  84  88
ENDBRANCH  57  81
BRANCH  69  92
ATOM     92  C   UNL A   1      47.214  26.247  31.983  1.00  0.00     0.023 A 
ATOM     93  C   UNL A   1      47.355  25.392  33.088  1.00  0.00     0.031 A 
ATOM     94  C   UNL A   1      48.366  26.626  31.276  1.00  0.00     0.131 A 
ATOM     95  C   UNL A   1      48.633  24.964  33.476  1.00  0.00     0.055 A 
ATOM     96  C   UNL A   1      49.633  26.179  31.652  1.00  0.00     0.041 A 
ATOM     97  F   UNL A   1      48.276  27.448  30.218  1.00  0.00    -0.206 F 
ATOM     98  C   UNL A   1      49.772  25.349  32.761  1.00  0.00     0.022 A 
BRANCH  95  99
ATOM     99  S   UNL A   1      48.798  23.934  34.961  1.00  0.00     0.124 S 
ATOM    100  O   UNL A   1      48.410  24.860  36.020  1.00  0.00    -0.237 OA
ATOM    101  O   UNL A   1      47.864  22.846  34.691  1.00  0.00    -0.237 OA
ATOM    102  O   UNL A   1      50.208  23.553  34.959  1.00  0.00    -0.744 OA
ENDBRANCH  95  99
ENDBRANCH  69  92
ENDBRANCH  43  44
ENDBRANCH  35  38
ENDBRANCH  33  34
ENDBRANCH  32  33
ENDBRANCH   1  32
TORSDOF 19
ENDMDL
