MODEL 1
REMARK VINA RESULT:     -11.5      0.000      0.000
REMARK SMILES COc1ccccc1N1C(=O)CC[C@H]1CC(=O)NCCCNC(=O)c1ccc(-c2c3nc(c(-c4cc(S(=O)(=O)[O-])ccc4F)c4ccc([nH]4)c(-c4cc(S(=O)(=O)[O-])ccc4F)c4nc(c(-c5cc(S(=O)(=O)[O-])ccc5F)c5ccc2[nH]5)C=C4)C=C3)cc1
REMARK SMILES IDX 20 1 19 2 18 3 16 4 17 5 15 7 14 8 9 9 10 10 11 11 12 12
REMARK SMILES IDX 13 13 8 14 3 15 4 16 5 17 7 18 6 19 2 20 1 21 21 22 22 23
REMARK SMILES IDX 23 24 24 26 25 27 26 28 87 29 27 30 86 31 28 32 29 33 30 34
REMARK SMILES IDX 80 35 31 36 85 37 79 38 81 39 32 40 84 41 78 42 77 43 33 45
REMARK SMILES IDX 65 46 45 47 64 48 46 49 49 50 63 51 82 52 47 53 48 54 62 56
REMARK SMILES IDX 83 57 50 58 34 59 35 60 43 61 36 62 42 63 44 64 41 65 37 66
REMARK SMILES IDX 38 67 39 68 40 69 66 70 67 71 75 72 68 73 74 74 76 75 73 76
REMARK SMILES IDX 69 77 70 78 71 79 72 80 51 81 52 82 60 83 53 84 59 85 61 86
REMARK SMILES IDX 58 87 54 88 55 89 56 90 57 91
REMARK H PARENT 18 6 22 25 81 44 49 55
REMARK Flexibility Score: inf
ROOT
ATOM      1  C   UNL A   1      31.424  28.527  25.692  1.00  0.00     0.042 C 
ENDROOT
BRANCH   1   2
ATOM      2  C   UNL A   1      31.488  27.698  26.969  1.00  0.00     0.117 C 
BRANCH   2   3
ATOM      3  N   UNL A   1      31.346  26.274  26.750  1.00  0.00    -0.356 N 
ATOM      4  C   UNL A   1      32.196  25.322  26.310  1.00  0.00     0.222 C 
ATOM      5  O   UNL A   1      31.802  24.153  26.425  1.00  0.00    -0.275 OA
ATOM      6  H   UNL A   1      30.450  25.930  26.967  1.00  0.00     0.163 HD
BRANCH   4   7
ATOM      7  C   UNL A   1      33.584  25.564  25.749  1.00  0.00     0.125 C 
BRANCH   7   8
ATOM      8  C   UNL A   1      34.029  25.371  24.287  1.00  0.00     0.100 C 
ATOM      9  N   UNL A   1      34.048  24.101  23.587  1.00  0.00    -0.305 N 
ATOM     10  C   UNL A   1      33.509  24.212  22.293  1.00  0.00     0.227 C 
ATOM     11  O   UNL A   1      33.316  23.324  21.476  1.00  0.00    -0.275 OA
ATOM     12  C   UNL A   1      33.122  25.639  22.037  1.00  0.00     0.103 C 
ATOM     13  C   UNL A   1      33.233  26.321  23.380  1.00  0.00     0.036 C 
BRANCH   9  14
ATOM     14  C   UNL A   1      34.855  22.980  23.967  1.00  0.00     0.086 A 
ATOM     15  C   UNL A   1      34.322  21.800  24.531  1.00  0.00     0.142 A 
ATOM     16  C   UNL A   1      35.161  20.778  25.003  1.00  0.00     0.048 A 
ATOM     17  C   UNL A   1      36.544  20.890  24.905  1.00  0.00     0.004 A 
ATOM     18  C   UNL A   1      36.250  23.053  23.879  1.00  0.00     0.030 A 
ATOM     19  C   UNL A   1      37.088  22.032  24.342  1.00  0.00     0.002 A 
BRANCH  15  20
ATOM     20  O   UNL A   1      32.985  21.559  24.711  1.00  0.00    -0.495 OA
ATOM     21  C   UNL A   1      32.495  20.512  23.884  1.00  0.00     0.278 C 
ENDBRANCH  15  20
ENDBRANCH   9  14
ENDBRANCH   7   8
ENDBRANCH   4   7
ENDBRANCH   2   3
ENDBRANCH   1   2
BRANCH   1  22
ATOM     22  C   UNL A   1      32.584  29.477  25.430  1.00  0.00     0.118 C 
BRANCH  22  23
ATOM     23  N   UNL A   1      32.304  30.829  25.867  1.00  0.00    -0.352 N 
ATOM     24  C   UNL A   1      32.826  31.577  26.895  1.00  0.00     0.251 C 
ATOM     25  H   UNL A   1      31.620  31.295  25.334  1.00  0.00     0.163 HD
ATOM     26  O   UNL A   1      32.238  32.616  27.195  1.00  0.00    -0.269 OA
BRANCH  24  27
ATOM     27  C   UNL A   1      34.039  31.176  27.657  1.00  0.00     0.039 A 
ATOM     28  C   UNL A   1      34.981  32.170  27.955  1.00  0.00     0.014 A 
ATOM     29  C   UNL A   1      34.327  29.852  28.000  1.00  0.00     0.014 A 
ATOM     30  C   UNL A   1      36.169  31.848  28.621  1.00  0.00     0.010 A 
ATOM     31  C   UNL A   1      35.479  29.544  28.737  1.00  0.00     0.010 A 
ATOM     32  C   UNL A   1      36.421  30.535  29.047  1.00  0.00    -0.014 A 
BRANCH  32  33
ATOM     33  C   UNL A   1      37.662  30.201  29.807  1.00  0.00     0.031 A 
ATOM     34  C   UNL A   1      38.670  29.229  29.244  1.00  0.00     0.074 A 
ATOM     35  C   UNL A   1      37.871  30.751  31.021  1.00  0.00     0.049 A 
ATOM     36  N   UNL A   1      39.785  28.792  29.776  1.00  0.00    -0.248 NA
ATOM     37  C   UNL A   1      38.379  28.658  27.920  1.00  0.00     0.031 C 
ATOM     38  C   UNL A   1      36.958  31.678  31.694  1.00  0.00     0.029 A 
ATOM     39  N   UNL A   1      38.906  30.606  31.914  1.00  0.00    -0.354 N 
ATOM     40  C   UNL A   1      40.316  27.881  28.866  1.00  0.00     0.074 A 
ATOM     41  C   UNL A   1      39.380  27.803  27.763  1.00  0.00     0.031 C 
ATOM     42  C   UNL A   1      37.479  32.030  32.878  1.00  0.00     0.029 A 
ATOM     43  C   UNL A   1      38.736  31.318  33.082  1.00  0.00     0.049 A 
ATOM     44  H   UNL A   1      39.696  30.046  31.736  1.00  0.00     0.167 HD
ATOM     45  C   UNL A   1      41.477  27.186  28.938  1.00  0.00     0.034 A 
ATOM     46  C   UNL A   1      39.489  31.373  34.201  1.00  0.00     0.034 A 
ATOM     47  C   UNL A   1      42.413  27.290  30.033  1.00  0.00     0.049 A 
ATOM     48  C   UNL A   1      40.769  30.572  34.260  1.00  0.00     0.074 A 
ATOM     49  C   UNL A   1      43.658  26.695  30.159  1.00  0.00     0.029 A 
ATOM     50  N   UNL A   1      42.206  28.018  31.197  1.00  0.00    -0.354 N 
ATOM     51  N   UNL A   1      41.291  29.779  33.352  1.00  0.00    -0.248 NA
ATOM     52  C   UNL A   1      41.567  30.684  35.488  1.00  0.00     0.031 C 
ATOM     53  C   UNL A   1      44.162  26.992  31.428  1.00  0.00     0.029 A 
ATOM     54  C   UNL A   1      43.277  27.849  32.063  1.00  0.00     0.049 A 
ATOM     55  H   UNL A   1      41.414  28.574  31.381  1.00  0.00     0.167 HD
ATOM     56  C   UNL A   1      42.492  29.325  33.891  1.00  0.00     0.074 A 
ATOM     57  C   UNL A   1      42.627  29.949  35.190  1.00  0.00     0.031 C 
ATOM     58  C   UNL A   1      43.402  28.469  33.360  1.00  0.00     0.034 A 
BRANCH  45  59
ATOM     59  C   UNL A   1      41.796  26.216  27.823  1.00  0.00     0.023 A 
ATOM     60  C   UNL A   1      41.347  24.885  27.838  1.00  0.00     0.031 A 
ATOM     61  C   UNL A   1      42.543  26.645  26.711  1.00  0.00     0.131 A 
ATOM     62  C   UNL A   1      41.689  24.018  26.788  1.00  0.00     0.055 A 
ATOM     63  C   UNL A   1      42.819  25.799  25.635  1.00  0.00     0.041 A 
ATOM     64  F   UNL A   1      43.015  27.900  26.648  1.00  0.00    -0.206 F 
ATOM     65  C   UNL A   1      42.400  24.474  25.674  1.00  0.00     0.022 A 
BRANCH  62  66
ATOM     66  S   UNL A   1      41.288  22.256  26.944  1.00  0.00     0.124 S 
ATOM     67  O   UNL A   1      42.085  21.873  28.107  1.00  0.00    -0.237 OA
ATOM     68  O   UNL A   1      39.843  22.276  27.138  1.00  0.00    -0.237 OA
ATOM     69  O   UNL A   1      41.739  21.687  25.676  1.00  0.00    -0.744 OA
ENDBRANCH  62  66
ENDBRANCH  45  59
BRANCH  46  70
ATOM     70  C   UNL A   1      39.048  32.177  35.379  1.00  0.00     0.023 A 
ATOM     71  C   UNL A   1      39.492  33.495  35.573  1.00  0.00     0.031 A 
ATOM     72  C   UNL A   1      38.231  31.609  36.375  1.00  0.00     0.131 A 
ATOM     73  C   UNL A   1      39.175  34.176  36.759  1.00  0.00     0.055 A 
ATOM     74  C   UNL A   1      37.860  32.314  37.521  1.00  0.00     0.041 A 
ATOM     75  F   UNL A   1      37.778  30.352  36.246  1.00  0.00    -0.206 F 
ATOM     76  C   UNL A   1      38.349  33.601  37.727  1.00  0.00     0.022 A 
BRANCH  73  77
ATOM     77  S   UNL A   1      39.962  35.779  37.080  1.00  0.00     0.124 S 
ATOM     78  O   UNL A   1      39.278  36.208  38.294  1.00  0.00    -0.237 OA
ATOM     79  O   UNL A   1      41.365  35.403  37.232  1.00  0.00    -0.237 OA
ATOM     80  O   UNL A   1      39.653  36.556  35.881  1.00  0.00    -0.744 OA
ENDBRANCH  73  77
ENDBRANCH  46  70
BRANCH  58  81
ATOM     81  C   UNL A   1      44.650  28.201  34.167  1.00  0.00     0.023 A 
ATOM     82  C   UNL A   1      44.736  27.129  35.072  1.00  0.00     0.031 A 
ATOM     83  C   UNL A   1      45.770  29.043  34.036  1.00  0.00     0.131 A 
ATOM     84  C   UNL A   1      45.891  26.961  35.853  1.00  0.00     0.055 A 
ATOM     85  C   UNL A   1      46.940  28.832  34.765  1.00  0.00     0.041 A 
ATOM     86  F   UNL A   1      45.746  30.087  33.192  1.00  0.00    -0.206 F 
ATOM     87  C   UNL A   1      47.000  27.794  35.690  1.00  0.00     0.022 A 
BRANCH  84  88
ATOM     88  S   UNL A   1      45.888  25.698  37.156  1.00  0.00     0.124 S 
ATOM     89  O   UNL A   1      46.282  24.501  36.419  1.00  0.00    -0.237 OA
ATOM     90  O   UNL A   1      46.873  26.220  38.098  1.00  0.00    -0.237 OA
ATOM     91  O   UNL A   1      44.508  25.704  37.637  1.00  0.00    -0.744 OA
ENDBRANCH  84  88
ENDBRANCH  58  81
ENDBRANCH  32  33
ENDBRANCH  24  27
ENDBRANCH  22  23
ENDBRANCH   1  22
TORSDOF 16
ENDMDL
MODEL 2
REMARK VINA RESULT:     -11.4      1.756      7.920
REMARK SMILES COc1ccccc1N1C(=O)CC[C@H]1CC(=O)NCCCNC(=O)c1ccc(-c2c3nc(c(-c4cc(S(=O)(=O)[O-])ccc4F)c4ccc([nH]4)c(-c4cc(S(=O)(=O)[O-])ccc4F)c4nc(c(-c5cc(S(=O)(=O)[O-])ccc5F)c5ccc2[nH]5)C=C4)C=C3)cc1
REMARK SMILES IDX 20 1 19 2 18 3 16 4 17 5 15 7 14 8 9 9 10 10 11 11 12 12
REMARK SMILES IDX 13 13 8 14 3 15 4 16 5 17 7 18 6 19 2 20 1 21 21 22 22 23
REMARK SMILES IDX 23 24 24 26 25 27 26 28 87 29 27 30 86 31 28 32 29 33 30 34
REMARK SMILES IDX 80 35 31 36 85 37 79 38 81 39 32 40 84 41 78 42 77 43 33 45
REMARK SMILES IDX 65 46 45 47 64 48 46 49 49 50 63 51 82 52 47 53 48 54 62 56
REMARK SMILES IDX 83 57 50 58 34 59 35 60 43 61 36 62 42 63 44 64 41 65 37 66
REMARK SMILES IDX 38 67 39 68 40 69 66 70 67 71 75 72 68 73 74 74 76 75 73 76
REMARK SMILES IDX 69 77 70 78 71 79 72 80 51 81 52 82 60 83 53 84 59 85 61 86
REMARK SMILES IDX 58 87 54 88 55 89 56 90 57 91
REMARK H PARENT 18 6 22 25 81 44 49 55
REMARK Flexibility Score: inf
ROOT
ATOM      1  C   UNL A   1      33.205  29.081  24.175  1.00  0.00     0.042 C 
ENDROOT
BRANCH   1   2
ATOM      2  C   UNL A   1      32.324  28.768  22.973  1.00  0.00     0.117 C 
BRANCH   2   3
ATOM      3  N   UNL A   1      32.888  27.784  22.073  1.00  0.00    -0.356 N 
ATOM      4  C   UNL A   1      33.209  26.480  22.220  1.00  0.00     0.222 C 
ATOM      5  O   UNL A   1      33.499  25.877  21.176  1.00  0.00    -0.275 OA
ATOM      6  H   UNL A   1      33.076  28.135  21.173  1.00  0.00     0.163 HD
BRANCH   4   7
ATOM      7  C   UNL A   1      33.188  25.704  23.521  1.00  0.00     0.125 C 
BRANCH   7   8
ATOM      8  C   UNL A   1      31.978  24.976  24.136  1.00  0.00     0.100 C 
ATOM      9  N   UNL A   1      32.051  24.019  25.223  1.00  0.00    -0.305 N 
ATOM     10  C   UNL A   1      31.054  24.250  26.187  1.00  0.00     0.227 C 
ATOM     11  O   UNL A   1      30.883  23.674  27.252  1.00  0.00    -0.275 OA
ATOM     12  C   UNL A   1      30.199  25.404  25.751  1.00  0.00     0.103 C 
ATOM     13  C   UNL A   1      30.928  26.008  24.574  1.00  0.00     0.036 C 
BRANCH   9  14
ATOM     14  C   UNL A   1      32.752  22.771  25.157  1.00  0.00     0.086 A 
ATOM     15  C   UNL A   1      34.082  22.607  25.601  1.00  0.00     0.142 A 
ATOM     16  C   UNL A   1      34.770  21.399  25.403  1.00  0.00     0.048 A 
ATOM     17  C   UNL A   1      34.150  20.320  24.783  1.00  0.00     0.004 A 
ATOM     18  C   UNL A   1      32.159  21.661  24.544  1.00  0.00     0.030 A 
ATOM     19  C   UNL A   1      32.840  20.453  24.352  1.00  0.00     0.002 A 
BRANCH  15  20
ATOM     20  O   UNL A   1      34.825  23.586  26.208  1.00  0.00    -0.495 OA
ATOM     21  C   UNL A   1      35.895  24.053  25.396  1.00  0.00     0.278 C 
ENDBRANCH  15  20
ENDBRANCH   9  14
ENDBRANCH   7   8
ENDBRANCH   4   7
ENDBRANCH   2   3
ENDBRANCH   1   2
BRANCH   1  22
ATOM     22  C   UNL A   1      32.504  29.251  25.516  1.00  0.00     0.118 C 
BRANCH  22  23
ATOM     23  N   UNL A   1      32.354  30.642  25.890  1.00  0.00    -0.352 N 
ATOM     24  C   UNL A   1      32.963  31.389  26.869  1.00  0.00     0.251 C 
ATOM     25  H   UNL A   1      31.701  31.141  25.348  1.00  0.00     0.163 HD
ATOM     26  O   UNL A   1      32.476  32.489  27.129  1.00  0.00    -0.269 OA
BRANCH  24  27
ATOM     27  C   UNL A   1      34.154  30.918  27.627  1.00  0.00     0.039 A 
ATOM     28  C   UNL A   1      35.114  31.871  27.991  1.00  0.00     0.014 A 
ATOM     29  C   UNL A   1      34.403  29.571  27.905  1.00  0.00     0.014 A 
ATOM     30  C   UNL A   1      36.283  31.485  28.657  1.00  0.00     0.010 A 
ATOM     31  C   UNL A   1      35.535  29.196  28.642  1.00  0.00     0.010 A 
ATOM     32  C   UNL A   1      36.496  30.146  29.018  1.00  0.00    -0.014 A 
BRANCH  32  33
ATOM     33  C   UNL A   1      37.717  29.741  29.777  1.00  0.00     0.031 A 
ATOM     34  C   UNL A   1      37.946  30.237  31.184  1.00  0.00     0.074 A 
ATOM     35  C   UNL A   1      38.638  28.951  29.189  1.00  0.00     0.049 A 
ATOM     36  N   UNL A   1      38.962  30.020  31.982  1.00  0.00    -0.248 NA
ATOM     37  C   UNL A   1      36.908  31.103  31.764  1.00  0.00     0.031 C 
ATOM     38  C   UNL A   1      38.554  28.433  27.821  1.00  0.00     0.029 A 
ATOM     39  N   UNL A   1      39.831  28.451  29.655  1.00  0.00    -0.354 N 
ATOM     40  C   UNL A   1      38.699  30.739  33.145  1.00  0.00     0.074 A 
ATOM     41  C   UNL A   1      37.442  31.426  32.933  1.00  0.00     0.031 C 
ATOM     42  C   UNL A   1      39.633  27.678  27.567  1.00  0.00     0.029 A 
ATOM     43  C   UNL A   1      40.518  27.697  28.728  1.00  0.00     0.049 A 
ATOM     44  H   UNL A   1      40.164  28.615  30.566  1.00  0.00     0.167 HD
ATOM     45  C   UNL A   1      39.430  30.809  34.285  1.00  0.00     0.034 A 
ATOM     46  C   UNL A   1      41.731  27.110  28.790  1.00  0.00     0.034 A 
ATOM     47  C   UNL A   1      40.671  30.101  34.493  1.00  0.00     0.049 A 
ATOM     48  C   UNL A   1      42.532  27.221  30.067  1.00  0.00     0.074 A 
ATOM     49  C   UNL A   1      41.442  30.036  35.642  1.00  0.00     0.029 A 
ATOM     50  N   UNL A   1      41.335  29.351  33.531  1.00  0.00    -0.354 N 
ATOM     51  N   UNL A   1      42.225  27.841  31.183  1.00  0.00    -0.248 NA
ATOM     52  C   UNL A   1      43.836  26.545  30.095  1.00  0.00     0.031 C 
ATOM     53  C   UNL A   1      42.608  29.324  35.351  1.00  0.00     0.029 A 
ATOM     54  C   UNL A   1      42.527  28.861  34.047  1.00  0.00     0.049 A 
ATOM     55  H   UNL A   1      41.008  29.189  32.616  1.00  0.00     0.167 HD
ATOM     56  C   UNL A   1      43.285  27.600  32.054  1.00  0.00     0.074 A 
ATOM     57  C   UNL A   1      44.225  26.762  31.341  1.00  0.00     0.031 C 
ATOM     58  C   UNL A   1      43.464  28.031  33.328  1.00  0.00     0.034 A 
BRANCH  45  59
ATOM     59  C   UNL A   1      38.936  31.712  35.392  1.00  0.00     0.023 A 
ATOM     60  C   UNL A   1      38.314  31.208  36.548  1.00  0.00     0.031 A 
ATOM     61  C   UNL A   1      39.117  33.104  35.298  1.00  0.00     0.131 A 
ATOM     62  C   UNL A   1      37.853  32.090  37.538  1.00  0.00     0.055 A 
ATOM     63  C   UNL A   1      38.721  33.971  36.318  1.00  0.00     0.041 A 
ATOM     64  F   UNL A   1      39.687  33.646  34.211  1.00  0.00    -0.206 F 
ATOM     65  C   UNL A   1      38.076  33.467  37.442  1.00  0.00     0.022 A 
BRANCH  62  66
ATOM     66  S   UNL A   1      36.860  31.428  38.903  1.00  0.00     0.124 S 
ATOM     67  O   UNL A   1      37.774  31.577  40.034  1.00  0.00    -0.237 OA
ATOM     68  O   UNL A   1      35.695  32.306  38.903  1.00  0.00    -0.237 OA
ATOM     69  O   UNL A   1      36.600  30.048  38.501  1.00  0.00    -0.744 OA
ENDBRANCH  62  66
ENDBRANCH  45  59
BRANCH  46  70
ATOM     70  C   UNL A   1      42.296  26.397  27.606  1.00  0.00     0.023 A 
ATOM     71  C   UNL A   1      42.205  25.001  27.481  1.00  0.00     0.031 A 
ATOM     72  C   UNL A   1      43.007  27.097  26.613  1.00  0.00     0.131 A 
ATOM     73  C   UNL A   1      42.868  24.345  26.431  1.00  0.00     0.055 A 
ATOM     74  C   UNL A   1      43.605  26.447  25.532  1.00  0.00     0.041 A 
ATOM     75  F   UNL A   1      43.131  28.432  26.681  1.00  0.00    -0.206 F 
ATOM     76  C   UNL A   1      43.553  25.060  25.446  1.00  0.00     0.022 A 
BRANCH  73  77
ATOM     77  S   UNL A   1      42.927  22.532  26.438  1.00  0.00     0.124 S 
ATOM     78  O   UNL A   1      44.336  22.280  26.153  1.00  0.00    -0.237 OA
ATOM     79  O   UNL A   1      42.481  22.219  27.793  1.00  0.00    -0.237 OA
ATOM     80  O   UNL A   1      41.999  22.156  25.375  1.00  0.00    -0.744 OA
ENDBRANCH  73  77
ENDBRANCH  46  70
BRANCH  58  81
ATOM     81  C   UNL A   1      44.704  27.559  34.049  1.00  0.00     0.023 A 
ATOM     82  C   UNL A   1      44.730  26.355  34.776  1.00  0.00     0.031 A 
ATOM     83  C   UNL A   1      45.878  28.335  34.018  1.00  0.00     0.131 A 
ATOM     84  C   UNL A   1      45.884  25.992  35.489  1.00  0.00     0.055 A 
ATOM     85  C   UNL A   1      47.043  27.935  34.673  1.00  0.00     0.041 A 
ATOM     86  F   UNL A   1      45.912  29.496  33.345  1.00  0.00    -0.206 F 
ATOM     87  C   UNL A   1      47.046  26.765  35.425  1.00  0.00     0.022 A 
BRANCH  84  88
ATOM     88  S   UNL A   1      45.816  24.546  36.582  1.00  0.00     0.124 S 
ATOM     89  O   UNL A   1      46.159  25.127  37.876  1.00  0.00    -0.237 OA
ATOM     90  O   UNL A   1      44.434  24.103  36.429  1.00  0.00    -0.237 OA
ATOM     91  O   UNL A   1      46.821  23.644  36.022  1.00  0.00    -0.744 OA
ENDBRANCH  84  88
ENDBRANCH  58  81
ENDBRANCH  32  33
ENDBRANCH  24  27
ENDBRANCH  22  23
ENDBRANCH   1  22
TORSDOF 16
ENDMDL
MODEL 3
REMARK VINA RESULT:     -11.4      2.471      8.317
REMARK SMILES COc1ccccc1N1C(=O)CC[C@H]1CC(=O)NCCCNC(=O)c1ccc(-c2c3nc(c(-c4cc(S(=O)(=O)[O-])ccc4F)c4ccc([nH]4)c(-c4cc(S(=O)(=O)[O-])ccc4F)c4nc(c(-c5cc(S(=O)(=O)[O-])ccc5F)c5ccc2[nH]5)C=C4)C=C3)cc1
REMARK SMILES IDX 20 1 19 2 18 3 16 4 17 5 15 7 14 8 9 9 10 10 11 11 12 12
REMARK SMILES IDX 13 13 8 14 3 15 4 16 5 17 7 18 6 19 2 20 1 21 21 22 22 23
REMARK SMILES IDX 23 24 24 26 25 27 26 28 87 29 27 30 86 31 28 32 29 33 30 34
REMARK SMILES IDX 80 35 31 36 85 37 79 38 81 39 32 40 84 41 78 42 77 43 33 45
REMARK SMILES IDX 65 46 45 47 64 48 46 49 49 50 63 51 82 52 47 53 48 54 62 56
REMARK SMILES IDX 83 57 50 58 34 59 35 60 43 61 36 62 42 63 44 64 41 65 37 66
REMARK SMILES IDX 38 67 39 68 40 69 66 70 67 71 75 72 68 73 74 74 76 75 73 76
REMARK SMILES IDX 69 77 70 78 71 79 72 80 51 81 52 82 60 83 53 84 59 85 61 86
REMARK SMILES IDX 58 87 54 88 55 89 56 90 57 91
REMARK H PARENT 18 6 22 25 81 44 49 55
REMARK Flexibility Score: inf
ROOT
ATOM      1  C   UNL A   1      32.126  28.324  27.272  1.00  0.00     0.042 C 
ENDROOT
BRANCH   1   2
ATOM      2  C   UNL A   1      31.295  27.568  26.244  1.00  0.00     0.117 C 
BRANCH   2   3
ATOM      3  N   UNL A   1      31.252  26.138  26.462  1.00  0.00    -0.356 N 
ATOM      4  C   UNL A   1      32.193  25.171  26.412  1.00  0.00     0.222 C 
ATOM      5  O   UNL A   1      31.849  24.061  26.845  1.00  0.00    -0.275 OA
ATOM      6  H   UNL A   1      30.356  25.801  26.694  1.00  0.00     0.163 HD
BRANCH   4   7
ATOM      7  C   UNL A   1      33.620  25.347  25.930  1.00  0.00     0.125 C 
BRANCH   7   8
ATOM      8  C   UNL A   1      34.116  25.236  24.476  1.00  0.00     0.100 C 
ATOM      9  N   UNL A   1      34.183  24.004  23.715  1.00  0.00    -0.305 N 
ATOM     10  C   UNL A   1      33.686  24.171  22.410  1.00  0.00     0.227 C 
ATOM     11  O   UNL A   1      33.537  23.322  21.543  1.00  0.00    -0.275 OA
ATOM     12  C   UNL A   1      33.281  25.602  22.213  1.00  0.00     0.103 C 
ATOM     13  C   UNL A   1      33.334  26.217  23.591  1.00  0.00     0.036 C 
BRANCH   9  14
ATOM     14  C   UNL A   1      34.998  22.879  24.066  1.00  0.00     0.086 A 
ATOM     15  C   UNL A   1      34.468  21.658  24.538  1.00  0.00     0.142 A 
ATOM     16  C   UNL A   1      35.308  20.627  24.988  1.00  0.00     0.048 A 
ATOM     17  C   UNL A   1      36.691  20.772  24.958  1.00  0.00     0.004 A 
ATOM     18  C   UNL A   1      36.393  22.984  24.045  1.00  0.00     0.030 A 
ATOM     19  C   UNL A   1      37.234  21.955  24.485  1.00  0.00     0.002 A 
BRANCH  15  20
ATOM     20  O   UNL A   1      33.130  21.380  24.644  1.00  0.00    -0.495 OA
ATOM     21  C   UNL A   1      32.872  20.058  25.098  1.00  0.00     0.278 C 
ENDBRANCH  15  20
ENDBRANCH   9  14
ENDBRANCH   7   8
ENDBRANCH   4   7
ENDBRANCH   2   3
ENDBRANCH   1   2
BRANCH   1  22
ATOM     22  C   UNL A   1      33.416  28.963  26.778  1.00  0.00     0.118 C 
BRANCH  22  23
ATOM     23  N   UNL A   1      33.491  30.376  27.091  1.00  0.00    -0.352 N 
ATOM     24  C   UNL A   1      34.393  31.093  27.839  1.00  0.00     0.251 C 
ATOM     25  H   UNL A   1      32.769  30.917  26.699  1.00  0.00     0.163 HD
ATOM     26  O   UNL A   1      34.088  32.246  28.144  1.00  0.00    -0.269 OA
BRANCH  24  27
ATOM     27  C   UNL A   1      35.691  30.531  28.303  1.00  0.00     0.039 A 
ATOM     28  C   UNL A   1      35.700  29.822  29.512  1.00  0.00     0.014 A 
ATOM     29  C   UNL A   1      36.904  30.759  27.648  1.00  0.00     0.014 A 
ATOM     30  C   UNL A   1      36.897  29.315  30.031  1.00  0.00     0.010 A 
ATOM     31  C   UNL A   1      38.089  30.183  28.127  1.00  0.00     0.010 A 
ATOM     32  C   UNL A   1      38.103  29.464  29.330  1.00  0.00    -0.014 A 
BRANCH  32  33
ATOM     33  C   UNL A   1      39.371  28.875  29.856  1.00  0.00     0.031 A 
ATOM     34  C   UNL A   1      40.033  29.448  31.086  1.00  0.00     0.074 A 
ATOM     35  C   UNL A   1      39.948  27.842  29.208  1.00  0.00     0.049 A 
ATOM     36  N   UNL A   1      41.153  29.091  31.665  1.00  0.00    -0.248 NA
ATOM     37  C   UNL A   1      39.359  30.580  31.740  1.00  0.00     0.031 C 
ATOM     38  C   UNL A   1      39.429  27.219  27.987  1.00  0.00     0.029 A 
ATOM     39  N   UNL A   1      41.098  27.137  29.471  1.00  0.00    -0.354 N 
ATOM     40  C   UNL A   1      41.329  29.966  32.734  1.00  0.00     0.074 A 
ATOM     41  C   UNL A   1      40.217  30.893  32.700  1.00  0.00     0.031 C 
ATOM     42  C   UNL A   1      40.245  26.219  27.621  1.00  0.00     0.029 A 
ATOM     43  C   UNL A   1      41.375  26.157  28.542  1.00  0.00     0.049 A 
ATOM     44  H   UNL A   1      41.672  27.314  30.252  1.00  0.00     0.167 HD
ATOM     45  C   UNL A   1      42.319  29.987  33.661  1.00  0.00     0.034 A 
ATOM     46  C   UNL A   1      42.428  25.322  28.426  1.00  0.00     0.034 A 
ATOM     47  C   UNL A   1      43.411  29.042  33.697  1.00  0.00     0.049 A 
ATOM     48  C   UNL A   1      43.525  25.381  29.464  1.00  0.00     0.074 A 
ATOM     49  C   UNL A   1      44.414  28.924  34.645  1.00  0.00     0.029 A 
ATOM     50  N   UNL A   1      43.658  28.068  32.740  1.00  0.00    -0.354 N 
ATOM     51  N   UNL A   1      43.630  26.164  30.513  1.00  0.00    -0.248 NA
ATOM     52  C   UNL A   1      44.639  24.435  29.308  1.00  0.00     0.031 C 
ATOM     53  C   UNL A   1      45.311  27.942  34.217  1.00  0.00     0.029 A 
ATOM     54  C   UNL A   1      44.822  27.378  33.050  1.00  0.00     0.049 A 
ATOM     55  H   UNL A   1      43.090  27.891  31.954  1.00  0.00     0.167 HD
ATOM     56  C   UNL A   1      44.804  25.782  31.156  1.00  0.00     0.074 A 
ATOM     57  C   UNL A   1      45.359  24.685  30.390  1.00  0.00     0.031 C 
ATOM     58  C   UNL A   1      45.373  26.290  32.279  1.00  0.00     0.034 A 
BRANCH  45  59
ATOM     59  C   UNL A   1      42.298  31.086  34.699  1.00  0.00     0.023 A 
ATOM     60  C   UNL A   1      42.903  32.335  34.479  1.00  0.00     0.031 A 
ATOM     61  C   UNL A   1      41.633  30.884  35.922  1.00  0.00     0.131 A 
ATOM     62  C   UNL A   1      42.875  33.315  35.484  1.00  0.00     0.055 A 
ATOM     63  C   UNL A   1      41.545  31.887  36.890  1.00  0.00     0.041 A 
ATOM     64  F   UNL A   1      41.052  29.706  36.198  1.00  0.00    -0.206 F 
ATOM     65  C   UNL A   1      42.177  33.108  36.677  1.00  0.00     0.022 A 
BRANCH  62  66
ATOM     66  S   UNL A   1      43.853  34.825  35.260  1.00  0.00     0.124 S 
ATOM     67  O   UNL A   1      43.562  35.553  36.492  1.00  0.00    -0.237 OA
ATOM     68  O   UNL A   1      45.210  34.307  35.129  1.00  0.00    -0.237 OA
ATOM     69  O   UNL A   1      43.294  35.420  34.048  1.00  0.00    -0.744 OA
ENDBRANCH  62  66
ENDBRANCH  45  59
BRANCH  46  70
ATOM     70  C   UNL A   1      42.534  24.382  27.270  1.00  0.00     0.023 A 
ATOM     71  C   UNL A   1      41.951  23.105  27.310  1.00  0.00     0.031 A 
ATOM     72  C   UNL A   1      43.289  24.721  26.132  1.00  0.00     0.131 A 
ATOM     73  C   UNL A   1      42.187  22.193  26.269  1.00  0.00     0.055 A 
ATOM     74  C   UNL A   1      43.462  23.836  25.066  1.00  0.00     0.041 A 
ATOM     75  F   UNL A   1      43.872  25.926  26.037  1.00  0.00    -0.206 F 
ATOM     76  C   UNL A   1      42.924  22.555  25.140  1.00  0.00     0.022 A 
BRANCH  73  77
ATOM     77  S   UNL A   1      41.620  20.481  26.468  1.00  0.00     0.124 S 
ATOM     78  O   UNL A   1      42.369  19.797  25.420  1.00  0.00    -0.237 OA
ATOM     79  O   UNL A   1      42.021  20.186  27.840  1.00  0.00    -0.237 OA
ATOM     80  O   UNL A   1      40.178  20.571  26.247  1.00  0.00    -0.744 OA
ENDBRANCH  73  77
ENDBRANCH  46  70
BRANCH  58  81
ATOM     81  C   UNL A   1      46.637  25.627  32.773  1.00  0.00     0.023 A 
ATOM     82  C   UNL A   1      47.896  25.919  32.221  1.00  0.00     0.031 A 
ATOM     83  C   UNL A   1      46.575  24.675  33.809  1.00  0.00     0.131 A 
ATOM     84  C   UNL A   1      49.033  25.226  32.665  1.00  0.00     0.055 A 
ATOM     85  C   UNL A   1      47.719  24.038  34.292  1.00  0.00     0.041 A 
ATOM     86  F   UNL A   1      45.401  24.351  34.371  1.00  0.00    -0.206 F 
ATOM     87  C   UNL A   1      48.955  24.302  33.710  1.00  0.00     0.022 A 
BRANCH  84  88
ATOM     88  S   UNL A   1      50.604  25.474  31.791  1.00  0.00     0.124 S 
ATOM     89  O   UNL A   1      51.581  25.254  32.853  1.00  0.00    -0.237 OA
ATOM     90  O   UNL A   1      50.549  24.449  30.753  1.00  0.00    -0.237 OA
ATOM     91  O   UNL A   1      50.514  26.850  31.307  1.00  0.00    -0.744 OA
ENDBRANCH  84  88
ENDBRANCH  58  81
ENDBRANCH  32  33
ENDBRANCH  24  27
ENDBRANCH  22  23
ENDBRANCH   1  22
TORSDOF 16
ENDMDL
