MODEL 1
REMARK VINA RESULT:     -13.8      0.000      0.000
REMARK SMILES C[C@H](C(=O)NCCCNC(=O)c1ccc(-c2c3nc(c(-c4cc(S(=O)(=O)[O-])ccc4F)c4ccc([nH]4)c(-c4cc(S(=O)(=O)[O-])ccc4F)c4nc(c(-c5cc(S(=O)(=O)[O-])ccc5F)c5ccc2[nH]5)C=C4)C=C3)cc1)n1ccc2c(cnc3nc(C4CCCCC4)nn32)c1=O
REMARK SMILES IDX 7 1 6 2 5 3 3 4 4 5 2 7 1 8 75 9 76 10 93 11 77 12 79 13
REMARK SMILES IDX 94 14 78 15 80 16 92 17 81 18 82 19 91 20 83 21 84 22 85 23
REMARK SMILES IDX 86 24 90 25 87 26 89 27 88 28 8 29 9 30 10 31 11 33 12 34
REMARK SMILES IDX 13 35 74 36 14 37 73 38 15 39 16 40 17 41 67 42 18 43 72 44
REMARK SMILES IDX 66 45 68 46 19 47 71 48 65 49 64 50 20 52 52 53 32 54 51 55
REMARK SMILES IDX 33 56 36 57 50 58 69 59 34 60 35 61 49 63 70 64 37 65 21 66
REMARK SMILES IDX 22 67 30 68 23 69 29 70 31 71 28 72 24 73 25 74 26 75 27 76
REMARK SMILES IDX 53 77 54 78 62 79 55 80 61 81 63 82 60 83 56 84 57 85 58 86
REMARK SMILES IDX 59 87 38 88 39 89 47 90 40 91 46 92 48 93 45 94 41 95 42 96
REMARK SMILES IDX 43 97 44 98
REMARK H PARENT 5 6 9 32 68 51 36 62
REMARK Flexibility Score: inf
ROOT
ATOM      1  C   UNL A   1      32.363  29.874  25.370  1.00  0.00     0.042 C 
ENDROOT
BRANCH   1   2
ATOM      2  C   UNL A   1      31.022  29.860  24.649  1.00  0.00     0.117 C 
BRANCH   2   3
ATOM      3  N   UNL A   1      31.089  29.189  23.365  1.00  0.00    -0.354 N 
ATOM      4  C   UNL A   1      30.723  27.924  23.000  1.00  0.00     0.242 C 
ATOM      5  O   UNL A   1      30.647  27.712  21.785  1.00  0.00    -0.273 OA
ATOM      6  H   UNL A   1      31.461  29.735  22.636  1.00  0.00     0.163 HD
BRANCH   4   7
ATOM      7  C   UNL A   1      30.198  26.897  24.039  1.00  0.00     0.176 C 
ATOM      8  C   UNL A   1      28.697  26.641  23.869  1.00  0.00     0.042 C 
BRANCH   7   9
ATOM      9  N   UNL A   1      30.957  25.630  24.107  1.00  0.00    -0.303 N 
ATOM     10  C   UNL A   1      30.556  24.565  23.313  1.00  0.00     0.092 A 
ATOM     11  C   UNL A   1      32.117  25.571  24.891  1.00  0.00     0.262 A 
ATOM     12  C   UNL A   1      31.188  23.389  23.355  1.00  0.00     0.047 A 
ATOM     13  C   UNL A   1      32.795  24.248  24.942  1.00  0.00     0.084 A 
ATOM     14  O   UNL A   1      32.553  26.513  25.544  1.00  0.00    -0.269 OA
ATOM     15  C   UNL A   1      32.322  23.206  24.236  1.00  0.00     0.084 A 
ATOM     16  C   UNL A   1      33.978  23.960  25.799  1.00  0.00     0.131 A 
ATOM     17  N   UNL A   1      32.905  21.950  24.412  1.00  0.00    -0.196 N 
ATOM     18  N   UNL A   1      34.546  22.801  25.959  1.00  0.00    -0.219 NA
ATOM     19  C   UNL A   1      33.972  21.753  25.294  1.00  0.00     0.252 A 
ATOM     20  N   UNL A   1      32.531  20.767  23.873  1.00  0.00    -0.149 NA
ATOM     21  N   UNL A   1      34.220  20.464  25.374  1.00  0.00    -0.194 NA
ATOM     22  C   UNL A   1      33.296  19.897  24.541  1.00  0.00     0.156 A 
BRANCH  22  23
ATOM     23  C   UNL A   1      33.121  18.411  24.427  1.00  0.00     0.060 C 
ATOM     24  C   UNL A   1      34.410  17.724  23.928  1.00  0.00     0.012 C 
ATOM     25  C   UNL A   1      32.647  17.800  25.753  1.00  0.00     0.012 C 
ATOM     26  C   UNL A   1      34.279  16.206  23.868  1.00  0.00     0.001 C 
ATOM     27  C   UNL A   1      32.531  16.278  25.674  1.00  0.00     0.001 C 
ATOM     28  C   UNL A   1      33.834  15.637  25.210  1.00  0.00     0.000 C 
ENDBRANCH  22  23
ENDBRANCH   7   9
ENDBRANCH   4   7
ENDBRANCH   2   3
ENDBRANCH   1   2
BRANCH   1  29
ATOM     29  C   UNL A   1      32.278  30.381  26.806  1.00  0.00     0.118 C 
BRANCH  29  30
ATOM     30  N   UNL A   1      32.168  31.833  26.877  1.00  0.00    -0.352 N 
ATOM     31  C   UNL A   1      32.982  32.738  27.515  1.00  0.00     0.251 C 
ATOM     32  H   UNL A   1      31.400  32.220  26.399  1.00  0.00     0.163 HD
ATOM     33  O   UNL A   1      32.614  33.904  27.631  1.00  0.00    -0.269 OA
BRANCH  31  34
ATOM     34  C   UNL A   1      34.278  32.301  28.074  1.00  0.00     0.039 A 
ATOM     35  C   UNL A   1      35.376  33.165  28.017  1.00  0.00     0.014 A 
ATOM     36  C   UNL A   1      34.410  31.039  28.657  1.00  0.00     0.014 A 
ATOM     37  C   UNL A   1      36.586  32.791  28.608  1.00  0.00     0.010 A 
ATOM     38  C   UNL A   1      35.589  30.698  29.309  1.00  0.00     0.010 A 
ATOM     39  C   UNL A   1      36.691  31.569  29.290  1.00  0.00    -0.014 A 
BRANCH  39  40
ATOM     40  C   UNL A   1      37.940  31.147  29.978  1.00  0.00     0.031 A 
ATOM     41  C   UNL A   1      38.822  30.116  29.332  1.00  0.00     0.074 A 
ATOM     42  C   UNL A   1      38.212  31.590  31.220  1.00  0.00     0.049 A 
ATOM     43  N   UNL A   1      39.823  29.442  29.836  1.00  0.00    -0.248 NA
ATOM     44  C   UNL A   1      38.496  29.766  27.942  1.00  0.00     0.031 C 
ATOM     45  C   UNL A   1      37.414  32.567  31.962  1.00  0.00     0.029 A 
ATOM     46  N   UNL A   1      39.215  31.248  32.091  1.00  0.00    -0.354 N 
ATOM     47  C   UNL A   1      40.226  28.562  28.837  1.00  0.00     0.074 A 
ATOM     48  C   UNL A   1      39.318  28.753  27.724  1.00  0.00     0.031 C 
ATOM     49  C   UNL A   1      37.953  32.739  33.180  1.00  0.00     0.029 A 
ATOM     50  C   UNL A   1      39.100  31.847  33.324  1.00  0.00     0.049 A 
ATOM     51  H   UNL A   1      39.946  30.633  31.856  1.00  0.00     0.167 HD
ATOM     52  C   UNL A   1      41.265  27.690  28.843  1.00  0.00     0.034 A 
ATOM     53  C   UNL A   1      39.813  31.672  34.455  1.00  0.00     0.034 A 
ATOM     54  C   UNL A   1      42.160  27.526  29.962  1.00  0.00     0.049 A 
ATOM     55  C   UNL A   1      40.952  30.685  34.456  1.00  0.00     0.074 A 
ATOM     56  C   UNL A   1      43.276  26.714  30.065  1.00  0.00     0.029 A 
ATOM     57  N   UNL A   1      42.037  28.184  31.181  1.00  0.00    -0.354 N 
ATOM     58  N   UNL A   1      41.347  29.879  33.496  1.00  0.00    -0.248 NA
ATOM     59  C   UNL A   1      41.747  30.588  35.687  1.00  0.00     0.031 C 
ATOM     60  C   UNL A   1      43.787  26.831  31.363  1.00  0.00     0.029 A 
ATOM     61  C   UNL A   1      43.039  27.777  32.048  1.00  0.00     0.049 A 
ATOM     62  H   UNL A   1      41.339  28.843  31.397  1.00  0.00     0.167 HD
ATOM     63  C   UNL A   1      42.457  29.206  33.997  1.00  0.00     0.074 A 
ATOM     64  C   UNL A   1      42.667  29.696  35.343  1.00  0.00     0.031 C 
ATOM     65  C   UNL A   1      43.238  28.275  33.391  1.00  0.00     0.034 A 
BRANCH  52  66
ATOM     66  C   UNL A   1      41.446  26.826  27.615  1.00  0.00     0.023 A 
ATOM     67  C   UNL A   1      41.017  25.487  27.585  1.00  0.00     0.031 A 
ATOM     68  C   UNL A   1      42.123  27.321  26.485  1.00  0.00     0.131 A 
ATOM     69  C   UNL A   1      41.368  24.661  26.507  1.00  0.00     0.055 A 
ATOM     70  C   UNL A   1      42.379  26.519  25.369  1.00  0.00     0.041 A 
ATOM     71  F   UNL A   1      42.573  28.584  26.456  1.00  0.00    -0.206 F 
ATOM     72  C   UNL A   1      42.024  25.174  25.386  1.00  0.00     0.022 A 
BRANCH  69  73
ATOM     73  S   UNL A   1      41.137  22.869  26.684  1.00  0.00     0.124 S 
ATOM     74  O   UNL A   1      41.679  22.633  28.021  1.00  0.00    -0.237 OA
ATOM     75  O   UNL A   1      39.693  22.723  26.546  1.00  0.00    -0.237 OA
ATOM     76  O   UNL A   1      41.931  22.311  25.592  1.00  0.00    -0.744 OA
ENDBRANCH  69  73
ENDBRANCH  52  66
BRANCH  53  77
ATOM     77  C   UNL A   1      39.448  32.429  35.684  1.00  0.00     0.023 A 
ATOM     78  C   UNL A   1      38.573  31.888  36.638  1.00  0.00     0.031 A 
ATOM     79  C   UNL A   1      39.988  33.705  35.929  1.00  0.00     0.131 A 
ATOM     80  C   UNL A   1      38.245  32.630  37.784  1.00  0.00     0.055 A 
ATOM     81  C   UNL A   1      39.695  34.419  37.091  1.00  0.00     0.041 A 
ATOM     82  F   UNL A   1      40.833  34.262  35.046  1.00  0.00    -0.206 F 
ATOM     83  C   UNL A   1      38.810  33.885  38.023  1.00  0.00     0.022 A 
BRANCH  80  84
ATOM     84  S   UNL A   1      37.030  31.945  38.944  1.00  0.00     0.124 S 
ATOM     85  O   UNL A   1      35.831  32.703  38.604  1.00  0.00    -0.237 OA
ATOM     86  O   UNL A   1      37.021  30.532  38.578  1.00  0.00    -0.237 OA
ATOM     87  O   UNL A   1      37.605  32.242  40.255  1.00  0.00    -0.744 OA
ENDBRANCH  80  84
ENDBRANCH  53  77
BRANCH  65  88
ATOM     88  C   UNL A   1      44.440  27.776  34.152  1.00  0.00     0.023 A 
ATOM     89  C   UNL A   1      44.396  26.616  34.944  1.00  0.00     0.031 A 
ATOM     90  C   UNL A   1      45.662  28.465  34.050  1.00  0.00     0.131 A 
ATOM     91  C   UNL A   1      45.549  26.196  35.628  1.00  0.00     0.055 A 
ATOM     92  C   UNL A   1      46.815  28.015  34.692  1.00  0.00     0.041 A 
ATOM     93  F   UNL A   1      45.757  29.579  33.308  1.00  0.00    -0.206 F 
ATOM     94  C   UNL A   1      46.762  26.878  35.492  1.00  0.00     0.022 A 
BRANCH  91  95
ATOM     95  S   UNL A   1      45.437  24.769  36.744  1.00  0.00     0.124 S 
ATOM     96  O   UNL A   1      44.116  24.951  37.337  1.00  0.00    -0.237 OA
ATOM     97  O   UNL A   1      45.576  23.642  35.828  1.00  0.00    -0.237 OA
ATOM     98  O   UNL A   1      46.559  24.962  37.661  1.00  0.00    -0.744 OA
ENDBRANCH  91  95
ENDBRANCH  65  88
ENDBRANCH  39  40
ENDBRANCH  31  34
ENDBRANCH  29  30
ENDBRANCH   1  29
TORSDOF 15
ENDMDL
MODEL 2
REMARK VINA RESULT:     -13.1      2.180      7.680
REMARK SMILES C[C@H](C(=O)NCCCNC(=O)c1ccc(-c2c3nc(c(-c4cc(S(=O)(=O)[O-])ccc4F)c4ccc([nH]4)c(-c4cc(S(=O)(=O)[O-])ccc4F)c4nc(c(-c5cc(S(=O)(=O)[O-])ccc5F)c5ccc2[nH]5)C=C4)C=C3)cc1)n1ccc2c(cnc3nc(C4CCCCC4)nn32)c1=O
REMARK SMILES IDX 7 1 6 2 5 3 3 4 4 5 2 7 1 8 75 9 76 10 93 11 77 12 79 13
REMARK SMILES IDX 94 14 78 15 80 16 92 17 81 18 82 19 91 20 83 21 84 22 85 23
REMARK SMILES IDX 86 24 90 25 87 26 89 27 88 28 8 29 9 30 10 31 11 33 12 34
REMARK SMILES IDX 13 35 74 36 14 37 73 38 15 39 16 40 17 41 67 42 18 43 72 44
REMARK SMILES IDX 66 45 68 46 19 47 71 48 65 49 64 50 20 52 52 53 32 54 51 55
REMARK SMILES IDX 33 56 36 57 50 58 69 59 34 60 35 61 49 63 70 64 37 65 21 66
REMARK SMILES IDX 22 67 30 68 23 69 29 70 31 71 28 72 24 73 25 74 26 75 27 76
REMARK SMILES IDX 53 77 54 78 62 79 55 80 61 81 63 82 60 83 56 84 57 85 58 86
REMARK SMILES IDX 59 87 38 88 39 89 47 90 40 91 46 92 48 93 45 94 41 95 42 96
REMARK SMILES IDX 43 97 44 98
REMARK H PARENT 5 6 9 32 68 51 36 62
REMARK Flexibility Score: inf
ROOT
ATOM      1  C   UNL A   1      33.232  28.446  25.203  1.00  0.00     0.042 C 
ENDROOT
BRANCH   1   2
ATOM      2  C   UNL A   1      32.112  29.443  24.939  1.00  0.00     0.117 C 
BRANCH   2   3
ATOM      3  N   UNL A   1      31.561  29.320  23.604  1.00  0.00    -0.354 N 
ATOM      4  C   UNL A   1      30.564  28.519  23.122  1.00  0.00     0.242 C 
ATOM      5  O   UNL A   1      30.126  28.814  22.004  1.00  0.00    -0.273 OA
ATOM      6  H   UNL A   1      31.974  29.910  22.933  1.00  0.00     0.163 HD
BRANCH   4   7
ATOM      7  C   UNL A   1      29.861  27.465  24.018  1.00  0.00     0.176 C 
ATOM      8  C   UNL A   1      28.450  27.146  23.513  1.00  0.00     0.042 C 
BRANCH   7   9
ATOM      9  N   UNL A   1      30.639  26.231  24.263  1.00  0.00    -0.303 N 
ATOM     10  C   UNL A   1      31.251  25.601  23.189  1.00  0.00     0.092 A 
ATOM     11  C   UNL A   1      30.820  25.789  25.580  1.00  0.00     0.262 A 
ATOM     12  C   UNL A   1      31.942  24.470  23.348  1.00  0.00     0.047 A 
ATOM     13  C   UNL A   1      31.574  24.516  25.736  1.00  0.00     0.084 A 
ATOM     14  O   UNL A   1      30.366  26.360  26.565  1.00  0.00    -0.269 OA
ATOM     15  C   UNL A   1      32.071  23.877  24.662  1.00  0.00     0.084 A 
ATOM     16  C   UNL A   1      31.781  23.834  27.043  1.00  0.00     0.131 A 
ATOM     17  N   UNL A   1      32.657  22.621  24.835  1.00  0.00    -0.196 N 
ATOM     18  N   UNL A   1      32.341  22.674  27.223  1.00  0.00    -0.219 NA
ATOM     19  C   UNL A   1      32.745  22.020  26.094  1.00  0.00     0.252 A 
ATOM     20  N   UNL A   1      33.134  21.780  23.889  1.00  0.00    -0.149 NA
ATOM     21  N   UNL A   1      33.198  20.794  25.943  1.00  0.00    -0.194 NA
ATOM     22  C   UNL A   1      33.372  20.668  24.593  1.00  0.00     0.156 A 
BRANCH  22  23
ATOM     23  C   UNL A   1      33.750  19.367  23.949  1.00  0.00     0.060 C 
ATOM     24  C   UNL A   1      34.474  18.431  24.940  1.00  0.00     0.012 C 
ATOM     25  C   UNL A   1      32.529  18.675  23.326  1.00  0.00     0.012 C 
ATOM     26  C   UNL A   1      34.810  17.076  24.328  1.00  0.00     0.001 C 
ATOM     27  C   UNL A   1      32.885  17.315  22.727  1.00  0.00     0.001 C 
ATOM     28  C   UNL A   1      33.568  16.410  23.747  1.00  0.00     0.000 C 
ENDBRANCH  22  23
ENDBRANCH   7   9
ENDBRANCH   4   7
ENDBRANCH   2   3
ENDBRANCH   1   2
BRANCH   1  29
ATOM     29  C   UNL A   1      34.310  28.973  26.143  1.00  0.00     0.118 C 
BRANCH  29  30
ATOM     30  N   UNL A   1      34.021  30.321  26.617  1.00  0.00    -0.352 N 
ATOM     31  C   UNL A   1      34.616  31.035  27.631  1.00  0.00     0.251 C 
ATOM     32  H   UNL A   1      33.295  30.787  26.144  1.00  0.00     0.163 HD
ATOM     33  O   UNL A   1      34.101  32.080  28.017  1.00  0.00    -0.269 OA
BRANCH  31  34
ATOM     34  C   UNL A   1      35.854  30.531  28.262  1.00  0.00     0.039 A 
ATOM     35  C   UNL A   1      35.768  29.779  29.438  1.00  0.00     0.014 A 
ATOM     36  C   UNL A   1      37.101  30.800  27.693  1.00  0.00     0.014 A 
ATOM     37  C   UNL A   1      36.925  29.236  30.002  1.00  0.00     0.010 A 
ATOM     38  C   UNL A   1      38.242  30.199  28.212  1.00  0.00     0.010 A 
ATOM     39  C   UNL A   1      38.167  29.412  29.373  1.00  0.00    -0.014 A 
BRANCH  39  40
ATOM     40  C   UNL A   1      39.420  28.814  29.906  1.00  0.00     0.031 A 
ATOM     41  C   UNL A   1      40.136  29.495  31.038  1.00  0.00     0.074 A 
ATOM     42  C   UNL A   1      39.971  27.746  29.299  1.00  0.00     0.049 A 
ATOM     43  N   UNL A   1      41.338  29.287  31.509  1.00  0.00    -0.248 NA
ATOM     44  C   UNL A   1      39.411  30.593  31.694  1.00  0.00     0.031 C 
ATOM     45  C   UNL A   1      39.386  27.019  28.172  1.00  0.00     0.029 A 
ATOM     46  N   UNL A   1      41.166  27.109  29.523  1.00  0.00    -0.354 N 
ATOM     47  C   UNL A   1      41.529  30.251  32.493  1.00  0.00     0.074 A 
ATOM     48  C   UNL A   1      40.338  31.076  32.504  1.00  0.00     0.031 C 
ATOM     49  C   UNL A   1      40.227  26.041  27.797  1.00  0.00     0.029 A 
ATOM     50  C   UNL A   1      41.432  26.107  28.619  1.00  0.00     0.049 A 
ATOM     51  H   UNL A   1      41.775  27.348  30.258  1.00  0.00     0.167 HD
ATOM     52  C   UNL A   1      42.591  30.420  33.321  1.00  0.00     0.034 A 
ATOM     53  C   UNL A   1      42.534  25.350  28.447  1.00  0.00     0.034 A 
ATOM     54  C   UNL A   1      43.762  29.577  33.295  1.00  0.00     0.049 A 
ATOM     55  C   UNL A   1      43.716  25.560  29.359  1.00  0.00     0.074 A 
ATOM     56  C   UNL A   1      44.874  29.618  34.117  1.00  0.00     0.029 A 
ATOM     57  N   UNL A   1      43.976  28.541  32.392  1.00  0.00    -0.354 N 
ATOM     58  N   UNL A   1      43.875  26.453  30.310  1.00  0.00    -0.248 NA
ATOM     59  C   UNL A   1      44.861  24.658  29.182  1.00  0.00     0.031 C 
ATOM     60  C   UNL A   1      45.787  28.654  33.670  1.00  0.00     0.029 A 
ATOM     61  C   UNL A   1      45.211  27.955  32.620  1.00  0.00     0.049 A 
ATOM     62  H   UNL A   1      43.342  28.264  31.692  1.00  0.00     0.167 HD
ATOM     63  C   UNL A   1      45.125  26.196  30.866  1.00  0.00     0.074 A 
ATOM     64  C   UNL A   1      45.678  25.069  30.143  1.00  0.00     0.031 C 
ATOM     65  C   UNL A   1      45.751  26.830  31.891  1.00  0.00     0.034 A 
BRANCH  52  66
ATOM     66  C   UNL A   1      42.536  31.585  34.283  1.00  0.00     0.023 A 
ATOM     67  C   UNL A   1      41.766  31.534  35.459  1.00  0.00     0.031 A 
ATOM     68  C   UNL A   1      43.199  32.790  33.987  1.00  0.00     0.131 A 
ATOM     69  C   UNL A   1      41.583  32.692  36.229  1.00  0.00     0.055 A 
ATOM     70  C   UNL A   1      43.096  33.911  34.815  1.00  0.00     0.041 A 
ATOM     71  F   UNL A   1      43.936  32.910  32.872  1.00  0.00    -0.206 F 
ATOM     72  C   UNL A   1      42.265  33.874  35.930  1.00  0.00     0.022 A 
BRANCH  69  73
ATOM     73  S   UNL A   1      40.289  32.686  37.501  1.00  0.00     0.124 S 
ATOM     74  O   UNL A   1      39.790  34.057  37.420  1.00  0.00    -0.237 OA
ATOM     75  O   UNL A   1      39.383  31.647  37.023  1.00  0.00    -0.237 OA
ATOM     76  O   UNL A   1      41.015  32.368  38.729  1.00  0.00    -0.744 OA
ENDBRANCH  69  73
ENDBRANCH  52  66
BRANCH  53  77
ATOM     77  C   UNL A   1      42.578  24.345  27.348  1.00  0.00     0.023 A 
ATOM     78  C   UNL A   1      42.006  23.073  27.503  1.00  0.00     0.031 A 
ATOM     79  C   UNL A   1      43.180  24.655  26.115  1.00  0.00     0.131 A 
ATOM     80  C   UNL A   1      42.068  22.147  26.450  1.00  0.00     0.055 A 
ATOM     81  C   UNL A   1      43.199  23.748  25.055  1.00  0.00     0.041 A 
ATOM     82  F   UNL A   1      43.736  25.861  25.919  1.00  0.00    -0.206 F 
ATOM     83  C   UNL A   1      42.648  22.480  25.223  1.00  0.00     0.022 A 
BRANCH  80  84
ATOM     84  S   UNL A   1      41.412  20.478  26.721  1.00  0.00     0.124 S 
ATOM     85  O   UNL A   1      41.650  19.850  25.425  1.00  0.00    -0.237 OA
ATOM     86  O   UNL A   1      42.239  20.000  27.825  1.00  0.00    -0.237 OA
ATOM     87  O   UNL A   1      40.008  20.711  27.053  1.00  0.00    -0.744 OA
ENDBRANCH  80  84
ENDBRANCH  53  77
BRANCH  65  88
ATOM     88  C   UNL A   1      47.078  26.274  32.343  1.00  0.00     0.023 A 
ATOM     89  C   UNL A   1      47.174  25.265  33.316  1.00  0.00     0.031 A 
ATOM     90  C   UNL A   1      48.266  26.747  31.757  1.00  0.00     0.131 A 
ATOM     91  C   UNL A   1      48.438  24.782  33.696  1.00  0.00     0.055 A 
ATOM     92  C   UNL A   1      49.513  26.229  32.103  1.00  0.00     0.041 A 
ATOM     93  F   UNL A   1      48.230  27.712  30.824  1.00  0.00    -0.206 F 
ATOM     94  C   UNL A   1      49.605  25.245  33.082  1.00  0.00     0.022 A 
BRANCH  91  95
ATOM     95  S   UNL A   1      48.546  23.571  35.043  1.00  0.00     0.124 S 
ATOM     96  O   UNL A   1      49.383  22.533  34.451  1.00  0.00    -0.237 OA
ATOM     97  O   UNL A   1      49.156  24.349  36.116  1.00  0.00    -0.237 OA
ATOM     98  O   UNL A   1      47.153  23.187  35.272  1.00  0.00    -0.744 OA
ENDBRANCH  91  95
ENDBRANCH  65  88
ENDBRANCH  39  40
ENDBRANCH  31  34
ENDBRANCH  29  30
ENDBRANCH   1  29
TORSDOF 15
ENDMDL
MODEL 3
REMARK VINA RESULT:     -12.9      5.731     11.154
REMARK SMILES C[C@H](C(=O)NCCCNC(=O)c1ccc(-c2c3nc(c(-c4cc(S(=O)(=O)[O-])ccc4F)c4ccc([nH]4)c(-c4cc(S(=O)(=O)[O-])ccc4F)c4nc(c(-c5cc(S(=O)(=O)[O-])ccc5F)c5ccc2[nH]5)C=C4)C=C3)cc1)n1ccc2c(cnc3nc(C4CCCCC4)nn32)c1=O
REMARK SMILES IDX 7 1 6 2 5 3 3 4 4 5 2 7 1 8 75 9 76 10 93 11 77 12 79 13
REMARK SMILES IDX 94 14 78 15 80 16 92 17 81 18 82 19 91 20 83 21 84 22 85 23
REMARK SMILES IDX 86 24 90 25 87 26 89 27 88 28 8 29 9 30 10 31 11 33 12 34
REMARK SMILES IDX 13 35 74 36 14 37 73 38 15 39 16 40 17 41 67 42 18 43 72 44
REMARK SMILES IDX 66 45 68 46 19 47 71 48 65 49 64 50 20 52 52 53 32 54 51 55
REMARK SMILES IDX 33 56 36 57 50 58 69 59 34 60 35 61 49 63 70 64 37 65 21 66
REMARK SMILES IDX 22 67 30 68 23 69 29 70 31 71 28 72 24 73 25 74 26 75 27 76
REMARK SMILES IDX 53 77 54 78 62 79 55 80 61 81 63 82 60 83 56 84 57 85 58 86
REMARK SMILES IDX 59 87 38 88 39 89 47 90 40 91 46 92 48 93 45 94 41 95 42 96
REMARK SMILES IDX 43 97 44 98
REMARK H PARENT 5 6 9 32 68 51 36 62
REMARK Flexibility Score: inf
ROOT
ATOM      1  C   UNL A   1      37.809  21.142  24.809  1.00  0.00     0.042 C 
ENDROOT
BRANCH   1   2
ATOM      2  C   UNL A   1      36.384  20.647  25.017  1.00  0.00     0.117 C 
BRANCH   2   3
ATOM      3  N   UNL A   1      35.767  21.210  26.201  1.00  0.00    -0.354 N 
ATOM      4  C   UNL A   1      34.541  21.788  26.379  1.00  0.00     0.242 C 
ATOM      5  O   UNL A   1      34.179  21.938  27.552  1.00  0.00    -0.273 OA
ATOM      6  H   UNL A   1      36.324  21.171  27.012  1.00  0.00     0.163 HD
BRANCH   4   7
ATOM      7  C   UNL A   1      33.567  22.012  25.192  1.00  0.00     0.176 C 
ATOM      8  C   UNL A   1      32.421  20.996  25.205  1.00  0.00     0.042 C 
BRANCH   7   9
ATOM      9  N   UNL A   1      33.062  23.394  25.048  1.00  0.00    -0.303 N 
ATOM     10  C   UNL A   1      31.692  23.613  25.072  1.00  0.00     0.092 A 
ATOM     11  C   UNL A   1      33.978  24.453  24.993  1.00  0.00     0.262 A 
ATOM     12  C   UNL A   1      31.180  24.836  24.919  1.00  0.00     0.047 A 
ATOM     13  C   UNL A   1      33.390  25.806  24.801  1.00  0.00     0.084 A 
ATOM     14  O   UNL A   1      35.195  24.313  25.051  1.00  0.00    -0.269 OA
ATOM     15  C   UNL A   1      32.057  25.972  24.729  1.00  0.00     0.084 A 
ATOM     16  C   UNL A   1      34.203  27.040  24.616  1.00  0.00     0.131 A 
ATOM     17  N   UNL A   1      31.550  27.234  24.417  1.00  0.00    -0.196 N 
ATOM     18  N   UNL A   1      33.745  28.227  24.344  1.00  0.00    -0.219 NA
ATOM     19  C   UNL A   1      32.391  28.327  24.187  1.00  0.00     0.252 A 
ATOM     20  N   UNL A   1      30.262  27.594  24.211  1.00  0.00    -0.149 NA
ATOM     21  N   UNL A   1      31.661  29.339  23.770  1.00  0.00    -0.194 NA
ATOM     22  C   UNL A   1      30.388  28.842  23.748  1.00  0.00     0.156 A 
BRANCH  22  23
ATOM     23  C   UNL A   1      29.230  29.622  23.198  1.00  0.00     0.060 C 
ATOM     24  C   UNL A   1      29.097  31.001  23.880  1.00  0.00     0.012 C 
ATOM     25  C   UNL A   1      29.329  29.768  21.672  1.00  0.00     0.012 C 
ATOM     26  C   UNL A   1      27.969  31.840  23.291  1.00  0.00     0.001 C 
ATOM     27  C   UNL A   1      28.194  30.620  21.104  1.00  0.00     0.001 C 
ATOM     28  C   UNL A   1      28.118  31.983  21.781  1.00  0.00     0.000 C 
ENDBRANCH  22  23
ENDBRANCH   7   9
ENDBRANCH   4   7
ENDBRANCH   2   3
ENDBRANCH   1   2
BRANCH   1  29
ATOM     29  C   UNL A   1      38.681  21.031  26.055  1.00  0.00     0.118 C 
BRANCH  29  30
ATOM     30  N   UNL A   1      39.616  19.915  25.980  1.00  0.00    -0.352 N 
ATOM     31  C   UNL A   1      40.990  19.924  26.025  1.00  0.00     0.251 C 
ATOM     32  H   UNL A   1      39.203  19.027  25.882  1.00  0.00     0.163 HD
ATOM     33  O   UNL A   1      41.610  18.902  25.743  1.00  0.00    -0.269 OA
BRANCH  31  34
ATOM     34  C   UNL A   1      41.710  21.163  26.389  1.00  0.00     0.039 A 
ATOM     35  C   UNL A   1      42.014  22.097  25.394  1.00  0.00     0.014 A 
ATOM     36  C   UNL A   1      42.084  21.402  27.713  1.00  0.00     0.014 A 
ATOM     37  C   UNL A   1      42.629  23.303  25.739  1.00  0.00     0.010 A 
ATOM     38  C   UNL A   1      42.627  22.632  28.066  1.00  0.00     0.010 A 
ATOM     39  C   UNL A   1      42.907  23.596  27.082  1.00  0.00    -0.014 A 
BRANCH  39  40
ATOM     40  C   UNL A   1      43.515  24.885  27.506  1.00  0.00     0.031 A 
ATOM     41  C   UNL A   1      42.626  25.978  28.031  1.00  0.00     0.074 A 
ATOM     42  C   UNL A   1      44.826  25.114  27.305  1.00  0.00     0.049 A 
ATOM     43  N   UNL A   1      42.896  27.240  28.246  1.00  0.00    -0.248 NA
ATOM     44  C   UNL A   1      41.232  25.603  28.303  1.00  0.00     0.031 C 
ATOM     45  C   UNL A   1      45.782  24.142  26.773  1.00  0.00     0.029 A 
ATOM     46  N   UNL A   1      45.573  26.250  27.491  1.00  0.00    -0.354 N 
ATOM     47  C   UNL A   1      41.696  27.818  28.646  1.00  0.00     0.074 A 
ATOM     48  C   UNL A   1      40.690  26.777  28.583  1.00  0.00     0.031 C 
ATOM     49  C   UNL A   1      46.986  24.726  26.666  1.00  0.00     0.029 A 
ATOM     50  C   UNL A   1      46.877  26.125  27.070  1.00  0.00     0.049 A 
ATOM     51  H   UNL A   1      45.211  27.076  27.885  1.00  0.00     0.167 HD
ATOM     52  C   UNL A   1      41.460  29.094  29.042  1.00  0.00     0.034 A 
ATOM     53  C   UNL A   1      47.863  27.040  26.984  1.00  0.00     0.034 A 
ATOM     54  C   UNL A   1      42.482  30.111  29.105  1.00  0.00     0.049 A 
ATOM     55  C   UNL A   1      47.584  28.459  27.408  1.00  0.00     0.074 A 
ATOM     56  C   UNL A   1      42.375  31.420  29.539  1.00  0.00     0.029 A 
ATOM     57  N   UNL A   1      43.804  29.933  28.711  1.00  0.00    -0.354 N 
ATOM     58  N   UNL A   1      46.454  28.990  27.816  1.00  0.00    -0.248 NA
ATOM     59  C   UNL A   1      48.712  29.399  27.370  1.00  0.00     0.031 C 
ATOM     60  C   UNL A   1      43.610  32.050  29.348  1.00  0.00     0.029 A 
ATOM     61  C   UNL A   1      44.513  31.114  28.868  1.00  0.00     0.049 A 
ATOM     62  H   UNL A   1      44.182  29.091  28.369  1.00  0.00     0.167 HD
ATOM     63  C   UNL A   1      46.744  30.318  28.114  1.00  0.00     0.074 A 
ATOM     64  C   UNL A   1      48.153  30.507  27.837  1.00  0.00     0.031 C 
ATOM     65  C   UNL A   1      45.921  31.288  28.587  1.00  0.00     0.034 A 
BRANCH  52  66
ATOM     66  C   UNL A   1      40.034  29.454  29.394  1.00  0.00     0.023 A 
ATOM     67  C   UNL A   1      39.618  29.599  30.730  1.00  0.00     0.031 A 
ATOM     68  C   UNL A   1      39.058  29.579  28.388  1.00  0.00     0.131 A 
ATOM     69  C   UNL A   1      38.255  29.743  31.029  1.00  0.00     0.055 A 
ATOM     70  C   UNL A   1      37.716  29.826  28.690  1.00  0.00     0.041 A 
ATOM     71  F   UNL A   1      39.386  29.434  27.095  1.00  0.00    -0.206 F 
ATOM     72  C   UNL A   1      37.304  29.885  30.017  1.00  0.00     0.022 A 
BRANCH  69  73
ATOM     73  S   UNL A   1      37.726  29.538  32.753  1.00  0.00     0.124 S 
ATOM     74  O   UNL A   1      38.870  30.085  33.480  1.00  0.00    -0.237 OA
ATOM     75  O   UNL A   1      36.501  30.329  32.803  1.00  0.00    -0.237 OA
ATOM     76  O   UNL A   1      37.545  28.094  32.888  1.00  0.00    -0.744 OA
ENDBRANCH  69  73
ENDBRANCH  52  66
BRANCH  53  77
ATOM     77  C   UNL A   1      49.195  26.644  26.446  1.00  0.00     0.023 A 
ATOM     78  C   UNL A   1      49.637  27.097  25.194  1.00  0.00     0.031 A 
ATOM     79  C   UNL A   1      50.053  25.816  27.192  1.00  0.00     0.131 A 
ATOM     80  C   UNL A   1      50.895  26.701  24.714  1.00  0.00     0.055 A 
ATOM     81  C   UNL A   1      51.321  25.462  26.731  1.00  0.00     0.041 A 
ATOM     82  F   UNL A   1      49.674  25.361  28.397  1.00  0.00    -0.206 F 
ATOM     83  C   UNL A   1      51.746  25.898  25.479  1.00  0.00     0.022 A 
BRANCH  80  84
ATOM     84  S   UNL A   1      51.393  27.220  23.048  1.00  0.00     0.124 S 
ATOM     85  O   UNL A   1      50.223  26.849  22.258  1.00  0.00    -0.237 OA
ATOM     86  O   UNL A   1      51.617  28.650  23.228  1.00  0.00    -0.237 OA
ATOM     87  O   UNL A   1      52.596  26.431  22.789  1.00  0.00    -0.744 OA
ENDBRANCH  80  84
ENDBRANCH  53  77
BRANCH  65  88
ATOM     88  C   UNL A   1      46.537  32.627  28.906  1.00  0.00     0.023 A 
ATOM     89  C   UNL A   1      46.524  33.695  27.992  1.00  0.00     0.031 A 
ATOM     90  C   UNL A   1      47.120  32.841  30.169  1.00  0.00     0.131 A 
ATOM     91  C   UNL A   1      47.110  34.922  28.346  1.00  0.00     0.055 A 
ATOM     92  C   UNL A   1      47.656  34.076  30.531  1.00  0.00     0.041 A 
ATOM     93  F   UNL A   1      47.160  31.854  31.078  1.00  0.00    -0.206 F 
ATOM     94  C   UNL A   1      47.660  35.123  29.616  1.00  0.00     0.022 A 
BRANCH  91  95
ATOM     95  S   UNL A   1      47.194  36.244  27.107  1.00  0.00     0.124 S 
ATOM     96  O   UNL A   1      45.821  36.286  26.614  1.00  0.00    -0.237 OA
ATOM     97  O   UNL A   1      47.623  37.391  27.900  1.00  0.00    -0.237 OA
ATOM     98  O   UNL A   1      48.182  35.753  26.147  1.00  0.00    -0.744 OA
ENDBRANCH  91  95
ENDBRANCH  65  88
ENDBRANCH  39  40
ENDBRANCH  31  34
ENDBRANCH  29  30
ENDBRANCH   1  29
TORSDOF 15
ENDMDL
