MODEL 1
REMARK VINA RESULT:     -12.1      0.000      0.000
REMARK SMILES Cc1ccc(S(=O)(=O)Nc2cc3c(cc2C(=O)NCCCNC(=O)c2ccc(-c4c5nc(c(-c6cc(S(=O)(=O)[O-])ccc6F)c6ccc([nH]6)c(-c6cc(S(=O)(=O)[O-])ccc6F)c6nc(c(-c7cc(S(=O)(=O)[O-])ccc7F)c7ccc4[nH]7)C=C6)C=C5)cc2)OCCO3)s1
REMARK SMILES IDX 20 1 19 2 18 3 16 4 17 5 15 7 10 8 11 9 12 10 14 11 13 12
REMARK SMILES IDX 91 13 88 14 90 15 89 16 9 17 6 19 7 20 8 21 5 22 1 23 2 24
REMARK SMILES IDX 3 25 92 26 4 27 21 28 22 29 23 30 24 32 25 33 26 34 87 35
REMARK SMILES IDX 27 36 86 37 28 38 29 39 30 40 80 41 31 42 85 43 79 44 81 45
REMARK SMILES IDX 32 46 84 47 78 48 77 49 33 51 65 52 45 53 64 54 46 55 49 56
REMARK SMILES IDX 63 57 82 58 47 59 48 60 62 62 83 63 50 64 34 65 35 66 43 67
REMARK SMILES IDX 36 68 42 69 44 70 41 71 37 72 38 73 39 74 40 75 66 76 67 77
REMARK SMILES IDX 75 78 68 79 74 80 76 81 73 82 69 83 70 84 71 85 72 86 51 87
REMARK SMILES IDX 52 88 60 89 53 90 59 91 61 92 58 93 54 94 55 95 56 96 57 97
REMARK H PARENT 18 6 9 18 22 31 81 50 49 61
REMARK Flexibility Score: inf
ROOT
ATOM      1  C   UNL A   1      31.774  29.076  26.479  1.00  0.00     0.042 C 
ENDROOT
BRANCH   1   2
ATOM      2  C   UNL A   1      32.361  27.733  26.890  1.00  0.00     0.118 C 
BRANCH   2   3
ATOM      3  N   UNL A   1      31.416  26.624  26.854  1.00  0.00    -0.352 N 
ATOM      4  C   UNL A   1      31.431  25.350  26.337  1.00  0.00     0.253 C 
ATOM      5  O   UNL A   1      30.461  24.640  26.601  1.00  0.00    -0.269 OA
ATOM      6  H   UNL A   1      30.568  26.837  27.305  1.00  0.00     0.163 HD
BRANCH   4   7
ATOM      7  C   UNL A   1      32.533  24.810  25.490  1.00  0.00     0.067 A 
ATOM      8  C   UNL A   1      32.433  24.821  24.077  1.00  0.00     0.066 A 
ATOM      9  C   UNL A   1      33.477  24.317  23.288  1.00  0.00     0.078 A 
ATOM     10  C   UNL A   1      34.629  23.820  23.893  1.00  0.00     0.163 A 
ATOM     11  C   UNL A   1      33.656  24.211  26.071  1.00  0.00     0.066 A 
ATOM     12  C   UNL A   1      34.723  23.790  25.283  1.00  0.00     0.162 A 
ATOM     13  O   UNL A   1      35.629  23.377  23.065  1.00  0.00    -0.486 OA
ATOM     14  O   UNL A   1      35.840  23.358  25.952  1.00  0.00    -0.486 OA
ATOM     15  C   UNL A   1      36.642  22.660  23.786  1.00  0.00     0.271 C 
ATOM     16  C   UNL A   1      36.982  23.367  25.087  1.00  0.00     0.271 C 
BRANCH   8  17
ATOM     17  N   UNL A   1      31.264  25.328  23.421  1.00  0.00    -0.278 N 
ATOM     18  H   UNL A   1      30.409  24.842  23.468  1.00  0.00     0.180 HD
BRANCH  17  19
ATOM     19  S   UNL A   1      31.382  26.779  22.568  1.00  0.00     0.271 S 
ATOM     20  O   UNL A   1      31.472  26.451  21.166  1.00  0.00    -0.200 OA
ATOM     21  O   UNL A   1      32.432  27.555  23.207  1.00  0.00    -0.200 OA
BRANCH  19  22
ATOM     22  C   UNL A   1      29.904  27.732  22.837  1.00  0.00     0.140 A 
ATOM     23  C   UNL A   1      27.696  30.975  22.900  1.00  0.00     0.056 C 
ATOM     24  C   UNL A   1      28.320  29.622  22.956  1.00  0.00     0.003 A 
ATOM     25  C   UNL A   1      27.792  28.469  23.498  1.00  0.00     0.016 A 
ATOM     26  S   UNL A   1      29.891  29.360  22.325  1.00  0.00    -0.127 S 
ATOM     27  C   UNL A   1      28.703  27.381  23.428  1.00  0.00     0.034 A 
ENDBRANCH  19  22
ENDBRANCH  17  19
ENDBRANCH   8  17
ENDBRANCH   4   7
ENDBRANCH   2   3
ENDBRANCH   1   2
BRANCH   1  28
ATOM     28  C   UNL A   1      32.756  30.042  25.833  1.00  0.00     0.118 C 
BRANCH  28  29
ATOM     29  N   UNL A   1      32.512  31.427  26.212  1.00  0.00    -0.352 N 
ATOM     30  C   UNL A   1      33.072  32.219  27.183  1.00  0.00     0.251 C 
ATOM     31  H   UNL A   1      31.821  31.875  25.673  1.00  0.00     0.163 HD
ATOM     32  O   UNL A   1      32.511  33.274  27.471  1.00  0.00    -0.269 OA
BRANCH  30  33
ATOM     33  C   UNL A   1      34.310  31.826  27.896  1.00  0.00     0.039 A 
ATOM     34  C   UNL A   1      35.384  32.725  27.929  1.00  0.00     0.014 A 
ATOM     35  C   UNL A   1      34.463  30.558  28.459  1.00  0.00     0.014 A 
ATOM     36  C   UNL A   1      36.576  32.375  28.573  1.00  0.00     0.010 A 
ATOM     37  C   UNL A   1      35.616  30.243  29.176  1.00  0.00     0.010 A 
ATOM     38  C   UNL A   1      36.692  31.141  29.230  1.00  0.00    -0.014 A 
BRANCH  38  39
ATOM     39  C   UNL A   1      37.934  30.752  29.950  1.00  0.00     0.031 A 
ATOM     40  C   UNL A   1      38.891  29.769  29.325  1.00  0.00     0.074 A 
ATOM     41  C   UNL A   1      38.152  31.200  31.201  1.00  0.00     0.049 A 
ATOM     42  N   UNL A   1      39.949  29.197  29.840  1.00  0.00    -0.248 NA
ATOM     43  C   UNL A   1      38.584  29.344  27.953  1.00  0.00     0.031 C 
ATOM     44  C   UNL A   1      37.271  32.107  31.939  1.00  0.00     0.029 A 
ATOM     45  N   UNL A   1      39.168  30.933  32.083  1.00  0.00    -0.354 N 
ATOM     46  C   UNL A   1      40.415  28.318  28.867  1.00  0.00     0.074 A 
ATOM     47  C   UNL A   1      39.484  28.392  27.761  1.00  0.00     0.031 C 
ATOM     48  C   UNL A   1      37.785  32.321  33.160  1.00  0.00     0.029 A 
ATOM     49  C   UNL A   1      39.009  31.539  33.307  1.00  0.00     0.049 A 
ATOM     50  H   UNL A   1      39.940  30.363  31.861  1.00  0.00     0.167 HD
ATOM     51  C   UNL A   1      41.527  27.538  28.884  1.00  0.00     0.034 A 
ATOM     52  C   UNL A   1      39.749  31.459  34.429  1.00  0.00     0.034 A 
ATOM     53  C   UNL A   1      42.458  27.497  29.987  1.00  0.00     0.049 A 
ATOM     54  C   UNL A   1      40.994  30.613  34.425  1.00  0.00     0.074 A 
ATOM     55  C   UNL A   1      43.657  26.813  30.082  1.00  0.00     0.029 A 
ATOM     56  N   UNL A   1      42.289  28.166  31.194  1.00  0.00    -0.354 N 
ATOM     57  N   UNL A   1      41.459  29.835  33.475  1.00  0.00    -0.248 NA
ATOM     58  C   UNL A   1      41.821  30.648  35.637  1.00  0.00     0.031 C 
ATOM     59  C   UNL A   1      44.182  27.020  31.365  1.00  0.00     0.029 A 
ATOM     60  C   UNL A   1      43.345  27.888  32.049  1.00  0.00     0.049 A 
ATOM     61  H   UNL A   1      41.528  28.753  31.411  1.00  0.00     0.167 HD
ATOM     62  C   UNL A   1      42.643  29.298  33.970  1.00  0.00     0.074 A 
ATOM     63  C   UNL A   1      42.828  29.856  35.296  1.00  0.00     0.031 C 
ATOM     64  C   UNL A   1      43.502  28.429  33.379  1.00  0.00     0.034 A 
BRANCH  51  65
ATOM     65  C   UNL A   1      41.767  26.653  27.681  1.00  0.00     0.023 A 
ATOM     66  C   UNL A   1      41.440  25.285  27.693  1.00  0.00     0.031 A 
ATOM     67  C   UNL A   1      42.394  27.164  26.531  1.00  0.00     0.131 A 
ATOM     68  C   UNL A   1      41.842  24.456  26.635  1.00  0.00     0.055 A 
ATOM     69  C   UNL A   1      42.705  26.351  25.437  1.00  0.00     0.041 A 
ATOM     70  F   UNL A   1      42.745  28.457  26.459  1.00  0.00    -0.206 F 
ATOM     71  C   UNL A   1      42.450  24.984  25.495  1.00  0.00     0.022 A 
BRANCH  68  72
ATOM     72  S   UNL A   1      41.732  22.659  26.859  1.00  0.00     0.124 S 
ATOM     73  O   UNL A   1      40.469  22.529  27.583  1.00  0.00    -0.237 OA
ATOM     74  O   UNL A   1      41.735  22.170  25.485  1.00  0.00    -0.237 OA
ATOM     75  O   UNL A   1      42.923  22.338  27.642  1.00  0.00    -0.744 OA
ENDBRANCH  68  72
ENDBRANCH  51  65
BRANCH  52  76
ATOM     76  C   UNL A   1      39.319  32.190  35.652  1.00  0.00     0.023 A 
ATOM     77  C   UNL A   1      38.523  31.571  36.627  1.00  0.00     0.031 A 
ATOM     78  C   UNL A   1      39.715  33.522  35.865  1.00  0.00     0.131 A 
ATOM     79  C   UNL A   1      38.126  32.292  37.764  1.00  0.00     0.055 A 
ATOM     80  C   UNL A   1      39.349  34.224  37.015  1.00  0.00     0.041 A 
ATOM     81  F   UNL A   1      40.492  34.151  34.968  1.00  0.00    -0.206 F 
ATOM     82  C   UNL A   1      38.543  33.610  37.969  1.00  0.00     0.022 A 
BRANCH  79  83
ATOM     83  S   UNL A   1      37.031  31.490  38.965  1.00  0.00     0.124 S 
ATOM     84  O   UNL A   1      35.840  32.330  38.890  1.00  0.00    -0.237 OA
ATOM     85  O   UNL A   1      36.904  30.146  38.411  1.00  0.00    -0.237 OA
ATOM     86  O   UNL A   1      37.779  31.576  40.218  1.00  0.00    -0.744 OA
ENDBRANCH  79  83
ENDBRANCH  52  76
BRANCH  64  87
ATOM     87  C   UNL A   1      44.735  28.052  34.162  1.00  0.00     0.023 A 
ATOM     88  C   UNL A   1      44.721  27.006  35.101  1.00  0.00     0.031 A 
ATOM     89  C   UNL A   1      45.935  28.761  33.976  1.00  0.00     0.131 A 
ATOM     90  C   UNL A   1      45.871  26.729  35.855  1.00  0.00     0.055 A 
ATOM     91  C   UNL A   1      47.092  28.445  34.691  1.00  0.00     0.041 A 
ATOM     92  F   UNL A   1      46.003  29.771  33.095  1.00  0.00    -0.206 F 
ATOM     93  C   UNL A   1      47.060  27.432  35.645  1.00  0.00     0.022 A 
BRANCH  90  94
ATOM     94  S   UNL A   1      45.771  25.490  37.176  1.00  0.00     0.124 S 
ATOM     95  O   UNL A   1      44.470  25.785  37.769  1.00  0.00    -0.237 OA
ATOM     96  O   UNL A   1      45.865  24.236  36.436  1.00  0.00    -0.237 OA
ATOM     97  O   UNL A   1      46.922  25.796  38.023  1.00  0.00    -0.744 OA
ENDBRANCH  90  94
ENDBRANCH  64  87
ENDBRANCH  38  39
ENDBRANCH  30  33
ENDBRANCH  28  29
ENDBRANCH   1  28
TORSDOF 16
ENDMDL
MODEL 2
REMARK VINA RESULT:     -11.9      6.171     11.022
REMARK SMILES Cc1ccc(S(=O)(=O)Nc2cc3c(cc2C(=O)NCCCNC(=O)c2ccc(-c4c5nc(c(-c6cc(S(=O)(=O)[O-])ccc6F)c6ccc([nH]6)c(-c6cc(S(=O)(=O)[O-])ccc6F)c6nc(c(-c7cc(S(=O)(=O)[O-])ccc7F)c7ccc4[nH]7)C=C6)C=C5)cc2)OCCO3)s1
REMARK SMILES IDX 20 1 19 2 18 3 16 4 17 5 15 7 10 8 11 9 12 10 14 11 13 12
REMARK SMILES IDX 91 13 88 14 90 15 89 16 9 17 6 19 7 20 8 21 5 22 1 23 2 24
REMARK SMILES IDX 3 25 92 26 4 27 21 28 22 29 23 30 24 32 25 33 26 34 87 35
REMARK SMILES IDX 27 36 86 37 28 38 29 39 30 40 80 41 31 42 85 43 79 44 81 45
REMARK SMILES IDX 32 46 84 47 78 48 77 49 33 51 65 52 45 53 64 54 46 55 49 56
REMARK SMILES IDX 63 57 82 58 47 59 48 60 62 62 83 63 50 64 34 65 35 66 43 67
REMARK SMILES IDX 36 68 42 69 44 70 41 71 37 72 38 73 39 74 40 75 66 76 67 77
REMARK SMILES IDX 75 78 68 79 74 80 76 81 73 82 69 83 70 84 71 85 72 86 51 87
REMARK SMILES IDX 52 88 60 89 53 90 59 91 61 92 58 93 54 94 55 95 56 96 57 97
REMARK H PARENT 18 6 9 18 22 31 81 50 49 61
REMARK Flexibility Score: inf
ROOT
ATOM      1  C   UNL A   1      38.332  20.060  24.996  1.00  0.00     0.042 C 
ENDROOT
BRANCH   1   2
ATOM      2  C   UNL A   1      37.359  21.220  24.837  1.00  0.00     0.118 C 
BRANCH   2   3
ATOM      3  N   UNL A   1      36.449  21.402  25.961  1.00  0.00    -0.352 N 
ATOM      4  C   UNL A   1      35.267  22.078  26.156  1.00  0.00     0.253 C 
ATOM      5  O   UNL A   1      34.713  21.911  27.242  1.00  0.00    -0.269 OA
ATOM      6  H   UNL A   1      36.751  20.931  26.771  1.00  0.00     0.163 HD
BRANCH   4   7
ATOM      7  C   UNL A   1      34.650  22.982  25.143  1.00  0.00     0.067 A 
ATOM      8  C   UNL A   1      34.053  22.457  23.972  1.00  0.00     0.066 A 
ATOM      9  C   UNL A   1      33.468  23.315  23.028  1.00  0.00     0.078 A 
ATOM     10  C   UNL A   1      33.457  24.690  23.250  1.00  0.00     0.163 A 
ATOM     11  C   UNL A   1      34.715  24.372  25.290  1.00  0.00     0.066 A 
ATOM     12  C   UNL A   1      34.062  25.211  24.393  1.00  0.00     0.162 A 
ATOM     13  O   UNL A   1      32.838  25.471  22.308  1.00  0.00    -0.486 OA
ATOM     14  O   UNL A   1      34.053  26.547  24.704  1.00  0.00    -0.486 OA
ATOM     15  C   UNL A   1      33.110  26.866  22.506  1.00  0.00     0.271 C 
ATOM     16  C   UNL A   1      33.022  27.229  23.979  1.00  0.00     0.271 C 
BRANCH   8  17
ATOM     17  N   UNL A   1      34.042  21.048  23.712  1.00  0.00    -0.278 N 
ATOM     18  H   UNL A   1      34.869  20.576  23.461  1.00  0.00     0.180 HD
BRANCH  17  19
ATOM     19  S   UNL A   1      32.583  20.211  23.850  1.00  0.00     0.271 S 
ATOM     20  O   UNL A   1      31.825  20.462  22.649  1.00  0.00    -0.200 OA
ATOM     21  O   UNL A   1      32.029  20.550  25.151  1.00  0.00    -0.200 OA
BRANCH  19  22
ATOM     22  C   UNL A   1      32.922  18.467  23.957  1.00  0.00     0.140 A 
ATOM     23  C   UNL A   1      32.956  14.923  25.638  1.00  0.00     0.056 C 
ATOM     24  C   UNL A   1      33.052  16.150  24.797  1.00  0.00     0.003 A 
ATOM     25  C   UNL A   1      33.726  16.307  23.604  1.00  0.00     0.016 A 
ATOM     26  S   UNL A   1      32.295  17.606  25.289  1.00  0.00    -0.127 S 
ATOM     27  C   UNL A   1      33.649  17.640  23.120  1.00  0.00     0.034 A 
ENDBRANCH  19  22
ENDBRANCH  17  19
ENDBRANCH   8  17
ENDBRANCH   4   7
ENDBRANCH   2   3
ENDBRANCH   1   2
BRANCH   1  28
ATOM     28  C   UNL A   1      39.243  20.141  26.212  1.00  0.00     0.118 C 
BRANCH  28  29
ATOM     29  N   UNL A   1      40.423  19.297  26.086  1.00  0.00    -0.352 N 
ATOM     30  C   UNL A   1      41.759  19.602  26.008  1.00  0.00     0.251 C 
ATOM     31  H   UNL A   1      40.226  18.332  26.051  1.00  0.00     0.163 HD
ATOM     32  O   UNL A   1      42.540  18.724  25.645  1.00  0.00    -0.269 OA
BRANCH  30  33
ATOM     33  C   UNL A   1      42.273  20.955  26.330  1.00  0.00     0.039 A 
ATOM     34  C   UNL A   1      42.612  21.250  27.657  1.00  0.00     0.014 A 
ATOM     35  C   UNL A   1      42.347  21.961  25.365  1.00  0.00     0.014 A 
ATOM     36  C   UNL A   1      43.076  22.525  27.998  1.00  0.00     0.010 A 
ATOM     37  C   UNL A   1      42.892  23.203  25.687  1.00  0.00     0.010 A 
ATOM     38  C   UNL A   1      43.250  23.505  27.009  1.00  0.00    -0.014 A 
BRANCH  38  39
ATOM     39  C   UNL A   1      43.771  24.860  27.333  1.00  0.00     0.031 A 
ATOM     40  C   UNL A   1      42.843  25.915  27.876  1.00  0.00     0.074 A 
ATOM     41  C   UNL A   1      45.050  25.172  27.049  1.00  0.00     0.049 A 
ATOM     42  N   UNL A   1      43.063  27.187  28.090  1.00  0.00    -0.248 NA
ATOM     43  C   UNL A   1      41.470  25.484  28.172  1.00  0.00     0.031 C 
ATOM     44  C   UNL A   1      46.034  24.258  26.466  1.00  0.00     0.029 A 
ATOM     45  N   UNL A   1      45.735  26.353  27.185  1.00  0.00    -0.354 N 
ATOM     46  C   UNL A   1      41.847  27.716  28.514  1.00  0.00     0.074 A 
ATOM     47  C   UNL A   1      40.885  26.636  28.463  1.00  0.00     0.031 C 
ATOM     48  C   UNL A   1      47.194  24.910  26.296  1.00  0.00     0.029 A 
ATOM     49  C   UNL A   1      47.028  26.297  26.720  1.00  0.00     0.049 A 
ATOM     50  H   UNL A   1      45.340  27.164  27.581  1.00  0.00     0.167 HD
ATOM     51  C   UNL A   1      41.565  28.978  28.928  1.00  0.00     0.034 A 
ATOM     52  C   UNL A   1      47.968  27.256  26.625  1.00  0.00     0.034 A 
ATOM     53  C   UNL A   1      42.545  30.036  28.996  1.00  0.00     0.049 A 
ATOM     54  C   UNL A   1      47.650  28.644  27.113  1.00  0.00     0.074 A 
ATOM     55  C   UNL A   1      42.395  31.325  29.476  1.00  0.00     0.029 A 
ATOM     56  N   UNL A   1      43.862  29.927  28.562  1.00  0.00    -0.354 N 
ATOM     57  N   UNL A   1      46.514  29.116  27.571  1.00  0.00    -0.248 NA
ATOM     58  C   UNL A   1      48.745  29.621  27.086  1.00  0.00     0.031 C 
ATOM     59  C   UNL A   1      43.600  32.012  29.279  1.00  0.00     0.029 A 
ATOM     60  C   UNL A   1      44.525  31.133  28.736  1.00  0.00     0.049 A 
ATOM     61  H   UNL A   1      44.265  29.112  28.185  1.00  0.00     0.167 HD
ATOM     62  C   UNL A   1      46.762  30.444  27.902  1.00  0.00     0.074 A 
ATOM     63  C   UNL A   1      48.160  30.691  27.606  1.00  0.00     0.031 C 
ATOM     64  C   UNL A   1      45.912  31.373  28.412  1.00  0.00     0.034 A 
BRANCH  51  65
ATOM     65  C   UNL A   1      40.130  29.274  29.308  1.00  0.00     0.023 A 
ATOM     66  C   UNL A   1      39.722  29.349  30.651  1.00  0.00     0.031 A 
ATOM     67  C   UNL A   1      39.143  29.415  28.317  1.00  0.00     0.131 A 
ATOM     68  C   UNL A   1      38.359  29.442  30.968  1.00  0.00     0.055 A 
ATOM     69  C   UNL A   1      37.796  29.606  28.639  1.00  0.00     0.041 A 
ATOM     70  F   UNL A   1      39.463  29.340  27.016  1.00  0.00    -0.206 F 
ATOM     71  C   UNL A   1      37.394  29.596  29.971  1.00  0.00     0.022 A 
BRANCH  68  72
ATOM     72  S   UNL A   1      37.854  29.162  32.689  1.00  0.00     0.124 S 
ATOM     73  O   UNL A   1      37.789  27.704  32.743  1.00  0.00    -0.237 OA
ATOM     74  O   UNL A   1      38.939  29.783  33.440  1.00  0.00    -0.237 OA
ATOM     75  O   UNL A   1      36.562  29.838  32.781  1.00  0.00    -0.744 OA
ENDBRANCH  68  72
ENDBRANCH  51  65
BRANCH  52  76
ATOM     76  C   UNL A   1      49.293  26.935  26.027  1.00  0.00     0.023 A 
ATOM     77  C   UNL A   1      49.621  27.343  24.725  1.00  0.00     0.031 A 
ATOM     78  C   UNL A   1      50.256  26.223  26.763  1.00  0.00     0.131 A 
ATOM     79  C   UNL A   1      50.875  27.015  24.188  1.00  0.00     0.055 A 
ATOM     80  C   UNL A   1      51.516  25.931  26.237  1.00  0.00     0.041 A 
ATOM     81  F   UNL A   1      49.994  25.827  28.019  1.00  0.00    -0.206 F 
ATOM     82  C   UNL A   1      51.828  26.322  24.939  1.00  0.00     0.022 A 
BRANCH  79  83
ATOM     83  S   UNL A   1      51.238  27.486  22.475  1.00  0.00     0.124 S 
ATOM     84  O   UNL A   1      52.623  27.049  22.333  1.00  0.00    -0.237 OA
ATOM     85  O   UNL A   1      50.244  26.719  21.732  1.00  0.00    -0.237 OA
ATOM     86  O   UNL A   1      51.035  28.933  22.470  1.00  0.00    -0.744 OA
ENDBRANCH  79  83
ENDBRANCH  52  76
BRANCH  64  87
ATOM     87  C   UNL A   1      46.489  32.736  28.702  1.00  0.00     0.023 A 
ATOM     88  C   UNL A   1      46.461  33.768  27.747  1.00  0.00     0.031 A 
ATOM     89  C   UNL A   1      47.087  33.000  29.947  1.00  0.00     0.131 A 
ATOM     90  C   UNL A   1      47.065  35.001  28.033  1.00  0.00     0.055 A 
ATOM     91  C   UNL A   1      47.639  34.247  30.245  1.00  0.00     0.041 A 
ATOM     92  F   UNL A   1      47.143  32.050  30.893  1.00  0.00    -0.206 F 
ATOM     93  C   UNL A   1      47.640  35.251  29.282  1.00  0.00     0.022 A 
BRANCH  90  94
ATOM     94  S   UNL A   1      47.163  36.250  26.722  1.00  0.00     0.124 S 
ATOM     95  O   UNL A   1      48.601  36.495  26.645  1.00  0.00    -0.237 OA
ATOM     96  O   UNL A   1      46.573  35.555  25.584  1.00  0.00    -0.237 OA
ATOM     97  O   UNL A   1      46.373  37.362  27.246  1.00  0.00    -0.744 OA
ENDBRANCH  90  94
ENDBRANCH  64  87
ENDBRANCH  38  39
ENDBRANCH  30  33
ENDBRANCH  28  29
ENDBRANCH   1  28
TORSDOF 16
ENDMDL
MODEL 3
REMARK VINA RESULT:     -11.9      2.017      7.598
REMARK SMILES Cc1ccc(S(=O)(=O)Nc2cc3c(cc2C(=O)NCCCNC(=O)c2ccc(-c4c5nc(c(-c6cc(S(=O)(=O)[O-])ccc6F)c6ccc([nH]6)c(-c6cc(S(=O)(=O)[O-])ccc6F)c6nc(c(-c7cc(S(=O)(=O)[O-])ccc7F)c7ccc4[nH]7)C=C6)C=C5)cc2)OCCO3)s1
REMARK SMILES IDX 20 1 19 2 18 3 16 4 17 5 15 7 10 8 11 9 12 10 14 11 13 12
REMARK SMILES IDX 91 13 88 14 90 15 89 16 9 17 6 19 7 20 8 21 5 22 1 23 2 24
REMARK SMILES IDX 3 25 92 26 4 27 21 28 22 29 23 30 24 32 25 33 26 34 87 35
REMARK SMILES IDX 27 36 86 37 28 38 29 39 30 40 80 41 31 42 85 43 79 44 81 45
REMARK SMILES IDX 32 46 84 47 78 48 77 49 33 51 65 52 45 53 64 54 46 55 49 56
REMARK SMILES IDX 63 57 82 58 47 59 48 60 62 62 83 63 50 64 34 65 35 66 43 67
REMARK SMILES IDX 36 68 42 69 44 70 41 71 37 72 38 73 39 74 40 75 66 76 67 77
REMARK SMILES IDX 75 78 68 79 74 80 76 81 73 82 69 83 70 84 71 85 72 86 51 87
REMARK SMILES IDX 52 88 60 89 53 90 59 91 61 92 58 93 54 94 55 95 56 96 57 97
REMARK H PARENT 18 6 9 18 22 31 81 50 49 61
REMARK Flexibility Score: inf
ROOT
ATOM      1  C   UNL A   1      32.249  28.805  26.686  1.00  0.00     0.042 C 
ENDROOT
BRANCH   1   2
ATOM      2  C   UNL A   1      32.243  27.302  26.930  1.00  0.00     0.118 C 
BRANCH   2   3
ATOM      3  N   UNL A   1      30.936  26.673  26.784  1.00  0.00    -0.352 N 
ATOM      4  C   UNL A   1      30.490  25.449  26.343  1.00  0.00     0.253 C 
ATOM      5  O   UNL A   1      29.286  25.227  26.468  1.00  0.00    -0.269 OA
ATOM      6  H   UNL A   1      30.201  27.262  27.067  1.00  0.00     0.163 HD
BRANCH   4   7
ATOM      7  C   UNL A   1      31.372  24.413  25.733  1.00  0.00     0.067 A 
ATOM      8  C   UNL A   1      31.424  24.243  24.328  1.00  0.00     0.066 A 
ATOM      9  C   UNL A   1      32.262  23.271  23.762  1.00  0.00     0.078 A 
ATOM     10  C   UNL A   1      33.063  22.480  24.581  1.00  0.00     0.163 A 
ATOM     11  C   UNL A   1      32.110  23.537  26.536  1.00  0.00     0.066 A 
ATOM     12  C   UNL A   1      33.000  22.632  25.966  1.00  0.00     0.162 A 
ATOM     13  O   UNL A   1      33.888  21.574  23.965  1.00  0.00    -0.486 OA
ATOM     14  O   UNL A   1      33.789  21.924  26.836  1.00  0.00    -0.486 OA
ATOM     15  C   UNL A   1      34.466  20.652  24.901  1.00  0.00     0.271 C 
ATOM     16  C   UNL A   1      34.924  21.373  26.157  1.00  0.00     0.271 C 
BRANCH   8  17
ATOM     17  N   UNL A   1      30.616  25.041  23.454  1.00  0.00    -0.278 N 
ATOM     18  H   UNL A   1      29.686  24.786  23.254  1.00  0.00     0.180 HD
BRANCH  17  19
ATOM     19  S   UNL A   1      31.291  26.431  22.774  1.00  0.00     0.271 S 
ATOM     20  O   UNL A   1      31.591  26.136  21.395  1.00  0.00    -0.200 OA
ATOM     21  O   UNL A   1      32.344  26.867  23.677  1.00  0.00    -0.200 OA
BRANCH  19  22
ATOM     22  C   UNL A   1      30.092  27.745  22.830  1.00  0.00     0.140 A 
ATOM     23  C   UNL A   1      28.833  31.455  22.622  1.00  0.00     0.056 C 
ATOM     24  C   UNL A   1      29.062  29.986  22.743  1.00  0.00     0.003 A 
ATOM     25  C   UNL A   1      28.171  29.024  23.168  1.00  0.00     0.016 A 
ATOM     26  S   UNL A   1      30.589  29.308  22.362  1.00  0.00    -0.127 S 
ATOM     27  C   UNL A   1      28.764  27.733  23.215  1.00  0.00     0.034 A 
ENDBRANCH  19  22
ENDBRANCH  17  19
ENDBRANCH   8  17
ENDBRANCH   4   7
ENDBRANCH   2   3
ENDBRANCH   1   2
BRANCH   1  28
ATOM     28  C   UNL A   1      33.627  29.424  26.497  1.00  0.00     0.118 C 
BRANCH  28  29
ATOM     29  N   UNL A   1      33.672  30.823  26.897  1.00  0.00    -0.352 N 
ATOM     30  C   UNL A   1      34.478  31.493  27.783  1.00  0.00     0.251 C 
ATOM     31  H   UNL A   1      33.004  31.392  26.450  1.00  0.00     0.163 HD
ATOM     32  O   UNL A   1      34.146  32.623  28.137  1.00  0.00    -0.269 OA
BRANCH  30  33
ATOM     33  C   UNL A   1      35.714  30.884  28.332  1.00  0.00     0.039 A 
ATOM     34  C   UNL A   1      35.600  29.927  29.349  1.00  0.00     0.014 A 
ATOM     35  C   UNL A   1      36.982  31.300  27.923  1.00  0.00     0.014 A 
ATOM     36  C   UNL A   1      36.747  29.352  29.905  1.00  0.00     0.010 A 
ATOM     37  C   UNL A   1      38.121  30.663  28.413  1.00  0.00     0.010 A 
ATOM     38  C   UNL A   1      38.019  29.692  29.420  1.00  0.00    -0.014 A 
BRANCH  38  39
ATOM     39  C   UNL A   1      39.256  29.075  29.968  1.00  0.00     0.031 A 
ATOM     40  C   UNL A   1      39.944  29.694  31.157  1.00  0.00     0.074 A 
ATOM     41  C   UNL A   1      39.815  28.023  29.341  1.00  0.00     0.049 A 
ATOM     42  N   UNL A   1      41.099  29.398  31.698  1.00  0.00    -0.248 NA
ATOM     43  C   UNL A   1      39.258  30.829  31.789  1.00  0.00     0.031 C 
ATOM     44  C   UNL A   1      39.279  27.370  28.146  1.00  0.00     0.029 A 
ATOM     45  N   UNL A   1      40.972  27.334  29.605  1.00  0.00    -0.354 N 
ATOM     46  C   UNL A   1      41.292  30.330  32.713  1.00  0.00     0.074 A 
ATOM     47  C   UNL A   1      40.164  31.236  32.664  1.00  0.00     0.031 C 
ATOM     48  C   UNL A   1      40.105  26.376  27.780  1.00  0.00     0.029 A 
ATOM     49  C   UNL A   1      41.246  26.345  28.690  1.00  0.00     0.049 A 
ATOM     50  H   UNL A   1      41.552  27.528  30.378  1.00  0.00     0.167 HD
ATOM     51  C   UNL A   1      42.304  30.411  33.615  1.00  0.00     0.034 A 
ATOM     52  C   UNL A   1      42.304  25.520  28.580  1.00  0.00     0.034 A 
ATOM     53  C   UNL A   1      43.408  29.482  33.664  1.00  0.00     0.049 A 
ATOM     54  C   UNL A   1      43.405  25.602  29.603  1.00  0.00     0.074 A 
ATOM     55  C   UNL A   1      44.442  29.414  34.581  1.00  0.00     0.029 A 
ATOM     56  N   UNL A   1      43.625  28.458  32.749  1.00  0.00    -0.354 N 
ATOM     57  N   UNL A   1      43.545  26.448  30.597  1.00  0.00    -0.248 NA
ATOM     58  C   UNL A   1      44.480  24.608  29.499  1.00  0.00     0.031 C 
ATOM     59  C   UNL A   1      45.314  28.391  34.187  1.00  0.00     0.029 A 
ATOM     60  C   UNL A   1      44.790  27.774  33.062  1.00  0.00     0.049 A 
ATOM     61  H   UNL A   1      43.037  28.250  31.987  1.00  0.00     0.167 HD
ATOM     62  C   UNL A   1      44.718  26.079  31.247  1.00  0.00     0.074 A 
ATOM     63  C   UNL A   1      45.236  24.922  30.541  1.00  0.00     0.031 C 
ATOM     64  C   UNL A   1      45.309  26.640  32.333  1.00  0.00     0.034 A 
BRANCH  51  65
ATOM     65  C   UNL A   1      42.263  31.563  34.596  1.00  0.00     0.023 A 
ATOM     66  C   UNL A   1      41.392  31.563  35.700  1.00  0.00     0.031 A 
ATOM     67  C   UNL A   1      43.054  32.707  34.388  1.00  0.00     0.131 A 
ATOM     68  C   UNL A   1      41.248  32.719  36.482  1.00  0.00     0.055 A 
ATOM     69  C   UNL A   1      42.976  33.821  35.229  1.00  0.00     0.041 A 
ATOM     70  F   UNL A   1      43.895  32.778  33.345  1.00  0.00    -0.206 F 
ATOM     71  C   UNL A   1      42.052  33.840  36.269  1.00  0.00     0.022 A 
BRANCH  68  72
ATOM     72  S   UNL A   1      39.861  32.800  37.650  1.00  0.00     0.124 S 
ATOM     73  O   UNL A   1      39.059  31.652  37.235  1.00  0.00    -0.237 OA
ATOM     74  O   UNL A   1      40.530  32.681  38.940  1.00  0.00    -0.237 OA
ATOM     75  O   UNL A   1      39.258  34.102  37.375  1.00  0.00    -0.744 OA
ENDBRANCH  68  72
ENDBRANCH  51  65
BRANCH  52  76
ATOM     76  C   UNL A   1      42.376  24.558  27.447  1.00  0.00     0.023 A 
ATOM     77  C   UNL A   1      41.665  23.349  27.473  1.00  0.00     0.031 A 
ATOM     78  C   UNL A   1      43.154  24.847  26.311  1.00  0.00     0.131 A 
ATOM     79  C   UNL A   1      41.763  22.460  26.392  1.00  0.00     0.055 A 
ATOM     80  C   UNL A   1      43.219  23.976  25.223  1.00  0.00     0.041 A 
ATOM     81  F   UNL A   1      43.838  26.000  26.233  1.00  0.00    -0.206 F 
ATOM     82  C   UNL A   1      42.526  22.770  25.263  1.00  0.00     0.022 A 
BRANCH  79  83
ATOM     83  S   UNL A   1      40.896  20.870  26.492  1.00  0.00     0.124 S 
ATOM     84  O   UNL A   1      39.601  21.200  25.905  1.00  0.00    -0.237 OA
ATOM     85  O   UNL A   1      41.759  20.003  25.696  1.00  0.00    -0.237 OA
ATOM     86  O   UNL A   1      40.879  20.582  27.924  1.00  0.00    -0.744 OA
ENDBRANCH  79  83
ENDBRANCH  52  76
BRANCH  64  87
ATOM     87  C   UNL A   1      46.573  25.986  32.834  1.00  0.00     0.023 A 
ATOM     88  C   UNL A   1      46.539  24.914  33.743  1.00  0.00     0.031 A 
ATOM     89  C   UNL A   1      47.828  26.454  32.405  1.00  0.00     0.131 A 
ATOM     90  C   UNL A   1      47.739  24.376  34.233  1.00  0.00     0.055 A 
ATOM     91  C   UNL A   1      49.018  25.878  32.855  1.00  0.00     0.041 A 
ATOM     92  F   UNL A   1      47.917  27.476  31.540  1.00  0.00    -0.206 F 
ATOM     93  C   UNL A   1      48.977  24.842  33.783  1.00  0.00     0.022 A 
BRANCH  90  94
ATOM     94  S   UNL A   1      47.662  23.113  35.532  1.00  0.00     0.124 S 
ATOM     95  O   UNL A   1      46.486  23.530  36.290  1.00  0.00    -0.237 OA
ATOM     96  O   UNL A   1      47.520  21.882  34.762  1.00  0.00    -0.237 OA
ATOM     97  O   UNL A   1      48.936  23.262  36.232  1.00  0.00    -0.744 OA
ENDBRANCH  90  94
ENDBRANCH  64  87
ENDBRANCH  38  39
ENDBRANCH  30  33
ENDBRANCH  28  29
ENDBRANCH   1  28
TORSDOF 16
ENDMDL
