MODEL 1
REMARK VINA RESULT:     -13.6      0.000      0.000
REMARK SMILES O=C(NCCCNC(=O)[C@H]1CC2(CCN(C(=O)C3CC3)CC2)CN1C(=O)CCn1cccn1)c1ccc(-c2c3nc(c(-c4cc(S(=O)(=O)[O-])ccc4F)c4ccc([nH]4)c(-c4cc(S(=O)(=O)[O-])ccc4F)c4nc(c(-c5cc(S(=O)(=O)[O-])ccc5F)c5ccc2[nH]5)C=C4)C=C3)cc1
REMARK SMILES IDX 5 1 4 2 3 3 1 4 2 5 34 7 35 8 96 9 36 10 95 11 37 12 38 13
REMARK SMILES IDX 39 14 89 15 40 16 94 17 88 18 90 19 41 20 93 21 87 22 86 23
REMARK SMILES IDX 42 25 74 26 54 27 73 28 55 29 58 30 72 31 91 32 56 33 57 34
REMARK SMILES IDX 71 36 92 37 59 38 43 39 44 40 52 41 45 42 51 43 53 44 50 45
REMARK SMILES IDX 46 46 47 47 48 48 49 49 75 50 76 51 84 52 77 53 83 54 85 55
REMARK SMILES IDX 82 56 78 57 79 58 80 59 81 60 60 61 61 62 69 63 62 64 68 65
REMARK SMILES IDX 70 66 67 67 63 68 64 69 65 70 66 71 6 72 7 73 8 74 9 76
REMARK SMILES IDX 10 77 11 78 24 79 12 80 23 81 13 82 22 83 14 84 21 85 15 86
REMARK SMILES IDX 16 87 17 88 25 89 26 90 27 91 28 92 29 93 30 94 33 95 31 96
REMARK SMILES IDX 32 97 18 98 19 99 20 100
REMARK H PARENT 3 6 90 24 58 35 7 75
REMARK Flexibility Score: inf
ROOT
ATOM      1  C   UNL A   1      34.260  30.375  27.285  1.00  0.00     0.042 C 
ENDROOT
BRANCH   1   2
ATOM      2  C   UNL A   1      35.521  30.847  27.933  1.00  0.00     0.118 C 
BRANCH   2   3
ATOM      3  N   UNL A   1      35.721  30.137  29.166  1.00  0.00    -0.352 N 
ATOM      4  O   UNL A   1      36.654  28.953  30.755  1.00  0.00    -0.269 OA
ATOM      5  C   UNL A   1      36.834  29.600  29.720  1.00  0.00     0.251 C 
ATOM      6  H   UNL A   1      34.905  30.019  29.703  1.00  0.00     0.163 HD
BRANCH   5   7
ATOM      7  C   UNL A   1      38.166  29.591  29.060  1.00  0.00     0.039 A 
ATOM      8  C   UNL A   1      38.543  29.404  27.727  1.00  0.00     0.014 A 
ATOM      9  C   UNL A   1      39.200  29.628  29.980  1.00  0.00     0.014 A 
ATOM     10  C   UNL A   1      39.873  28.866  27.478  1.00  0.00     0.010 A 
ATOM     11  C   UNL A   1      40.503  29.565  29.545  1.00  0.00     0.010 A 
ATOM     12  C   UNL A   1      40.811  28.635  28.573  1.00  0.00    -0.014 A 
BRANCH  12  13
ATOM     13  C   UNL A   1      42.427  28.357  28.602  1.00  0.00     0.031 A 
ATOM     14  C   UNL A   1      42.281  26.890  27.663  1.00  0.00     0.074 A 
ATOM     15  C   UNL A   1      43.631  29.176  29.134  1.00  0.00     0.049 A 
ATOM     16  N   UNL A   1      42.145  25.693  28.178  1.00  0.00    -0.248 NA
ATOM     17  C   UNL A   1      41.685  26.698  26.227  1.00  0.00     0.031 C 
ATOM     18  C   UNL A   1      43.939  30.591  29.861  1.00  0.00     0.029 A 
ATOM     19  N   UNL A   1      45.062  28.901  29.158  1.00  0.00    -0.354 N 
ATOM     20  C   UNL A   1      42.301  24.791  27.105  1.00  0.00     0.074 A 
ATOM     21  C   UNL A   1      41.711  25.380  25.982  1.00  0.00     0.031 C 
ATOM     22  C   UNL A   1      45.259  31.051  29.727  1.00  0.00     0.029 A 
ATOM     23  C   UNL A   1      46.093  29.993  29.204  1.00  0.00     0.049 A 
ATOM     24  H   UNL A   1      45.364  27.963  29.141  1.00  0.00     0.167 HD
ATOM     25  C   UNL A   1      43.311  23.888  27.124  1.00  0.00     0.034 A 
ATOM     26  C   UNL A   1      47.519  29.930  29.075  1.00  0.00     0.034 A 
ATOM     27  C   UNL A   1      43.808  23.872  28.469  1.00  0.00     0.049 A 
ATOM     28  C   UNL A   1      47.758  28.458  29.008  1.00  0.00     0.074 A 
ATOM     29  C   UNL A   1      43.198  23.603  29.680  1.00  0.00     0.029 A 
ATOM     30  N   UNL A   1      44.713  24.875  28.684  1.00  0.00    -0.354 N 
ATOM     31  N   UNL A   1      47.546  27.693  30.048  1.00  0.00    -0.248 NA
ATOM     32  C   UNL A   1      47.414  27.926  27.684  1.00  0.00     0.031 C 
ATOM     33  C   UNL A   1      43.622  24.628  30.574  1.00  0.00     0.029 A 
ATOM     34  C   UNL A   1      44.637  25.351  29.962  1.00  0.00     0.049 A 
ATOM     35  H   UNL A   1      45.341  25.211  28.004  1.00  0.00     0.167 HD
ATOM     36  C   UNL A   1      46.580  26.803  29.608  1.00  0.00     0.074 A 
ATOM     37  C   UNL A   1      46.551  26.989  28.110  1.00  0.00     0.031 C 
ATOM     38  C   UNL A   1      45.559  26.351  30.429  1.00  0.00     0.034 A 
BRANCH  25  39
ATOM     39  C   UNL A   1      44.129  23.457  25.929  1.00  0.00     0.023 A 
ATOM     40  C   UNL A   1      44.066  22.098  25.605  1.00  0.00     0.031 A 
ATOM     41  C   UNL A   1      45.121  24.212  25.248  1.00  0.00     0.131 A 
ATOM     42  C   UNL A   1      44.948  21.537  24.668  1.00  0.00     0.055 A 
ATOM     43  C   UNL A   1      45.942  23.665  24.251  1.00  0.00     0.041 A 
ATOM     44  F   UNL A   1      45.400  25.484  25.568  1.00  0.00    -0.206 F 
ATOM     45  C   UNL A   1      45.860  22.314  23.958  1.00  0.00     0.022 A 
BRANCH  42  46
ATOM     46  S   UNL A   1      44.977  19.735  24.526  1.00  0.00     0.124 S 
ATOM     47  O   UNL A   1      44.528  19.538  23.153  1.00  0.00    -0.237 OA
ATOM     48  O   UNL A   1      46.381  19.437  24.792  1.00  0.00    -0.237 OA
ATOM     49  O   UNL A   1      44.041  19.300  25.559  1.00  0.00    -0.744 OA
ENDBRANCH  42  46
ENDBRANCH  25  39
BRANCH  26  50
ATOM     50  C   UNL A   1      48.553  30.913  28.345  1.00  0.00     0.023 A 
ATOM     51  C   UNL A   1      48.435  32.007  27.371  1.00  0.00     0.031 A 
ATOM     52  C   UNL A   1      49.811  30.864  28.959  1.00  0.00     0.131 A 
ATOM     53  C   UNL A   1      49.555  32.909  27.105  1.00  0.00     0.055 A 
ATOM     54  C   UNL A   1      50.854  31.773  28.742  1.00  0.00     0.041 A 
ATOM     55  F   UNL A   1      50.060  29.937  29.891  1.00  0.00    -0.206 F 
ATOM     56  C   UNL A   1      50.735  32.805  27.835  1.00  0.00     0.022 A 
BRANCH  53  57
ATOM     57  S   UNL A   1      49.617  34.203  25.751  1.00  0.00     0.124 S 
ATOM     58  O   UNL A   1      48.243  34.213  25.263  1.00  0.00    -0.237 OA
ATOM     59  O   UNL A   1      50.071  35.401  26.446  1.00  0.00    -0.237 OA
ATOM     60  O   UNL A   1      50.586  33.665  24.789  1.00  0.00    -0.744 OA
ENDBRANCH  53  57
ENDBRANCH  26  50
BRANCH  38  61
ATOM     61  C   UNL A   1      45.447  26.729  31.924  1.00  0.00     0.023 A 
ATOM     62  C   UNL A   1      44.601  27.681  32.568  1.00  0.00     0.031 A 
ATOM     63  C   UNL A   1      46.225  25.937  32.777  1.00  0.00     0.131 A 
ATOM     64  C   UNL A   1      44.742  27.941  33.957  1.00  0.00     0.055 A 
ATOM     65  C   UNL A   1      46.229  26.085  34.164  1.00  0.00     0.041 A 
ATOM     66  F   UNL A   1      46.973  24.947  32.268  1.00  0.00    -0.206 F 
ATOM     67  C   UNL A   1      45.517  27.113  34.764  1.00  0.00     0.022 A 
BRANCH  64  68
ATOM     68  S   UNL A   1      44.171  29.539  34.660  1.00  0.00     0.124 S 
ATOM     69  O   UNL A   1      43.998  30.355  33.465  1.00  0.00    -0.237 OA
ATOM     70  O   UNL A   1      42.926  29.190  35.328  1.00  0.00    -0.237 OA
ATOM     71  O   UNL A   1      45.266  29.942  35.542  1.00  0.00    -0.744 OA
ENDBRANCH  64  68
ENDBRANCH  38  61
ENDBRANCH  12  13
ENDBRANCH   5   7
ENDBRANCH   2   3
ENDBRANCH   1   2
BRANCH   1  72
ATOM     72  C   UNL A   1      34.526  28.947  26.873  1.00  0.00     0.117 C 
BRANCH  72  73
ATOM     73  N   UNL A   1      33.121  27.957  27.136  1.00  0.00    -0.354 N 
ATOM     74  C   UNL A   1      32.447  26.249  26.234  1.00  0.00     0.242 C 
ATOM     75  H   UNL A   1      32.537  28.282  27.859  1.00  0.00     0.163 HD
ATOM     76  O   UNL A   1      31.425  25.503  26.440  1.00  0.00    -0.273 OA
BRANCH  74  77
ATOM     77  C   UNL A   1      33.393  25.347  24.939  1.00  0.00     0.175 C 
ATOM     78  C   UNL A   1      33.529  23.820  25.055  1.00  0.00     0.044 C 
ATOM     79  N   UNL A   1      33.021  25.501  23.532  1.00  0.00    -0.330 N 
ATOM     80  C   UNL A   1      33.803  23.170  23.743  1.00  0.00    -0.006 C 
ATOM     81  C   UNL A   1      33.562  24.345  22.759  1.00  0.00     0.127 C 
ATOM     82  C   UNL A   1      32.757  22.037  23.501  1.00  0.00     0.030 C 
ATOM     83  C   UNL A   1      35.190  22.552  24.006  1.00  0.00     0.030 C 
ATOM     84  C   UNL A   1      32.768  20.971  24.598  1.00  0.00     0.120 C 
ATOM     85  C   UNL A   1      35.111  21.460  25.121  1.00  0.00     0.120 C 
ATOM     86  N   UNL A   1      34.112  20.461  24.783  1.00  0.00    -0.342 N 
ATOM     87  C   UNL A   1      34.551  19.157  24.626  1.00  0.00     0.225 C 
ATOM     88  O   UNL A   1      35.752  18.894  24.698  1.00  0.00    -0.275 OA
BRANCH  79  89
ATOM     89  C   UNL A   1      32.244  26.492  22.956  1.00  0.00     0.225 C 
ATOM     90  O   UNL A   1      31.402  26.182  22.103  1.00  0.00    -0.275 OA
BRANCH  89  91
ATOM     91  C   UNL A   1      32.360  27.996  23.312  1.00  0.00     0.124 C 
BRANCH  91  92
ATOM     92  C   UNL A   1      31.291  28.660  24.191  1.00  0.00     0.154 C 
BRANCH  92  93
ATOM     93  N   UNL A   1      30.142  29.164  23.470  1.00  0.00    -0.272 N 
ATOM     94  C   UNL A   1      28.746  27.970  23.130  1.00  0.00     0.108 A 
ATOM     95  N   UNL A   1      29.452  30.903  23.632  1.00  0.00    -0.182 NA
ATOM     96  C   UNL A   1      27.170  28.997  23.126  1.00  0.00     0.042 A 
ATOM     97  C   UNL A   1      27.715  30.828  23.501  1.00  0.00     0.135 A 
ENDBRANCH  92  93
ENDBRANCH  91  92
ENDBRANCH  89  91
ENDBRANCH  79  89
BRANCH  87  98
ATOM     98  C   UNL A   1      33.643  18.016  24.409  1.00  0.00     0.079 C 
ATOM     99  C   UNL A   1      33.132  17.478  23.114  1.00  0.00     0.014 C 
ATOM    100  C   UNL A   1      34.030  16.631  23.993  1.00  0.00     0.014 C 
ENDBRANCH  87  98
ENDBRANCH  74  77
ENDBRANCH  72  73
ENDBRANCH   1  72
TORSDOF 18
ENDMDL
MODEL 2
REMARK VINA RESULT:     -13.0      1.679      1.985
REMARK SMILES O=C(NCCCNC(=O)[C@H]1CC2(CCN(C(=O)C3CC3)CC2)CN1C(=O)CCn1cccn1)c1ccc(-c2c3nc(c(-c4cc(S(=O)(=O)[O-])ccc4F)c4ccc([nH]4)c(-c4cc(S(=O)(=O)[O-])ccc4F)c4nc(c(-c5cc(S(=O)(=O)[O-])ccc5F)c5ccc2[nH]5)C=C4)C=C3)cc1
REMARK SMILES IDX 5 1 4 2 3 3 1 4 2 5 34 7 35 8 96 9 36 10 95 11 37 12 38 13
REMARK SMILES IDX 39 14 89 15 40 16 94 17 88 18 90 19 41 20 93 21 87 22 86 23
REMARK SMILES IDX 42 25 74 26 54 27 73 28 55 29 58 30 72 31 91 32 56 33 57 34
REMARK SMILES IDX 71 36 92 37 59 38 43 39 44 40 52 41 45 42 51 43 53 44 50 45
REMARK SMILES IDX 46 46 47 47 48 48 49 49 75 50 76 51 84 52 77 53 83 54 85 55
REMARK SMILES IDX 82 56 78 57 79 58 80 59 81 60 60 61 61 62 69 63 62 64 68 65
REMARK SMILES IDX 70 66 67 67 63 68 64 69 65 70 66 71 6 72 7 73 8 74 9 76
REMARK SMILES IDX 10 77 11 78 24 79 12 80 23 81 13 82 22 83 14 84 21 85 15 86
REMARK SMILES IDX 16 87 17 88 25 89 26 90 27 91 28 92 29 93 30 94 33 95 31 96
REMARK SMILES IDX 32 97 18 98 19 99 20 100
REMARK H PARENT 3 6 90 24 58 35 7 75
REMARK Flexibility Score: inf
ROOT
ATOM      1  C   UNL A   1      34.783  30.079  27.616  1.00  0.00     0.042 C 
ENDROOT
BRANCH   1   2
ATOM      2  C   UNL A   1      36.209  29.693  27.849  1.00  0.00     0.118 C 
BRANCH   2   3
ATOM      3  N   UNL A   1      36.392  29.345  29.230  1.00  0.00    -0.352 N 
ATOM      4  O   UNL A   1      37.333  28.768  31.121  1.00  0.00    -0.269 OA
ATOM      5  C   UNL A   1      37.513  29.176  29.971  1.00  0.00     0.251 C 
ATOM      6  H   UNL A   1      35.553  29.203  29.727  1.00  0.00     0.163 HD
BRANCH   5   7
ATOM      7  C   UNL A   1      38.890  29.266  29.420  1.00  0.00     0.039 A 
ATOM      8  C   UNL A   1      39.361  29.488  28.123  1.00  0.00     0.014 A 
ATOM      9  C   UNL A   1      39.846  28.913  30.357  1.00  0.00     0.014 A 
ATOM     10  C   UNL A   1      40.670  28.947  27.785  1.00  0.00     0.010 A 
ATOM     11  C   UNL A   1      41.174  28.882  29.999  1.00  0.00     0.010 A 
ATOM     12  C   UNL A   1      41.500  28.294  28.794  1.00  0.00    -0.014 A 
BRANCH  12  13
ATOM     13  C   UNL A   1      43.087  27.883  28.820  1.00  0.00     0.031 A 
ATOM     14  C   UNL A   1      42.825  26.455  27.848  1.00  0.00     0.074 A 
ATOM     15  C   UNL A   1      44.353  28.587  29.373  1.00  0.00     0.049 A 
ATOM     16  N   UNL A   1      42.588  25.262  28.335  1.00  0.00    -0.248 NA
ATOM     17  C   UNL A   1      42.221  26.345  26.407  1.00  0.00     0.031 C 
ATOM     18  C   UNL A   1      44.773  29.956  30.133  1.00  0.00     0.029 A 
ATOM     19  N   UNL A   1      45.756  28.195  29.393  1.00  0.00    -0.354 N 
ATOM     20  C   UNL A   1      42.674  24.374  27.243  1.00  0.00     0.074 A 
ATOM     21  C   UNL A   1      42.139  25.034  26.132  1.00  0.00     0.031 C 
ATOM     22  C   UNL A   1      46.127  30.308  30.012  1.00  0.00     0.029 A 
ATOM     23  C   UNL A   1      46.873  29.197  29.467  1.00  0.00     0.049 A 
ATOM     24  H   UNL A   1      45.980  27.236  29.357  1.00  0.00     0.167 HD
ATOM     25  C   UNL A   1      43.606  23.391  27.242  1.00  0.00     0.034 A 
ATOM     26  C   UNL A   1      48.289  29.019  29.340  1.00  0.00     0.034 A 
ATOM     27  C   UNL A   1      44.095  23.303  28.588  1.00  0.00     0.049 A 
ATOM     28  C   UNL A   1      48.407  27.535  29.239  1.00  0.00     0.074 A 
ATOM     29  C   UNL A   1      43.460  23.058  29.791  1.00  0.00     0.029 A 
ATOM     30  N   UNL A   1      45.079  24.223  28.828  1.00  0.00    -0.354 N 
ATOM     31  N   UNL A   1      48.129  26.766  30.261  1.00  0.00    -0.248 NA
ATOM     32  C   UNL A   1      48.026  27.062  27.903  1.00  0.00     0.031 C 
ATOM     33  C   UNL A   1      43.963  24.025  30.709  1.00  0.00     0.029 A 
ATOM     34  C   UNL A   1      45.037  24.675  30.116  1.00  0.00     0.049 A 
ATOM     35  H   UNL A   1      45.735  24.521  28.157  1.00  0.00     0.167 HD
ATOM     36  C   UNL A   1      47.094  25.969  29.799  1.00  0.00     0.074 A 
ATOM     37  C   UNL A   1      47.086  26.191  28.305  1.00  0.00     0.031 C 
ATOM     38  C   UNL A   1      46.036  25.584  30.608  1.00  0.00     0.034 A 
BRANCH  25  39
ATOM     39  C   UNL A   1      44.391  22.920  26.040  1.00  0.00     0.023 A 
ATOM     40  C   UNL A   1      44.405  21.539  25.823  1.00  0.00     0.031 A 
ATOM     41  C   UNL A   1      45.293  23.682  25.250  1.00  0.00     0.131 A 
ATOM     42  C   UNL A   1      45.275  20.964  24.884  1.00  0.00     0.055 A 
ATOM     43  C   UNL A   1      46.098  23.113  24.253  1.00  0.00     0.041 A 
ATOM     44  F   UNL A   1      45.499  24.991  25.457  1.00  0.00    -0.206 F 
ATOM     45  C   UNL A   1      46.094  21.740  24.067  1.00  0.00     0.022 A 
BRANCH  42  46
ATOM     46  S   UNL A   1      45.421  19.162  24.877  1.00  0.00     0.124 S 
ATOM     47  O   UNL A   1      44.143  18.758  25.450  1.00  0.00    -0.237 OA
ATOM     48  O   UNL A   1      45.605  18.883  23.456  1.00  0.00    -0.237 OA
ATOM     49  O   UNL A   1      46.590  18.915  25.717  1.00  0.00    -0.744 OA
ENDBRANCH  42  46
ENDBRANCH  25  39
BRANCH  26  50
ATOM     50  C   UNL A   1      49.404  29.930  28.634  1.00  0.00     0.023 A 
ATOM     51  C   UNL A   1      49.987  30.002  27.287  1.00  0.00     0.031 A 
ATOM     52  C   UNL A   1      49.707  31.051  29.419  1.00  0.00     0.131 A 
ATOM     53  C   UNL A   1      50.799  31.145  26.872  1.00  0.00     0.055 A 
ATOM     54  C   UNL A   1      50.433  32.168  28.989  1.00  0.00     0.041 A 
ATOM     55  F   UNL A   1      49.222  31.142  30.662  1.00  0.00    -0.206 F 
ATOM     56  C   UNL A   1      50.969  32.236  27.719  1.00  0.00     0.022 A 
BRANCH  53  57
ATOM     57  S   UNL A   1      51.770  31.273  25.275  1.00  0.00     0.124 S 
ATOM     58  O   UNL A   1      51.397  30.045  24.581  1.00  0.00    -0.237 OA
ATOM     59  O   UNL A   1      51.298  32.522  24.689  1.00  0.00    -0.237 OA
ATOM     60  O   UNL A   1      53.171  31.308  25.712  1.00  0.00    -0.744 OA
ENDBRANCH  53  57
ENDBRANCH  26  50
BRANCH  38  61
ATOM     61  C   UNL A   1      45.950  25.938  32.110  1.00  0.00     0.023 A 
ATOM     62  C   UNL A   1      46.903  25.744  33.154  1.00  0.00     0.031 A 
ATOM     63  C   UNL A   1      44.799  26.651  32.468  1.00  0.00     0.131 A 
ATOM     64  C   UNL A   1      46.567  26.054  34.498  1.00  0.00     0.055 A 
ATOM     65  C   UNL A   1      44.554  27.105  33.764  1.00  0.00     0.041 A 
ATOM     66  F   UNL A   1      43.896  26.971  31.529  1.00  0.00    -0.206 F 
ATOM     67  C   UNL A   1      45.417  26.778  34.799  1.00  0.00     0.022 A 
BRANCH  64  68
ATOM     68  S   UNL A   1      47.463  25.246  35.884  1.00  0.00     0.124 S 
ATOM     69  O   UNL A   1      48.468  26.245  36.222  1.00  0.00    -0.237 OA
ATOM     70  O   UNL A   1      46.433  25.072  36.897  1.00  0.00    -0.237 OA
ATOM     71  O   UNL A   1      47.978  24.011  35.293  1.00  0.00    -0.744 OA
ENDBRANCH  64  68
ENDBRANCH  38  61
ENDBRANCH  12  13
ENDBRANCH   5   7
ENDBRANCH   2   3
ENDBRANCH   1   2
BRANCH   1  72
ATOM     72  C   UNL A   1      34.300  29.186  26.499  1.00  0.00     0.117 C 
BRANCH  72  73
ATOM     73  N   UNL A   1      32.938  28.237  27.014  1.00  0.00    -0.354 N 
ATOM     74  C   UNL A   1      32.109  26.509  26.298  1.00  0.00     0.242 C 
ATOM     75  H   UNL A   1      32.476  28.601  27.804  1.00  0.00     0.163 HD
ATOM     76  O   UNL A   1      31.120  25.792  26.689  1.00  0.00    -0.273 OA
BRANCH  74  77
ATOM     77  C   UNL A   1      32.833  25.536  24.914  1.00  0.00     0.175 C 
ATOM     78  C   UNL A   1      32.963  24.013  25.073  1.00  0.00     0.044 C 
ATOM     79  N   UNL A   1      32.252  25.642  23.575  1.00  0.00    -0.330 N 
ATOM     80  C   UNL A   1      33.024  23.306  23.762  1.00  0.00    -0.006 C 
ATOM     81  C   UNL A   1      32.651  24.445  22.778  1.00  0.00     0.127 C 
ATOM     82  C   UNL A   1      31.936  22.186  23.731  1.00  0.00     0.030 C 
ATOM     83  C   UNL A   1      34.425  22.670  23.837  1.00  0.00     0.030 C 
ATOM     84  C   UNL A   1      32.100  21.164  24.857  1.00  0.00     0.120 C 
ATOM     85  C   UNL A   1      34.502  21.625  24.996  1.00  0.00     0.120 C 
ATOM     86  N   UNL A   1      33.449  20.634  24.857  1.00  0.00    -0.342 N 
ATOM     87  C   UNL A   1      33.840  19.316  24.690  1.00  0.00     0.225 C 
ATOM     88  O   UNL A   1      35.034  19.031  24.590  1.00  0.00    -0.275 OA
BRANCH  79  89
ATOM     89  C   UNL A   1      31.411  26.626  23.083  1.00  0.00     0.225 C 
ATOM     90  O   UNL A   1      31.434  26.893  21.874  1.00  0.00    -0.275 OA
BRANCH  89  91
ATOM     91  C   UNL A   1      30.421  27.434  23.960  1.00  0.00     0.124 C 
BRANCH  91  92
ATOM     92  C   UNL A   1      30.523  28.964  24.019  1.00  0.00     0.154 C 
BRANCH  92  93
ATOM     93  N   UNL A   1      29.397  29.668  23.443  1.00  0.00    -0.272 N 
ATOM     94  C   UNL A   1      29.160  31.457  23.927  1.00  0.00     0.108 A 
ATOM     95  N   UNL A   1      28.738  29.398  21.706  1.00  0.00    -0.182 NA
ATOM     96  C   UNL A   1      28.379  32.301  22.438  1.00  0.00     0.042 A 
ATOM     97  C   UNL A   1      28.198  30.928  21.069  1.00  0.00     0.135 A 
ENDBRANCH  92  93
ENDBRANCH  91  92
ENDBRANCH  89  91
ENDBRANCH  79  89
BRANCH  87  98
ATOM     98  C   UNL A   1      32.893  18.187  24.663  1.00  0.00     0.079 C 
ATOM     99  C   UNL A   1      33.034  16.882  23.951  1.00  0.00     0.014 C 
ATOM    100  C   UNL A   1      32.982  16.925  25.464  1.00  0.00     0.014 C 
ENDBRANCH  87  98
ENDBRANCH  74  77
ENDBRANCH  72  73
ENDBRANCH   1  72
TORSDOF 18
ENDMDL
MODEL 3
REMARK VINA RESULT:     -12.9      4.844      7.903
REMARK SMILES O=C(NCCCNC(=O)[C@H]1CC2(CCN(C(=O)C3CC3)CC2)CN1C(=O)CCn1cccn1)c1ccc(-c2c3nc(c(-c4cc(S(=O)(=O)[O-])ccc4F)c4ccc([nH]4)c(-c4cc(S(=O)(=O)[O-])ccc4F)c4nc(c(-c5cc(S(=O)(=O)[O-])ccc5F)c5ccc2[nH]5)C=C4)C=C3)cc1
REMARK SMILES IDX 5 1 4 2 3 3 1 4 2 5 34 7 35 8 96 9 36 10 95 11 37 12 38 13
REMARK SMILES IDX 39 14 89 15 40 16 94 17 88 18 90 19 41 20 93 21 87 22 86 23
REMARK SMILES IDX 42 25 74 26 54 27 73 28 55 29 58 30 72 31 91 32 56 33 57 34
REMARK SMILES IDX 71 36 92 37 59 38 43 39 44 40 52 41 45 42 51 43 53 44 50 45
REMARK SMILES IDX 46 46 47 47 48 48 49 49 75 50 76 51 84 52 77 53 83 54 85 55
REMARK SMILES IDX 82 56 78 57 79 58 80 59 81 60 60 61 61 62 69 63 62 64 68 65
REMARK SMILES IDX 70 66 67 67 63 68 64 69 65 70 66 71 6 72 7 73 8 74 9 76
REMARK SMILES IDX 10 77 11 78 24 79 12 80 23 81 13 82 22 83 14 84 21 85 15 86
REMARK SMILES IDX 16 87 17 88 25 89 26 90 27 91 28 92 29 93 30 94 33 95 31 96
REMARK SMILES IDX 32 97 18 98 19 99 20 100
REMARK H PARENT 3 6 90 24 58 35 7 75
REMARK Flexibility Score: inf
ROOT
ATOM      1  C   UNL A   1      36.640  30.518  31.863  1.00  0.00     0.042 C 
ENDROOT
BRANCH   1   2
ATOM      2  C   UNL A   1      37.243  30.896  30.548  1.00  0.00     0.118 C 
BRANCH   2   3
ATOM      3  N   UNL A   1      36.613  30.145  29.498  1.00  0.00    -0.352 N 
ATOM      4  O   UNL A   1      36.310  28.993  27.661  1.00  0.00    -0.269 OA
ATOM      5  C   UNL A   1      37.132  29.445  28.461  1.00  0.00     0.251 C 
ATOM      6  H   UNL A   1      35.629  30.139  29.538  1.00  0.00     0.163 HD
BRANCH   5   7
ATOM      7  C   UNL A   1      38.585  29.373  28.156  1.00  0.00     0.039 A 
ATOM      8  C   UNL A   1      39.286  29.422  26.949  1.00  0.00     0.014 A 
ATOM      9  C   UNL A   1      39.333  29.051  29.277  1.00  0.00     0.014 A 
ATOM     10  C   UNL A   1      40.578  28.752  26.898  1.00  0.00     0.010 A 
ATOM     11  C   UNL A   1      40.693  28.884  29.163  1.00  0.00     0.010 A 
ATOM     12  C   UNL A   1      41.163  28.149  28.093  1.00  0.00    -0.014 A 
BRANCH  12  13
ATOM     13  C   UNL A   1      42.679  27.626  28.437  1.00  0.00     0.031 A 
ATOM     14  C   UNL A   1      42.553  26.267  27.345  1.00  0.00     0.074 A 
ATOM     15  C   UNL A   1      43.831  28.212  29.293  1.00  0.00     0.049 A 
ATOM     16  N   UNL A   1      42.145  25.072  27.695  1.00  0.00    -0.248 NA
ATOM     17  C   UNL A   1      42.275  26.268  25.803  1.00  0.00     0.031 C 
ATOM     18  C   UNL A   1      44.153  29.510  30.208  1.00  0.00     0.029 A 
ATOM     19  N   UNL A   1      45.169  27.720  29.592  1.00  0.00    -0.354 N 
ATOM     20  C   UNL A   1      42.416  24.233  26.595  1.00  0.00     0.074 A 
ATOM     21  C   UNL A   1      42.179  24.981  25.437  1.00  0.00     0.031 C 
ATOM     22  C   UNL A   1      45.519  29.770  30.404  1.00  0.00     0.029 A 
ATOM     23  C   UNL A   1      46.300  28.636  29.967  1.00  0.00     0.049 A 
ATOM     24  H   UNL A   1      45.339  26.751  29.546  1.00  0.00     0.167 HD
ATOM     25  C   UNL A   1      43.266  23.187  26.736  1.00  0.00     0.034 A 
ATOM     26  C   UNL A   1      47.697  28.364  30.138  1.00  0.00     0.034 A 
ATOM     27  C   UNL A   1      43.441  23.002  28.147  1.00  0.00     0.049 A 
ATOM     28  C   UNL A   1      47.746  26.882  29.975  1.00  0.00     0.074 A 
ATOM     29  C   UNL A   1      42.543  22.746  29.168  1.00  0.00     0.029 A 
ATOM     30  N   UNL A   1      44.401  23.838  28.651  1.00  0.00    -0.354 N 
ATOM     31  N   UNL A   1      47.205  26.088  30.863  1.00  0.00    -0.248 NA
ATOM     32  C   UNL A   1      47.641  26.501  28.562  1.00  0.00     0.031 C 
ATOM     33  C   UNL A   1      42.889  23.630  30.230  1.00  0.00     0.029 A 
ATOM     34  C   UNL A   1      44.103  24.230  29.925  1.00  0.00     0.049 A 
ATOM     35  H   UNL A   1      45.204  24.120  28.157  1.00  0.00     0.167 HD
ATOM     36  C   UNL A   1      46.252  25.389  30.140  1.00  0.00     0.074 A 
ATOM     37  C   UNL A   1      46.586  25.680  28.696  1.00  0.00     0.031 C 
ATOM     38  C   UNL A   1      45.021  25.042  30.675  1.00  0.00     0.034 A 
BRANCH  25  39
ATOM     39  C   UNL A   1      44.267  22.720  25.705  1.00  0.00     0.023 A 
ATOM     40  C   UNL A   1      44.340  21.337  25.509  1.00  0.00     0.031 A 
ATOM     41  C   UNL A   1      45.290  23.488  25.089  1.00  0.00     0.131 A 
ATOM     42  C   UNL A   1      45.377  20.768  24.754  1.00  0.00     0.055 A 
ATOM     43  C   UNL A   1      46.274  22.924  24.264  1.00  0.00     0.041 A 
ATOM     44  F   UNL A   1      45.437  24.802  25.317  1.00  0.00    -0.206 F 
ATOM     45  C   UNL A   1      46.323  21.550  24.096  1.00  0.00     0.022 A 
BRANCH  42  46
ATOM     46  S   UNL A   1      45.546  18.968  24.792  1.00  0.00     0.124 S 
ATOM     47  O   UNL A   1      45.668  18.651  23.374  1.00  0.00    -0.237 OA
ATOM     48  O   UNL A   1      46.752  18.799  25.595  1.00  0.00    -0.237 OA
ATOM     49  O   UNL A   1      44.307  18.527  25.428  1.00  0.00    -0.744 OA
ENDBRANCH  42  46
ENDBRANCH  25  39
BRANCH  26  50
ATOM     50  C   UNL A   1      48.991  29.226  29.748  1.00  0.00     0.023 A 
ATOM     51  C   UNL A   1      49.352  30.110  28.631  1.00  0.00     0.031 A 
ATOM     52  C   UNL A   1      49.866  29.338  30.836  1.00  0.00     0.131 A 
ATOM     53  C   UNL A   1      50.522  30.984  28.703  1.00  0.00     0.055 A 
ATOM     54  C   UNL A   1      50.947  30.224  30.917  1.00  0.00     0.041 A 
ATOM     55  F   UNL A   1      49.650  28.614  31.940  1.00  0.00    -0.206 F 
ATOM     56  C   UNL A   1      51.276  31.061  29.871  1.00  0.00     0.022 A 
BRANCH  53  57
ATOM     57  S   UNL A   1      51.217  31.998  27.290  1.00  0.00     0.124 S 
ATOM     58  O   UNL A   1      50.185  31.864  26.269  1.00  0.00    -0.237 OA
ATOM     59  O   UNL A   1      51.388  33.323  27.874  1.00  0.00    -0.237 OA
ATOM     60  O   UNL A   1      52.478  31.325  26.954  1.00  0.00    -0.744 OA
ENDBRANCH  53  57
ENDBRANCH  26  50
BRANCH  38  61
ATOM     61  C   UNL A   1      44.628  25.330  32.142  1.00  0.00     0.023 A 
ATOM     62  C   UNL A   1      44.041  26.493  32.724  1.00  0.00     0.031 A 
ATOM     63  C   UNL A   1      44.778  24.235  33.003  1.00  0.00     0.131 A 
ATOM     64  C   UNL A   1      43.859  26.578  34.130  1.00  0.00     0.055 A 
ATOM     65  C   UNL A   1      44.433  24.272  34.354  1.00  0.00     0.041 A 
ATOM     66  F   UNL A   1      45.223  23.065  32.519  1.00  0.00    -0.206 F 
ATOM     67  C   UNL A   1      44.006  25.455  34.939  1.00  0.00     0.022 A 
BRANCH  64  68
ATOM     68  S   UNL A   1      43.736  28.218  34.948  1.00  0.00     0.124 S 
ATOM     69  O   UNL A   1      45.019  28.317  35.630  1.00  0.00    -0.237 OA
ATOM     70  O   UNL A   1      43.581  29.142  33.834  1.00  0.00    -0.237 OA
ATOM     71  O   UNL A   1      42.569  28.084  35.820  1.00  0.00    -0.744 OA
ENDBRANCH  64  68
ENDBRANCH  38  61
ENDBRANCH  12  13
ENDBRANCH   5   7
ENDBRANCH   2   3
ENDBRANCH   1   2
BRANCH   1  72
ATOM     72  C   UNL A   1      37.403  29.300  32.323  1.00  0.00     0.117 C 
BRANCH  72  73
ATOM     73  N   UNL A   1      37.805  29.425  34.009  1.00  0.00    -0.354 N 
ATOM     74  C   UNL A   1      38.824  30.835  35.085  1.00  0.00     0.242 C 
ATOM     75  H   UNL A   1      37.479  28.671  34.552  1.00  0.00     0.163 HD
ATOM     76  O   UNL A   1      39.102  30.944  36.332  1.00  0.00    -0.273 OA
BRANCH  74  77
ATOM     77  C   UNL A   1      39.439  32.411  34.362  1.00  0.00     0.175 C 
ATOM     78  C   UNL A   1      40.500  32.348  33.251  1.00  0.00     0.044 C 
ATOM     79  N   UNL A   1      38.487  33.370  33.801  1.00  0.00    -0.330 N 
ATOM     80  C   UNL A   1      40.506  33.569  32.397  1.00  0.00    -0.006 C 
ATOM     81  C   UNL A   1      39.210  34.280  32.865  1.00  0.00     0.127 C 
ATOM     82  C   UNL A   1      40.383  33.148  30.898  1.00  0.00     0.030 C 
ATOM     83  C   UNL A   1      41.921  34.112  32.672  1.00  0.00     0.030 C 
ATOM     84  C   UNL A   1      41.509  32.217  30.446  1.00  0.00     0.120 C 
ATOM     85  C   UNL A   1      43.011  33.114  32.161  1.00  0.00     0.120 C 
ATOM     86  N   UNL A   1      42.797  32.805  30.758  1.00  0.00    -0.342 N 
ATOM     87  C   UNL A   1      43.809  33.143  29.875  1.00  0.00     0.225 C 
ATOM     88  O   UNL A   1      44.803  33.751  30.274  1.00  0.00    -0.275 OA
BRANCH  79  89
ATOM     89  C   UNL A   1      37.119  33.438  34.008  1.00  0.00     0.225 C 
ATOM     90  O   UNL A   1      36.572  32.589  34.725  1.00  0.00    -0.275 OA
BRANCH  89  91
ATOM     91  C   UNL A   1      36.205  34.527  33.391  1.00  0.00     0.124 C 
BRANCH  91  92
ATOM     92  C   UNL A   1      34.687  34.466  33.606  1.00  0.00     0.154 C 
BRANCH  92  93
ATOM     93  N   UNL A   1      33.902  34.470  32.389  1.00  0.00    -0.272 N 
ATOM     94  C   UNL A   1      33.275  36.120  31.775  1.00  0.00     0.108 A 
ATOM     95  N   UNL A   1      34.182  33.325  30.929  1.00  0.00    -0.182 NA
ATOM     96  C   UNL A   1      33.210  35.988  29.900  1.00  0.00     0.042 A 
ATOM     97  C   UNL A   1      33.848  34.202  29.459  1.00  0.00     0.135 A 
ENDBRANCH  92  93
ENDBRANCH  91  92
ENDBRANCH  89  91
ENDBRANCH  79  89
BRANCH  87  98
ATOM     98  C   UNL A   1      43.793  32.780  28.446  1.00  0.00     0.079 C 
ATOM     99  C   UNL A   1      44.257  33.593  27.283  1.00  0.00     0.014 C 
ATOM    100  C   UNL A   1      44.954  32.294  27.635  1.00  0.00     0.014 C 
ENDBRANCH  87  98
ENDBRANCH  74  77
ENDBRANCH  72  73
ENDBRANCH   1  72
TORSDOF 18
ENDMDL
