MODEL 1
REMARK VINA RESULT:     -11.9      0.000      0.000
REMARK SMILES C[C@H]1CCCN(C(=O)c2cn(C)nc2C(=O)NCCCNC(=O)c2ccc(-c3c4nc(c(-c5cc(S(=O)(=O)[O-])ccc5F)c5ccc([nH]5)c(-c5cc(S(=O)(=O)[O-])ccc5F)c5nc(c(-c6cc(S(=O)(=O)[O-])ccc6F)c6ccc3[nH]6)C=C5)C=C4)cc2)C1
REMARK SMILES IDX 19 1 18 2 17 3 15 4 16 5 14 7 9 8 10 9 11 10 13 11 12 12
REMARK SMILES IDX 7 13 8 14 6 15 1 16 2 17 3 18 87 19 4 20 5 21 20 22 21 23
REMARK SMILES IDX 22 24 23 26 24 27 25 28 86 29 26 30 85 31 27 32 28 33 29 34
REMARK SMILES IDX 79 35 30 36 84 37 78 38 80 39 31 40 83 41 77 42 76 43 32 45
REMARK SMILES IDX 64 46 44 47 63 48 45 49 48 50 62 51 81 52 46 53 47 54 61 56
REMARK SMILES IDX 82 57 49 58 33 59 34 60 42 61 35 62 41 63 43 64 40 65 36 66
REMARK SMILES IDX 37 67 38 68 39 69 65 70 66 71 74 72 67 73 73 74 75 75 72 76
REMARK SMILES IDX 68 77 69 78 70 79 71 80 50 81 51 82 59 83 52 84 58 85 60 86
REMARK SMILES IDX 57 87 53 88 54 89 55 90 56 91
REMARK H PARENT 17 6 21 25 80 44 48 55
REMARK Flexibility Score: inf
ROOT
ATOM      1  C   UNL A   1      35.526  22.883  24.323  1.00  0.00     0.042 C 
ENDROOT
BRANCH   1   2
ATOM      2  C   UNL A   1      34.999  24.313  24.244  1.00  0.00     0.118 C 
BRANCH   2   3
ATOM      3  N   UNL A   1      34.073  24.471  23.150  1.00  0.00    -0.351 N 
ATOM      4  C   UNL A   1      32.734  24.741  23.036  1.00  0.00     0.272 C 
ATOM      5  O   UNL A   1      32.374  24.830  21.853  1.00  0.00    -0.267 OA
ATOM      6  H   UNL A   1      34.507  24.357  22.273  1.00  0.00     0.163 HD
BRANCH   4   7
ATOM      7  C   UNL A   1      31.758  24.936  24.144  1.00  0.00     0.162 A 
ATOM      8  C   UNL A   1      31.012  26.036  24.694  1.00  0.00     0.091 A 
ATOM      9  C   UNL A   1      30.272  25.496  25.737  1.00  0.00     0.123 A 
ATOM     10  N   UNL A   1      30.609  24.189  25.802  1.00  0.00    -0.274 N 
ATOM     11  N   UNL A   1      31.489  23.824  24.875  1.00  0.00    -0.167 NA
ATOM     12  C   UNL A   1      30.132  23.204  26.741  1.00  0.00     0.173 C 
BRANCH   8  13
ATOM     13  C   UNL A   1      30.891  27.430  24.326  1.00  0.00     0.257 C 
ATOM     14  O   UNL A   1      29.885  27.823  23.741  1.00  0.00    -0.269 OA
BRANCH  13  15
ATOM     15  N   UNL A   1      31.910  28.297  24.714  1.00  0.00    -0.338 N 
ATOM     16  C   UNL A   1      31.486  28.160  27.808  1.00  0.00     0.009 C 
ATOM     17  C   UNL A   1      32.238  29.214  26.993  1.00  0.00     0.005 C 
ATOM     18  C   UNL A   1      33.734  28.881  26.856  1.00  0.00     0.007 C 
ATOM     19  C   UNL A   1      31.599  29.407  25.613  1.00  0.00     0.123 C 
ATOM     20  C   UNL A   1      34.013  27.779  25.825  1.00  0.00     0.022 C 
ATOM     21  C   UNL A   1      33.338  28.088  24.488  1.00  0.00     0.120 C 
ENDBRANCH  13  15
ENDBRANCH   8  13
ENDBRANCH   4   7
ENDBRANCH   2   3
ENDBRANCH   1   2
BRANCH   1  22
ATOM     22  C   UNL A   1      36.000  22.507  25.727  1.00  0.00     0.118 C 
BRANCH  22  23
ATOM     23  N   UNL A   1      36.865  21.334  25.690  1.00  0.00    -0.352 N 
ATOM     24  C   UNL A   1      38.236  21.243  25.748  1.00  0.00     0.251 C 
ATOM     25  H   UNL A   1      36.395  20.472  25.609  1.00  0.00     0.163 HD
ATOM     26  O   UNL A   1      38.780  20.208  25.374  1.00  0.00    -0.269 OA
BRANCH  24  27
ATOM     27  C   UNL A   1      39.058  22.369  26.251  1.00  0.00     0.039 A 
ATOM     28  C   UNL A   1      40.122  22.102  27.122  1.00  0.00     0.014 A 
ATOM     29  C   UNL A   1      38.734  23.693  25.944  1.00  0.00     0.014 A 
ATOM     30  C   UNL A   1      40.889  23.153  27.640  1.00  0.00     0.010 A 
ATOM     31  C   UNL A   1      39.533  24.735  26.412  1.00  0.00     0.010 A 
ATOM     32  C   UNL A   1      40.615  24.478  27.270  1.00  0.00    -0.014 A 
BRANCH  32  33
ATOM     33  C   UNL A   1      41.402  25.630  27.788  1.00  0.00     0.031 A 
ATOM     34  C   UNL A   1      40.711  26.679  28.617  1.00  0.00     0.074 A 
ATOM     35  C   UNL A   1      42.690  25.795  27.434  1.00  0.00     0.049 A 
ATOM     36  N   UNL A   1      41.105  27.888  28.928  1.00  0.00    -0.248 NA
ATOM     37  C   UNL A   1      39.380  26.327  29.131  1.00  0.00     0.031 C 
ATOM     38  C   UNL A   1      43.479  24.853  26.638  1.00  0.00     0.029 A 
ATOM     39  N   UNL A   1      43.555  26.835  27.671  1.00  0.00    -0.354 N 
ATOM     40  C   UNL A   1      40.048  28.460  29.630  1.00  0.00     0.074 A 
ATOM     41  C   UNL A   1      38.994  27.468  29.681  1.00  0.00     0.031 C 
ATOM     42  C   UNL A   1      44.708  25.362  26.446  1.00  0.00     0.029 A 
ATOM     43  C   UNL A   1      44.775  26.688  27.053  1.00  0.00     0.049 A 
ATOM     44  H   UNL A   1      43.324  27.612  28.231  1.00  0.00     0.167 HD
ATOM     45  C   UNL A   1      39.967  29.698  30.180  1.00  0.00     0.034 A 
ATOM     46  C   UNL A   1      45.814  27.540  26.950  1.00  0.00     0.034 A 
ATOM     47  C   UNL A   1      41.039  30.663  30.152  1.00  0.00     0.049 A 
ATOM     48  C   UNL A   1      45.714  28.902  27.589  1.00  0.00     0.074 A 
ATOM     49  C   UNL A   1      41.070  31.942  30.681  1.00  0.00     0.029 A 
ATOM     50  N   UNL A   1      42.283  30.444  29.575  1.00  0.00    -0.354 N 
ATOM     51  N   UNL A   1      44.694  29.447  28.208  1.00  0.00    -0.248 NA
ATOM     52  C   UNL A   1      46.904  29.761  27.512  1.00  0.00     0.031 C 
ATOM     53  C   UNL A   1      42.321  32.505  30.399  1.00  0.00     0.029 A 
ATOM     54  C   UNL A   1      43.086  31.560  29.737  1.00  0.00     0.049 A 
ATOM     55  H   UNL A   1      42.554  29.616  29.116  1.00  0.00     0.167 HD
ATOM     56  C   UNL A   1      45.128  30.704  28.616  1.00  0.00     0.074 A 
ATOM     57  C   UNL A   1      46.501  30.836  28.175  1.00  0.00     0.031 C 
ATOM     58  C   UNL A   1      44.454  31.664  29.296  1.00  0.00     0.034 A 
BRANCH  45  59
ATOM     59  C   UNL A   1      38.656  30.084  30.816  1.00  0.00     0.023 A 
ATOM     60  C   UNL A   1      37.673  30.794  30.106  1.00  0.00     0.031 A 
ATOM     61  C   UNL A   1      38.404  29.780  32.166  1.00  0.00     0.131 A 
ATOM     62  C   UNL A   1      36.521  31.246  30.769  1.00  0.00     0.055 A 
ATOM     63  C   UNL A   1      37.221  30.163  32.798  1.00  0.00     0.041 A 
ATOM     64  F   UNL A   1      39.316  29.121  32.898  1.00  0.00    -0.206 F 
ATOM     65  C   UNL A   1      36.277  30.915  32.104  1.00  0.00     0.022 A 
BRANCH  62  66
ATOM     66  S   UNL A   1      35.414  32.386  29.898  1.00  0.00     0.124 S 
ATOM     67  O   UNL A   1      34.379  32.614  30.904  1.00  0.00    -0.237 OA
ATOM     68  O   UNL A   1      36.286  33.519  29.612  1.00  0.00    -0.237 OA
ATOM     69  O   UNL A   1      34.982  31.621  28.730  1.00  0.00    -0.744 OA
ENDBRANCH  62  66
ENDBRANCH  45  59
BRANCH  46  70
ATOM     70  C   UNL A   1      47.026  27.157  26.176  1.00  0.00     0.023 A 
ATOM     71  C   UNL A   1      47.199  27.581  24.850  1.00  0.00     0.031 A 
ATOM     72  C   UNL A   1      48.013  26.332  26.743  1.00  0.00     0.131 A 
ATOM     73  C   UNL A   1      48.317  27.148  24.120  1.00  0.00     0.055 A 
ATOM     74  C   UNL A   1      49.142  25.937  26.027  1.00  0.00     0.041 A 
ATOM     75  F   UNL A   1      47.897  25.910  28.013  1.00  0.00    -0.206 F 
ATOM     76  C   UNL A   1      49.293  26.336  24.702  1.00  0.00     0.022 A 
BRANCH  73  77
ATOM     77  S   UNL A   1      48.440  27.606  22.370  1.00  0.00     0.124 S 
ATOM     78  O   UNL A   1      48.556  26.302  21.726  1.00  0.00    -0.237 OA
ATOM     79  O   UNL A   1      47.184  28.318  22.157  1.00  0.00    -0.237 OA
ATOM     80  O   UNL A   1      49.641  28.437  22.320  1.00  0.00    -0.744 OA
ENDBRANCH  73  77
ENDBRANCH  46  70
BRANCH  58  81
ATOM     81  C   UNL A   1      45.221  32.907  29.657  1.00  0.00     0.023 A 
ATOM     82  C   UNL A   1      45.228  34.038  28.825  1.00  0.00     0.031 A 
ATOM     83  C   UNL A   1      45.955  32.950  30.855  1.00  0.00     0.131 A 
ATOM     84  C   UNL A   1      45.987  35.160  29.188  1.00  0.00     0.055 A 
ATOM     85  C   UNL A   1      46.681  34.081  31.226  1.00  0.00     0.041 A 
ATOM     86  F   UNL A   1      45.977  31.890  31.680  1.00  0.00    -0.206 F 
ATOM     87  C   UNL A   1      46.705  35.192  30.387  1.00  0.00     0.022 A 
BRANCH  84  88
ATOM     88  S   UNL A   1      46.054  36.574  28.053  1.00  0.00     0.124 S 
ATOM     89  O   UNL A   1      47.460  36.581  27.661  1.00  0.00    -0.237 OA
ATOM     90  O   UNL A   1      45.105  36.189  27.013  1.00  0.00    -0.237 OA
ATOM     91  O   UNL A   1      45.636  37.701  28.884  1.00  0.00    -0.744 OA
ENDBRANCH  84  88
ENDBRANCH  58  81
ENDBRANCH  32  33
ENDBRANCH  24  27
ENDBRANCH  22  23
ENDBRANCH   1  22
TORSDOF 15
ENDMDL
MODEL 2
REMARK VINA RESULT:     -11.9      5.689     10.636
REMARK SMILES C[C@H]1CCCN(C(=O)c2cn(C)nc2C(=O)NCCCNC(=O)c2ccc(-c3c4nc(c(-c5cc(S(=O)(=O)[O-])ccc5F)c5ccc([nH]5)c(-c5cc(S(=O)(=O)[O-])ccc5F)c5nc(c(-c6cc(S(=O)(=O)[O-])ccc6F)c6ccc3[nH]6)C=C5)C=C4)cc2)C1
REMARK SMILES IDX 19 1 18 2 17 3 15 4 16 5 14 7 9 8 10 9 11 10 13 11 12 12
REMARK SMILES IDX 7 13 8 14 6 15 1 16 2 17 3 18 87 19 4 20 5 21 20 22 21 23
REMARK SMILES IDX 22 24 23 26 24 27 25 28 86 29 26 30 85 31 27 32 28 33 29 34
REMARK SMILES IDX 79 35 30 36 84 37 78 38 80 39 31 40 83 41 77 42 76 43 32 45
REMARK SMILES IDX 64 46 44 47 63 48 45 49 48 50 62 51 81 52 46 53 47 54 61 56
REMARK SMILES IDX 82 57 49 58 33 59 34 60 42 61 35 62 41 63 43 64 40 65 36 66
REMARK SMILES IDX 37 67 38 68 39 69 65 70 66 71 74 72 67 73 73 74 75 75 72 76
REMARK SMILES IDX 68 77 69 78 70 79 71 80 50 81 51 82 59 83 52 84 58 85 60 86
REMARK SMILES IDX 57 87 53 88 54 89 55 90 56 91
REMARK H PARENT 17 6 21 25 80 44 48 55
REMARK Flexibility Score: inf
ROOT
ATOM      1  C   UNL A   1      31.703  31.583  26.818  1.00  0.00     0.042 C 
ENDROOT
BRANCH   1   2
ATOM      2  C   UNL A   1      31.883  30.073  26.693  1.00  0.00     0.118 C 
BRANCH   2   3
ATOM      3  N   UNL A   1      32.579  29.727  25.479  1.00  0.00    -0.351 N 
ATOM      4  C   UNL A   1      32.221  29.199  24.265  1.00  0.00     0.272 C 
ATOM      5  O   UNL A   1      33.183  29.119  23.488  1.00  0.00    -0.267 OA
ATOM      6  H   UNL A   1      33.544  29.914  25.534  1.00  0.00     0.163 HD
BRANCH   4   7
ATOM      7  C   UNL A   1      30.862  28.764  23.839  1.00  0.00     0.162 A 
ATOM      8  C   UNL A   1      30.129  27.527  23.798  1.00  0.00     0.091 A 
ATOM      9  C   UNL A   1      28.883  27.853  23.279  1.00  0.00     0.123 A 
ATOM     10  N   UNL A   1      28.923  29.174  23.002  1.00  0.00    -0.274 N 
ATOM     11  N   UNL A   1      30.081  29.745  23.319  1.00  0.00    -0.167 NA
ATOM     12  C   UNL A   1      27.881  29.983  22.419  1.00  0.00     0.173 C 
BRANCH   8  13
ATOM     13  C   UNL A   1      30.440  26.179  24.223  1.00  0.00     0.257 C 
ATOM     14  O   UNL A   1      30.290  25.858  25.399  1.00  0.00    -0.269 OA
BRANCH  13  15
ATOM     15  N   UNL A   1      30.842  25.267  23.250  1.00  0.00    -0.338 N 
ATOM     16  C   UNL A   1      33.935  25.620  23.527  1.00  0.00     0.009 C 
ATOM     17  C   UNL A   1      33.143  25.015  22.366  1.00  0.00     0.005 C 
ATOM     18  C   UNL A   1      32.977  23.492  22.511  1.00  0.00     0.007 C 
ATOM     19  C   UNL A   1      31.778  25.695  22.213  1.00  0.00     0.123 C 
ATOM     20  C   UNL A   1      31.909  23.098  23.540  1.00  0.00     0.022 C 
ATOM     21  C   UNL A   1      30.591  23.827  23.277  1.00  0.00     0.120 C 
ENDBRANCH  13  15
ENDBRANCH   8  13
ENDBRANCH   4   7
ENDBRANCH   2   3
ENDBRANCH   1   2
BRANCH   1  22
ATOM     22  C   UNL A   1      32.993  32.299  27.219  1.00  0.00     0.118 C 
BRANCH  22  23
ATOM     23  N   UNL A   1      32.720  33.666  27.648  1.00  0.00    -0.352 N 
ATOM     24  C   UNL A   1      33.231  34.379  28.707  1.00  0.00     0.251 C 
ATOM     25  H   UNL A   1      32.068  34.154  27.095  1.00  0.00     0.163 HD
ATOM     26  O   UNL A   1      32.638  35.385  29.088  1.00  0.00    -0.269 OA
BRANCH  24  27
ATOM     27  C   UNL A   1      34.476  33.954  29.389  1.00  0.00     0.039 A 
ATOM     28  C   UNL A   1      35.709  34.405  28.901  1.00  0.00     0.014 A 
ATOM     29  C   UNL A   1      34.444  33.043  30.448  1.00  0.00     0.014 A 
ATOM     30  C   UNL A   1      36.901  33.986  29.505  1.00  0.00     0.010 A 
ATOM     31  C   UNL A   1      35.627  32.673  31.086  1.00  0.00     0.010 A 
ATOM     32  C   UNL A   1      36.869  33.134  30.619  1.00  0.00    -0.014 A 
BRANCH  32  33
ATOM     33  C   UNL A   1      38.105  32.664  31.301  1.00  0.00     0.031 A 
ATOM     34  C   UNL A   1      38.898  31.539  30.691  1.00  0.00     0.074 A 
ATOM     35  C   UNL A   1      38.457  33.160  32.502  1.00  0.00     0.049 A 
ATOM     36  N   UNL A   1      39.821  30.783  31.229  1.00  0.00    -0.248 NA
ATOM     37  C   UNL A   1      38.577  31.200  29.298  1.00  0.00     0.031 C 
ATOM     38  C   UNL A   1      37.778  34.252  33.201  1.00  0.00     0.029 A 
ATOM     39  N   UNL A   1      39.458  32.784  33.364  1.00  0.00    -0.354 N 
ATOM     40  C   UNL A   1      40.154  29.844  30.257  1.00  0.00     0.074 A 
ATOM     41  C   UNL A   1      39.320  30.120  29.106  1.00  0.00     0.031 C 
ATOM     42  C   UNL A   1      38.376  34.451  34.388  1.00  0.00     0.029 A 
ATOM     43  C   UNL A   1      39.440  33.466  34.558  1.00  0.00     0.049 A 
ATOM     44  H   UNL A   1      40.125  32.092  33.148  1.00  0.00     0.167 HD
ATOM     45  C   UNL A   1      41.071  28.845  30.322  1.00  0.00     0.034 A 
ATOM     46  C   UNL A   1      40.168  33.292  35.679  1.00  0.00     0.034 A 
ATOM     47  C   UNL A   1      41.919  28.605  31.463  1.00  0.00     0.049 A 
ATOM     48  C   UNL A   1      41.199  32.193  35.722  1.00  0.00     0.074 A 
ATOM     49  C   UNL A   1      42.886  27.628  31.637  1.00  0.00     0.029 A 
ATOM     50  N   UNL A   1      41.915  29.366  32.625  1.00  0.00    -0.354 N 
ATOM     51  N   UNL A   1      41.470  31.284  34.816  1.00  0.00    -0.248 NA
ATOM     52  C   UNL A   1      42.016  32.096  36.939  1.00  0.00     0.031 C 
ATOM     53  C   UNL A   1      43.444  27.782  32.911  1.00  0.00     0.029 A 
ATOM     54  C   UNL A   1      42.860  28.883  33.514  1.00  0.00     0.049 A 
ATOM     55  H   UNL A   1      41.324  30.136  32.792  1.00  0.00     0.167 HD
ATOM     56  C   UNL A   1      42.508  30.523  35.344  1.00  0.00     0.074 A 
ATOM     57  C   UNL A   1      42.814  31.079  36.646  1.00  0.00     0.031 C 
ATOM     58  C   UNL A   1      43.152  29.460  34.802  1.00  0.00     0.034 A 
BRANCH  45  59
ATOM     59  C   UNL A   1      41.162  27.917  29.138  1.00  0.00     0.023 A 
ATOM     60  C   UNL A   1      42.170  28.056  28.169  1.00  0.00     0.031 A 
ATOM     61  C   UNL A   1      40.199  26.910  28.949  1.00  0.00     0.131 A 
ATOM     62  C   UNL A   1      42.146  27.256  27.016  1.00  0.00     0.055 A 
ATOM     63  C   UNL A   1      40.227  26.065  27.838  1.00  0.00     0.041 A 
ATOM     64  F   UNL A   1      39.201  26.745  29.832  1.00  0.00    -0.206 F 
ATOM     65  C   UNL A   1      41.195  26.245  26.855  1.00  0.00     0.022 A 
BRANCH  62  66
ATOM     66  S   UNL A   1      43.294  27.646  25.668  1.00  0.00     0.124 S 
ATOM     67  O   UNL A   1      42.374  27.855  24.552  1.00  0.00    -0.237 OA
ATOM     68  O   UNL A   1      43.974  28.837  26.166  1.00  0.00    -0.237 OA
ATOM     69  O   UNL A   1      44.125  26.449  25.568  1.00  0.00    -0.744 OA
ENDBRANCH  62  66
ENDBRANCH  45  59
BRANCH  46  70
ATOM     70  C   UNL A   1      39.924  34.145  36.873  1.00  0.00     0.023 A 
ATOM     71  C   UNL A   1      39.301  33.624  38.017  1.00  0.00     0.031 A 
ATOM     72  C   UNL A   1      40.283  35.504  36.874  1.00  0.00     0.131 A 
ATOM     73  C   UNL A   1      39.020  34.467  39.103  1.00  0.00     0.055 A 
ATOM     74  C   UNL A   1      40.037  36.330  37.971  1.00  0.00     0.041 A 
ATOM     75  F   UNL A   1      40.892  36.046  35.807  1.00  0.00    -0.206 F 
ATOM     76  C   UNL A   1      39.391  35.814  39.091  1.00  0.00     0.022 A 
BRANCH  73  77
ATOM     77  S   UNL A   1      38.094  33.792  40.509  1.00  0.00     0.124 S 
ATOM     78  O   UNL A   1      37.003  33.091  39.841  1.00  0.00    -0.237 OA
ATOM     79  O   UNL A   1      39.099  32.952  41.152  1.00  0.00    -0.237 OA
ATOM     80  O   UNL A   1      37.705  34.981  41.262  1.00  0.00    -0.744 OA
ENDBRANCH  73  77
ENDBRANCH  46  70
BRANCH  58  81
ATOM     81  C   UNL A   1      44.293  28.881  35.593  1.00  0.00     0.023 A 
ATOM     82  C   UNL A   1      44.092  27.864  36.542  1.00  0.00     0.031 A 
ATOM     83  C   UNL A   1      45.598  29.361  35.390  1.00  0.00     0.131 A 
ATOM     84  C   UNL A   1      45.182  27.382  37.280  1.00  0.00     0.055 A 
ATOM     85  C   UNL A   1      46.683  28.853  36.104  1.00  0.00     0.041 A 
ATOM     86  F   UNL A   1      45.836  30.332  34.494  1.00  0.00    -0.206 F 
ATOM     87  C   UNL A   1      46.477  27.862  37.061  1.00  0.00     0.022 A 
BRANCH  84  88
ATOM     88  S   UNL A   1      44.884  26.135  38.564  1.00  0.00     0.124 S 
ATOM     89  O   UNL A   1      45.909  26.463  39.550  1.00  0.00    -0.237 OA
ATOM     90  O   UNL A   1      43.507  26.413  38.961  1.00  0.00    -0.237 OA
ATOM     91  O   UNL A   1      45.080  24.867  37.863  1.00  0.00    -0.744 OA
ENDBRANCH  84  88
ENDBRANCH  58  81
ENDBRANCH  32  33
ENDBRANCH  24  27
ENDBRANCH  22  23
ENDBRANCH   1  22
TORSDOF 15
ENDMDL
MODEL 3
REMARK VINA RESULT:     -11.9      4.920      9.635
REMARK SMILES C[C@H]1CCCN(C(=O)c2cn(C)nc2C(=O)NCCCNC(=O)c2ccc(-c3c4nc(c(-c5cc(S(=O)(=O)[O-])ccc5F)c5ccc([nH]5)c(-c5cc(S(=O)(=O)[O-])ccc5F)c5nc(c(-c6cc(S(=O)(=O)[O-])ccc6F)c6ccc3[nH]6)C=C5)C=C4)cc2)C1
REMARK SMILES IDX 19 1 18 2 17 3 15 4 16 5 14 7 9 8 10 9 11 10 13 11 12 12
REMARK SMILES IDX 7 13 8 14 6 15 1 16 2 17 3 18 87 19 4 20 5 21 20 22 21 23
REMARK SMILES IDX 22 24 23 26 24 27 25 28 86 29 26 30 85 31 27 32 28 33 29 34
REMARK SMILES IDX 79 35 30 36 84 37 78 38 80 39 31 40 83 41 77 42 76 43 32 45
REMARK SMILES IDX 64 46 44 47 63 48 45 49 48 50 62 51 81 52 46 53 47 54 61 56
REMARK SMILES IDX 82 57 49 58 33 59 34 60 42 61 35 62 41 63 43 64 40 65 36 66
REMARK SMILES IDX 37 67 38 68 39 69 65 70 66 71 74 72 67 73 73 74 75 75 72 76
REMARK SMILES IDX 68 77 69 78 70 79 71 80 50 81 51 82 59 83 52 84 58 85 60 86
REMARK SMILES IDX 57 87 53 88 54 89 55 90 56 91
REMARK H PARENT 17 6 21 25 80 44 48 55
REMARK Flexibility Score: inf
ROOT
ATOM      1  C   UNL A   1      34.248  28.728  24.173  1.00  0.00     0.042 C 
ENDROOT
BRANCH   1   2
ATOM      2  C   UNL A   1      33.588  28.960  22.817  1.00  0.00     0.118 C 
BRANCH   2   3
ATOM      3  N   UNL A   1      33.601  27.761  22.016  1.00  0.00    -0.351 N 
ATOM      4  C   UNL A   1      32.948  26.557  22.049  1.00  0.00     0.272 C 
ATOM      5  O   UNL A   1      33.259  25.828  21.097  1.00  0.00    -0.267 OA
ATOM      6  H   UNL A   1      34.233  27.821  21.263  1.00  0.00     0.163 HD
BRANCH   4   7
ATOM      7  C   UNL A   1      31.953  26.102  23.060  1.00  0.00     0.162 A 
ATOM      8  C   UNL A   1      31.965  25.270  24.233  1.00  0.00     0.091 A 
ATOM      9  C   UNL A   1      30.661  25.283  24.709  1.00  0.00     0.123 A 
ATOM     10  N   UNL A   1      29.949  26.034  23.841  1.00  0.00    -0.274 N 
ATOM     11  N   UNL A   1      30.682  26.532  22.850  1.00  0.00    -0.167 NA
ATOM     12  C   UNL A   1      28.537  26.325  23.882  1.00  0.00     0.173 C 
BRANCH   8  13
ATOM     13  C   UNL A   1      33.016  24.563  24.933  1.00  0.00     0.257 C 
ATOM     14  O   UNL A   1      33.433  24.992  26.005  1.00  0.00    -0.269 OA
BRANCH  13  15
ATOM     15  N   UNL A   1      33.475  23.368  24.383  1.00  0.00    -0.338 N 
ATOM     16  C   UNL A   1      36.521  23.712  24.990  1.00  0.00     0.009 C 
ATOM     17  C   UNL A   1      35.848  22.775  23.985  1.00  0.00     0.005 C 
ATOM     18  C   UNL A   1      35.551  21.393  24.592  1.00  0.00     0.007 C 
ATOM     19  C   UNL A   1      34.569  23.401  23.415  1.00  0.00     0.123 C 
ATOM     20  C   UNL A   1      34.330  21.393  25.521  1.00  0.00     0.022 C 
ATOM     21  C   UNL A   1      33.116  22.027  24.840  1.00  0.00     0.120 C 
ENDBRANCH  13  15
ENDBRANCH   8  13
ENDBRANCH   4   7
ENDBRANCH   2   3
ENDBRANCH   1   2
BRANCH   1  22
ATOM     22  C   UNL A   1      33.234  28.647  25.315  1.00  0.00     0.118 C 
BRANCH  22  23
ATOM     23  N   UNL A   1      32.697  29.965  25.631  1.00  0.00    -0.352 N 
ATOM     24  C   UNL A   1      33.012  30.827  26.656  1.00  0.00     0.251 C 
ATOM     25  H   UNL A   1      31.999  30.289  25.017  1.00  0.00     0.163 HD
ATOM     26  O   UNL A   1      32.229  31.729  26.937  1.00  0.00    -0.269 OA
BRANCH  24  27
ATOM     27  C   UNL A   1      34.276  30.681  27.418  1.00  0.00     0.039 A 
ATOM     28  C   UNL A   1      35.081  31.808  27.625  1.00  0.00     0.014 A 
ATOM     29  C   UNL A   1      34.716  29.429  27.852  1.00  0.00     0.014 A 
ATOM     30  C   UNL A   1      36.297  31.688  28.309  1.00  0.00     0.010 A 
ATOM     31  C   UNL A   1      35.897  29.320  28.584  1.00  0.00     0.010 A 
ATOM     32  C   UNL A   1      36.704  30.445  28.816  1.00  0.00    -0.014 A 
BRANCH  32  33
ATOM     33  C   UNL A   1      37.984  30.264  29.553  1.00  0.00     0.031 A 
ATOM     34  C   UNL A   1      39.022  29.322  29.006  1.00  0.00     0.074 A 
ATOM     35  C   UNL A   1      38.174  30.851  30.751  1.00  0.00     0.049 A 
ATOM     36  N   UNL A   1      40.061  28.792  29.598  1.00  0.00    -0.248 NA
ATOM     37  C   UNL A   1      38.836  28.891  27.613  1.00  0.00     0.031 C 
ATOM     38  C   UNL A   1      37.251  31.787  31.393  1.00  0.00     0.029 A 
ATOM     39  N   UNL A   1      39.196  30.716  31.658  1.00  0.00    -0.354 N 
ATOM     40  C   UNL A   1      40.626  27.925  28.667  1.00  0.00     0.074 A 
ATOM     41  C   UNL A   1      39.799  27.991  27.480  1.00  0.00     0.031 C 
ATOM     42  C   UNL A   1      37.744  32.136  32.594  1.00  0.00     0.029 A 
ATOM     43  C   UNL A   1      38.986  31.405  32.830  1.00  0.00     0.049 A 
ATOM     44  H   UNL A   1      40.003  30.178  31.486  1.00  0.00     0.167 HD
ATOM     45  C   UNL A   1      41.730  27.147  28.794  1.00  0.00     0.034 A 
ATOM     46  C   UNL A   1      39.689  31.414  33.980  1.00  0.00     0.034 A 
ATOM     47  C   UNL A   1      42.564  27.118  29.970  1.00  0.00     0.049 A 
ATOM     48  C   UNL A   1      40.926  30.562  34.092  1.00  0.00     0.074 A 
ATOM     49  C   UNL A   1      43.708  26.374  30.206  1.00  0.00     0.029 A 
ATOM     50  N   UNL A   1      42.351  27.886  31.107  1.00  0.00    -0.354 N 
ATOM     51  N   UNL A   1      41.421  29.712  33.223  1.00  0.00    -0.248 NA
ATOM     52  C   UNL A   1      41.696  30.668  35.338  1.00  0.00     0.031 C 
ATOM     53  C   UNL A   1      44.169  26.672  31.494  1.00  0.00     0.029 A 
ATOM     54  C   UNL A   1      43.340  27.635  32.043  1.00  0.00     0.049 A 
ATOM     55  H   UNL A   1      41.604  28.516  31.231  1.00  0.00     0.167 HD
ATOM     56  C   UNL A   1      42.574  29.202  33.809  1.00  0.00     0.074 A 
ATOM     57  C   UNL A   1      42.703  29.838  35.104  1.00  0.00     0.031 C 
ATOM     58  C   UNL A   1      43.451  28.289  33.323  1.00  0.00     0.034 A 
BRANCH  45  59
ATOM     59  C   UNL A   1      42.064  26.234  27.641  1.00  0.00     0.023 A 
ATOM     60  C   UNL A   1      41.603  24.907  27.594  1.00  0.00     0.031 A 
ATOM     61  C   UNL A   1      42.895  26.682  26.598  1.00  0.00     0.131 A 
ATOM     62  C   UNL A   1      42.040  24.052  26.571  1.00  0.00     0.055 A 
ATOM     63  C   UNL A   1      43.261  25.848  25.541  1.00  0.00     0.041 A 
ATOM     64  F   UNL A   1      43.380  27.933  26.602  1.00  0.00    -0.206 F 
ATOM     65  C   UNL A   1      42.847  24.519  25.531  1.00  0.00     0.022 A 
BRANCH  62  66
ATOM     66  S   UNL A   1      41.648  22.286  26.694  1.00  0.00     0.124 S 
ATOM     67  O   UNL A   1      42.709  21.694  25.882  1.00  0.00    -0.237 OA
ATOM     68  O   UNL A   1      41.732  22.042  28.129  1.00  0.00    -0.237 OA
ATOM     69  O   UNL A   1      40.307  22.192  26.122  1.00  0.00    -0.744 OA
ENDBRANCH  62  66
ENDBRANCH  45  59
BRANCH  46  70
ATOM     70  C   UNL A   1      39.221  32.222  35.139  1.00  0.00     0.023 A 
ATOM     71  C   UNL A   1      39.721  33.513  35.367  1.00  0.00     0.031 A 
ATOM     72  C   UNL A   1      38.290  31.699  36.053  1.00  0.00     0.131 A 
ATOM     73  C   UNL A   1      39.315  34.226  36.506  1.00  0.00     0.055 A 
ATOM     74  C   UNL A   1      37.859  32.427  37.162  1.00  0.00     0.041 A 
ATOM     75  F   UNL A   1      37.775  30.473  35.870  1.00  0.00    -0.206 F 
ATOM     76  C   UNL A   1      38.382  33.695  37.400  1.00  0.00     0.022 A 
BRANCH  73  77
ATOM     77  S   UNL A   1      40.081  35.835  36.840  1.00  0.00     0.124 S 
ATOM     78  O   UNL A   1      39.488  36.188  38.126  1.00  0.00    -0.237 OA
ATOM     79  O   UNL A   1      41.499  35.493  36.860  1.00  0.00    -0.237 OA
ATOM     80  O   UNL A   1      39.656  36.655  35.709  1.00  0.00    -0.744 OA
ENDBRANCH  73  77
ENDBRANCH  46  70
BRANCH  58  81
ATOM     81  C   UNL A   1      44.656  27.985  34.170  1.00  0.00     0.023 A 
ATOM     82  C   UNL A   1      44.604  27.051  35.218  1.00  0.00     0.031 A 
ATOM     83  C   UNL A   1      45.871  28.645  33.919  1.00  0.00     0.131 A 
ATOM     84  C   UNL A   1      45.744  26.827  36.003  1.00  0.00     0.055 A 
ATOM     85  C   UNL A   1      47.011  28.393  34.682  1.00  0.00     0.041 A 
ATOM     86  F   UNL A   1      45.966  29.546  32.928  1.00  0.00    -0.206 F 
ATOM     87  C   UNL A   1      46.949  27.484  35.736  1.00  0.00     0.022 A 
BRANCH  84  88
ATOM     88  S   UNL A   1      45.627  25.686  37.408  1.00  0.00     0.124 S 
ATOM     89  O   UNL A   1      46.282  24.491  36.885  1.00  0.00    -0.237 OA
ATOM     90  O   UNL A   1      46.350  26.400  38.456  1.00  0.00    -0.237 OA
ATOM     91  O   UNL A   1      44.187  25.559  37.628  1.00  0.00    -0.744 OA
ENDBRANCH  84  88
ENDBRANCH  58  81
ENDBRANCH  32  33
ENDBRANCH  24  27
ENDBRANCH  22  23
ENDBRANCH   1  22
TORSDOF 15
ENDMDL
