MODEL 1
REMARK VINA RESULT:     -11.8      0.000      0.000
REMARK SMILES O=C(NCCCNC(=O)c1ccc(S(=O)(=O)NCC[NH+]2CCCC2)c(F)c1)c1ccc(-c2c3nc(c(-c4cc(S(=O)(=O)[O-])ccc4F)c4ccc([nH]4)c(-c4cc(S(=O)(=O)[O-])ccc4F)c4nc(c(-c5cc(S(=O)(=O)[O-])ccc5F)c5ccc2[nH]5)C=C4)C=C3)cc1
REMARK SMILES IDX 6 1 5 2 4 3 3 4 1 5 2 6 28 8 29 9 90 10 30 11 89 12 31 13
REMARK SMILES IDX 32 14 33 15 83 16 34 17 88 18 82 19 84 20 35 21 87 22 81 23
REMARK SMILES IDX 80 24 36 26 68 27 48 28 67 29 49 30 52 31 66 32 85 33 50 34
REMARK SMILES IDX 51 35 65 37 86 38 53 39 37 40 38 41 46 42 39 43 45 44 47 45
REMARK SMILES IDX 44 46 40 47 41 48 42 49 43 50 69 51 70 52 78 53 71 54 77 55
REMARK SMILES IDX 79 56 76 57 72 58 73 59 74 60 75 61 54 62 55 63 63 64 56 65
REMARK SMILES IDX 62 66 64 67 61 68 57 69 58 70 59 71 60 72 7 73 8 74 9 76
REMARK SMILES IDX 10 77 11 78 27 79 12 80 25 81 13 82 26 83 14 84 15 85 16 86
REMARK SMILES IDX 17 87 18 89 19 90 20 91 21 92 24 93 22 95 23 96
REMARK H PARENT 3 7 84 25 52 36 7 75 17 88 20 94
REMARK Flexibility Score: inf
ROOT
ATOM      1  C   UNL A   1      32.989  28.321  22.763  1.00  0.00     0.118 C 
ENDROOT
BRANCH   1   2
ATOM      2  C   UNL A   1      33.593  29.329  23.729  1.00  0.00     0.042 C 
BRANCH   2   3
ATOM      3  C   UNL A   1      33.143  29.159  25.172  1.00  0.00     0.118 C 
BRANCH   3   4
ATOM      4  N   UNL A   1      32.595  30.382  25.749  1.00  0.00    -0.352 N 
ATOM      5  O   UNL A   1      32.301  32.044  27.235  1.00  0.00    -0.269 OA
ATOM      6  C   UNL A   1      33.016  31.133  26.822  1.00  0.00     0.251 C 
ATOM      7  H   UNL A   1      31.791  30.725  25.297  1.00  0.00     0.163 HD
BRANCH   6   8
ATOM      8  C   UNL A   1      34.301  30.837  27.491  1.00  0.00     0.039 A 
ATOM      9  C   UNL A   1      34.599  29.545  27.923  1.00  0.00     0.014 A 
ATOM     10  C   UNL A   1      35.232  31.863  27.681  1.00  0.00     0.014 A 
ATOM     11  C   UNL A   1      35.722  29.320  28.708  1.00  0.00     0.010 A 
ATOM     12  C   UNL A   1      36.421  31.609  28.375  1.00  0.00     0.010 A 
ATOM     13  C   UNL A   1      36.658  30.344  28.932  1.00  0.00    -0.014 A 
BRANCH  13  14
ATOM     14  C   UNL A   1      37.882  30.038  29.720  1.00  0.00     0.031 A 
ATOM     15  C   UNL A   1      38.020  30.489  31.149  1.00  0.00     0.074 A 
ATOM     16  C   UNL A   1      38.843  29.280  29.152  1.00  0.00     0.049 A 
ATOM     17  N   UNL A   1      39.006  30.278  31.982  1.00  0.00    -0.248 NA
ATOM     18  C   UNL A   1      36.918  31.283  31.718  1.00  0.00     0.031 C 
ATOM     19  C   UNL A   1      38.814  28.782  27.773  1.00  0.00     0.029 A 
ATOM     20  N   UNL A   1      40.005  28.763  29.664  1.00  0.00    -0.354 N 
ATOM     21  C   UNL A   1      38.658  30.924  33.164  1.00  0.00     0.074 A 
ATOM     22  C   UNL A   1      37.377  31.556  32.933  1.00  0.00     0.031 C 
ATOM     23  C   UNL A   1      39.864  27.973  27.574  1.00  0.00     0.029 A 
ATOM     24  C   UNL A   1      40.685  27.958  28.778  1.00  0.00     0.049 A 
ATOM     25  H   UNL A   1      40.322  28.949  30.576  1.00  0.00     0.167 HD
ATOM     26  C   UNL A   1      39.343  30.978  34.331  1.00  0.00     0.034 A 
ATOM     27  C   UNL A   1      41.850  27.295  28.909  1.00  0.00     0.034 A 
ATOM     28  C   UNL A   1      40.604  30.319  34.558  1.00  0.00     0.049 A 
ATOM     29  C   UNL A   1      42.601  27.398  30.205  1.00  0.00     0.074 A 
ATOM     30  C   UNL A   1      41.359  30.289  35.718  1.00  0.00     0.029 A 
ATOM     31  N   UNL A   1      41.295  29.575  33.614  1.00  0.00    -0.354 N 
ATOM     32  N   UNL A   1      42.263  28.038  31.299  1.00  0.00    -0.248 NA
ATOM     33  C   UNL A   1      43.895  26.707  30.282  1.00  0.00     0.031 C 
ATOM     34  C   UNL A   1      42.532  29.572  35.459  1.00  0.00     0.029 A 
ATOM     35  C   UNL A   1      42.481  29.105  34.156  1.00  0.00     0.049 A 
ATOM     36  H   UNL A   1      40.989  29.407  32.693  1.00  0.00     0.167 HD
ATOM     37  C   UNL A   1      43.304  27.826  32.196  1.00  0.00     0.074 A 
ATOM     38  C   UNL A   1      44.272  26.985  31.522  1.00  0.00     0.031 C 
ATOM     39  C   UNL A   1      43.443  28.287  33.462  1.00  0.00     0.034 A 
BRANCH  26  40
ATOM     40  C   UNL A   1      38.765  31.799  35.454  1.00  0.00     0.023 A 
ATOM     41  C   UNL A   1      38.188  31.199  36.585  1.00  0.00     0.031 A 
ATOM     42  C   UNL A   1      38.849  33.202  35.413  1.00  0.00     0.131 A 
ATOM     43  C   UNL A   1      37.690  32.004  37.621  1.00  0.00     0.055 A 
ATOM     44  C   UNL A   1      38.400  33.995  36.471  1.00  0.00     0.041 A 
ATOM     45  F   UNL A   1      39.379  33.823  34.348  1.00  0.00    -0.206 F 
ATOM     46  C   UNL A   1      37.814  33.396  37.582  1.00  0.00     0.022 A 
BRANCH  43  47
ATOM     47  S   UNL A   1      36.831  31.210  39.007  1.00  0.00     0.124 S 
ATOM     48  O   UNL A   1      36.651  29.851  38.501  1.00  0.00    -0.237 OA
ATOM     49  O   UNL A   1      37.784  31.360  40.101  1.00  0.00    -0.237 OA
ATOM     50  O   UNL A   1      35.603  31.990  39.140  1.00  0.00    -0.744 OA
ENDBRANCH  43  47
ENDBRANCH  26  40
BRANCH  27  51
ATOM     51  C   UNL A   1      42.393  26.518  27.761  1.00  0.00     0.023 A 
ATOM     52  C   UNL A   1      42.076  25.164  27.584  1.00  0.00     0.031 A 
ATOM     53  C   UNL A   1      43.231  27.134  26.812  1.00  0.00     0.131 A 
ATOM     54  C   UNL A   1      42.609  24.462  26.491  1.00  0.00     0.055 A 
ATOM     55  C   UNL A   1      43.723  26.443  25.705  1.00  0.00     0.041 A 
ATOM     56  F   UNL A   1      43.556  28.431  26.935  1.00  0.00    -0.206 F 
ATOM     57  C   UNL A   1      43.418  25.096  25.544  1.00  0.00     0.022 A 
BRANCH  54  58
ATOM     58  S   UNL A   1      42.255  22.690  26.338  1.00  0.00     0.124 S 
ATOM     59  O   UNL A   1      40.805  22.663  26.499  1.00  0.00    -0.237 OA
ATOM     60  O   UNL A   1      42.760  22.392  25.002  1.00  0.00    -0.237 OA
ATOM     61  O   UNL A   1      43.016  22.095  27.434  1.00  0.00    -0.744 OA
ENDBRANCH  54  58
ENDBRANCH  27  51
BRANCH  39  62
ATOM     62  C   UNL A   1      44.685  27.883  34.208  1.00  0.00     0.023 A 
ATOM     63  C   UNL A   1      44.755  26.659  34.891  1.00  0.00     0.031 A 
ATOM     64  C   UNL A   1      45.819  28.711  34.194  1.00  0.00     0.131 A 
ATOM     65  C   UNL A   1      45.936  26.306  35.560  1.00  0.00     0.055 A 
ATOM     66  C   UNL A   1      47.004  28.336  34.825  1.00  0.00     0.041 A 
ATOM     67  F   UNL A   1      45.797  29.889  33.549  1.00  0.00    -0.206 F 
ATOM     68  C   UNL A   1      47.066  27.129  35.517  1.00  0.00     0.022 A 
BRANCH  65  69
ATOM     69  S   UNL A   1      45.976  24.758  36.504  1.00  0.00     0.124 S 
ATOM     70  O   UNL A   1      44.640  24.222  36.258  1.00  0.00    -0.237 OA
ATOM     71  O   UNL A   1      47.078  24.033  35.880  1.00  0.00    -0.237 OA
ATOM     72  O   UNL A   1      46.225  25.200  37.875  1.00  0.00    -0.744 OA
ENDBRANCH  65  69
ENDBRANCH  39  62
ENDBRANCH  13  14
ENDBRANCH   6   8
ENDBRANCH   3   4
ENDBRANCH   2   3
ENDBRANCH   1   2
BRANCH   1  73
ATOM     73  N   UNL A   1      31.577  28.568  22.494  1.00  0.00    -0.352 N 
ATOM     74  C   UNL A   1      30.468  27.818  22.787  1.00  0.00     0.251 C 
ATOM     75  H   UNL A   1      31.390  29.413  22.024  1.00  0.00     0.163 HD
ATOM     76  O   UNL A   1      29.372  28.130  22.332  1.00  0.00    -0.269 OA
BRANCH  74  77
ATOM     77  C   UNL A   1      30.581  26.613  23.633  1.00  0.00     0.042 A 
ATOM     78  C   UNL A   1      30.277  26.652  24.998  1.00  0.00     0.015 A 
ATOM     79  C   UNL A   1      30.975  25.413  23.036  1.00  0.00     0.054 A 
ATOM     80  C   UNL A   1      30.510  25.532  25.791  1.00  0.00     0.026 A 
ATOM     81  C   UNL A   1      31.156  24.281  23.824  1.00  0.00     0.144 A 
ATOM     82  C   UNL A   1      30.975  24.351  25.199  1.00  0.00     0.118 A 
ATOM     83  F   UNL A   1      31.518  23.145  23.215  1.00  0.00    -0.205 F 
BRANCH  82  84
ATOM     84  S   UNL A   1      31.363  23.003  26.264  1.00  0.00     0.243 S 
ATOM     85  O   UNL A   1      31.158  23.466  27.619  1.00  0.00    -0.207 OA
ATOM     86  O   UNL A   1      30.658  21.852  25.743  1.00  0.00    -0.207 OA
BRANCH  84  87
ATOM     87  N   UNL A   1      32.976  22.692  26.082  1.00  0.00    -0.205 NA
ATOM     88  H   UNL A   1      33.462  23.503  26.466  1.00  0.00     0.141 HD
BRANCH  87  89
ATOM     89  C   UNL A   1      33.644  21.520  26.650  1.00  0.00     0.160 C 
BRANCH  89  90
ATOM     90  C   UNL A   1      33.929  20.406  25.622  1.00  0.00     0.278 C 
BRANCH  90  91
ATOM     91  N   UNL A   1      32.838  19.618  25.040  1.00  0.00    -0.334 N 
ATOM     92  C   UNL A   1      32.718  18.207  25.390  1.00  0.00     0.262 C 
ATOM     93  C   UNL A   1      32.725  19.773  23.587  1.00  0.00     0.262 C 
ATOM     94  H   UNL A   1      32.048  20.053  25.518  1.00  0.00     0.348 HD
ATOM     95  C   UNL A   1      32.756  17.459  24.065  1.00  0.00     0.067 C 
ATOM     96  C   UNL A   1      32.153  18.456  23.098  1.00  0.00     0.067 C 
ENDBRANCH  90  91
ENDBRANCH  89  90
ENDBRANCH  87  89
ENDBRANCH  84  87
ENDBRANCH  82  84
ENDBRANCH  74  77
ENDBRANCH   1  73
TORSDOF 18
ENDMDL
MODEL 2
REMARK VINA RESULT:     -11.7      1.246      7.617
REMARK SMILES O=C(NCCCNC(=O)c1ccc(S(=O)(=O)NCC[NH+]2CCCC2)c(F)c1)c1ccc(-c2c3nc(c(-c4cc(S(=O)(=O)[O-])ccc4F)c4ccc([nH]4)c(-c4cc(S(=O)(=O)[O-])ccc4F)c4nc(c(-c5cc(S(=O)(=O)[O-])ccc5F)c5ccc2[nH]5)C=C4)C=C3)cc1
REMARK SMILES IDX 6 1 5 2 4 3 3 4 1 5 2 6 28 8 29 9 90 10 30 11 89 12 31 13
REMARK SMILES IDX 32 14 33 15 83 16 34 17 88 18 82 19 84 20 35 21 87 22 81 23
REMARK SMILES IDX 80 24 36 26 68 27 48 28 67 29 49 30 52 31 66 32 85 33 50 34
REMARK SMILES IDX 51 35 65 37 86 38 53 39 37 40 38 41 46 42 39 43 45 44 47 45
REMARK SMILES IDX 44 46 40 47 41 48 42 49 43 50 69 51 70 52 78 53 71 54 77 55
REMARK SMILES IDX 79 56 76 57 72 58 73 59 74 60 75 61 54 62 55 63 63 64 56 65
REMARK SMILES IDX 62 66 64 67 61 68 57 69 58 70 59 71 60 72 7 73 8 74 9 76
REMARK SMILES IDX 10 77 11 78 27 79 12 80 25 81 13 82 26 83 14 84 15 85 16 86
REMARK SMILES IDX 17 87 18 89 19 90 20 91 21 92 24 93 22 95 23 96
REMARK H PARENT 3 7 84 25 52 36 7 75 17 88 20 94
REMARK Flexibility Score: inf
ROOT
ATOM      1  C   UNL A   1      33.788  28.973  23.797  1.00  0.00     0.118 C 
ENDROOT
BRANCH   1   2
ATOM      2  C   UNL A   1      32.418  29.323  24.355  1.00  0.00     0.042 C 
BRANCH   2   3
ATOM      3  C   UNL A   1      32.404  29.607  25.849  1.00  0.00     0.118 C 
BRANCH   3   4
ATOM      4  N   UNL A   1      32.190  31.015  26.163  1.00  0.00    -0.352 N 
ATOM      5  O   UNL A   1      32.403  32.970  27.254  1.00  0.00    -0.269 OA
ATOM      6  C   UNL A   1      32.861  31.853  27.024  1.00  0.00     0.251 C 
ATOM      7  H   UNL A   1      31.443  31.435  25.680  1.00  0.00     0.163 HD
BRANCH   6   8
ATOM      8  C   UNL A   1      34.107  31.411  27.687  1.00  0.00     0.039 A 
ATOM      9  C   UNL A   1      34.318  30.066  27.985  1.00  0.00     0.014 A 
ATOM     10  C   UNL A   1      35.090  32.354  28.008  1.00  0.00     0.014 A 
ATOM     11  C   UNL A   1      35.402  29.692  28.767  1.00  0.00     0.010 A 
ATOM     12  C   UNL A   1      36.240  31.957  28.698  1.00  0.00     0.010 A 
ATOM     13  C   UNL A   1      36.388  30.628  29.121  1.00  0.00    -0.014 A 
BRANCH  13  14
ATOM     14  C   UNL A   1      37.569  30.168  29.900  1.00  0.00     0.031 A 
ATOM     15  C   UNL A   1      38.645  29.332  29.260  1.00  0.00     0.074 A 
ATOM     16  C   UNL A   1      37.698  30.576  31.179  1.00  0.00     0.049 A 
ATOM     17  N   UNL A   1      39.750  28.876  29.790  1.00  0.00    -0.248 NA
ATOM     18  C   UNL A   1      38.458  28.951  27.850  1.00  0.00     0.031 C 
ATOM     19  C   UNL A   1      36.719  31.393  31.903  1.00  0.00     0.029 A 
ATOM     20  N   UNL A   1      38.712  30.399  32.085  1.00  0.00    -0.354 N 
ATOM     21  C   UNL A   1      40.382  28.141  28.791  1.00  0.00     0.074 A 
ATOM     22  C   UNL A   1      39.524  28.193  27.627  1.00  0.00     0.031 C 
ATOM     23  C   UNL A   1      37.213  31.708  33.109  1.00  0.00     0.029 A 
ATOM     24  C   UNL A   1      38.502  31.051  33.279  1.00  0.00     0.049 A 
ATOM     25  H   UNL A   1      39.512  29.857  31.900  1.00  0.00     0.167 HD
ATOM     26  C   UNL A   1      41.569  27.491  28.844  1.00  0.00     0.034 A 
ATOM     27  C   UNL A   1      39.253  31.103  34.397  1.00  0.00     0.034 A 
ATOM     28  C   UNL A   1      42.430  27.473  29.999  1.00  0.00     0.049 A 
ATOM     29  C   UNL A   1      40.549  30.348  34.434  1.00  0.00     0.074 A 
ATOM     30  C   UNL A   1      43.668  26.868  30.137  1.00  0.00     0.029 A 
ATOM     31  N   UNL A   1      42.148  28.084  31.212  1.00  0.00    -0.354 N 
ATOM     32  N   UNL A   1      41.112  29.638  33.485  1.00  0.00    -0.248 NA
ATOM     33  C   UNL A   1      41.305  30.384  35.693  1.00  0.00     0.031 C 
ATOM     34  C   UNL A   1      44.109  27.069  31.448  1.00  0.00     0.029 A 
ATOM     35  C   UNL A   1      43.175  27.848  32.111  1.00  0.00     0.049 A 
ATOM     36  H   UNL A   1      41.337  28.608  31.405  1.00  0.00     0.167 HD
ATOM     37  C   UNL A   1      42.290  29.143  34.034  1.00  0.00     0.074 A 
ATOM     38  C   UNL A   1      42.366  29.649  35.389  1.00  0.00     0.031 C 
ATOM     39  C   UNL A   1      43.222  28.342  33.464  1.00  0.00     0.034 A 
BRANCH  26  40
ATOM     40  C   UNL A   1      42.007  26.717  27.628  1.00  0.00     0.023 A 
ATOM     41  C   UNL A   1      41.816  25.329  27.528  1.00  0.00     0.031 A 
ATOM     42  C   UNL A   1      42.569  27.393  26.530  1.00  0.00     0.131 A 
ATOM     43  C   UNL A   1      42.212  24.655  26.363  1.00  0.00     0.055 A 
ATOM     44  C   UNL A   1      42.911  26.724  25.354  1.00  0.00     0.041 A 
ATOM     45  F   UNL A   1      42.784  28.716  26.582  1.00  0.00    -0.206 F 
ATOM     46  C   UNL A   1      42.735  25.346  25.267  1.00  0.00     0.022 A 
BRANCH  43  47
ATOM     47  S   UNL A   1      42.077  22.847  26.313  1.00  0.00     0.124 S 
ATOM     48  O   UNL A   1      42.639  22.546  24.999  1.00  0.00    -0.237 OA
ATOM     49  O   UNL A   1      42.881  22.435  27.459  1.00  0.00    -0.237 OA
ATOM     50  O   UNL A   1      40.641  22.607  26.442  1.00  0.00    -0.744 OA
ENDBRANCH  43  47
ENDBRANCH  26  40
BRANCH  27  51
ATOM     51  C   UNL A   1      38.764  31.860  35.582  1.00  0.00     0.023 A 
ATOM     52  C   UNL A   1      38.149  31.205  36.659  1.00  0.00     0.031 A 
ATOM     53  C   UNL A   1      38.922  33.256  35.656  1.00  0.00     0.131 A 
ATOM     54  C   UNL A   1      37.696  31.951  37.759  1.00  0.00     0.055 A 
ATOM     55  C   UNL A   1      38.510  33.987  36.770  1.00  0.00     0.041 A 
ATOM     56  F   UNL A   1      39.513  33.925  34.653  1.00  0.00    -0.206 F 
ATOM     57  C   UNL A   1      37.887  33.334  37.828  1.00  0.00     0.022 A 
BRANCH  54  58
ATOM     58  S   UNL A   1      36.825  31.090  39.096  1.00  0.00     0.124 S 
ATOM     59  O   UNL A   1      36.658  29.756  38.530  1.00  0.00    -0.237 OA
ATOM     60  O   UNL A   1      37.769  31.207  40.202  1.00  0.00    -0.237 OA
ATOM     61  O   UNL A   1      35.592  31.861  39.250  1.00  0.00    -0.744 OA
ENDBRANCH  54  58
ENDBRANCH  27  51
BRANCH  39  62
ATOM     62  C   UNL A   1      44.413  27.971  34.303  1.00  0.00     0.023 A 
ATOM     63  C   UNL A   1      44.422  26.797  35.074  1.00  0.00     0.031 A 
ATOM     64  C   UNL A   1      45.563  28.777  34.295  1.00  0.00     0.131 A 
ATOM     65  C   UNL A   1      45.557  26.473  35.829  1.00  0.00     0.055 A 
ATOM     66  C   UNL A   1      46.705  28.428  35.015  1.00  0.00     0.041 A 
ATOM     67  F   UNL A   1      45.600  29.906  33.570  1.00  0.00    -0.206 F 
ATOM     68  C   UNL A   1      46.705  27.272  35.792  1.00  0.00     0.022 A 
BRANCH  65  69
ATOM     69  S   UNL A   1      45.515  24.994  36.879  1.00  0.00     0.124 S 
ATOM     70  O   UNL A   1      44.252  25.168  37.591  1.00  0.00    -0.237 OA
ATOM     71  O   UNL A   1      45.553  23.910  35.904  1.00  0.00    -0.237 OA
ATOM     72  O   UNL A   1      46.715  25.126  37.703  1.00  0.00    -0.744 OA
ENDBRANCH  65  69
ENDBRANCH  39  62
ENDBRANCH  13  14
ENDBRANCH   6   8
ENDBRANCH   3   4
ENDBRANCH   2   3
ENDBRANCH   1   2
BRANCH   1  73
ATOM     73  N   UNL A   1      33.718  28.175  22.578  1.00  0.00    -0.352 N 
ATOM     74  C   UNL A   1      33.524  26.830  22.402  1.00  0.00     0.251 C 
ATOM     75  H   UNL A   1      33.828  28.687  21.744  1.00  0.00     0.163 HD
ATOM     76  O   UNL A   1      33.654  26.326  21.291  1.00  0.00    -0.269 OA
BRANCH  74  77
ATOM     77  C   UNL A   1      33.179  25.967  23.549  1.00  0.00     0.042 A 
ATOM     78  C   UNL A   1      33.944  25.974  24.720  1.00  0.00     0.015 A 
ATOM     79  C   UNL A   1      32.046  25.154  23.456  1.00  0.00     0.054 A 
ATOM     80  C   UNL A   1      33.666  25.061  25.735  1.00  0.00     0.026 A 
ATOM     81  C   UNL A   1      31.740  24.281  24.495  1.00  0.00     0.144 A 
ATOM     82  C   UNL A   1      32.571  24.197  25.605  1.00  0.00     0.118 A 
ATOM     83  F   UNL A   1      30.639  23.529  24.378  1.00  0.00    -0.205 F 
BRANCH  82  84
ATOM     84  S   UNL A   1      32.335  22.988  26.862  1.00  0.00     0.243 S 
ATOM     85  O   UNL A   1      33.530  22.988  27.676  1.00  0.00    -0.207 OA
ATOM     86  O   UNL A   1      31.030  23.239  27.434  1.00  0.00    -0.207 OA
BRANCH  84  87
ATOM     87  N   UNL A   1      32.245  21.518  26.109  1.00  0.00    -0.205 NA
ATOM     88  H   UNL A   1      32.065  21.721  25.125  1.00  0.00     0.141 HD
BRANCH  87  89
ATOM     89  C   UNL A   1      33.329  20.535  26.122  1.00  0.00     0.160 C 
BRANCH  89  90
ATOM     90  C   UNL A   1      34.087  20.426  24.783  1.00  0.00     0.278 C 
BRANCH  90  91
ATOM     91  N   UNL A   1      35.381  21.091  24.591  1.00  0.00    -0.334 N 
ATOM     92  C   UNL A   1      36.245  21.306  25.746  1.00  0.00     0.262 C 
ATOM     93  C   UNL A   1      35.282  22.330  23.815  1.00  0.00     0.262 C 
ATOM     94  H   UNL A   1      35.862  20.364  24.061  1.00  0.00     0.348 HD
ATOM     95  C   UNL A   1      36.499  22.806  25.784  1.00  0.00     0.067 C 
ATOM     96  C   UNL A   1      36.416  23.199  24.324  1.00  0.00     0.067 C 
ENDBRANCH  90  91
ENDBRANCH  89  90
ENDBRANCH  87  89
ENDBRANCH  84  87
ENDBRANCH  82  84
ENDBRANCH  74  77
ENDBRANCH   1  73
TORSDOF 18
ENDMDL
MODEL 3
REMARK VINA RESULT:     -11.7      5.032     10.231
REMARK SMILES O=C(NCCCNC(=O)c1ccc(S(=O)(=O)NCC[NH+]2CCCC2)c(F)c1)c1ccc(-c2c3nc(c(-c4cc(S(=O)(=O)[O-])ccc4F)c4ccc([nH]4)c(-c4cc(S(=O)(=O)[O-])ccc4F)c4nc(c(-c5cc(S(=O)(=O)[O-])ccc5F)c5ccc2[nH]5)C=C4)C=C3)cc1
REMARK SMILES IDX 6 1 5 2 4 3 3 4 1 5 2 6 28 8 29 9 90 10 30 11 89 12 31 13
REMARK SMILES IDX 32 14 33 15 83 16 34 17 88 18 82 19 84 20 35 21 87 22 81 23
REMARK SMILES IDX 80 24 36 26 68 27 48 28 67 29 49 30 52 31 66 32 85 33 50 34
REMARK SMILES IDX 51 35 65 37 86 38 53 39 37 40 38 41 46 42 39 43 45 44 47 45
REMARK SMILES IDX 44 46 40 47 41 48 42 49 43 50 69 51 70 52 78 53 71 54 77 55
REMARK SMILES IDX 79 56 76 57 72 58 73 59 74 60 75 61 54 62 55 63 63 64 56 65
REMARK SMILES IDX 62 66 64 67 61 68 57 69 58 70 59 71 60 72 7 73 8 74 9 76
REMARK SMILES IDX 10 77 11 78 27 79 12 80 25 81 13 82 26 83 14 84 15 85 16 86
REMARK SMILES IDX 17 87 18 89 19 90 20 91 21 92 24 93 22 95 23 96
REMARK H PARENT 3 7 84 25 52 36 7 75 17 88 20 94
REMARK Flexibility Score: inf
ROOT
ATOM      1  C   UNL A   1      33.731  21.613  26.396  1.00  0.00     0.118 C 
ENDROOT
BRANCH   1   2
ATOM      2  C   UNL A   1      35.132  22.067  26.773  1.00  0.00     0.042 C 
BRANCH   2   3
ATOM      3  C   UNL A   1      36.095  22.164  25.600  1.00  0.00     0.118 C 
BRANCH   3   4
ATOM      4  N   UNL A   1      37.071  21.080  25.569  1.00  0.00    -0.352 N 
ATOM      5  O   UNL A   1      39.085  20.080  25.547  1.00  0.00    -0.269 OA
ATOM      6  C   UNL A   1      38.429  21.091  25.788  1.00  0.00     0.251 C 
ATOM      7  H   UNL A   1      36.696  20.196  25.354  1.00  0.00     0.163 HD
BRANCH   6   8
ATOM      8  C   UNL A   1      39.102  22.311  26.285  1.00  0.00     0.039 A 
ATOM      9  C   UNL A   1      38.633  23.577  25.936  1.00  0.00     0.014 A 
ATOM     10  C   UNL A   1      40.214  22.191  27.125  1.00  0.00     0.014 A 
ATOM     11  C   UNL A   1      39.378  24.703  26.257  1.00  0.00     0.010 A 
ATOM     12  C   UNL A   1      40.901  23.336  27.544  1.00  0.00     0.010 A 
ATOM     13  C   UNL A   1      40.514  24.602  27.079  1.00  0.00    -0.014 A 
BRANCH  13  14
ATOM     14  C   UNL A   1      41.240  25.844  27.455  1.00  0.00     0.031 A 
ATOM     15  C   UNL A   1      42.594  26.159  26.877  1.00  0.00     0.074 A 
ATOM     16  C   UNL A   1      40.630  26.727  28.272  1.00  0.00     0.049 A 
ATOM     17  N   UNL A   1      43.344  27.212  27.077  1.00  0.00    -0.248 NA
ATOM     18  C   UNL A   1      43.187  25.169  25.965  1.00  0.00     0.031 C 
ATOM     19  C   UNL A   1      39.314  26.530  28.889  1.00  0.00     0.029 A 
ATOM     20  N   UNL A   1      41.006  27.976  28.695  1.00  0.00    -0.354 N 
ATOM     21  C   UNL A   1      44.503  27.006  26.335  1.00  0.00     0.074 A 
ATOM     22  C   UNL A   1      44.367  25.715  25.697  1.00  0.00     0.031 C 
ATOM     23  C   UNL A   1      38.962  27.645  29.545  1.00  0.00     0.029 A 
ATOM     24  C   UNL A   1      40.056  28.605  29.468  1.00  0.00     0.049 A 
ATOM     25  H   UNL A   1      41.872  28.384  28.467  1.00  0.00     0.167 HD
ATOM     26  C   UNL A   1      45.574  27.823  26.198  1.00  0.00     0.034 A 
ATOM     27  C   UNL A   1      40.067  29.812  30.066  1.00  0.00     0.034 A 
ATOM     28  C   UNL A   1      45.685  29.120  26.815  1.00  0.00     0.049 A 
ATOM     29  C   UNL A   1      41.281  30.682  29.920  1.00  0.00     0.074 A 
ATOM     30  C   UNL A   1      46.719  30.036  26.708  1.00  0.00     0.029 A 
ATOM     31  N   UNL A   1      44.734  29.689  27.649  1.00  0.00    -0.354 N 
ATOM     32  N   UNL A   1      42.375  30.453  29.234  1.00  0.00    -0.248 NA
ATOM     33  C   UNL A   1      41.273  31.963  30.639  1.00  0.00     0.031 C 
ATOM     34  C   UNL A   1      46.417  31.134  27.520  1.00  0.00     0.029 A 
ATOM     35  C   UNL A   1      45.169  30.930  28.087  1.00  0.00     0.049 A 
ATOM     36  H   UNL A   1      43.877  29.272  27.895  1.00  0.00     0.167 HD
ATOM     37  C   UNL A   1      43.187  31.563  29.438  1.00  0.00     0.074 A 
ATOM     38  C   UNL A   1      42.450  32.468  30.296  1.00  0.00     0.031 C 
ATOM     39  C   UNL A   1      44.430  31.808  28.958  1.00  0.00     0.034 A 
BRANCH  26  40
ATOM     40  C   UNL A   1      46.735  27.336  25.371  1.00  0.00     0.023 A 
ATOM     41  C   UNL A   1      46.952  27.795  24.062  1.00  0.00     0.031 A 
ATOM     42  C   UNL A   1      47.667  26.442  25.927  1.00  0.00     0.131 A 
ATOM     43  C   UNL A   1      48.064  27.337  23.339  1.00  0.00     0.055 A 
ATOM     44  C   UNL A   1      48.800  26.031  25.222  1.00  0.00     0.041 A 
ATOM     45  F   UNL A   1      47.496  25.963  27.169  1.00  0.00    -0.206 F 
ATOM     46  C   UNL A   1      49.002  26.477  23.919  1.00  0.00     0.022 A 
BRANCH  43  47
ATOM     47  S   UNL A   1      48.249  27.842  21.607  1.00  0.00     0.124 S 
ATOM     48  O   UNL A   1      46.896  28.290  21.286  1.00  0.00    -0.237 OA
ATOM     49  O   UNL A   1      49.264  28.888  21.687  1.00  0.00    -0.237 OA
ATOM     50  O   UNL A   1      48.671  26.615  20.936  1.00  0.00    -0.744 OA
ENDBRANCH  43  47
ENDBRANCH  26  40
BRANCH  27  51
ATOM     51  C   UNL A   1      38.906  30.237  30.896  1.00  0.00     0.023 A 
ATOM     52  C   UNL A   1      37.911  31.078  30.377  1.00  0.00     0.031 A 
ATOM     53  C   UNL A   1      38.773  29.790  32.224  1.00  0.00     0.131 A 
ATOM     54  C   UNL A   1      36.832  31.462  31.189  1.00  0.00     0.055 A 
ATOM     55  C   UNL A   1      37.677  30.140  33.012  1.00  0.00     0.041 A 
ATOM     56  F   UNL A   1      39.696  28.977  32.762  1.00  0.00    -0.206 F 
ATOM     57  C   UNL A   1      36.701  30.987  32.497  1.00  0.00     0.022 A 
BRANCH  54  58
ATOM     58  S   UNL A   1      35.609  32.622  30.521  1.00  0.00     0.124 S 
ATOM     59  O   UNL A   1      36.282  33.902  30.706  1.00  0.00    -0.237 OA
ATOM     60  O   UNL A   1      35.470  32.160  29.145  1.00  0.00    -0.237 OA
ATOM     61  O   UNL A   1      34.437  32.405  31.368  1.00  0.00    -0.744 OA
ENDBRANCH  54  58
ENDBRANCH  27  51
BRANCH  39  62
ATOM     62  C   UNL A   1      45.069  33.114  29.341  1.00  0.00     0.023 A 
ATOM     63  C   UNL A   1      44.942  34.251  28.528  1.00  0.00     0.031 A 
ATOM     64  C   UNL A   1      45.771  33.230  30.552  1.00  0.00     0.131 A 
ATOM     65  C   UNL A   1      45.536  35.457  28.926  1.00  0.00     0.055 A 
ATOM     66  C   UNL A   1      46.323  34.442  30.963  1.00  0.00     0.041 A 
ATOM     67  F   UNL A   1      45.913  32.168  31.363  1.00  0.00    -0.206 F 
ATOM     68  C   UNL A   1      46.210  35.564  30.146  1.00  0.00     0.022 A 
BRANCH  65  69
ATOM     69  S   UNL A   1      45.428  36.890  27.820  1.00  0.00     0.124 S 
ATOM     70  O   UNL A   1      46.634  37.633  28.172  1.00  0.00    -0.237 OA
ATOM     71  O   UNL A   1      45.423  36.272  26.498  1.00  0.00    -0.237 OA
ATOM     72  O   UNL A   1      44.170  37.527  28.207  1.00  0.00    -0.744 OA
ENDBRANCH  65  69
ENDBRANCH  39  62
ENDBRANCH  13  14
ENDBRANCH   6   8
ENDBRANCH   3   4
ENDBRANCH   2   3
ENDBRANCH   1   2
BRANCH   1  73
ATOM     73  N   UNL A   1      33.474  21.695  24.962  1.00  0.00    -0.352 N 
ATOM     74  C   UNL A   1      32.991  22.727  24.200  1.00  0.00     0.251 C 
ATOM     75  H   UNL A   1      33.682  20.875  24.460  1.00  0.00     0.163 HD
ATOM     76  O   UNL A   1      32.698  22.542  23.023  1.00  0.00    -0.269 OA
BRANCH  74  77
ATOM     77  C   UNL A   1      32.795  24.066  24.790  1.00  0.00     0.042 A 
ATOM     78  C   UNL A   1      33.851  24.979  24.889  1.00  0.00     0.015 A 
ATOM     79  C   UNL A   1      31.517  24.422  25.227  1.00  0.00     0.054 A 
ATOM     80  C   UNL A   1      33.663  26.185  25.560  1.00  0.00     0.026 A 
ATOM     81  C   UNL A   1      31.321  25.651  25.850  1.00  0.00     0.144 A 
ATOM     82  C   UNL A   1      32.395  26.506  26.061  1.00  0.00     0.118 A 
ATOM     83  F   UNL A   1      30.080  25.964  26.242  1.00  0.00    -0.205 F 
BRANCH  82  84
ATOM     84  S   UNL A   1      32.242  27.987  27.000  1.00  0.00     0.243 S 
ATOM     85  O   UNL A   1      31.148  27.787  27.924  1.00  0.00    -0.207 OA
ATOM     86  O   UNL A   1      33.572  28.320  27.462  1.00  0.00    -0.207 OA
BRANCH  84  87
ATOM     87  N   UNL A   1      31.794  29.182  25.948  1.00  0.00    -0.205 NA
ATOM     88  H   UNL A   1      32.623  29.763  25.817  1.00  0.00     0.141 HD
BRANCH  87  89
ATOM     89  C   UNL A   1      31.271  28.924  24.606  1.00  0.00     0.160 C 
BRANCH  89  90
ATOM     90  C   UNL A   1      32.348  28.955  23.501  1.00  0.00     0.278 C 
BRANCH  90  91
ATOM     91  N   UNL A   1      32.239  28.099  22.316  1.00  0.00    -0.334 N 
ATOM     92  C   UNL A   1      31.058  27.258  22.155  1.00  0.00     0.262 C 
ATOM     93  C   UNL A   1      33.445  27.302  22.067  1.00  0.00     0.262 C 
ATOM     94  H   UNL A   1      32.122  28.819  21.603  1.00  0.00     0.348 HD
ATOM     95  C   UNL A   1      31.590  25.839  22.019  1.00  0.00     0.067 C 
ATOM     96  C   UNL A   1      32.946  26.047  21.379  1.00  0.00     0.067 C 
ENDBRANCH  90  91
ENDBRANCH  89  90
ENDBRANCH  87  89
ENDBRANCH  84  87
ENDBRANCH  82  84
ENDBRANCH  74  77
ENDBRANCH   1  73
TORSDOF 18
ENDMDL
