MODEL 1
REMARK VINA RESULT:     -12.1      0.000      0.000
REMARK SMILES Cc1cc(N(C)[C@H](C)C(=O)NCCCNC(=O)c2ccc(-c3c4nc(c(-c5cc(S(=O)(=O)[O-])ccc5F)c5ccc([nH]5)c(-c5cc(S(=O)(=O)[O-])ccc5F)c5nc(c(-c6cc(S(=O)(=O)[O-])ccc6F)c6ccc3[nH]6)C=C5)C=C4)cc2)ncc1[N+](=O)[O-]
REMARK SMILES IDX 13 1 12 2 11 3 9 4 10 5 7 7 8 8 5 9 6 10 4 11 1 12 2 13 3 14
REMARK SMILES IDX 83 15 82 16 81 17 84 18 85 19 86 20 14 21 15 22 16 23 17 25
REMARK SMILES IDX 18 26 19 27 80 28 20 29 79 30 21 31 22 32 23 33 73 34 24 35
REMARK SMILES IDX 78 36 72 37 74 38 25 39 77 40 71 41 70 42 26 44 58 45 38 46
REMARK SMILES IDX 57 47 39 48 42 49 56 50 75 51 40 52 41 53 55 55 76 56 43 57
REMARK SMILES IDX 27 58 28 59 36 60 29 61 35 62 37 63 34 64 30 65 31 66 32 67
REMARK SMILES IDX 33 68 59 69 60 70 68 71 61 72 67 73 69 74 66 75 62 76 63 77
REMARK SMILES IDX 64 78 65 79 44 80 45 81 53 82 46 83 52 84 54 85 51 86 47 87
REMARK SMILES IDX 48 88 49 89 50 90
REMARK H PARENT 11 6 15 24 74 43 42 54
REMARK Flexibility Score: inf
ROOT
ATOM      1  C   UNL A   1      36.297  21.058  25.462  1.00  0.00     0.042 C 
ENDROOT
BRANCH   1   2
ATOM      2  C   UNL A   1      35.310  21.605  24.451  1.00  0.00     0.117 C 
BRANCH   2   3
ATOM      3  N   UNL A   1      34.621  22.793  24.922  1.00  0.00    -0.354 N 
ATOM      4  C   UNL A   1      33.389  22.946  25.486  1.00  0.00     0.242 C 
ATOM      5  O   UNL A   1      33.160  24.053  25.989  1.00  0.00    -0.273 OA
ATOM      6  H   UNL A   1      35.128  23.629  24.815  1.00  0.00     0.163 HD
BRANCH   4   7
ATOM      7  C   UNL A   1      32.318  21.830  25.512  1.00  0.00     0.169 C 
ATOM      8  C   UNL A   1      30.939  22.357  25.913  1.00  0.00     0.042 C 
BRANCH   7   9
ATOM      9  N   UNL A   1      32.271  20.958  24.304  1.00  0.00    -0.348 N 
ATOM     10  C   UNL A   1      32.205  21.497  22.957  1.00  0.00     0.146 C 
BRANCH   9  11
ATOM     11  C   UNL A   1      32.504  19.598  24.479  1.00  0.00     0.129 A 
ATOM     12  C   UNL A   1      34.080  16.799  22.485  1.00  0.00     0.052 C 
ATOM     13  C   UNL A   1      33.433  17.469  23.662  1.00  0.00     0.032 A 
ATOM     14  C   UNL A   1      33.016  18.799  23.451  1.00  0.00     0.057 A 
ATOM     15  C   UNL A   1      33.226  16.939  24.937  1.00  0.00     0.290 A 
ATOM     16  C   UNL A   1      32.644  17.754  25.900  1.00  0.00     0.199 A 
ATOM     17  N   UNL A   1      32.285  19.045  25.688  1.00  0.00    -0.232 NA
BRANCH  15  18
ATOM     18  N   UNL A   1      33.575  15.581  25.340  1.00  0.00     0.064 N 
ATOM     19  O   UNL A   1      32.642  14.793  25.561  1.00  0.00    -0.258 OA
ATOM     20  O   UNL A   1      34.770  15.273  25.417  1.00  0.00    -0.258 OA
ENDBRANCH  15  18
ENDBRANCH   9  11
ENDBRANCH   7   9
ENDBRANCH   4   7
ENDBRANCH   2   3
ENDBRANCH   1   2
BRANCH   1  21
ATOM     21  C   UNL A   1      37.740  21.430  25.151  1.00  0.00     0.118 C 
BRANCH  21  22
ATOM     22  N   UNL A   1      38.708  20.504  25.733  1.00  0.00    -0.352 N 
ATOM     23  C   UNL A   1      39.871  20.742  26.431  1.00  0.00     0.251 C 
ATOM     24  H   UNL A   1      38.494  19.552  25.604  1.00  0.00     0.163 HD
ATOM     25  O   UNL A   1      40.642  19.820  26.650  1.00  0.00    -0.269 OA
BRANCH  23  26
ATOM     26  C   UNL A   1      40.192  22.116  26.878  1.00  0.00     0.039 A 
ATOM     27  C   UNL A   1      41.137  22.306  27.890  1.00  0.00     0.014 A 
ATOM     28  C   UNL A   1      39.575  23.217  26.286  1.00  0.00     0.014 A 
ATOM     29  C   UNL A   1      41.532  23.605  28.228  1.00  0.00     0.010 A 
ATOM     30  C   UNL A   1      40.058  24.495  26.533  1.00  0.00     0.010 A 
ATOM     31  C   UNL A   1      41.038  24.706  27.512  1.00  0.00    -0.014 A 
BRANCH  31  32
ATOM     32  C   UNL A   1      41.510  26.093  27.774  1.00  0.00     0.031 A 
ATOM     33  C   UNL A   1      42.895  26.502  27.344  1.00  0.00     0.074 A 
ATOM     34  C   UNL A   1      40.731  26.948  28.467  1.00  0.00     0.049 A 
ATOM     35  N   UNL A   1      43.546  27.609  27.590  1.00  0.00    -0.248 NA
ATOM     36  C   UNL A   1      43.665  25.516  26.569  1.00  0.00     0.031 C 
ATOM     37  C   UNL A   1      39.390  26.651  28.979  1.00  0.00     0.029 A 
ATOM     38  N   UNL A   1      40.958  28.240  28.874  1.00  0.00    -0.354 N 
ATOM     39  C   UNL A   1      44.804  27.443  27.020  1.00  0.00     0.074 A 
ATOM     40  C   UNL A   1      44.849  26.102  26.485  1.00  0.00     0.031 C 
ATOM     41  C   UNL A   1      38.904  27.738  29.598  1.00  0.00     0.029 A 
ATOM     42  C   UNL A   1      39.913  28.791  29.581  1.00  0.00     0.049 A 
ATOM     43  H   UNL A   1      41.790  28.727  28.678  1.00  0.00     0.167 HD
ATOM     44  C   UNL A   1      45.817  28.338  26.924  1.00  0.00     0.034 A 
ATOM     45  C   UNL A   1      39.790  30.001  30.161  1.00  0.00     0.034 A 
ATOM     46  C   UNL A   1      45.744  29.683  27.439  1.00  0.00     0.049 A 
ATOM     47  C   UNL A   1      40.939  30.974  30.055  1.00  0.00     0.074 A 
ATOM     48  C   UNL A   1      46.689  30.691  27.352  1.00  0.00     0.029 A 
ATOM     49  N   UNL A   1      44.663  30.210  28.135  1.00  0.00    -0.354 N 
ATOM     50  N   UNL A   1      42.106  30.815  29.473  1.00  0.00    -0.248 NA
ATOM     51  C   UNL A   1      40.750  32.293  30.673  1.00  0.00     0.031 C 
ATOM     52  C   UNL A   1      46.207  31.803  28.050  1.00  0.00     0.029 A 
ATOM     53  C   UNL A   1      44.928  31.519  28.504  1.00  0.00     0.049 A 
ATOM     54  H   UNL A   1      43.831  29.724  28.336  1.00  0.00     0.167 HD
ATOM     55  C   UNL A   1      42.773  32.028  29.625  1.00  0.00     0.074 A 
ATOM     56  C   UNL A   1      41.872  32.911  30.337  1.00  0.00     0.031 C 
ATOM     57  C   UNL A   1      44.016  32.384  29.212  1.00  0.00     0.034 A 
BRANCH  44  58
ATOM     58  C   UNL A   1      47.086  27.885  26.245  1.00  0.00     0.023 A 
ATOM     59  C   UNL A   1      47.295  28.077  24.868  1.00  0.00     0.031 A 
ATOM     60  C   UNL A   1      48.095  27.233  26.977  1.00  0.00     0.131 A 
ATOM     61  C   UNL A   1      48.445  27.560  24.253  1.00  0.00     0.055 A 
ATOM     62  C   UNL A   1      49.277  26.797  26.374  1.00  0.00     0.041 A 
ATOM     63  F   UNL A   1      47.945  27.000  28.290  1.00  0.00    -0.206 F 
ATOM     64  C   UNL A   1      49.451  26.946  25.001  1.00  0.00     0.022 A 
BRANCH  61  65
ATOM     65  S   UNL A   1      48.540  27.581  22.442  1.00  0.00     0.124 S 
ATOM     66  O   UNL A   1      49.789  28.306  22.222  1.00  0.00    -0.237 OA
ATOM     67  O   UNL A   1      48.559  26.162  22.110  1.00  0.00    -0.237 OA
ATOM     68  O   UNL A   1      47.333  28.300  22.044  1.00  0.00    -0.744 OA
ENDBRANCH  61  65
ENDBRANCH  44  58
BRANCH  45  69
ATOM     69  C   UNL A   1      38.547  30.373  30.901  1.00  0.00     0.023 A 
ATOM     70  C   UNL A   1      37.514  31.078  30.262  1.00  0.00     0.031 A 
ATOM     71  C   UNL A   1      38.398  30.085  32.269  1.00  0.00     0.131 A 
ATOM     72  C   UNL A   1      36.410  31.528  31.004  1.00  0.00     0.055 A 
ATOM     73  C   UNL A   1      37.269  30.482  32.988  1.00  0.00     0.041 A 
ATOM     74  F   UNL A   1      39.352  29.409  32.929  1.00  0.00    -0.206 F 
ATOM     75  C   UNL A   1      36.274  31.222  32.359  1.00  0.00     0.022 A 
BRANCH  72  76
ATOM     76  S   UNL A   1      35.208  32.618  30.193  1.00  0.00     0.124 S 
ATOM     77  O   UNL A   1      34.273  32.887  31.280  1.00  0.00    -0.237 OA
ATOM     78  O   UNL A   1      36.046  33.736  29.775  1.00  0.00    -0.237 OA
ATOM     79  O   UNL A   1      34.683  31.794  29.106  1.00  0.00    -0.744 OA
ENDBRANCH  72  76
ENDBRANCH  45  69
BRANCH  57  80
ATOM     80  C   UNL A   1      44.444  33.807  29.472  1.00  0.00     0.023 A 
ATOM     81  C   UNL A   1      44.162  34.844  28.566  1.00  0.00     0.031 A 
ATOM     82  C   UNL A   1      45.152  34.125  30.645  1.00  0.00     0.131 A 
ATOM     83  C   UNL A   1      44.635  36.140  28.820  1.00  0.00     0.055 A 
ATOM     84  C   UNL A   1      45.563  35.429  30.923  1.00  0.00     0.041 A 
ATOM     85  F   UNL A   1      45.449  33.174  31.544  1.00  0.00    -0.206 F 
ATOM     86  C   UNL A   1      45.318  36.442  30.001  1.00  0.00     0.022 A 
BRANCH  83  87
ATOM     87  S   UNL A   1      44.427  37.408  27.541  1.00  0.00     0.124 S 
ATOM     88  O   UNL A   1      43.218  36.955  26.860  1.00  0.00    -0.237 OA
ATOM     89  O   UNL A   1      44.294  38.628  28.328  1.00  0.00    -0.237 OA
ATOM     90  O   UNL A   1      45.656  37.307  26.755  1.00  0.00    -0.744 OA
ENDBRANCH  83  87
ENDBRANCH  57  80
ENDBRANCH  31  32
ENDBRANCH  23  26
ENDBRANCH  21  22
ENDBRANCH   1  21
TORSDOF 16
ENDMDL
MODEL 2
REMARK VINA RESULT:     -11.8      1.254      7.720
REMARK SMILES Cc1cc(N(C)[C@H](C)C(=O)NCCCNC(=O)c2ccc(-c3c4nc(c(-c5cc(S(=O)(=O)[O-])ccc5F)c5ccc([nH]5)c(-c5cc(S(=O)(=O)[O-])ccc5F)c5nc(c(-c6cc(S(=O)(=O)[O-])ccc6F)c6ccc3[nH]6)C=C5)C=C4)cc2)ncc1[N+](=O)[O-]
REMARK SMILES IDX 13 1 12 2 11 3 9 4 10 5 7 7 8 8 5 9 6 10 4 11 1 12 2 13 3 14
REMARK SMILES IDX 83 15 82 16 81 17 84 18 85 19 86 20 14 21 15 22 16 23 17 25
REMARK SMILES IDX 18 26 19 27 80 28 20 29 79 30 21 31 22 32 23 33 73 34 24 35
REMARK SMILES IDX 78 36 72 37 74 38 25 39 77 40 71 41 70 42 26 44 58 45 38 46
REMARK SMILES IDX 57 47 39 48 42 49 56 50 75 51 40 52 41 53 55 55 76 56 43 57
REMARK SMILES IDX 27 58 28 59 36 60 29 61 35 62 37 63 34 64 30 65 31 66 32 67
REMARK SMILES IDX 33 68 59 69 60 70 68 71 61 72 67 73 69 74 66 75 62 76 63 77
REMARK SMILES IDX 64 78 65 79 44 80 45 81 53 82 46 83 52 84 54 85 51 86 47 87
REMARK SMILES IDX 48 88 49 89 50 90
REMARK H PARENT 11 6 15 24 74 43 42 54
REMARK Flexibility Score: inf
ROOT
ATOM      1  C   UNL A   1      36.777  22.656  24.118  1.00  0.00     0.042 C 
ENDROOT
BRANCH   1   2
ATOM      2  C   UNL A   1      35.627  23.602  23.839  1.00  0.00     0.117 C 
BRANCH   2   3
ATOM      3  N   UNL A   1      34.638  23.037  22.938  1.00  0.00    -0.354 N 
ATOM      4  C   UNL A   1      33.302  22.820  23.102  1.00  0.00     0.242 C 
ATOM      5  O   UNL A   1      32.674  22.526  22.077  1.00  0.00    -0.273 OA
ATOM      6  H   UNL A   1      34.992  22.764  22.062  1.00  0.00     0.163 HD
BRANCH   4   7
ATOM      7  C   UNL A   1      32.582  22.921  24.467  1.00  0.00     0.169 C 
ATOM      8  C   UNL A   1      31.078  23.159  24.315  1.00  0.00     0.042 C 
BRANCH   7   9
ATOM      9  N   UNL A   1      32.896  21.837  25.440  1.00  0.00    -0.348 N 
ATOM     10  C   UNL A   1      32.728  22.004  26.873  1.00  0.00     0.146 C 
BRANCH   9  11
ATOM     11  C   UNL A   1      33.162  20.569  24.933  1.00  0.00     0.129 A 
ATOM     12  C   UNL A   1      36.123  18.222  24.807  1.00  0.00     0.052 C 
ATOM     13  C   UNL A   1      34.706  18.678  24.613  1.00  0.00     0.032 A 
ATOM     14  C   UNL A   1      34.450  20.024  24.946  1.00  0.00     0.057 A 
ATOM     15  C   UNL A   1      33.620  17.921  24.171  1.00  0.00     0.290 A 
ATOM     16  C   UNL A   1      32.376  18.535  24.106  1.00  0.00     0.199 A 
ATOM     17  N   UNL A   1      32.142  19.822  24.469  1.00  0.00    -0.232 NA
BRANCH  15  18
ATOM     18  N   UNL A   1      33.692  16.521  23.766  1.00  0.00     0.064 N 
ATOM     19  O   UNL A   1      34.101  16.278  22.620  1.00  0.00    -0.258 OA
ATOM     20  O   UNL A   1      33.369  15.650  24.582  1.00  0.00    -0.258 OA
ENDBRANCH  15  18
ENDBRANCH   9  11
ENDBRANCH   7   9
ENDBRANCH   4   7
ENDBRANCH   2   3
ENDBRANCH   1   2
BRANCH   1  21
ATOM     21  C   UNL A   1      36.962  22.360  25.599  1.00  0.00     0.118 C 
BRANCH  21  22
ATOM     22  N   UNL A   1      37.920  21.287  25.854  1.00  0.00    -0.352 N 
ATOM     23  C   UNL A   1      39.230  21.334  26.278  1.00  0.00     0.251 C 
ATOM     24  H   UNL A   1      37.571  20.380  25.697  1.00  0.00     0.163 HD
ATOM     25  O   UNL A   1      39.915  20.324  26.229  1.00  0.00    -0.269 OA
BRANCH  23  26
ATOM     26  C   UNL A   1      39.802  22.612  26.755  1.00  0.00     0.039 A 
ATOM     27  C   UNL A   1      40.806  22.595  27.727  1.00  0.00     0.014 A 
ATOM     28  C   UNL A   1      39.363  23.826  26.230  1.00  0.00     0.014 A 
ATOM     29  C   UNL A   1      41.435  23.790  28.090  1.00  0.00     0.010 A 
ATOM     30  C   UNL A   1      40.070  24.990  26.497  1.00  0.00     0.010 A 
ATOM     31  C   UNL A   1      41.111  24.989  27.435  1.00  0.00    -0.014 A 
BRANCH  31  32
ATOM     32  C   UNL A   1      41.827  26.262  27.721  1.00  0.00     0.031 A 
ATOM     33  C   UNL A   1      41.132  27.350  28.496  1.00  0.00     0.074 A 
ATOM     34  C   UNL A   1      43.060  26.468  27.213  1.00  0.00     0.049 A 
ATOM     35  N   UNL A   1      41.522  28.575  28.738  1.00  0.00    -0.248 NA
ATOM     36  C   UNL A   1      39.800  27.030  29.035  1.00  0.00     0.031 C 
ATOM     37  C   UNL A   1      43.817  25.508  26.405  1.00  0.00     0.029 A 
ATOM     38  N   UNL A   1      43.891  27.558  27.291  1.00  0.00    -0.354 N 
ATOM     39  C   UNL A   1      40.478  29.174  29.436  1.00  0.00     0.074 A 
ATOM     40  C   UNL A   1      39.411  28.202  29.511  1.00  0.00     0.031 C 
ATOM     41  C   UNL A   1      45.010  26.038  26.093  1.00  0.00     0.029 A 
ATOM     42  C   UNL A   1      45.086  27.393  26.626  1.00  0.00     0.049 A 
ATOM     43  H   UNL A   1      43.655  28.381  27.777  1.00  0.00     0.167 HD
ATOM     44  C   UNL A   1      40.428  30.408  29.992  1.00  0.00     0.034 A 
ATOM     45  C   UNL A   1      46.117  28.245  26.455  1.00  0.00     0.034 A 
ATOM     46  C   UNL A   1      41.514  31.354  29.934  1.00  0.00     0.049 A 
ATOM     47  C   UNL A   1      46.029  29.620  27.069  1.00  0.00     0.074 A 
ATOM     48  C   UNL A   1      41.593  32.613  30.505  1.00  0.00     0.029 A 
ATOM     49  N   UNL A   1      42.714  31.146  29.266  1.00  0.00    -0.354 N 
ATOM     50  N   UNL A   1      45.051  30.154  27.764  1.00  0.00    -0.248 NA
ATOM     51  C   UNL A   1      47.188  30.504  26.885  1.00  0.00     0.031 C 
ATOM     52  C   UNL A   1      42.811  33.188  30.129  1.00  0.00     0.029 A 
ATOM     53  C   UNL A   1      43.527  32.261  29.390  1.00  0.00     0.049 A 
ATOM     54  H   UNL A   1      42.952  30.326  28.775  1.00  0.00     0.167 HD
ATOM     55  C   UNL A   1      45.496  31.422  28.131  1.00  0.00     0.074 A 
ATOM     56  C   UNL A   1      46.833  31.564  27.594  1.00  0.00     0.031 C 
ATOM     57  C   UNL A   1      44.859  32.382  28.849  1.00  0.00     0.034 A 
BRANCH  44  58
ATOM     58  C   UNL A   1      39.155  30.802  30.702  1.00  0.00     0.023 A 
ATOM     59  C   UNL A   1      38.113  31.467  30.032  1.00  0.00     0.031 A 
ATOM     60  C   UNL A   1      38.985  30.527  32.071  1.00  0.00     0.131 A 
ATOM     61  C   UNL A   1      36.984  31.900  30.744  1.00  0.00     0.055 A 
ATOM     62  C   UNL A   1      37.821  30.885  32.755  1.00  0.00     0.041 A 
ATOM     63  F   UNL A   1      39.953  29.914  32.771  1.00  0.00    -0.206 F 
ATOM     64  C   UNL A   1      36.818  31.589  32.095  1.00  0.00     0.022 A 
BRANCH  61  65
ATOM     65  S   UNL A   1      35.803  32.994  29.909  1.00  0.00     0.124 S 
ATOM     66  O   UNL A   1      36.680  33.743  29.012  1.00  0.00    -0.237 OA
ATOM     67  O   UNL A   1      34.894  32.051  29.271  1.00  0.00    -0.237 OA
ATOM     68  O   UNL A   1      35.229  33.775  31.002  1.00  0.00    -0.744 OA
ENDBRANCH  61  65
ENDBRANCH  44  58
BRANCH  45  69
ATOM     69  C   UNL A   1      47.319  27.840  25.667  1.00  0.00     0.023 A 
ATOM     70  C   UNL A   1      47.387  28.077  24.284  1.00  0.00     0.031 A 
ATOM     71  C   UNL A   1      48.391  27.157  26.269  1.00  0.00     0.131 A 
ATOM     72  C   UNL A   1      48.467  27.578  23.540  1.00  0.00     0.055 A 
ATOM     73  C   UNL A   1      49.493  26.718  25.534  1.00  0.00     0.041 A 
ATOM     74  F   UNL A   1      48.382  26.908  27.589  1.00  0.00    -0.206 F 
ATOM     75  C   UNL A   1      49.528  26.913  24.157  1.00  0.00     0.022 A 
BRANCH  72  76
ATOM     76  S   UNL A   1      48.410  27.716  21.732  1.00  0.00     0.124 S 
ATOM     77  O   UNL A   1      47.073  28.259  21.519  1.00  0.00    -0.237 OA
ATOM     78  O   UNL A   1      49.521  28.622  21.462  1.00  0.00    -0.237 OA
ATOM     79  O   UNL A   1      48.605  26.340  21.280  1.00  0.00    -0.744 OA
ENDBRANCH  72  76
ENDBRANCH  45  69
BRANCH  57  80
ATOM     80  C   UNL A   1      45.631  33.645  29.141  1.00  0.00     0.023 A 
ATOM     81  C   UNL A   1      45.572  34.764  28.292  1.00  0.00     0.031 A 
ATOM     82  C   UNL A   1      46.444  33.725  30.286  1.00  0.00     0.131 A 
ATOM     83  C   UNL A   1      46.357  35.893  28.570  1.00  0.00     0.055 A 
ATOM     84  C   UNL A   1      47.171  34.874  30.592  1.00  0.00     0.041 A 
ATOM     85  F   UNL A   1      46.538  32.685  31.131  1.00  0.00    -0.206 F 
ATOM     86  C   UNL A   1      47.142  35.962  29.724  1.00  0.00     0.022 A 
BRANCH  83  87
ATOM     87  S   UNL A   1      46.410  37.236  27.353  1.00  0.00     0.124 S 
ATOM     88  O   UNL A   1      44.997  37.571  27.210  1.00  0.00    -0.237 OA
ATOM     89  O   UNL A   1      47.236  38.233  28.024  1.00  0.00    -0.237 OA
ATOM     90  O   UNL A   1      47.021  36.612  26.180  1.00  0.00    -0.744 OA
ENDBRANCH  83  87
ENDBRANCH  57  80
ENDBRANCH  31  32
ENDBRANCH  23  26
ENDBRANCH  21  22
ENDBRANCH   1  21
TORSDOF 16
ENDMDL
MODEL 3
REMARK VINA RESULT:     -11.7      6.372      9.742
REMARK SMILES Cc1cc(N(C)[C@H](C)C(=O)NCCCNC(=O)c2ccc(-c3c4nc(c(-c5cc(S(=O)(=O)[O-])ccc5F)c5ccc([nH]5)c(-c5cc(S(=O)(=O)[O-])ccc5F)c5nc(c(-c6cc(S(=O)(=O)[O-])ccc6F)c6ccc3[nH]6)C=C5)C=C4)cc2)ncc1[N+](=O)[O-]
REMARK SMILES IDX 13 1 12 2 11 3 9 4 10 5 7 7 8 8 5 9 6 10 4 11 1 12 2 13 3 14
REMARK SMILES IDX 83 15 82 16 81 17 84 18 85 19 86 20 14 21 15 22 16 23 17 25
REMARK SMILES IDX 18 26 19 27 80 28 20 29 79 30 21 31 22 32 23 33 73 34 24 35
REMARK SMILES IDX 78 36 72 37 74 38 25 39 77 40 71 41 70 42 26 44 58 45 38 46
REMARK SMILES IDX 57 47 39 48 42 49 56 50 75 51 40 52 41 53 55 55 76 56 43 57
REMARK SMILES IDX 27 58 28 59 36 60 29 61 35 62 37 63 34 64 30 65 31 66 32 67
REMARK SMILES IDX 33 68 59 69 60 70 68 71 61 72 67 73 69 74 66 75 62 76 63 77
REMARK SMILES IDX 64 78 65 79 44 80 45 81 53 82 46 83 52 84 54 85 51 86 47 87
REMARK SMILES IDX 48 88 49 89 50 90
REMARK H PARENT 11 6 15 24 74 43 42 54
REMARK Flexibility Score: inf
ROOT
ATOM      1  C   UNL A   1      31.024  31.596  26.125  1.00  0.00     0.042 C 
ENDROOT
BRANCH   1   2
ATOM      2  C   UNL A   1      31.224  30.389  25.231  1.00  0.00     0.117 C 
BRANCH   2   3
ATOM      3  N   UNL A   1      31.449  29.166  25.980  1.00  0.00    -0.354 N 
ATOM      4  C   UNL A   1      32.060  28.000  25.622  1.00  0.00     0.242 C 
ATOM      5  O   UNL A   1      32.296  27.210  26.545  1.00  0.00    -0.273 OA
ATOM      6  H   UNL A   1      31.101  29.179  26.900  1.00  0.00     0.163 HD
BRANCH   4   7
ATOM      7  C   UNL A   1      32.444  27.650  24.166  1.00  0.00     0.169 C 
ATOM      8  C   UNL A   1      33.689  26.764  24.089  1.00  0.00     0.042 C 
BRANCH   7   9
ATOM      9  N   UNL A   1      31.330  27.149  23.311  1.00  0.00    -0.348 N 
ATOM     10  C   UNL A   1      31.032  25.735  23.171  1.00  0.00     0.146 C 
BRANCH   9  11
ATOM     11  C   UNL A   1      30.435  28.084  22.803  1.00  0.00     0.129 A 
ATOM     12  C   UNL A   1      26.789  28.953  23.300  1.00  0.00     0.052 C 
ATOM     13  C   UNL A   1      28.187  29.088  22.769  1.00  0.00     0.032 A 
ATOM     14  C   UNL A   1      29.072  28.048  23.118  1.00  0.00     0.057 A 
ATOM     15  C   UNL A   1      28.710  30.130  22.001  1.00  0.00     0.290 A 
ATOM     16  C   UNL A   1      30.053  30.076  21.652  1.00  0.00     0.199 A 
ATOM     17  N   UNL A   1      30.900  29.086  22.032  1.00  0.00    -0.232 NA
BRANCH  15  18
ATOM     18  N   UNL A   1      27.947  31.281  21.530  1.00  0.00     0.064 N 
ATOM     19  O   UNL A   1      27.654  32.152  22.363  1.00  0.00    -0.258 OA
ATOM     20  O   UNL A   1      27.652  31.347  20.331  1.00  0.00    -0.258 OA
ENDBRANCH  15  18
ENDBRANCH   9  11
ENDBRANCH   7   9
ENDBRANCH   4   7
ENDBRANCH   2   3
ENDBRANCH   1   2
BRANCH   1  21
ATOM     21  C   UNL A   1      32.285  32.002  26.874  1.00  0.00     0.118 C 
BRANCH  21  22
ATOM     22  N   UNL A   1      32.299  33.413  27.251  1.00  0.00    -0.352 N 
ATOM     23  C   UNL A   1      33.134  34.109  28.097  1.00  0.00     0.251 C 
ATOM     24  H   UNL A   1      31.594  33.956  26.831  1.00  0.00     0.163 HD
ATOM     25  O   UNL A   1      32.841  35.247  28.431  1.00  0.00    -0.269 OA
BRANCH  23  26
ATOM     26  C   UNL A   1      34.357  33.460  28.620  1.00  0.00     0.039 A 
ATOM     27  C   UNL A   1      35.564  34.164  28.615  1.00  0.00     0.014 A 
ATOM     28  C   UNL A   1      34.310  32.164  29.131  1.00  0.00     0.014 A 
ATOM     29  C   UNL A   1      36.692  33.602  29.219  1.00  0.00     0.010 A 
ATOM     30  C   UNL A   1      35.393  31.661  29.839  1.00  0.00     0.010 A 
ATOM     31  C   UNL A   1      36.600  32.370  29.887  1.00  0.00    -0.014 A 
BRANCH  31  32
ATOM     32  C   UNL A   1      37.751  31.787  30.628  1.00  0.00     0.031 A 
ATOM     33  C   UNL A   1      38.612  30.743  29.964  1.00  0.00     0.074 A 
ATOM     34  C   UNL A   1      37.967  32.131  31.914  1.00  0.00     0.049 A 
ATOM     35  N   UNL A   1      39.574  30.017  30.473  1.00  0.00    -0.248 NA
ATOM     36  C   UNL A   1      38.323  30.448  28.552  1.00  0.00     0.031 C 
ATOM     37  C   UNL A   1      37.171  33.094  32.680  1.00  0.00     0.029 A 
ATOM     38  N   UNL A   1      38.913  31.701  32.811  1.00  0.00    -0.354 N 
ATOM     39  C   UNL A   1      39.988  29.168  29.451  1.00  0.00     0.074 A 
ATOM     40  C   UNL A   1      39.121  29.418  28.321  1.00  0.00     0.031 C 
ATOM     41  C   UNL A   1      37.684  33.206  33.916  1.00  0.00     0.029 A 
ATOM     42  C   UNL A   1      38.806  32.285  34.054  1.00  0.00     0.049 A 
ATOM     43  H   UNL A   1      39.605  31.038  32.587  1.00  0.00     0.167 HD
ATOM     44  C   UNL A   1      41.016  28.286  29.445  1.00  0.00     0.034 A 
ATOM     45  C   UNL A   1      39.523  32.089  35.178  1.00  0.00     0.034 A 
ATOM     46  C   UNL A   1      41.889  28.071  30.572  1.00  0.00     0.049 A 
ATOM     47  C   UNL A   1      40.652  31.088  35.151  1.00  0.00     0.074 A 
ATOM     48  C   UNL A   1      42.992  27.240  30.660  1.00  0.00     0.029 A 
ATOM     49  N   UNL A   1      41.759  28.692  31.807  1.00  0.00    -0.354 N 
ATOM     50  N   UNL A   1      41.057  30.325  34.161  1.00  0.00    -0.248 NA
ATOM     51  C   UNL A   1      41.427  30.928  36.388  1.00  0.00     0.031 C 
ATOM     52  C   UNL A   1      43.489  27.311  31.966  1.00  0.00     0.029 A 
ATOM     53  C   UNL A   1      42.746  28.245  32.670  1.00  0.00     0.049 A 
ATOM     54  H   UNL A   1      41.066  29.353  32.036  1.00  0.00     0.167 HD
ATOM     55  C   UNL A   1      42.158  29.625  34.649  1.00  0.00     0.074 A 
ATOM     56  C   UNL A   1      42.361  30.068  36.012  1.00  0.00     0.031 C 
ATOM     57  C   UNL A   1      42.934  28.701  34.026  1.00  0.00     0.034 A 
BRANCH  44  58
ATOM     58  C   UNL A   1      41.241  27.487  28.184  1.00  0.00     0.023 A 
ATOM     59  C   UNL A   1      40.903  26.124  28.104  1.00  0.00     0.031 A 
ATOM     60  C   UNL A   1      41.820  28.087  27.051  1.00  0.00     0.131 A 
ATOM     61  C   UNL A   1      41.212  25.390  26.949  1.00  0.00     0.055 A 
ATOM     62  C   UNL A   1      42.046  27.371  25.873  1.00  0.00     0.041 A 
ATOM     63  F   UNL A   1      42.185  29.378  27.072  1.00  0.00    -0.206 F 
ATOM     64  C   UNL A   1      41.756  26.011  25.822  1.00  0.00     0.022 A 
BRANCH  61  65
ATOM     65  S   UNL A   1      41.020  23.588  26.993  1.00  0.00     0.124 S 
ATOM     66  O   UNL A   1      41.504  23.273  28.334  1.00  0.00    -0.237 OA
ATOM     67  O   UNL A   1      39.589  23.417  26.774  1.00  0.00    -0.237 OA
ATOM     68  O   UNL A   1      41.878  23.126  25.904  1.00  0.00    -0.744 OA
ENDBRANCH  61  65
ENDBRANCH  44  58
BRANCH  45  69
ATOM     69  C   UNL A   1      39.204  32.839  36.429  1.00  0.00     0.023 A 
ATOM     70  C   UNL A   1      39.786  34.092  36.685  1.00  0.00     0.031 A 
ATOM     71  C   UNL A   1      38.365  32.291  37.415  1.00  0.00     0.131 A 
ATOM     72  C   UNL A   1      39.574  34.724  37.920  1.00  0.00     0.055 A 
ATOM     73  C   UNL A   1      38.108  32.953  38.617  1.00  0.00     0.041 A 
ATOM     74  F   UNL A   1      37.778  31.099  37.223  1.00  0.00    -0.206 F 
ATOM     75  C   UNL A   1      38.728  34.170  38.883  1.00  0.00     0.022 A 
BRANCH  72  76
ATOM     76  S   UNL A   1      40.513  36.230  38.294  1.00  0.00     0.124 S 
ATOM     77  O   UNL A   1      39.444  37.201  38.501  1.00  0.00    -0.237 OA
ATOM     78  O   UNL A   1      41.259  35.834  39.483  1.00  0.00    -0.237 OA
ATOM     79  O   UNL A   1      41.320  36.435  37.093  1.00  0.00    -0.744 OA
ENDBRANCH  72  76
ENDBRANCH  45  69
BRANCH  57  80
ATOM     80  C   UNL A   1      44.107  28.156  34.802  1.00  0.00     0.023 A 
ATOM     81  C   UNL A   1      43.996  27.007  35.605  1.00  0.00     0.031 A 
ATOM     82  C   UNL A   1      45.353  28.804  34.741  1.00  0.00     0.131 A 
ATOM     83  C   UNL A   1      45.098  26.575  36.358  1.00  0.00     0.055 A 
ATOM     84  C   UNL A   1      46.462  28.331  35.442  1.00  0.00     0.041 A 
ATOM     85  F   UNL A   1      45.515  29.906  33.991  1.00  0.00    -0.206 F 
ATOM     86  C   UNL A   1      46.335  27.218  36.268  1.00  0.00     0.022 A 
BRANCH  83  87
ATOM     87  S   UNL A   1      44.866  25.212  37.532  1.00  0.00     0.124 S 
ATOM     88  O   UNL A   1      43.468  24.856  37.312  1.00  0.00    -0.237 OA
ATOM     89  O   UNL A   1      45.851  24.237  37.077  1.00  0.00    -0.237 OA
ATOM     90  O   UNL A   1      45.154  25.824  38.829  1.00  0.00    -0.744 OA
ENDBRANCH  83  87
ENDBRANCH  57  80
ENDBRANCH  31  32
ENDBRANCH  23  26
ENDBRANCH  21  22
ENDBRANCH   1  21
TORSDOF 16
ENDMDL
