MODEL 1
REMARK VINA RESULT:     -13.1      0.000      0.000
REMARK SMILES C[C@@H](Oc1ccc(-c2ccccc2)cc1)C(=O)N1CCC[C@H](C(=O)NCCCNC(=O)c2ccc(-c3c4nc(c(-c5cc(S(=O)(=O)[O-])ccc5F)c5ccc([nH]5)c(-c5cc(S(=O)(=O)[O-])ccc5F)c5nc(c(-c6cc(S(=O)(=O)[O-])ccc6F)c6ccc3[nH]6)C=C5)C=C4)cc2)C1
REMARK SMILES IDX 26 1 25 2 23 3 24 4 22 6 18 7 19 8 95 9 20 10 21 11 16 12
REMARK SMILES IDX 17 13 2 14 1 15 3 16 4 17 5 18 15 19 6 20 14 21 7 22 8 23
REMARK SMILES IDX 9 24 13 25 10 26 12 27 11 28 27 29 28 30 29 31 30 32 31 34
REMARK SMILES IDX 32 35 33 36 94 37 34 38 93 39 35 40 36 41 37 42 87 43 38 44
REMARK SMILES IDX 92 45 86 46 88 47 39 48 91 49 85 50 84 51 40 53 72 54 52 55
REMARK SMILES IDX 71 56 53 57 56 58 70 59 89 60 54 61 55 62 69 64 90 65 57 66
REMARK SMILES IDX 41 67 42 68 50 69 43 70 49 71 51 72 48 73 44 74 45 75 46 76
REMARK SMILES IDX 47 77 73 78 74 79 82 80 75 81 81 82 83 83 80 84 76 85 77 86
REMARK SMILES IDX 78 87 79 88 58 89 59 90 67 91 60 92 66 93 68 94 65 95 61 96
REMARK SMILES IDX 62 97 63 98 64 99
REMARK H PARENT 25 5 29 33 88 52 56 63
REMARK Flexibility Score: inf
ROOT
ATOM      1  C   UNL A   1      31.768  27.912  25.862  1.00  0.00     0.117 C 
ENDROOT
BRANCH   1   2
ATOM      2  N   UNL A   1      31.022  26.800  26.406  1.00  0.00    -0.356 N 
ATOM      3  C   UNL A   1      30.278  25.840  25.800  1.00  0.00     0.224 C 
ATOM      4  O   UNL A   1      29.944  24.884  26.513  1.00  0.00    -0.275 OA
ATOM      5  H   UNL A   1      31.061  26.725  27.387  1.00  0.00     0.163 HD
BRANCH   3   6
ATOM      6  C   UNL A   1      29.818  25.868  24.334  1.00  0.00     0.098 C 
ATOM      7  N   UNL A   1      31.654  25.358  22.717  1.00  0.00    -0.339 N 
ATOM      8  C   UNL A   1      31.466  26.623  22.008  1.00  0.00     0.119 C 
ATOM      9  C   UNL A   1      30.476  24.844  23.402  1.00  0.00     0.133 C 
ATOM     10  C   UNL A   1      30.858  27.723  22.874  1.00  0.00     0.022 C 
ATOM     11  C   UNL A   1      29.680  27.264  23.725  1.00  0.00     0.017 C 
BRANCH   7  12
ATOM     12  C   UNL A   1      32.906  24.745  22.670  1.00  0.00     0.263 C 
ATOM     13  O   UNL A   1      33.305  24.210  21.628  1.00  0.00    -0.271 OA
BRANCH  12  14
ATOM     14  C   UNL A   1      33.789  24.653  23.928  1.00  0.00     0.259 C 
ATOM     15  C   UNL A   1      34.224  25.969  24.563  1.00  0.00     0.064 C 
BRANCH  14  16
ATOM     16  O   UNL A   1      33.020  23.861  24.842  1.00  0.00    -0.481 OA
BRANCH  16  17
ATOM     17  C   UNL A   1      33.168  22.522  24.633  1.00  0.00     0.120 A 
ATOM     18  C   UNL A   1      32.078  21.714  24.323  1.00  0.00     0.047 A 
ATOM     19  C   UNL A   1      34.410  21.968  24.905  1.00  0.00     0.047 A 
ATOM     20  C   UNL A   1      32.231  20.321  24.323  1.00  0.00     0.012 A 
ATOM     21  C   UNL A   1      34.562  20.587  24.893  1.00  0.00     0.012 A 
ATOM     22  C   UNL A   1      33.468  19.737  24.645  1.00  0.00    -0.018 A 
BRANCH  22  23
ATOM     23  C   UNL A   1      33.630  18.285  24.821  1.00  0.00    -0.018 A 
ATOM     24  C   UNL A   1      34.810  17.614  24.474  1.00  0.00     0.009 A 
ATOM     25  C   UNL A   1      32.577  17.532  25.374  1.00  0.00     0.009 A 
ATOM     26  C   UNL A   1      34.938  16.239  24.700  1.00  0.00     0.001 A 
ATOM     27  C   UNL A   1      32.704  16.163  25.602  1.00  0.00     0.001 A 
ATOM     28  C   UNL A   1      33.889  15.516  25.268  1.00  0.00     0.000 A 
ENDBRANCH  22  23
ENDBRANCH  16  17
ENDBRANCH  14  16
ENDBRANCH  12  14
ENDBRANCH   7  12
ENDBRANCH   3   6
ENDBRANCH   1   2
BRANCH   1  29
ATOM     29  C   UNL A   1      32.140  28.974  26.880  1.00  0.00     0.042 C 
BRANCH  29  30
ATOM     30  C   UNL A   1      33.352  29.793  26.477  1.00  0.00     0.118 C 
BRANCH  30  31
ATOM     31  N   UNL A   1      33.314  31.156  26.999  1.00  0.00    -0.352 N 
ATOM     32  C   UNL A   1      34.168  31.823  27.849  1.00  0.00     0.251 C 
ATOM     33  H   UNL A   1      32.547  31.690  26.690  1.00  0.00     0.163 HD
ATOM     34  O   UNL A   1      33.861  32.936  28.254  1.00  0.00    -0.269 OA
BRANCH  32  35
ATOM     35  C   UNL A   1      35.427  31.188  28.299  1.00  0.00     0.039 A 
ATOM     36  C   UNL A   1      36.616  31.922  28.247  1.00  0.00     0.014 A 
ATOM     37  C   UNL A   1      35.442  29.878  28.779  1.00  0.00     0.014 A 
ATOM     38  C   UNL A   1      37.795  31.369  28.752  1.00  0.00     0.010 A 
ATOM     39  C   UNL A   1      36.583  29.380  29.394  1.00  0.00     0.010 A 
ATOM     40  C   UNL A   1      37.778  30.111  29.374  1.00  0.00    -0.014 A 
BRANCH  40  41
ATOM     41  C   UNL A   1      38.999  29.514  29.975  1.00  0.00     0.031 A 
ATOM     42  C   UNL A   1      39.493  30.018  31.307  1.00  0.00     0.074 A 
ATOM     43  C   UNL A   1      39.704  28.591  29.292  1.00  0.00     0.049 A 
ATOM     44  N   UNL A   1      40.599  29.733  31.945  1.00  0.00    -0.248 NA
ATOM     45  C   UNL A   1      38.650  31.014  31.986  1.00  0.00     0.031 C 
ATOM     46  C   UNL A   1      39.355  28.065  27.970  1.00  0.00     0.029 A 
ATOM     47  N   UNL A   1      40.867  27.936  29.608  1.00  0.00    -0.354 N 
ATOM     48  C   UNL A   1      40.596  30.536  33.082  1.00  0.00     0.074 A 
ATOM     49  C   UNL A   1      39.420  31.374  33.000  1.00  0.00     0.031 C 
ATOM     50  C   UNL A   1      40.264  27.146  27.606  1.00  0.00     0.029 A 
ATOM     51  C   UNL A   1      41.288  27.053  28.640  1.00  0.00     0.049 A 
ATOM     52  H   UNL A   1      41.356  28.084  30.451  1.00  0.00     0.167 HD
ATOM     53  C   UNL A   1      41.476  30.551  34.113  1.00  0.00     0.034 A 
ATOM     54  C   UNL A   1      42.382  26.267  28.589  1.00  0.00     0.034 A 
ATOM     55  C   UNL A   1      42.623  29.682  34.189  1.00  0.00     0.049 A 
ATOM     56  C   UNL A   1      43.344  26.293  29.749  1.00  0.00     0.074 A 
ATOM     57  C   UNL A   1      43.548  29.560  35.211  1.00  0.00     0.029 A 
ATOM     58  N   UNL A   1      43.003  28.781  33.201  1.00  0.00    -0.354 N 
ATOM     59  N   UNL A   1      43.303  27.024  30.840  1.00  0.00    -0.248 NA
ATOM     60  C   UNL A   1      44.491  25.380  29.677  1.00  0.00     0.031 C 
ATOM     61  C   UNL A   1      44.519  28.633  34.814  1.00  0.00     0.029 A 
ATOM     62  C   UNL A   1      44.161  28.120  33.577  1.00  0.00     0.049 A 
ATOM     63  H   UNL A   1      42.520  28.635  32.356  1.00  0.00     0.167 HD
ATOM     64  C   UNL A   1      44.405  26.636  31.597  1.00  0.00     0.074 A 
ATOM     65  C   UNL A   1      45.079  25.597  30.844  1.00  0.00     0.031 C 
ATOM     66  C   UNL A   1      44.822  27.092  32.806  1.00  0.00     0.034 A 
BRANCH  53  67
ATOM     67  C   UNL A   1      41.230  31.551  35.221  1.00  0.00     0.023 A 
ATOM     68  C   UNL A   1      40.137  31.428  36.098  1.00  0.00     0.031 A 
ATOM     69  C   UNL A   1      42.068  32.670  35.372  1.00  0.00     0.131 A 
ATOM     70  C   UNL A   1      39.857  32.449  37.018  1.00  0.00     0.055 A 
ATOM     71  C   UNL A   1      41.836  33.636  36.354  1.00  0.00     0.041 A 
ATOM     72  F   UNL A   1      43.116  32.855  34.555  1.00  0.00    -0.206 F 
ATOM     73  C   UNL A   1      40.714  33.540  37.171  1.00  0.00     0.022 A 
BRANCH  70  74
ATOM     74  S   UNL A   1      38.266  32.413  37.890  1.00  0.00     0.124 S 
ATOM     75  O   UNL A   1      37.679  31.176  37.379  1.00  0.00    -0.237 OA
ATOM     76  O   UNL A   1      38.674  32.394  39.290  1.00  0.00    -0.237 OA
ATOM     77  O   UNL A   1      37.604  33.638  37.448  1.00  0.00    -0.744 OA
ENDBRANCH  70  74
ENDBRANCH  53  67
BRANCH  54  78
ATOM     78  C   UNL A   1      42.627  25.390  27.408  1.00  0.00     0.023 A 
ATOM     79  C   UNL A   1      42.136  24.076  27.370  1.00  0.00     0.031 A 
ATOM     80  C   UNL A   1      43.382  25.843  26.312  1.00  0.00     0.131 A 
ATOM     81  C   UNL A   1      42.440  23.245  26.279  1.00  0.00     0.055 A 
ATOM     82  C   UNL A   1      43.638  25.030  25.205  1.00  0.00     0.041 A 
ATOM     83  F   UNL A   1      43.869  27.094  26.293  1.00  0.00    -0.206 F 
ATOM     84  C   UNL A   1      43.176  23.718  25.191  1.00  0.00     0.022 A 
BRANCH  81  85
ATOM     85  S   UNL A   1      41.923  21.508  26.340  1.00  0.00     0.124 S 
ATOM     86  O   UNL A   1      42.795  20.902  25.341  1.00  0.00    -0.237 OA
ATOM     87  O   UNL A   1      42.199  21.157  27.730  1.00  0.00    -0.237 OA
ATOM     88  O   UNL A   1      40.507  21.562  25.984  1.00  0.00    -0.744 OA
ENDBRANCH  81  85
ENDBRANCH  54  78
BRANCH  66  89
ATOM     89  C   UNL A   1      46.040  26.433  33.403  1.00  0.00     0.023 A 
ATOM     90  C   UNL A   1      45.939  25.301  34.230  1.00  0.00     0.031 A 
ATOM     91  C   UNL A   1      47.321  26.952  33.142  1.00  0.00     0.131 A 
ATOM     92  C   UNL A   1      47.094  24.759  34.813  1.00  0.00     0.055 A 
ATOM     93  C   UNL A   1      48.472  26.371  33.677  1.00  0.00     0.041 A 
ATOM     94  F   UNL A   1      47.474  28.033  32.360  1.00  0.00    -0.206 F 
ATOM     95  C   UNL A   1      48.361  25.275  34.527  1.00  0.00     0.022 A 
BRANCH  92  96
ATOM     96  S   UNL A   1      46.910  23.422  36.025  1.00  0.00     0.124 S 
ATOM     97  O   UNL A   1      48.123  22.642  35.802  1.00  0.00    -0.237 OA
ATOM     98  O   UNL A   1      46.845  24.151  37.288  1.00  0.00    -0.237 OA
ATOM     99  O   UNL A   1      45.667  22.764  35.625  1.00  0.00    -0.744 OA
ENDBRANCH  92  96
ENDBRANCH  66  89
ENDBRANCH  40  41
ENDBRANCH  32  35
ENDBRANCH  30  31
ENDBRANCH  29  30
ENDBRANCH   1  29
TORSDOF 18
ENDMDL
MODEL 2
REMARK VINA RESULT:     -13.0      2.678      8.116
REMARK SMILES C[C@@H](Oc1ccc(-c2ccccc2)cc1)C(=O)N1CCC[C@H](C(=O)NCCCNC(=O)c2ccc(-c3c4nc(c(-c5cc(S(=O)(=O)[O-])ccc5F)c5ccc([nH]5)c(-c5cc(S(=O)(=O)[O-])ccc5F)c5nc(c(-c6cc(S(=O)(=O)[O-])ccc6F)c6ccc3[nH]6)C=C5)C=C4)cc2)C1
REMARK SMILES IDX 26 1 25 2 23 3 24 4 22 6 18 7 19 8 95 9 20 10 21 11 16 12
REMARK SMILES IDX 17 13 2 14 1 15 3 16 4 17 5 18 15 19 6 20 14 21 7 22 8 23
REMARK SMILES IDX 9 24 13 25 10 26 12 27 11 28 27 29 28 30 29 31 30 32 31 34
REMARK SMILES IDX 32 35 33 36 94 37 34 38 93 39 35 40 36 41 37 42 87 43 38 44
REMARK SMILES IDX 92 45 86 46 88 47 39 48 91 49 85 50 84 51 40 53 72 54 52 55
REMARK SMILES IDX 71 56 53 57 56 58 70 59 89 60 54 61 55 62 69 64 90 65 57 66
REMARK SMILES IDX 41 67 42 68 50 69 43 70 49 71 51 72 48 73 44 74 45 75 46 76
REMARK SMILES IDX 47 77 73 78 74 79 82 80 75 81 81 82 83 83 80 84 76 85 77 86
REMARK SMILES IDX 78 87 79 88 58 89 59 90 67 91 60 92 66 93 68 94 65 95 61 96
REMARK SMILES IDX 62 97 63 98 64 99
REMARK H PARENT 25 5 29 33 88 52 56 63
REMARK Flexibility Score: inf
ROOT
ATOM      1  C   UNL A   1      31.529  30.355  26.919  1.00  0.00     0.117 C 
ENDROOT
BRANCH   1   2
ATOM      2  N   UNL A   1      32.716  29.560  26.695  1.00  0.00    -0.356 N 
ATOM      3  C   UNL A   1      33.283  29.104  25.550  1.00  0.00     0.224 C 
ATOM      4  O   UNL A   1      34.427  28.640  25.662  1.00  0.00    -0.275 OA
ATOM      5  H   UNL A   1      33.196  29.307  27.516  1.00  0.00     0.163 HD
BRANCH   3   6
ATOM      6  C   UNL A   1      32.616  29.107  24.166  1.00  0.00     0.098 C 
ATOM      7  N   UNL A   1      31.839  26.845  23.442  1.00  0.00    -0.339 N 
ATOM      8  C   UNL A   1      32.638  26.895  22.218  1.00  0.00     0.119 C 
ATOM      9  C   UNL A   1      31.443  28.139  23.982  1.00  0.00     0.133 C 
ATOM     10  C   UNL A   1      33.861  27.801  22.324  1.00  0.00     0.022 C 
ATOM     11  C   UNL A   1      33.581  29.147  22.981  1.00  0.00     0.017 C 
BRANCH   7  12
ATOM     12  C   UNL A   1      31.510  25.599  23.976  1.00  0.00     0.263 C 
ATOM     13  O   UNL A   1      30.328  25.244  24.059  1.00  0.00    -0.271 OA
BRANCH  12  14
ATOM     14  C   UNL A   1      32.598  24.669  24.541  1.00  0.00     0.259 C 
ATOM     15  C   UNL A   1      33.658  25.309  25.431  1.00  0.00     0.064 C 
BRANCH  14  16
ATOM     16  O   UNL A   1      31.867  23.656  25.245  1.00  0.00    -0.481 OA
BRANCH  16  17
ATOM     17  C   UNL A   1      32.362  22.404  25.029  1.00  0.00     0.120 A 
ATOM     18  C   UNL A   1      32.166  21.749  23.816  1.00  0.00     0.047 A 
ATOM     19  C   UNL A   1      32.916  21.743  26.114  1.00  0.00     0.047 A 
ATOM     20  C   UNL A   1      32.501  20.393  23.706  1.00  0.00     0.012 A 
ATOM     21  C   UNL A   1      33.258  20.401  25.998  1.00  0.00     0.012 A 
ATOM     22  C   UNL A   1      33.018  19.691  24.807  1.00  0.00    -0.018 A 
BRANCH  22  23
ATOM     23  C   UNL A   1      33.225  18.234  24.784  1.00  0.00    -0.018 A 
ATOM     24  C   UNL A   1      34.141  17.620  23.921  1.00  0.00     0.009 A 
ATOM     25  C   UNL A   1      32.497  17.416  25.670  1.00  0.00     0.009 A 
ATOM     26  C   UNL A   1      34.340  16.236  23.964  1.00  0.00     0.001 A 
ATOM     27  C   UNL A   1      32.695  16.037  25.715  1.00  0.00     0.001 A 
ATOM     28  C   UNL A   1      33.623  15.447  24.864  1.00  0.00     0.000 A 
ENDBRANCH  22  23
ENDBRANCH  16  17
ENDBRANCH  14  16
ENDBRANCH  12  14
ENDBRANCH   7  12
ENDBRANCH   3   6
ENDBRANCH   1   2
BRANCH   1  29
ATOM     29  C   UNL A   1      31.686  31.825  26.575  1.00  0.00     0.042 C 
BRANCH  29  30
ATOM     30  C   UNL A   1      32.845  32.488  27.295  1.00  0.00     0.118 C 
BRANCH  30  31
ATOM     31  N   UNL A   1      32.581  33.886  27.625  1.00  0.00    -0.352 N 
ATOM     32  C   UNL A   1      33.148  34.715  28.568  1.00  0.00     0.251 C 
ATOM     33  H   UNL A   1      31.879  34.309  27.080  1.00  0.00     0.163 HD
ATOM     34  O   UNL A   1      32.671  35.827  28.751  1.00  0.00    -0.269 OA
BRANCH  32  35
ATOM     35  C   UNL A   1      34.298  34.254  29.378  1.00  0.00     0.039 A 
ATOM     36  C   UNL A   1      34.060  33.475  30.515  1.00  0.00     0.014 A 
ATOM     37  C   UNL A   1      35.606  34.577  29.022  1.00  0.00     0.014 A 
ATOM     38  C   UNL A   1      35.136  32.957  31.238  1.00  0.00     0.010 A 
ATOM     39  C   UNL A   1      36.671  33.959  29.664  1.00  0.00     0.010 A 
ATOM     40  C   UNL A   1      36.452  33.155  30.790  1.00  0.00    -0.014 A 
BRANCH  40  41
ATOM     41  C   UNL A   1      37.621  32.571  31.499  1.00  0.00     0.031 A 
ATOM     42  C   UNL A   1      38.374  31.427  30.870  1.00  0.00     0.074 A 
ATOM     43  C   UNL A   1      37.947  33.006  32.732  1.00  0.00     0.049 A 
ATOM     44  N   UNL A   1      39.332  30.689  31.368  1.00  0.00    -0.248 NA
ATOM     45  C   UNL A   1      37.956  31.031  29.516  1.00  0.00     0.031 C 
ATOM     46  C   UNL A   1      37.257  34.070  33.465  1.00  0.00     0.029 A 
ATOM     47  N   UNL A   1      38.936  32.602  33.592  1.00  0.00    -0.354 N 
ATOM     48  C   UNL A   1      39.609  29.726  30.402  1.00  0.00     0.074 A 
ATOM     49  C   UNL A   1      38.661  29.928  29.327  1.00  0.00     0.031 C 
ATOM     50  C   UNL A   1      37.865  34.256  34.648  1.00  0.00     0.029 A 
ATOM     51  C   UNL A   1      38.953  33.294  34.781  1.00  0.00     0.049 A 
ATOM     52  H   UNL A   1      39.576  31.884  33.378  1.00  0.00     0.167 HD
ATOM     53  C   UNL A   1      40.581  28.783  30.398  1.00  0.00     0.034 A 
ATOM     54  C   UNL A   1      39.749  33.158  35.861  1.00  0.00     0.034 A 
ATOM     55  C   UNL A   1      41.537  28.624  31.466  1.00  0.00     0.049 A 
ATOM     56  C   UNL A   1      40.830  32.108  35.833  1.00  0.00     0.074 A 
ATOM     57  C   UNL A   1      42.606  27.749  31.545  1.00  0.00     0.029 A 
ATOM     58  N   UNL A   1      41.539  29.361  32.644  1.00  0.00    -0.354 N 
ATOM     59  N   UNL A   1      41.110  31.235  34.892  1.00  0.00    -0.248 NA
ATOM     60  C   UNL A   1      41.709  32.033  37.006  1.00  0.00     0.031 C 
ATOM     61  C   UNL A   1      43.214  27.913  32.794  1.00  0.00     0.029 A 
ATOM     62  C   UNL A   1      42.573  28.943  33.466  1.00  0.00     0.049 A 
ATOM     63  H   UNL A   1      40.899  30.075  32.863  1.00  0.00     0.167 HD
ATOM     64  C   UNL A   1      42.217  30.526  35.349  1.00  0.00     0.074 A 
ATOM     65  C   UNL A   1      42.561  31.086  36.641  1.00  0.00     0.031 C 
ATOM     66  C   UNL A   1      42.893  29.510  34.756  1.00  0.00     0.034 A 
BRANCH  53  67
ATOM     67  C   UNL A   1      40.639  27.849  29.209  1.00  0.00     0.023 A 
ATOM     68  C   UNL A   1      41.569  28.033  28.170  1.00  0.00     0.031 A 
ATOM     69  C   UNL A   1      39.719  26.793  29.085  1.00  0.00     0.131 A 
ATOM     70  C   UNL A   1      41.499  27.239  27.015  1.00  0.00     0.055 A 
ATOM     71  C   UNL A   1      39.715  25.947  27.974  1.00  0.00     0.041 A 
ATOM     72  F   UNL A   1      38.793  26.578  30.032  1.00  0.00    -0.206 F 
ATOM     73  C   UNL A   1      40.595  26.179  26.921  1.00  0.00     0.022 A 
BRANCH  70  74
ATOM     74  S   UNL A   1      42.489  27.721  25.573  1.00  0.00     0.124 S 
ATOM     75  O   UNL A   1      43.823  27.835  26.158  1.00  0.00    -0.237 OA
ATOM     76  O   UNL A   1      42.285  26.601  24.662  1.00  0.00    -0.237 OA
ATOM     77  O   UNL A   1      41.891  28.986  25.153  1.00  0.00    -0.744 OA
ENDBRANCH  70  74
ENDBRANCH  53  67
BRANCH  54  78
ATOM     78  C   UNL A   1      39.561  34.035  37.053  1.00  0.00     0.023 A 
ATOM     79  C   UNL A   1      38.959  33.544  38.222  1.00  0.00     0.031 A 
ATOM     80  C   UNL A   1      39.954  35.384  37.031  1.00  0.00     0.131 A 
ATOM     81  C   UNL A   1      38.726  34.406  39.306  1.00  0.00     0.055 A 
ATOM     82  C   UNL A   1      39.768  36.225  38.131  1.00  0.00     0.041 A 
ATOM     83  F   UNL A   1      40.542  35.903  35.941  1.00  0.00    -0.206 F 
ATOM     84  C   UNL A   1      39.140  35.739  39.273  1.00  0.00     0.022 A 
BRANCH  81  85
ATOM     85  S   UNL A   1      37.805  33.776  40.735  1.00  0.00     0.124 S 
ATOM     86  O   UNL A   1      37.370  35.010  41.377  1.00  0.00    -0.237 OA
ATOM     87  O   UNL A   1      36.759  32.983  40.096  1.00  0.00    -0.237 OA
ATOM     88  O   UNL A   1      38.804  33.005  41.472  1.00  0.00    -0.744 OA
ENDBRANCH  81  85
ENDBRANCH  54  78
BRANCH  66  89
ATOM     89  C   UNL A   1      44.098  28.972  35.487  1.00  0.00     0.023 A 
ATOM     90  C   UNL A   1      43.991  27.932  36.426  1.00  0.00     0.031 A 
ATOM     91  C   UNL A   1      45.371  29.516  35.241  1.00  0.00     0.131 A 
ATOM     92  C   UNL A   1      45.129  27.506  37.127  1.00  0.00     0.055 A 
ATOM     93  C   UNL A   1      46.510  29.046  35.897  1.00  0.00     0.041 A 
ATOM     94  F   UNL A   1      45.530  30.511  34.354  1.00  0.00    -0.206 F 
ATOM     95  C   UNL A   1      46.391  28.044  36.856  1.00  0.00     0.022 A 
BRANCH  92  96
ATOM     96  S   UNL A   1      44.925  26.301  38.467  1.00  0.00     0.124 S 
ATOM     97  O   UNL A   1      44.635  27.163  39.609  1.00  0.00    -0.237 OA
ATOM     98  O   UNL A   1      43.814  25.484  37.986  1.00  0.00    -0.237 OA
ATOM     99  O   UNL A   1      46.217  25.620  38.516  1.00  0.00    -0.744 OA
ENDBRANCH  92  96
ENDBRANCH  66  89
ENDBRANCH  40  41
ENDBRANCH  32  35
ENDBRANCH  30  31
ENDBRANCH  29  30
ENDBRANCH   1  29
TORSDOF 18
ENDMDL
MODEL 3
REMARK VINA RESULT:     -13.0      2.016      7.693
REMARK SMILES C[C@@H](Oc1ccc(-c2ccccc2)cc1)C(=O)N1CCC[C@H](C(=O)NCCCNC(=O)c2ccc(-c3c4nc(c(-c5cc(S(=O)(=O)[O-])ccc5F)c5ccc([nH]5)c(-c5cc(S(=O)(=O)[O-])ccc5F)c5nc(c(-c6cc(S(=O)(=O)[O-])ccc6F)c6ccc3[nH]6)C=C5)C=C4)cc2)C1
REMARK SMILES IDX 26 1 25 2 23 3 24 4 22 6 18 7 19 8 95 9 20 10 21 11 16 12
REMARK SMILES IDX 17 13 2 14 1 15 3 16 4 17 5 18 15 19 6 20 14 21 7 22 8 23
REMARK SMILES IDX 9 24 13 25 10 26 12 27 11 28 27 29 28 30 29 31 30 32 31 34
REMARK SMILES IDX 32 35 33 36 94 37 34 38 93 39 35 40 36 41 37 42 87 43 38 44
REMARK SMILES IDX 92 45 86 46 88 47 39 48 91 49 85 50 84 51 40 53 72 54 52 55
REMARK SMILES IDX 71 56 53 57 56 58 70 59 89 60 54 61 55 62 69 64 90 65 57 66
REMARK SMILES IDX 41 67 42 68 50 69 43 70 49 71 51 72 48 73 44 74 45 75 46 76
REMARK SMILES IDX 47 77 73 78 74 79 82 80 75 81 81 82 83 83 80 84 76 85 77 86
REMARK SMILES IDX 78 87 79 88 58 89 59 90 67 91 60 92 66 93 68 94 65 95 61 96
REMARK SMILES IDX 62 97 63 98 64 99
REMARK H PARENT 25 5 29 33 88 52 56 63
REMARK Flexibility Score: inf
ROOT
ATOM      1  C   UNL A   1      31.607  30.640  26.888  1.00  0.00     0.117 C 
ENDROOT
BRANCH   1   2
ATOM      2  N   UNL A   1      32.643  30.079  26.049  1.00  0.00    -0.356 N 
ATOM      3  C   UNL A   1      32.584  29.165  25.048  1.00  0.00     0.224 C 
ATOM      4  O   UNL A   1      33.608  29.053  24.359  1.00  0.00    -0.275 OA
ATOM      5  H   UNL A   1      33.546  30.420  26.237  1.00  0.00     0.163 HD
BRANCH   3   6
ATOM      6  C   UNL A   1      31.374  28.273  24.730  1.00  0.00     0.098 C 
ATOM      7  N   UNL A   1      31.874  26.501  23.040  1.00  0.00    -0.339 N 
ATOM      8  C   UNL A   1      30.808  26.962  22.151  1.00  0.00     0.119 C 
ATOM      9  C   UNL A   1      31.680  26.797  24.453  1.00  0.00     0.133 C 
ATOM     10  C   UNL A   1      30.467  28.439  22.322  1.00  0.00     0.022 C 
ATOM     11  C   UNL A   1      30.351  28.886  23.774  1.00  0.00     0.017 C 
BRANCH   7  12
ATOM     12  C   UNL A   1      32.956  25.816  22.488  1.00  0.00     0.263 C 
ATOM     13  O   UNL A   1      33.660  26.349  21.621  1.00  0.00    -0.271 OA
BRANCH  12  14
ATOM     14  C   UNL A   1      33.257  24.360  22.886  1.00  0.00     0.259 C 
ATOM     15  C   UNL A   1      34.508  24.120  23.725  1.00  0.00     0.064 C 
BRANCH  14  16
ATOM     16  O   UNL A   1      32.076  23.930  23.575  1.00  0.00    -0.481 OA
BRANCH  16  17
ATOM     17  C   UNL A   1      32.071  22.591  23.827  1.00  0.00     0.120 A 
ATOM     18  C   UNL A   1      32.117  22.100  25.129  1.00  0.00     0.047 A 
ATOM     19  C   UNL A   1      32.190  21.738  22.740  1.00  0.00     0.047 A 
ATOM     20  C   UNL A   1      32.324  20.730  25.341  1.00  0.00     0.012 A 
ATOM     21  C   UNL A   1      32.383  20.378  22.953  1.00  0.00     0.012 A 
ATOM     22  C   UNL A   1      32.497  19.856  24.255  1.00  0.00    -0.018 A 
BRANCH  22  23
ATOM     23  C   UNL A   1      32.880  18.447  24.433  1.00  0.00    -0.018 A 
ATOM     24  C   UNL A   1      32.505  17.703  25.559  1.00  0.00     0.009 A 
ATOM     25  C   UNL A   1      33.637  17.802  23.435  1.00  0.00     0.009 A 
ATOM     26  C   UNL A   1      32.852  16.352  25.667  1.00  0.00     0.001 A 
ATOM     27  C   UNL A   1      33.983  16.456  23.540  1.00  0.00     0.001 A 
ATOM     28  C   UNL A   1      33.585  15.729  24.657  1.00  0.00     0.000 A 
ENDBRANCH  22  23
ENDBRANCH  16  17
ENDBRANCH  14  16
ENDBRANCH  12  14
ENDBRANCH   7  12
ENDBRANCH   3   6
ENDBRANCH   1   2
BRANCH   1  29
ATOM     29  C   UNL A   1      31.423  32.139  26.737  1.00  0.00     0.042 C 
BRANCH  29  30
ATOM     30  C   UNL A   1      32.718  32.918  26.865  1.00  0.00     0.118 C 
BRANCH  30  31
ATOM     31  N   UNL A   1      32.565  34.149  27.635  1.00  0.00    -0.352 N 
ATOM     32  C   UNL A   1      33.260  34.628  28.724  1.00  0.00     0.251 C 
ATOM     33  H   UNL A   1      31.842  34.740  27.321  1.00  0.00     0.163 HD
ATOM     34  O   UNL A   1      32.865  35.639  29.289  1.00  0.00    -0.269 OA
BRANCH  32  35
ATOM     35  C   UNL A   1      34.449  33.906  29.231  1.00  0.00     0.039 A 
ATOM     36  C   UNL A   1      35.718  34.453  29.016  1.00  0.00     0.014 A 
ATOM     37  C   UNL A   1      34.322  32.702  29.923  1.00  0.00     0.014 A 
ATOM     38  C   UNL A   1      36.843  33.832  29.566  1.00  0.00     0.010 A 
ATOM     39  C   UNL A   1      35.421  32.158  30.574  1.00  0.00     0.010 A 
ATOM     40  C   UNL A   1      36.698  32.706  30.391  1.00  0.00    -0.014 A 
BRANCH  40  41
ATOM     41  C   UNL A   1      37.863  32.052  31.042  1.00  0.00     0.031 A 
ATOM     42  C   UNL A   1      38.655  31.019  30.282  1.00  0.00     0.074 A 
ATOM     43  C   UNL A   1      38.153  32.320  32.330  1.00  0.00     0.049 A 
ATOM     44  N   UNL A   1      39.617  30.238  30.698  1.00  0.00    -0.248 NA
ATOM     45  C   UNL A   1      38.275  30.804  28.876  1.00  0.00     0.031 C 
ATOM     46  C   UNL A   1      37.425  33.261  33.185  1.00  0.00     0.029 A 
ATOM     47  N   UNL A   1      39.131  31.821  33.152  1.00  0.00    -0.354 N 
ATOM     48  C   UNL A   1      39.936  29.421  29.617  1.00  0.00     0.074 A 
ATOM     49  C   UNL A   1      39.008  29.750  28.557  1.00  0.00     0.031 C 
ATOM     50  C   UNL A   1      38.002  33.294  34.397  1.00  0.00     0.029 A 
ATOM     51  C   UNL A   1      39.108  32.344  34.424  1.00  0.00     0.049 A 
ATOM     52  H   UNL A   1      39.791  31.150  32.857  1.00  0.00     0.167 HD
ATOM     53  C   UNL A   1      40.928  28.505  29.508  1.00  0.00     0.034 A 
ATOM     54  C   UNL A   1      39.883  32.076  35.494  1.00  0.00     0.034 A 
ATOM     55  C   UNL A   1      41.864  28.219  30.567  1.00  0.00     0.049 A 
ATOM     56  C   UNL A   1      40.986  31.060  35.350  1.00  0.00     0.074 A 
ATOM     57  C   UNL A   1      42.949  27.361  30.553  1.00  0.00     0.029 A 
ATOM     58  N   UNL A   1      41.824  28.788  31.835  1.00  0.00    -0.354 N 
ATOM     59  N   UNL A   1      41.305  30.329  34.306  1.00  0.00    -0.248 NA
ATOM     60  C   UNL A   1      41.841  30.841  36.523  1.00  0.00     0.031 C 
ATOM     61  C   UNL A   1      43.526  27.365  31.828  1.00  0.00     0.029 A 
ATOM     62  C   UNL A   1      42.849  28.280  32.618  1.00  0.00     0.049 A 
ATOM     63  H   UNL A   1      41.164  29.454  32.133  1.00  0.00     0.167 HD
ATOM     64  C   UNL A   1      42.417  29.585  34.689  1.00  0.00     0.074 A 
ATOM     65  C   UNL A   1      42.721  29.969  36.054  1.00  0.00     0.031 C 
ATOM     66  C   UNL A   1      43.128  28.671  33.980  1.00  0.00     0.034 A 
BRANCH  53  67
ATOM     67  C   UNL A   1      41.032  27.745  28.205  1.00  0.00     0.023 A 
ATOM     68  C   UNL A   1      40.616  26.405  28.096  1.00  0.00     0.031 A 
ATOM     69  C   UNL A   1      41.601  28.347  27.069  1.00  0.00     0.131 A 
ATOM     70  C   UNL A   1      40.861  25.687  26.916  1.00  0.00     0.055 A 
ATOM     71  C   UNL A   1      41.756  27.654  25.867  1.00  0.00     0.041 A 
ATOM     72  F   UNL A   1      42.036  29.616  27.113  1.00  0.00    -0.206 F 
ATOM     73  C   UNL A   1      41.404  26.310  25.791  1.00  0.00     0.022 A 
BRANCH  70  74
ATOM     74  S   UNL A   1      40.616  23.889  26.932  1.00  0.00     0.124 S 
ATOM     75  O   UNL A   1      41.626  23.447  25.971  1.00  0.00    -0.237 OA
ATOM     76  O   UNL A   1      40.871  23.549  28.326  1.00  0.00    -0.237 OA
ATOM     77  O   UNL A   1      39.233  23.727  26.490  1.00  0.00    -0.744 OA
ENDBRANCH  70  74
ENDBRANCH  53  67
BRANCH  54  78
ATOM     78  C   UNL A   1      39.649  32.778  36.790  1.00  0.00     0.023 A 
ATOM     79  C   UNL A   1      38.714  32.290  37.717  1.00  0.00     0.031 A 
ATOM     80  C   UNL A   1      40.337  33.962  37.108  1.00  0.00     0.131 A 
ATOM     81  C   UNL A   1      38.459  33.007  38.897  1.00  0.00     0.055 A 
ATOM     82  C   UNL A   1      40.118  34.643  38.308  1.00  0.00     0.041 A 
ATOM     83  F   UNL A   1      41.248  34.468  36.261  1.00  0.00    -0.206 F 
ATOM     84  C   UNL A   1      39.165  34.172  39.205  1.00  0.00     0.022 A 
BRANCH  81  85
ATOM     85  S   UNL A   1      37.133  32.432  39.992  1.00  0.00     0.124 S 
ATOM     86  O   UNL A   1      37.559  31.069  40.287  1.00  0.00    -0.237 OA
ATOM     87  O   UNL A   1      37.217  33.384  41.096  1.00  0.00    -0.237 OA
ATOM     88  O   UNL A   1      35.934  32.547  39.164  1.00  0.00    -0.744 OA
ENDBRANCH  81  85
ENDBRANCH  54  78
BRANCH  66  89
ATOM     89  C   UNL A   1      44.328  28.061  34.660  1.00  0.00     0.023 A 
ATOM     90  C   UNL A   1      44.237  26.861  35.387  1.00  0.00     0.031 A 
ATOM     91  C   UNL A   1      45.580  28.696  34.583  1.00  0.00     0.131 A 
ATOM     92  C   UNL A   1      45.365  26.364  36.055  1.00  0.00     0.055 A 
ATOM     93  C   UNL A   1      46.714  28.163  35.199  1.00  0.00     0.041 A 
ATOM     94  F   UNL A   1      45.723  29.845  33.902  1.00  0.00    -0.206 F 
ATOM     95  C   UNL A   1      46.607  26.997  35.951  1.00  0.00     0.022 A 
BRANCH  92  96
ATOM     96  S   UNL A   1      45.169  24.923  37.139  1.00  0.00     0.124 S 
ATOM     97  O   UNL A   1      46.497  24.807  37.733  1.00  0.00    -0.237 OA
ATOM     98  O   UNL A   1      44.103  25.352  38.040  1.00  0.00    -0.237 OA
ATOM     99  O   UNL A   1      44.805  23.847  36.219  1.00  0.00    -0.744 OA
ENDBRANCH  92  96
ENDBRANCH  66  89
ENDBRANCH  40  41
ENDBRANCH  32  35
ENDBRANCH  30  31
ENDBRANCH  29  30
ENDBRANCH   1  29
TORSDOF 18
ENDMDL
