MODEL 1
REMARK VINA RESULT:     -10.1      0.000      0.000
REMARK SMILES C[C@@H](CC(=O)NCCCNC(=O)c1ccc(-c2c3nc(c(-c4cc(S(=O)(=O)[O-])ccc4F)c4ccc([nH]4)c(-c4cc(S(=O)(=O)[O-])ccc4F)c4nc(c(-c5cc(S(=O)(=O)[O-])ccc5F)c5ccc2[nH]5)C=C4)C=C3)cc1)CC(=O)N(C)C[C@H]1CCC[N@H+]1C
REMARK SMILES IDX 4 1 5 2 6 3 3 5 2 6 1 7 76 8 77 9 78 10 79 11 80 12 81 13
REMARK SMILES IDX 82 14 83 15 86 16 84 17 85 18 87 19 7 21 8 22 9 23 10 24
REMARK SMILES IDX 11 25 12 27 13 28 14 29 75 30 15 31 74 32 16 33 17 34 18 35
REMARK SMILES IDX 68 36 19 37 73 38 67 39 69 40 20 41 72 42 66 43 65 44 21 46
REMARK SMILES IDX 53 47 33 48 52 49 34 50 37 51 51 52 70 53 35 54 36 55 50 57
REMARK SMILES IDX 71 58 38 59 22 60 23 61 31 62 24 63 30 64 32 65 29 66 25 67
REMARK SMILES IDX 26 68 27 69 28 70 54 71 55 72 63 73 56 74 62 75 64 76 61 77
REMARK SMILES IDX 57 78 58 79 59 80 60 81 39 82 40 83 48 84 41 85 47 86 49 87
REMARK SMILES IDX 46 88 42 89 43 90 44 91 45 92
REMARK H PARENT 6 4 86 20 10 26 69 45 37 56
REMARK Flexibility Score: inf
ROOT
ATOM      1  C   UNL A   1      32.899  26.364  22.001  1.00  0.00     0.220 C 
ATOM      2  O   UNL A   1      33.650  25.522  21.503  1.00  0.00    -0.275 OA
ATOM      3  N   UNL A   1      33.383  27.622  22.176  1.00  0.00    -0.356 N 
ATOM      4  H   UNL A   1      34.300  27.757  21.847  1.00  0.00     0.163 HD
ENDROOT
BRANCH   1   5
ATOM      5  C   UNL A   1      31.481  25.995  22.400  1.00  0.00     0.103 C 
BRANCH   5   6
ATOM      6  C   UNL A   1      31.312  25.009  23.580  1.00  0.00     0.004 C 
ATOM      7  C   UNL A   1      30.709  23.679  23.123  1.00  0.00     0.009 C 
BRANCH   6   8
ATOM      8  C   UNL A   1      30.598  25.629  24.797  1.00  0.00     0.104 C 
BRANCH   8   9
ATOM      9  C   UNL A   1      31.321  25.377  26.115  1.00  0.00     0.222 C 
ATOM     10  O   UNL A   1      31.626  26.350  26.808  1.00  0.00    -0.275 OA
BRANCH   9  11
ATOM     11  N   UNL A   1      31.665  24.079  26.474  1.00  0.00    -0.340 N 
ATOM     12  C   UNL A   1      30.733  23.015  26.820  1.00  0.00     0.147 C 
BRANCH  11  13
ATOM     13  C   UNL A   1      33.093  23.727  26.609  1.00  0.00     0.184 C 
BRANCH  13  14
ATOM     14  C   UNL A   1      33.857  23.538  25.264  1.00  0.00     0.203 C 
ATOM     15  C   UNL A   1      35.095  24.444  25.208  1.00  0.00     0.073 C 
ATOM     16  N   UNL A   1      34.523  22.238  25.043  1.00  0.00    -0.333 N 
ATOM     17  C   UNL A   1      36.224  23.625  25.833  1.00  0.00     0.068 C 
ATOM     18  C   UNL A   1      35.685  22.205  25.926  1.00  0.00     0.262 C 
ATOM     19  C   UNL A   1      33.692  21.053  25.141  1.00  0.00     0.333 C 
ATOM     20  H   UNL A   1      34.796  22.189  24.061  1.00  0.00     0.348 HD
ENDBRANCH  13  14
ENDBRANCH  11  13
ENDBRANCH   9  11
ENDBRANCH   8   9
ENDBRANCH   6   8
ENDBRANCH   5   6
ENDBRANCH   1   5
BRANCH   3  21
ATOM     21  C   UNL A   1      32.774  28.798  22.770  1.00  0.00     0.117 C 
BRANCH  21  22
ATOM     22  C   UNL A   1      32.576  28.633  24.275  1.00  0.00     0.042 C 
BRANCH  22  23
ATOM     23  C   UNL A   1      33.579  29.382  25.146  1.00  0.00     0.118 C 
BRANCH  23  24
ATOM     24  N   UNL A   1      33.008  30.576  25.738  1.00  0.00    -0.352 N 
ATOM     25  C   UNL A   1      33.318  31.228  26.909  1.00  0.00     0.251 C 
ATOM     26  H   UNL A   1      32.281  30.988  25.217  1.00  0.00     0.163 HD
ATOM     27  O   UNL A   1      32.542  32.090  27.317  1.00  0.00    -0.269 OA
BRANCH  25  28
ATOM     28  C   UNL A   1      34.540  30.906  27.692  1.00  0.00     0.039 A 
ATOM     29  C   UNL A   1      35.556  31.866  27.763  1.00  0.00     0.014 A 
ATOM     30  C   UNL A   1      34.744  29.656  28.286  1.00  0.00     0.014 A 
ATOM     31  C   UNL A   1      36.742  31.594  28.453  1.00  0.00     0.010 A 
ATOM     32  C   UNL A   1      35.899  29.409  29.036  1.00  0.00     0.010 A 
ATOM     33  C   UNL A   1      36.920  30.370  29.117  1.00  0.00    -0.014 A 
BRANCH  33  34
ATOM     34  C   UNL A   1      38.175  30.074  29.864  1.00  0.00     0.031 A 
ATOM     35  C   UNL A   1      39.191  29.116  29.295  1.00  0.00     0.074 A 
ATOM     36  C   UNL A   1      38.393  30.638  31.069  1.00  0.00     0.049 A 
ATOM     37  N   UNL A   1      40.310  28.683  29.821  1.00  0.00    -0.248 NA
ATOM     38  C   UNL A   1      38.896  28.553  27.969  1.00  0.00     0.031 C 
ATOM     39  C   UNL A   1      37.483  31.567  31.744  1.00  0.00     0.029 A 
ATOM     40  N   UNL A   1      39.443  30.510  31.945  1.00  0.00    -0.354 N 
ATOM     41  C   UNL A   1      40.845  27.789  28.898  1.00  0.00     0.074 A 
ATOM     42  C   UNL A   1      39.898  27.702  27.807  1.00  0.00     0.031 C 
ATOM     43  C   UNL A   1      38.024  31.937  32.916  1.00  0.00     0.029 A 
ATOM     44  C   UNL A   1      39.294  31.243  33.101  1.00  0.00     0.049 A 
ATOM     45  H   UNL A   1      40.229  29.945  31.764  1.00  0.00     0.167 HD
ATOM     46  C   UNL A   1      42.025  27.119  28.944  1.00  0.00     0.034 A 
ATOM     47  C   UNL A   1      40.084  31.340  34.190  1.00  0.00     0.034 A 
ATOM     48  C   UNL A   1      42.973  27.225  30.027  1.00  0.00     0.049 A 
ATOM     49  C   UNL A   1      41.379  30.566  34.229  1.00  0.00     0.074 A 
ATOM     50  C   UNL A   1      44.216  26.627  30.147  1.00  0.00     0.029 A 
ATOM     51  N   UNL A   1      42.784  27.976  31.180  1.00  0.00    -0.354 N 
ATOM     52  N   UNL A   1      41.884  29.755  33.330  1.00  0.00    -0.248 NA
ATOM     53  C   UNL A   1      42.214  30.733  35.427  1.00  0.00     0.031 C 
ATOM     54  C   UNL A   1      44.750  26.966  31.395  1.00  0.00     0.029 A 
ATOM     55  C   UNL A   1      43.874  27.834  32.026  1.00  0.00     0.049 A 
ATOM     56  H   UNL A   1      41.993  28.530  31.369  1.00  0.00     0.167 HD
ATOM     57  C   UNL A   1      43.112  29.340  33.842  1.00  0.00     0.074 A 
ATOM     58  C   UNL A   1      43.275  30.001  35.119  1.00  0.00     0.031 C 
ATOM     59  C   UNL A   1      44.023  28.491  33.302  1.00  0.00     0.034 A 
BRANCH  46  60
ATOM     60  C   UNL A   1      42.342  26.189  27.796  1.00  0.00     0.023 A 
ATOM     61  C   UNL A   1      41.868  24.865  27.765  1.00  0.00     0.031 A 
ATOM     62  C   UNL A   1      43.141  26.626  26.724  1.00  0.00     0.131 A 
ATOM     63  C   UNL A   1      42.256  24.006  26.726  1.00  0.00     0.055 A 
ATOM     64  C   UNL A   1      43.457  25.789  25.652  1.00  0.00     0.041 A 
ATOM     65  F   UNL A   1      43.637  27.874  26.707  1.00  0.00    -0.206 F 
ATOM     66  C   UNL A   1      43.027  24.466  25.656  1.00  0.00     0.022 A 
BRANCH  63  67
ATOM     67  S   UNL A   1      41.851  22.243  26.864  1.00  0.00     0.124 S 
ATOM     68  O   UNL A   1      40.582  22.290  27.587  1.00  0.00    -0.237 OA
ATOM     69  O   UNL A   1      41.778  21.826  25.470  1.00  0.00    -0.237 OA
ATOM     70  O   UNL A   1      42.972  21.693  27.625  1.00  0.00    -0.744 OA
ENDBRANCH  63  67
ENDBRANCH  46  60
BRANCH  47  71
ATOM     71  C   UNL A   1      39.676  32.188  35.347  1.00  0.00     0.023 A 
ATOM     72  C   UNL A   1      38.893  31.664  36.388  1.00  0.00     0.031 A 
ATOM     73  C   UNL A   1      40.020  33.551  35.403  1.00  0.00     0.131 A 
ATOM     74  C   UNL A   1      38.436  32.507  37.412  1.00  0.00     0.055 A 
ATOM     75  C   UNL A   1      39.607  34.373  36.451  1.00  0.00     0.041 A 
ATOM     76  F   UNL A   1      40.773  34.101  34.436  1.00  0.00    -0.206 F 
ATOM     77  C   UNL A   1      38.797  33.855  37.457  1.00  0.00     0.022 A 
BRANCH  74  78
ATOM     78  S   UNL A   1      37.284  31.833  38.641  1.00  0.00     0.124 S 
ATOM     79  O   UNL A   1      37.119  30.461  38.172  1.00  0.00    -0.237 OA
ATOM     80  O   UNL A   1      38.034  32.002  39.881  1.00  0.00    -0.237 OA
ATOM     81  O   UNL A   1      36.106  32.685  38.505  1.00  0.00    -0.744 OA
ENDBRANCH  74  78
ENDBRANCH  47  71
BRANCH  59  82
ATOM     82  C   UNL A   1      45.299  28.272  34.077  1.00  0.00     0.023 A 
ATOM     83  C   UNL A   1      45.425  27.232  35.016  1.00  0.00     0.031 A 
ATOM     84  C   UNL A   1      46.400  29.125  33.883  1.00  0.00     0.131 A 
ATOM     85  C   UNL A   1      46.605  27.106  35.765  1.00  0.00     0.055 A 
ATOM     86  C   UNL A   1      47.591  28.960  34.590  1.00  0.00     0.041 A 
ATOM     87  F   UNL A   1      46.333  30.134  33.001  1.00  0.00    -0.206 F 
ATOM     88  C   UNL A   1      47.695  27.954  35.548  1.00  0.00     0.022 A 
BRANCH  85  89
ATOM     89  S   UNL A   1      46.668  25.870  37.092  1.00  0.00     0.124 S 
ATOM     90  O   UNL A   1      47.854  25.100  36.732  1.00  0.00    -0.237 OA
ATOM     91  O   UNL A   1      46.786  26.700  38.286  1.00  0.00    -0.237 OA
ATOM     92  O   UNL A   1      45.401  25.156  36.957  1.00  0.00    -0.744 OA
ENDBRANCH  85  89
ENDBRANCH  59  82
ENDBRANCH  33  34
ENDBRANCH  25  28
ENDBRANCH  23  24
ENDBRANCH  22  23
ENDBRANCH  21  22
ENDBRANCH   3  21
TORSDOF 19
ENDMDL
MODEL 2
REMARK VINA RESULT:     -10.0      4.733      9.631
REMARK SMILES C[C@@H](CC(=O)NCCCNC(=O)c1ccc(-c2c3nc(c(-c4cc(S(=O)(=O)[O-])ccc4F)c4ccc([nH]4)c(-c4cc(S(=O)(=O)[O-])ccc4F)c4nc(c(-c5cc(S(=O)(=O)[O-])ccc5F)c5ccc2[nH]5)C=C4)C=C3)cc1)CC(=O)N(C)C[C@H]1CCC[N@H+]1C
REMARK SMILES IDX 4 1 5 2 6 3 3 5 2 6 1 7 76 8 77 9 78 10 79 11 80 12 81 13
REMARK SMILES IDX 82 14 83 15 86 16 84 17 85 18 87 19 7 21 8 22 9 23 10 24
REMARK SMILES IDX 11 25 12 27 13 28 14 29 75 30 15 31 74 32 16 33 17 34 18 35
REMARK SMILES IDX 68 36 19 37 73 38 67 39 69 40 20 41 72 42 66 43 65 44 21 46
REMARK SMILES IDX 53 47 33 48 52 49 34 50 37 51 51 52 70 53 35 54 36 55 50 57
REMARK SMILES IDX 71 58 38 59 22 60 23 61 31 62 24 63 30 64 32 65 29 66 25 67
REMARK SMILES IDX 26 68 27 69 28 70 54 71 55 72 63 73 56 74 62 75 64 76 61 77
REMARK SMILES IDX 57 78 58 79 59 80 60 81 39 82 40 83 48 84 41 85 47 86 49 87
REMARK SMILES IDX 46 88 42 89 43 90 44 91 45 92
REMARK H PARENT 6 4 86 20 10 26 69 45 37 56
REMARK Flexibility Score: inf
ROOT
ATOM      1  C   UNL A   1      31.565  23.257  26.320  1.00  0.00     0.220 C 
ATOM      2  O   UNL A   1      31.183  24.036  27.197  1.00  0.00    -0.275 OA
ATOM      3  N   UNL A   1      32.480  22.314  26.665  1.00  0.00    -0.356 N 
ATOM      4  H   UNL A   1      32.732  22.314  27.616  1.00  0.00     0.163 HD
ENDROOT
BRANCH   1   5
ATOM      5  C   UNL A   1      31.023  23.361  24.905  1.00  0.00     0.103 C 
BRANCH   5   6
ATOM      6  C   UNL A   1      31.444  24.597  24.075  1.00  0.00     0.004 C 
ATOM      7  C   UNL A   1      32.805  25.138  24.519  1.00  0.00     0.009 C 
BRANCH   6   8
ATOM      8  C   UNL A   1      30.346  25.675  23.985  1.00  0.00     0.104 C 
BRANCH   8   9
ATOM      9  C   UNL A   1      30.728  26.853  23.097  1.00  0.00     0.222 C 
ATOM     10  O   UNL A   1      31.145  26.616  21.961  1.00  0.00    -0.275 OA
BRANCH   9  11
ATOM     11  N   UNL A   1      30.652  28.147  23.600  1.00  0.00    -0.340 N 
ATOM     12  C   UNL A   1      30.137  29.309  22.890  1.00  0.00     0.147 C 
BRANCH  11  13
ATOM     13  C   UNL A   1      31.210  28.429  24.938  1.00  0.00     0.184 C 
BRANCH  13  14
ATOM     14  C   UNL A   1      32.215  29.619  24.997  1.00  0.00     0.203 C 
ATOM     15  C   UNL A   1      32.255  30.229  26.405  1.00  0.00     0.073 C 
ATOM     16  N   UNL A   1      33.650  29.299  24.853  1.00  0.00    -0.333 N 
ATOM     17  C   UNL A   1      33.324  29.438  27.158  1.00  0.00     0.068 C 
ATOM     18  C   UNL A   1      34.061  28.643  26.090  1.00  0.00     0.262 C 
ATOM     19  C   UNL A   1      34.041  28.573  23.659  1.00  0.00     0.333 C 
ATOM     20  H   UNL A   1      34.153  30.174  24.706  1.00  0.00     0.348 HD
ENDBRANCH  13  14
ENDBRANCH  11  13
ENDBRANCH   9  11
ENDBRANCH   8   9
ENDBRANCH   6   8
ENDBRANCH   5   6
ENDBRANCH   1   5
BRANCH   3  21
ATOM     21  C   UNL A   1      33.150  21.305  25.863  1.00  0.00     0.117 C 
BRANCH  21  22
ATOM     22  C   UNL A   1      34.343  21.884  25.108  1.00  0.00     0.042 C 
BRANCH  22  23
ATOM     23  C   UNL A   1      35.597  22.100  25.947  1.00  0.00     0.118 C 
BRANCH  23  24
ATOM     24  N   UNL A   1      36.570  21.040  25.764  1.00  0.00    -0.352 N 
ATOM     25  C   UNL A   1      37.943  21.089  25.706  1.00  0.00     0.251 C 
ATOM     26  H   UNL A   1      36.185  20.139  25.666  1.00  0.00     0.163 HD
ATOM     27  O   UNL A   1      38.544  20.091  25.313  1.00  0.00    -0.269 OA
BRANCH  25  28
ATOM     28  C   UNL A   1      38.707  22.308  26.082  1.00  0.00     0.039 A 
ATOM     29  C   UNL A   1      39.852  22.156  26.872  1.00  0.00     0.014 A 
ATOM     30  C   UNL A   1      38.278  23.596  25.747  1.00  0.00     0.014 A 
ATOM     31  C   UNL A   1      40.581  23.277  27.288  1.00  0.00     0.010 A 
ATOM     32  C   UNL A   1      39.045  24.712  26.102  1.00  0.00     0.010 A 
ATOM     33  C   UNL A   1      40.199  24.567  26.888  1.00  0.00    -0.014 A 
BRANCH  33  34
ATOM     34  C   UNL A   1      40.974  25.767  27.316  1.00  0.00     0.031 A 
ATOM     35  C   UNL A   1      40.292  26.888  28.059  1.00  0.00     0.074 A 
ATOM     36  C   UNL A   1      42.283  25.868  27.011  1.00  0.00     0.049 A 
ATOM     37  N   UNL A   1      40.779  28.037  28.458  1.00  0.00    -0.248 NA
ATOM     38  C   UNL A   1      38.868  26.701  28.372  1.00  0.00     0.031 C 
ATOM     39  C   UNL A   1      43.060  24.866  26.280  1.00  0.00     0.029 A 
ATOM     40  N   UNL A   1      43.192  26.865  27.272  1.00  0.00    -0.354 N 
ATOM     41  C   UNL A   1      39.720  28.713  29.057  1.00  0.00     0.074 A 
ATOM     42  C   UNL A   1      38.554  27.867  28.918  1.00  0.00     0.031 C 
ATOM     43  C   UNL A   1      44.330  25.289  26.169  1.00  0.00     0.029 A 
ATOM     44  C   UNL A   1      44.452  26.610  26.778  1.00  0.00     0.049 A 
ATOM     45  H   UNL A   1      42.964  27.686  27.765  1.00  0.00     0.167 HD
ATOM     46  C   UNL A   1      39.722  29.917  29.684  1.00  0.00     0.034 A 
ATOM     47  C   UNL A   1      45.575  27.356  26.804  1.00  0.00     0.034 A 
ATOM     48  C   UNL A   1      40.893  30.747  29.836  1.00  0.00     0.049 A 
ATOM     49  C   UNL A   1      45.547  28.702  27.485  1.00  0.00     0.074 A 
ATOM     50  C   UNL A   1      41.012  31.959  30.495  1.00  0.00     0.029 A 
ATOM     51  N   UNL A   1      42.149  30.455  29.320  1.00  0.00    -0.354 N 
ATOM     52  N   UNL A   1      44.545  29.308  28.078  1.00  0.00    -0.248 NA
ATOM     53  C   UNL A   1      46.807  29.458  27.510  1.00  0.00     0.031 C 
ATOM     54  C   UNL A   1      42.320  32.428  30.325  1.00  0.00     0.029 A 
ATOM     55  C   UNL A   1      43.039  31.475  29.622  1.00  0.00     0.049 A 
ATOM     56  H   UNL A   1      42.376  29.641  28.814  1.00  0.00     0.167 HD
ATOM     57  C   UNL A   1      45.063  30.502  28.573  1.00  0.00     0.074 A 
ATOM     58  C   UNL A   1      46.468  30.523  28.222  1.00  0.00     0.031 C 
ATOM     59  C   UNL A   1      44.436  31.491  29.259  1.00  0.00     0.034 A 
BRANCH  46  60
ATOM     60  C   UNL A   1      38.407  30.419  30.231  1.00  0.00     0.023 A 
ATOM     61  C   UNL A   1      37.533  31.200  29.453  1.00  0.00     0.031 A 
ATOM     62  C   UNL A   1      38.025  30.126  31.553  1.00  0.00     0.131 A 
ATOM     63  C   UNL A   1      36.362  31.720  30.024  1.00  0.00     0.055 A 
ATOM     64  C   UNL A   1      36.819  30.580  32.090  1.00  0.00     0.041 A 
ATOM     65  F   UNL A   1      38.826  29.400  32.349  1.00  0.00    -0.206 F 
ATOM     66  C   UNL A   1      35.986  31.396  31.329  1.00  0.00     0.022 A 
BRANCH  63  67
ATOM     67  S   UNL A   1      35.406  32.939  29.079  1.00  0.00     0.124 S 
ATOM     68  O   UNL A   1      34.082  32.803  29.681  1.00  0.00    -0.237 OA
ATOM     69  O   UNL A   1      36.113  34.182  29.360  1.00  0.00    -0.237 OA
ATOM     70  O   UNL A   1      35.508  32.459  27.701  1.00  0.00    -0.744 OA
ENDBRANCH  63  67
ENDBRANCH  46  60
BRANCH  47  71
ATOM     71  C   UNL A   1      46.824  26.865  26.155  1.00  0.00     0.023 A 
ATOM     72  C   UNL A   1      47.835  26.244  26.906  1.00  0.00     0.031 A 
ATOM     73  C   UNL A   1      47.050  27.058  24.779  1.00  0.00     0.131 A 
ATOM     74  C   UNL A   1      49.044  25.885  26.291  1.00  0.00     0.055 A 
ATOM     75  C   UNL A   1      48.233  26.651  24.162  1.00  0.00     0.041 A 
ATOM     76  F   UNL A   1      46.113  27.640  24.013  1.00  0.00    -0.206 F 
ATOM     77  C   UNL A   1      49.245  26.074  24.922  1.00  0.00     0.022 A 
BRANCH  74  78
ATOM     78  S   UNL A   1      50.389  25.248  27.329  1.00  0.00     0.124 S 
ATOM     79  O   UNL A   1      49.775  24.060  27.912  1.00  0.00    -0.237 OA
ATOM     80  O   UNL A   1      51.440  25.011  26.346  1.00  0.00    -0.237 OA
ATOM     81  O   UNL A   1      50.644  26.342  28.262  1.00  0.00    -0.744 OA
ENDBRANCH  74  78
ENDBRANCH  47  71
BRANCH  59  82
ATOM     82  C   UNL A   1      45.282  32.654  29.713  1.00  0.00     0.023 A 
ATOM     83  C   UNL A   1      45.581  33.730  28.859  1.00  0.00     0.031 A 
ATOM     84  C   UNL A   1      45.808  32.679  31.017  1.00  0.00     0.131 A 
ATOM     85  C   UNL A   1      46.429  34.758  29.299  1.00  0.00     0.055 A 
ATOM     86  C   UNL A   1      46.604  33.733  31.469  1.00  0.00     0.041 A 
ATOM     87  F   UNL A   1      45.555  31.678  31.874  1.00  0.00    -0.206 F 
ATOM     88  C   UNL A   1      46.930  34.774  30.604  1.00  0.00     0.022 A 
BRANCH  85  89
ATOM     89  S   UNL A   1      46.939  36.035  28.116  1.00  0.00     0.124 S 
ATOM     90  O   UNL A   1      47.948  35.334  27.329  1.00  0.00    -0.237 OA
ATOM     91  O   UNL A   1      45.690  36.338  27.425  1.00  0.00    -0.237 OA
ATOM     92  O   UNL A   1      47.450  37.107  28.967  1.00  0.00    -0.744 OA
ENDBRANCH  85  89
ENDBRANCH  59  82
ENDBRANCH  33  34
ENDBRANCH  25  28
ENDBRANCH  23  24
ENDBRANCH  22  23
ENDBRANCH  21  22
ENDBRANCH   3  21
TORSDOF 19
ENDMDL
MODEL 3
REMARK VINA RESULT:     -10.0      4.997      9.997
REMARK SMILES C[C@@H](CC(=O)NCCCNC(=O)c1ccc(-c2c3nc(c(-c4cc(S(=O)(=O)[O-])ccc4F)c4ccc([nH]4)c(-c4cc(S(=O)(=O)[O-])ccc4F)c4nc(c(-c5cc(S(=O)(=O)[O-])ccc5F)c5ccc2[nH]5)C=C4)C=C3)cc1)CC(=O)N(C)C[C@H]1CCC[N@H+]1C
REMARK SMILES IDX 4 1 5 2 6 3 3 5 2 6 1 7 76 8 77 9 78 10 79 11 80 12 81 13
REMARK SMILES IDX 82 14 83 15 86 16 84 17 85 18 87 19 7 21 8 22 9 23 10 24
REMARK SMILES IDX 11 25 12 27 13 28 14 29 75 30 15 31 74 32 16 33 17 34 18 35
REMARK SMILES IDX 68 36 19 37 73 38 67 39 69 40 20 41 72 42 66 43 65 44 21 46
REMARK SMILES IDX 53 47 33 48 52 49 34 50 37 51 51 52 70 53 35 54 36 55 50 57
REMARK SMILES IDX 71 58 38 59 22 60 23 61 31 62 24 63 30 64 32 65 29 66 25 67
REMARK SMILES IDX 26 68 27 69 28 70 54 71 55 72 63 73 56 74 62 75 64 76 61 77
REMARK SMILES IDX 57 78 58 79 59 80 60 81 39 82 40 83 48 84 41 85 47 86 49 87
REMARK SMILES IDX 46 88 42 89 43 90 44 91 45 92
REMARK H PARENT 6 4 86 20 10 26 69 45 37 56
REMARK Flexibility Score: inf
ROOT
ATOM      1  C   UNL A   1      32.075  24.229  26.059  1.00  0.00     0.220 C 
ATOM      2  O   UNL A   1      31.390  24.603  27.014  1.00  0.00    -0.275 OA
ATOM      3  N   UNL A   1      32.654  23.002  26.135  1.00  0.00    -0.356 N 
ATOM      4  H   UNL A   1      32.436  22.496  26.950  1.00  0.00     0.163 HD
ENDROOT
BRANCH   1   5
ATOM      5  C   UNL A   1      32.259  25.122  24.843  1.00  0.00     0.103 C 
BRANCH   5   6
ATOM      6  C   UNL A   1      31.021  25.363  23.949  1.00  0.00     0.004 C 
ATOM      7  C   UNL A   1      30.647  24.110  23.153  1.00  0.00     0.009 C 
BRANCH   6   8
ATOM      8  C   UNL A   1      31.129  26.637  23.087  1.00  0.00     0.104 C 
BRANCH   8   9
ATOM      9  C   UNL A   1      30.049  27.667  23.395  1.00  0.00     0.222 C 
ATOM     10  O   UNL A   1      28.870  27.344  23.226  1.00  0.00    -0.275 OA
BRANCH   9  11
ATOM     11  N   UNL A   1      30.413  28.946  23.799  1.00  0.00    -0.340 N 
ATOM     12  C   UNL A   1      29.691  30.174  23.494  1.00  0.00     0.147 C 
BRANCH  11  13
ATOM     13  C   UNL A   1      31.681  29.133  24.532  1.00  0.00     0.184 C 
BRANCH  13  14
ATOM     14  C   UNL A   1      31.561  29.076  26.085  1.00  0.00     0.203 C 
ATOM     15  C   UNL A   1      32.463  27.976  26.661  1.00  0.00     0.073 C 
ATOM     16  N   UNL A   1      32.096  30.223  26.845  1.00  0.00    -0.333 N 
ATOM     17  C   UNL A   1      33.814  28.646  26.904  1.00  0.00     0.068 C 
ATOM     18  C   UNL A   1      33.551  30.139  26.766  1.00  0.00     0.262 C 
ATOM     19  C   UNL A   1      31.576  31.534  26.504  1.00  0.00     0.333 C 
ATOM     20  H   UNL A   1      31.767  30.141  27.808  1.00  0.00     0.348 HD
ENDBRANCH  13  14
ENDBRANCH  11  13
ENDBRANCH   9  11
ENDBRANCH   8   9
ENDBRANCH   6   8
ENDBRANCH   5   6
ENDBRANCH   1   5
BRANCH   3  21
ATOM     21  C   UNL A   1      33.541  22.313  25.215  1.00  0.00     0.117 C 
BRANCH  21  22
ATOM     22  C   UNL A   1      34.510  21.391  25.949  1.00  0.00     0.042 C 
BRANCH  22  23
ATOM     23  C   UNL A   1      35.930  21.927  26.095  1.00  0.00     0.118 C 
BRANCH  23  24
ATOM     24  N   UNL A   1      36.930  20.898  25.889  1.00  0.00    -0.352 N 
ATOM     25  C   UNL A   1      38.298  20.991  25.781  1.00  0.00     0.251 C 
ATOM     26  H   UNL A   1      36.572  19.984  25.813  1.00  0.00     0.163 HD
ATOM     27  O   UNL A   1      38.918  20.008  25.377  1.00  0.00    -0.269 OA
BRANCH  25  28
ATOM     28  C   UNL A   1      39.034  22.238  26.118  1.00  0.00     0.039 A 
ATOM     29  C   UNL A   1      40.199  22.135  26.887  1.00  0.00     0.014 A 
ATOM     30  C   UNL A   1      38.562  23.506  25.766  1.00  0.00     0.014 A 
ATOM     31  C   UNL A   1      40.903  23.284  27.265  1.00  0.00     0.010 A 
ATOM     32  C   UNL A   1      39.303  24.650  26.083  1.00  0.00     0.010 A 
ATOM     33  C   UNL A   1      40.476  24.555  26.849  1.00  0.00    -0.014 A 
BRANCH  33  34
ATOM     34  C   UNL A   1      41.224  25.784  27.237  1.00  0.00     0.031 A 
ATOM     35  C   UNL A   1      40.567  26.835  28.096  1.00  0.00     0.074 A 
ATOM     36  C   UNL A   1      42.483  25.976  26.794  1.00  0.00     0.049 A 
ATOM     37  N   UNL A   1      41.030  27.997  28.485  1.00  0.00    -0.248 NA
ATOM     38  C   UNL A   1      39.201  26.550  28.557  1.00  0.00     0.031 C 
ATOM     39  C   UNL A   1      43.229  25.049  25.941  1.00  0.00     0.029 A 
ATOM     40  N   UNL A   1      43.357  27.017  26.993  1.00  0.00    -0.354 N 
ATOM     41  C   UNL A   1      40.009  28.587  29.225  1.00  0.00     0.074 A 
ATOM     42  C   UNL A   1      38.885  27.676  29.181  1.00  0.00     0.031 C 
ATOM     43  C   UNL A   1      44.451  25.553  25.707  1.00  0.00     0.029 A 
ATOM     44  C   UNL A   1      44.566  26.857  26.353  1.00  0.00     0.049 A 
ATOM     45  H   UNL A   1      43.139  27.805  27.542  1.00  0.00     0.167 HD
ATOM     46  C   UNL A   1      40.013  29.766  29.897  1.00  0.00     0.034 A 
ATOM     47  C   UNL A   1      45.640  27.669  26.285  1.00  0.00     0.034 A 
ATOM     48  C   UNL A   1      41.145  30.661  29.952  1.00  0.00     0.049 A 
ATOM     49  C   UNL A   1      45.613  28.987  27.019  1.00  0.00     0.074 A 
ATOM     50  C   UNL A   1      41.267  31.855  30.643  1.00  0.00     0.029 A 
ATOM     51  N   UNL A   1      42.349  30.464  29.289  1.00  0.00    -0.354 N 
ATOM     52  N   UNL A   1      44.650  29.509  27.744  1.00  0.00    -0.248 NA
ATOM     53  C   UNL A   1      46.822  29.817  26.936  1.00  0.00     0.031 C 
ATOM     54  C   UNL A   1      42.519  32.408  30.349  1.00  0.00     0.029 A 
ATOM     55  C   UNL A   1      43.208  31.526  29.532  1.00  0.00     0.049 A 
ATOM     56  H   UNL A   1      42.563  29.684  28.728  1.00  0.00     0.167 HD
ATOM     57  C   UNL A   1      45.153  30.715  28.227  1.00  0.00     0.074 A 
ATOM     58  C   UNL A   1      46.505  30.835  27.724  1.00  0.00     0.031 C 
ATOM     59  C   UNL A   1      44.551  31.639  29.018  1.00  0.00     0.034 A 
BRANCH  46  60
ATOM     60  C   UNL A   1      38.741  30.167  30.606  1.00  0.00     0.023 A 
ATOM     61  C   UNL A   1      37.795  31.015  30.002  1.00  0.00     0.031 A 
ATOM     62  C   UNL A   1      38.475  29.709  31.909  1.00  0.00     0.131 A 
ATOM     63  C   UNL A   1      36.669  31.435  30.726  1.00  0.00     0.055 A 
ATOM     64  C   UNL A   1      37.312  30.067  32.593  1.00  0.00     0.041 A 
ATOM     65  F   UNL A   1      39.350  28.911  32.543  1.00  0.00    -0.206 F 
ATOM     66  C   UNL A   1      36.408  30.948  32.008  1.00  0.00     0.022 A 
BRANCH  63  67
ATOM     67  S   UNL A   1      35.621  32.736  30.016  1.00  0.00     0.124 S 
ATOM     68  O   UNL A   1      36.452  33.922  30.212  1.00  0.00    -0.237 OA
ATOM     69  O   UNL A   1      35.455  32.291  28.639  1.00  0.00    -0.237 OA
ATOM     70  O   UNL A   1      34.413  32.688  30.839  1.00  0.00    -0.744 OA
ENDBRANCH  63  67
ENDBRANCH  46  60
BRANCH  47  71
ATOM     71  C   UNL A   1      46.834  27.278  25.482  1.00  0.00     0.023 A 
ATOM     72  C   UNL A   1      47.024  27.769  24.181  1.00  0.00     0.031 A 
ATOM     73  C   UNL A   1      47.777  26.363  25.985  1.00  0.00     0.131 A 
ATOM     74  C   UNL A   1      48.100  27.306  23.408  1.00  0.00     0.055 A 
ATOM     75  C   UNL A   1      48.875  25.946  25.231  1.00  0.00     0.041 A 
ATOM     76  F   UNL A   1      47.647  25.868  27.227  1.00  0.00    -0.206 F 
ATOM     77  C   UNL A   1      49.032  26.407  23.928  1.00  0.00     0.022 A 
BRANCH  74  78
ATOM     78  S   UNL A   1      48.211  27.830  21.674  1.00  0.00     0.124 S 
ATOM     79  O   UNL A   1      46.969  28.577  21.510  1.00  0.00    -0.237 OA
ATOM     80  O   UNL A   1      49.439  28.617  21.676  1.00  0.00    -0.237 OA
ATOM     81  O   UNL A   1      48.282  26.568  20.942  1.00  0.00    -0.744 OA
ENDBRANCH  74  78
ENDBRANCH  47  71
BRANCH  59  82
ATOM     82  C   UNL A   1      45.375  32.836  29.423  1.00  0.00     0.023 A 
ATOM     83  C   UNL A   1      45.422  34.003  28.639  1.00  0.00     0.031 A 
ATOM     84  C   UNL A   1      46.135  32.804  30.606  1.00  0.00     0.131 A 
ATOM     85  C   UNL A   1      46.256  35.066  29.016  1.00  0.00     0.055 A 
ATOM     86  C   UNL A   1      46.919  33.887  31.006  1.00  0.00     0.041 A 
ATOM     87  F   UNL A   1      46.128  31.715  31.391  1.00  0.00    -0.206 F 
ATOM     88  C   UNL A   1      46.993  35.022  30.203  1.00  0.00     0.022 A 
BRANCH  85  89
ATOM     89  S   UNL A   1      46.432  36.479  27.892  1.00  0.00     0.124 S 
ATOM     90  O   UNL A   1      46.773  35.824  26.633  1.00  0.00    -0.237 OA
ATOM     91  O   UNL A   1      45.109  37.092  27.953  1.00  0.00    -0.237 OA
ATOM     92  O   UNL A   1      47.506  37.265  28.493  1.00  0.00    -0.744 OA
ENDBRANCH  85  89
ENDBRANCH  59  82
ENDBRANCH  33  34
ENDBRANCH  25  28
ENDBRANCH  23  24
ENDBRANCH  22  23
ENDBRANCH  21  22
ENDBRANCH   3  21
TORSDOF 19
ENDMDL
