MODEL 1
REMARK VINA RESULT:     -10.4      0.000      0.000
REMARK SMILES CCCCCCNC(=O)Oc1cccc(-c2ccc([C@@H](C)C(=O)NCCCNC(=O)c3ccc(-c4c5nc(c(-c6cc(S(=O)(=O)[O-])ccc6F)c6ccc([nH]6)c(-c6cc(S(=O)(=O)[O-])ccc6F)c6nc(c(-c7cc(S(=O)(=O)[O-])ccc7F)c7ccc4[nH]7)C=C6)C=C5)cc3)cc2C)c1
REMARK SMILES IDX 20 1 21 2 19 3 16 4 17 5 95 6 18 7 94 8 96 9 15 10 11 11
REMARK SMILES IDX 12 12 97 13 13 14 14 15 10 16 8 17 7 18 9 20 6 21 5 22 4 23
REMARK SMILES IDX 3 24 2 25 1 26 22 27 23 28 24 29 25 31 26 32 27 33 28 34
REMARK SMILES IDX 29 35 30 37 31 38 32 39 93 40 33 41 92 42 34 43 35 44 36 45
REMARK SMILES IDX 86 46 37 47 91 48 85 49 87 50 38 51 90 52 84 53 83 54 39 56
REMARK SMILES IDX 71 57 51 58 70 59 52 60 55 61 69 62 88 63 53 64 54 65 68 67
REMARK SMILES IDX 89 68 56 69 40 70 41 71 49 72 42 73 48 74 50 75 47 76 43 77
REMARK SMILES IDX 44 78 45 79 46 80 72 81 73 82 81 83 74 84 80 85 82 86 79 87
REMARK SMILES IDX 75 88 76 89 77 90 78 91 57 92 58 93 66 94 59 95 65 96 67 97
REMARK SMILES IDX 64 98 60 99 61 100 62 101 63 102
REMARK H PARENT 7 19 24 30 28 36 87 55 55 66
REMARK Flexibility Score: inf
ROOT
ATOM      1  C   UNL A   1      34.240  34.619  28.829  1.00  0.00     0.105 C 
ATOM      2  C   UNL A   1      34.259  35.859  27.938  1.00  0.00     0.023 C 
ENDROOT
BRANCH   1   3
ATOM      3  C   UNL A   1      33.748  33.348  28.156  1.00  0.00    -0.036 A 
ATOM      4  C   UNL A   1      32.820  30.859  27.085  1.00  0.00    -0.015 A 
ATOM      5  C   UNL A   1      32.023  32.018  27.087  1.00  0.00     0.009 A 
ATOM      6  C   UNL A   1      34.148  30.993  27.548  1.00  0.00    -0.043 A 
ATOM      7  C   UNL A   1      32.495  33.245  27.560  1.00  0.00     0.005 A 
ATOM      8  C   UNL A   1      34.569  32.212  28.125  1.00  0.00     0.008 A 
ATOM      9  C   UNL A   1      35.187  29.905  27.445  1.00  0.00     0.045 C 
BRANCH   4  10
ATOM     10  C   UNL A   1      32.222  29.588  26.611  1.00  0.00    -0.014 A 
ATOM     11  C   UNL A   1      31.129  28.261  24.892  1.00  0.00     0.133 A 
ATOM     12  C   UNL A   1      31.087  27.150  25.728  1.00  0.00     0.047 A 
ATOM     13  C   UNL A   1      31.709  29.459  25.311  1.00  0.00     0.056 A 
ATOM     14  C   UNL A   1      31.630  27.241  27.004  1.00  0.00     0.004 A 
ATOM     15  C   UNL A   1      32.177  28.451  27.444  1.00  0.00     0.009 A 
BRANCH  11  16
ATOM     16  O   UNL A   1      30.412  28.163  23.685  1.00  0.00    -0.410 OA
BRANCH  16  17
ATOM     17  C   UNL A   1      30.985  28.550  22.484  1.00  0.00     0.412 C 
ATOM     18  N   UNL A   1      31.534  27.501  21.799  1.00  0.00    -0.321 N 
ATOM     19  H   UNL A   1      32.029  27.721  20.977  1.00  0.00     0.167 HD
ATOM     20  O   UNL A   1      31.013  29.686  22.029  1.00  0.00    -0.224 OA
BRANCH  18  21
ATOM     21  C   UNL A   1      31.463  26.099  22.157  1.00  0.00     0.119 C 
BRANCH  21  22
ATOM     22  C   UNL A   1      32.810  25.575  22.657  1.00  0.00     0.021 C 
BRANCH  22  23
ATOM     23  C   UNL A   1      33.098  24.109  22.307  1.00  0.00     0.002 C 
BRANCH  23  24
ATOM     24  C   UNL A   1      34.232  23.454  23.104  1.00  0.00    -0.000 C 
BRANCH  24  25
ATOM     25  C   UNL A   1      34.420  23.983  24.528  1.00  0.00    -0.003 C 
ATOM     26  C   UNL A   1      35.876  24.012  24.969  1.00  0.00     0.004 C 
ENDBRANCH  24  25
ENDBRANCH  23  24
ENDBRANCH  22  23
ENDBRANCH  21  22
ENDBRANCH  18  21
ENDBRANCH  16  17
ENDBRANCH  11  16
ENDBRANCH   4  10
ENDBRANCH   1   3
BRANCH   1  27
ATOM     27  C   UNL A   1      33.670  34.852  30.237  1.00  0.00     0.227 C 
ATOM     28  O   UNL A   1      32.544  35.353  30.366  1.00  0.00    -0.274 OA
ATOM     29  N   UNL A   1      34.306  34.514  31.390  1.00  0.00    -0.356 N 
ATOM     30  H   UNL A   1      33.774  34.677  32.202  1.00  0.00     0.163 HD
BRANCH  29  31
ATOM     31  C   UNL A   1      35.620  33.959  31.652  1.00  0.00     0.117 C 
BRANCH  31  32
ATOM     32  C   UNL A   1      35.553  32.519  32.156  1.00  0.00     0.042 C 
BRANCH  32  33
ATOM     33  C   UNL A   1      36.632  32.171  33.175  1.00  0.00     0.118 C 
BRANCH  33  34
ATOM     34  N   UNL A   1      36.750  30.733  33.378  1.00  0.00    -0.352 N 
ATOM     35  C   UNL A   1      37.639  29.827  32.851  1.00  0.00     0.251 C 
ATOM     36  H   UNL A   1      36.084  30.348  33.992  1.00  0.00     0.163 HD
ATOM     37  O   UNL A   1      37.401  28.627  32.969  1.00  0.00    -0.269 OA
BRANCH  35  38
ATOM     38  C   UNL A   1      38.857  30.277  32.136  1.00  0.00     0.039 A 
ATOM     39  C   UNL A   1      38.828  30.369  30.741  1.00  0.00     0.014 A 
ATOM     40  C   UNL A   1      40.036  30.571  32.824  1.00  0.00     0.014 A 
ATOM     41  C   UNL A   1      39.954  30.824  30.047  1.00  0.00     0.010 A 
ATOM     42  C   UNL A   1      41.128  31.103  32.141  1.00  0.00     0.010 A 
ATOM     43  C   UNL A   1      41.100  31.236  30.745  1.00  0.00    -0.014 A 
BRANCH  43  44
ATOM     44  C   UNL A   1      42.277  31.810  30.042  1.00  0.00     0.031 A 
ATOM     45  C   UNL A   1      43.440  30.929  29.672  1.00  0.00     0.074 A 
ATOM     46  C   UNL A   1      42.333  33.137  29.808  1.00  0.00     0.049 A 
ATOM     47  N   UNL A   1      44.601  31.256  29.167  1.00  0.00    -0.248 NA
ATOM     48  C   UNL A   1      43.281  29.490  29.933  1.00  0.00     0.031 C 
ATOM     49  C   UNL A   1      41.282  34.098  30.147  1.00  0.00     0.029 A 
ATOM     50  N   UNL A   1      43.319  33.909  29.247  1.00  0.00    -0.354 N 
ATOM     51  C   UNL A   1      45.319  30.068  29.063  1.00  0.00     0.074 A 
ATOM     52  C   UNL A   1      44.479  29.025  29.615  1.00  0.00     0.031 C 
ATOM     53  C   UNL A   1      41.670  35.326  29.769  1.00  0.00     0.029 A 
ATOM     54  C   UNL A   1      43.019  35.252  29.215  1.00  0.00     0.049 A 
ATOM     55  H   UNL A   1      44.162  33.539  28.899  1.00  0.00     0.167 HD
ATOM     56  C   UNL A   1      46.554  29.865  28.539  1.00  0.00     0.034 A 
ATOM     57  C   UNL A   1      43.753  36.307  28.810  1.00  0.00     0.034 A 
ATOM     58  C   UNL A   1      47.374  30.918  27.991  1.00  0.00     0.049 A 
ATOM     59  C   UNL A   1      45.143  36.064  28.279  1.00  0.00     0.074 A 
ATOM     60  C   UNL A   1      48.617  30.819  27.390  1.00  0.00     0.029 A 
ATOM     61  N   UNL A   1      47.041  32.268  27.988  1.00  0.00    -0.354 N 
ATOM     62  N   UNL A   1      45.792  34.930  28.148  1.00  0.00    -0.248 NA
ATOM     63  C   UNL A   1      45.899  37.244  27.839  1.00  0.00     0.031 C 
ATOM     64  C   UNL A   1      49.065  32.110  27.090  1.00  0.00     0.029 A 
ATOM     65  C   UNL A   1      48.069  33.012  27.429  1.00  0.00     0.049 A 
ATOM     66  H   UNL A   1      46.198  32.641  28.334  1.00  0.00     0.167 HD
ATOM     67  C   UNL A   1      47.020  35.258  27.582  1.00  0.00     0.074 A 
ATOM     68  C   UNL A   1      47.016  36.693  27.386  1.00  0.00     0.031 C 
ATOM     69  C   UNL A   1      48.056  34.446  27.250  1.00  0.00     0.034 A 
BRANCH  56  70
ATOM     70  C   UNL A   1      47.095  28.453  28.563  1.00  0.00     0.023 A 
ATOM     71  C   UNL A   1      46.781  27.525  27.554  1.00  0.00     0.031 A 
ATOM     72  C   UNL A   1      47.910  28.018  29.623  1.00  0.00     0.131 A 
ATOM     73  C   UNL A   1      47.208  26.194  27.667  1.00  0.00     0.055 A 
ATOM     74  C   UNL A   1      48.404  26.714  29.686  1.00  0.00     0.041 A 
ATOM     75  F   UNL A   1      48.229  28.851  30.627  1.00  0.00    -0.206 F 
ATOM     76  C   UNL A   1      48.039  25.787  28.714  1.00  0.00     0.022 A 
BRANCH  73  77
ATOM     77  S   UNL A   1      46.534  24.968  26.512  1.00  0.00     0.124 S 
ATOM     78  O   UNL A   1      46.744  25.629  25.226  1.00  0.00    -0.237 OA
ATOM     79  O   UNL A   1      47.365  23.798  26.773  1.00  0.00    -0.237 OA
ATOM     80  O   UNL A   1      45.136  24.845  26.919  1.00  0.00    -0.744 OA
ENDBRANCH  73  77
ENDBRANCH  56  70
BRANCH  57  81
ATOM     81  C   UNL A   1      43.203  37.690  28.902  1.00  0.00     0.023 A 
ATOM     82  C   UNL A   1      43.423  38.481  30.041  1.00  0.00     0.031 A 
ATOM     83  C   UNL A   1      42.417  38.231  27.868  1.00  0.00     0.131 A 
ATOM     84  C   UNL A   1      42.829  39.748  30.140  1.00  0.00     0.055 A 
ATOM     85  C   UNL A   1      41.875  39.515  27.946  1.00  0.00     0.041 A 
ATOM     86  F   UNL A   1      42.174  37.520  26.756  1.00  0.00    -0.206 F 
ATOM     87  C   UNL A   1      42.069  40.277  29.094  1.00  0.00     0.022 A 
BRANCH  84  88
ATOM     88  S   UNL A   1      42.995  40.668  31.695  1.00  0.00     0.124 S 
ATOM     89  O   UNL A   1      44.199  41.453  31.448  1.00  0.00    -0.237 OA
ATOM     90  O   UNL A   1      41.740  41.411  31.743  1.00  0.00    -0.237 OA
ATOM     91  O   UNL A   1      43.132  39.615  32.698  1.00  0.00    -0.744 OA
ENDBRANCH  84  88
ENDBRANCH  57  81
BRANCH  69  92
ATOM     92  C   UNL A   1      49.253  35.092  26.597  1.00  0.00     0.023 A 
ATOM     93  C   UNL A   1      50.392  35.461  27.334  1.00  0.00     0.031 A 
ATOM     94  C   UNL A   1      49.250  35.343  25.212  1.00  0.00     0.131 A 
ATOM     95  C   UNL A   1      51.461  36.106  26.692  1.00  0.00     0.055 A 
ATOM     96  C   UNL A   1      50.342  35.929  24.569  1.00  0.00     0.041 A 
ATOM     97  F   UNL A   1      48.188  35.015  24.461  1.00  0.00    -0.206 F 
ATOM     98  C   UNL A   1      51.451  36.324  25.311  1.00  0.00     0.022 A 
BRANCH  95  99
ATOM     99  S   UNL A   1      52.836  36.728  27.698  1.00  0.00     0.124 S 
ATOM    100  O   UNL A   1      52.144  37.564  28.673  1.00  0.00    -0.237 OA
ATOM    101  O   UNL A   1      53.427  35.499  28.217  1.00  0.00    -0.237 OA
ATOM    102  O   UNL A   1      53.664  37.455  26.735  1.00  0.00    -0.744 OA
ENDBRANCH  95  99
ENDBRANCH  69  92
ENDBRANCH  43  44
ENDBRANCH  35  38
ENDBRANCH  33  34
ENDBRANCH  32  33
ENDBRANCH  31  32
ENDBRANCH  29  31
ENDBRANCH   1  27
TORSDOF 22
ENDMDL
MODEL 2
REMARK VINA RESULT:     -10.2      4.985     12.092
REMARK SMILES CCCCCCNC(=O)Oc1cccc(-c2ccc([C@@H](C)C(=O)NCCCNC(=O)c3ccc(-c4c5nc(c(-c6cc(S(=O)(=O)[O-])ccc6F)c6ccc([nH]6)c(-c6cc(S(=O)(=O)[O-])ccc6F)c6nc(c(-c7cc(S(=O)(=O)[O-])ccc7F)c7ccc4[nH]7)C=C6)C=C5)cc3)cc2C)c1
REMARK SMILES IDX 20 1 21 2 19 3 16 4 17 5 95 6 18 7 94 8 96 9 15 10 11 11
REMARK SMILES IDX 12 12 97 13 13 14 14 15 10 16 8 17 7 18 9 20 6 21 5 22 4 23
REMARK SMILES IDX 3 24 2 25 1 26 22 27 23 28 24 29 25 31 26 32 27 33 28 34
REMARK SMILES IDX 29 35 30 37 31 38 32 39 93 40 33 41 92 42 34 43 35 44 36 45
REMARK SMILES IDX 86 46 37 47 91 48 85 49 87 50 38 51 90 52 84 53 83 54 39 56
REMARK SMILES IDX 71 57 51 58 70 59 52 60 55 61 69 62 88 63 53 64 54 65 68 67
REMARK SMILES IDX 89 68 56 69 40 70 41 71 49 72 42 73 48 74 50 75 47 76 43 77
REMARK SMILES IDX 44 78 45 79 46 80 72 81 73 82 81 83 74 84 80 85 82 86 79 87
REMARK SMILES IDX 75 88 76 89 77 90 78 91 57 92 58 93 66 94 59 95 65 96 67 97
REMARK SMILES IDX 64 98 60 99 61 100 62 101 63 102
REMARK H PARENT 7 19 24 30 28 36 87 55 55 66
REMARK Flexibility Score: inf
ROOT
ATOM      1  C   UNL A   1      42.550  20.841  27.106  1.00  0.00     0.105 C 
ATOM      2  C   UNL A   1      41.630  19.845  27.808  1.00  0.00     0.023 C 
ENDROOT
BRANCH   1   3
ATOM      3  C   UNL A   1      42.085  22.288  27.144  1.00  0.00    -0.036 A 
ATOM      4  C   UNL A   1      41.102  24.966  27.399  1.00  0.00    -0.015 A 
ATOM      5  C   UNL A   1      42.468  24.654  27.525  1.00  0.00     0.009 A 
ATOM      6  C   UNL A   1      40.233  23.911  27.041  1.00  0.00    -0.043 A 
ATOM      7  C   UNL A   1      42.953  23.356  27.347  1.00  0.00     0.005 A 
ATOM      8  C   UNL A   1      40.726  22.589  26.976  1.00  0.00     0.008 A 
ATOM      9  C   UNL A   1      38.780  24.103  26.688  1.00  0.00     0.045 C 
BRANCH   4  10
ATOM     10  C   UNL A   1      40.666  26.360  27.654  1.00  0.00    -0.014 A 
ATOM     11  C   UNL A   1      39.797  28.080  29.136  1.00  0.00     0.133 A 
ATOM     12  C   UNL A   1      39.841  29.027  28.117  1.00  0.00     0.047 A 
ATOM     13  C   UNL A   1      40.225  26.769  28.923  1.00  0.00     0.056 A 
ATOM     14  C   UNL A   1      40.317  28.655  26.866  1.00  0.00     0.004 A 
ATOM     15  C   UNL A   1      40.709  27.332  26.635  1.00  0.00     0.009 A 
BRANCH  11  16
ATOM     16  O   UNL A   1      39.147  28.468  30.322  1.00  0.00    -0.410 OA
BRANCH  16  17
ATOM     17  C   UNL A   1      39.377  29.715  30.883  1.00  0.00     0.412 C 
ATOM     18  N   UNL A   1      38.230  30.444  31.037  1.00  0.00    -0.321 N 
ATOM     19  H   UNL A   1      38.335  31.370  31.355  1.00  0.00     0.167 HD
ATOM     20  O   UNL A   1      40.461  30.159  31.237  1.00  0.00    -0.224 OA
BRANCH  18  21
ATOM     21  C   UNL A   1      36.876  29.996  30.782  1.00  0.00     0.119 C 
BRANCH  21  22
ATOM     22  C   UNL A   1      36.248  30.741  29.602  1.00  0.00     0.021 C 
BRANCH  22  23
ATOM     23  C   UNL A   1      35.610  32.089  29.962  1.00  0.00     0.002 C 
BRANCH  23  24
ATOM     24  C   UNL A   1      35.124  32.220  31.410  1.00  0.00    -0.000 C 
BRANCH  24  25
ATOM     25  C   UNL A   1      35.834  33.289  32.244  1.00  0.00    -0.003 C 
ATOM     26  C   UNL A   1      35.662  33.092  33.742  1.00  0.00     0.004 C 
ENDBRANCH  24  25
ENDBRANCH  23  24
ENDBRANCH  22  23
ENDBRANCH  21  22
ENDBRANCH  18  21
ENDBRANCH  16  17
ENDBRANCH  11  16
ENDBRANCH   4  10
ENDBRANCH   1   3
BRANCH   1  27
ATOM     27  C   UNL A   1      43.066  20.378  25.734  1.00  0.00     0.227 C 
ATOM     28  O   UNL A   1      42.333  19.699  25.003  1.00  0.00    -0.274 OA
ATOM     29  N   UNL A   1      44.289  20.690  25.227  1.00  0.00    -0.356 N 
ATOM     30  H   UNL A   1      44.436  20.362  24.311  1.00  0.00     0.163 HD
BRANCH  29  31
ATOM     31  C   UNL A   1      45.419  21.411  25.781  1.00  0.00     0.117 C 
BRANCH  31  32
ATOM     32  C   UNL A   1      45.822  22.607  24.921  1.00  0.00     0.042 C 
BRANCH  32  33
ATOM     33  C   UNL A   1      46.335  23.797  25.723  1.00  0.00     0.118 C 
BRANCH  33  34
ATOM     34  N   UNL A   1      46.846  24.857  24.863  1.00  0.00    -0.352 N 
ATOM     35  C   UNL A   1      46.613  26.211  24.881  1.00  0.00     0.251 C 
ATOM     36  H   UNL A   1      47.457  24.554  24.154  1.00  0.00     0.163 HD
ATOM     37  O   UNL A   1      46.956  26.884  23.911  1.00  0.00    -0.269 OA
BRANCH  35  38
ATOM     38  C   UNL A   1      45.946  26.858  26.036  1.00  0.00     0.039 A 
ATOM     39  C   UNL A   1      46.721  27.258  27.129  1.00  0.00     0.014 A 
ATOM     40  C   UNL A   1      44.562  27.039  26.067  1.00  0.00     0.014 A 
ATOM     41  C   UNL A   1      46.119  27.902  28.215  1.00  0.00     0.010 A 
ATOM     42  C   UNL A   1      43.975  27.754  27.110  1.00  0.00     0.010 A 
ATOM     43  C   UNL A   1      44.747  28.194  28.195  1.00  0.00    -0.014 A 
BRANCH  43  44
ATOM     44  C   UNL A   1      44.095  28.958  29.292  1.00  0.00     0.031 A 
ATOM     45  C   UNL A   1      43.827  30.430  29.133  1.00  0.00     0.074 A 
ATOM     46  C   UNL A   1      43.818  28.342  30.460  1.00  0.00     0.049 A 
ATOM     47  N   UNL A   1      43.381  31.292  30.009  1.00  0.00    -0.248 NA
ATOM     48  C   UNL A   1      44.129  31.013  27.816  1.00  0.00     0.031 C 
ATOM     49  C   UNL A   1      44.059  26.927  30.745  1.00  0.00     0.029 A 
ATOM     50  N   UNL A   1      43.289  28.830  31.628  1.00  0.00    -0.354 N 
ATOM     51  C   UNL A   1      43.362  32.522  29.358  1.00  0.00     0.074 A 
ATOM     52  C   UNL A   1      43.900  32.298  28.032  1.00  0.00     0.031 C 
ATOM     53  C   UNL A   1      43.662  26.657  31.998  1.00  0.00     0.029 A 
ATOM     54  C   UNL A   1      43.192  27.888  32.627  1.00  0.00     0.049 A 
ATOM     55  H   UNL A   1      43.006  29.766  31.743  1.00  0.00     0.167 HD
ATOM     56  C   UNL A   1      42.920  33.720  29.817  1.00  0.00     0.034 A 
ATOM     57  C   UNL A   1      42.794  28.005  33.909  1.00  0.00     0.034 A 
ATOM     58  C   UNL A   1      42.386  33.921  31.142  1.00  0.00     0.049 A 
ATOM     59  C   UNL A   1      42.357  29.356  34.414  1.00  0.00     0.074 A 
ATOM     60  C   UNL A   1      41.864  35.078  31.695  1.00  0.00     0.029 A 
ATOM     61  N   UNL A   1      42.315  32.945  32.129  1.00  0.00    -0.354 N 
ATOM     62  N   UNL A   1      42.305  30.501  33.773  1.00  0.00    -0.248 NA
ATOM     63  C   UNL A   1      41.921  29.431  35.815  1.00  0.00     0.031 C 
ATOM     64  C   UNL A   1      41.546  34.821  33.033  1.00  0.00     0.029 A 
ATOM     65  C   UNL A   1      41.792  33.483  33.296  1.00  0.00     0.049 A 
ATOM     66  H   UNL A   1      42.596  32.008  32.017  1.00  0.00     0.167 HD
ATOM     67  C   UNL A   1      41.802  31.425  34.685  1.00  0.00     0.074 A 
ATOM     68  C   UNL A   1      41.555  30.701  35.915  1.00  0.00     0.031 C 
ATOM     69  C   UNL A   1      41.562  32.751  34.520  1.00  0.00     0.034 A 
BRANCH  56  70
ATOM     70  C   UNL A   1      43.027  34.904  28.883  1.00  0.00     0.023 A 
ATOM     71  C   UNL A   1      44.263  35.512  28.601  1.00  0.00     0.031 A 
ATOM     72  C   UNL A   1      41.876  35.452  28.290  1.00  0.00     0.131 A 
ATOM     73  C   UNL A   1      44.311  36.677  27.820  1.00  0.00     0.055 A 
ATOM     74  C   UNL A   1      41.940  36.561  27.443  1.00  0.00     0.041 A 
ATOM     75  F   UNL A   1      40.664  34.929  28.535  1.00  0.00    -0.206 F 
ATOM     76  C   UNL A   1      43.160  37.191  27.218  1.00  0.00     0.022 A 
BRANCH  73  77
ATOM     77  S   UNL A   1      45.872  37.596  27.732  1.00  0.00     0.124 S 
ATOM     78  O   UNL A   1      45.607  38.520  26.632  1.00  0.00    -0.237 OA
ATOM     79  O   UNL A   1      45.964  38.192  29.060  1.00  0.00    -0.237 OA
ATOM     80  O   UNL A   1      46.863  36.562  27.441  1.00  0.00    -0.744 OA
ENDBRANCH  73  77
ENDBRANCH  56  70
BRANCH  57  81
ATOM     81  C   UNL A   1      42.804  26.820  34.814  1.00  0.00     0.023 A 
ATOM     82  C   UNL A   1      43.995  26.375  35.409  1.00  0.00     0.031 A 
ATOM     83  C   UNL A   1      41.629  26.090  35.070  1.00  0.00     0.131 A 
ATOM     84  C   UNL A   1      43.994  25.211  36.193  1.00  0.00     0.055 A 
ATOM     85  C   UNL A   1      41.622  24.964  35.896  1.00  0.00     0.041 A 
ATOM     86  F   UNL A   1      40.461  26.469  34.527  1.00  0.00    -0.206 F 
ATOM     87  C   UNL A   1      42.814  24.511  36.452  1.00  0.00     0.022 A 
BRANCH  84  88
ATOM     88  S   UNL A   1      45.580  24.573  36.803  1.00  0.00     0.124 S 
ATOM     89  O   UNL A   1      46.521  25.175  35.866  1.00  0.00    -0.237 OA
ATOM     90  O   UNL A   1      45.610  25.093  38.167  1.00  0.00    -0.237 OA
ATOM     91  O   UNL A   1      45.428  23.125  36.694  1.00  0.00    -0.744 OA
ENDBRANCH  84  88
ENDBRANCH  57  81
BRANCH  69  92
ATOM     92  C   UNL A   1      40.959  33.490  35.689  1.00  0.00     0.023 A 
ATOM     93  C   UNL A   1      41.755  34.145  36.644  1.00  0.00     0.031 A 
ATOM     94  C   UNL A   1      39.561  33.538  35.847  1.00  0.00     0.131 A 
ATOM     95  C   UNL A   1      41.151  34.777  37.743  1.00  0.00     0.055 A 
ATOM     96  C   UNL A   1      38.965  34.220  36.908  1.00  0.00     0.041 A 
ATOM     97  F   UNL A   1      38.753  32.927  34.967  1.00  0.00    -0.206 F 
ATOM     98  C   UNL A   1      39.761  34.835  37.870  1.00  0.00     0.022 A 
BRANCH  95  99
ATOM     99  S   UNL A   1      42.211  35.457  39.049  1.00  0.00     0.124 S 
ATOM    100  O   UNL A   1      41.743  34.733  40.226  1.00  0.00    -0.237 OA
ATOM    101  O   UNL A   1      43.549  35.113  38.579  1.00  0.00    -0.237 OA
ATOM    102  O   UNL A   1      41.898  36.886  39.035  1.00  0.00    -0.744 OA
ENDBRANCH  95  99
ENDBRANCH  69  92
ENDBRANCH  43  44
ENDBRANCH  35  38
ENDBRANCH  33  34
ENDBRANCH  32  33
ENDBRANCH  31  32
ENDBRANCH  29  31
ENDBRANCH   1  27
TORSDOF 22
ENDMDL
MODEL 3
REMARK VINA RESULT:     -10.2      7.022     10.570
REMARK SMILES CCCCCCNC(=O)Oc1cccc(-c2ccc([C@@H](C)C(=O)NCCCNC(=O)c3ccc(-c4c5nc(c(-c6cc(S(=O)(=O)[O-])ccc6F)c6ccc([nH]6)c(-c6cc(S(=O)(=O)[O-])ccc6F)c6nc(c(-c7cc(S(=O)(=O)[O-])ccc7F)c7ccc4[nH]7)C=C6)C=C5)cc3)cc2C)c1
REMARK SMILES IDX 20 1 21 2 19 3 16 4 17 5 95 6 18 7 94 8 96 9 15 10 11 11
REMARK SMILES IDX 12 12 97 13 13 14 14 15 10 16 8 17 7 18 9 20 6 21 5 22 4 23
REMARK SMILES IDX 3 24 2 25 1 26 22 27 23 28 24 29 25 31 26 32 27 33 28 34
REMARK SMILES IDX 29 35 30 37 31 38 32 39 93 40 33 41 92 42 34 43 35 44 36 45
REMARK SMILES IDX 86 46 37 47 91 48 85 49 87 50 38 51 90 52 84 53 83 54 39 56
REMARK SMILES IDX 71 57 51 58 70 59 52 60 55 61 69 62 88 63 53 64 54 65 68 67
REMARK SMILES IDX 89 68 56 69 40 70 41 71 49 72 42 73 48 74 50 75 47 76 43 77
REMARK SMILES IDX 44 78 45 79 46 80 72 81 73 82 81 83 74 84 80 85 82 86 79 87
REMARK SMILES IDX 75 88 76 89 77 90 78 91 57 92 58 93 66 94 59 95 65 96 67 97
REMARK SMILES IDX 64 98 60 99 61 100 62 101 63 102
REMARK H PARENT 7 19 24 30 28 36 87 55 55 66
REMARK Flexibility Score: inf
ROOT
ATOM      1  C   UNL A   1      41.599  22.368  27.384  1.00  0.00     0.105 C 
ATOM      2  C   UNL A   1      41.759  22.707  28.865  1.00  0.00     0.023 C 
ENDROOT
BRANCH   1   3
ATOM      3  C   UNL A   1      40.225  22.653  26.801  1.00  0.00    -0.036 A 
ATOM      4  C   UNL A   1      37.553  23.054  25.852  1.00  0.00    -0.015 A 
ATOM      5  C   UNL A   1      38.293  24.082  26.463  1.00  0.00     0.009 A 
ATOM      6  C   UNL A   1      38.217  21.828  25.632  1.00  0.00    -0.043 A 
ATOM      7  C   UNL A   1      39.615  23.902  26.877  1.00  0.00     0.005 A 
ATOM      8  C   UNL A   1      39.514  21.630  26.158  1.00  0.00     0.008 A 
ATOM      9  C   UNL A   1      37.637  20.689  24.832  1.00  0.00     0.045 C 
BRANCH   4  10
ATOM     10  C   UNL A   1      36.139  23.318  25.489  1.00  0.00    -0.014 A 
ATOM     11  C   UNL A   1      33.762  23.223  25.988  1.00  0.00     0.133 A 
ATOM     12  C   UNL A   1      33.448  23.831  24.776  1.00  0.00     0.047 A 
ATOM     13  C   UNL A   1      35.086  22.989  26.358  1.00  0.00     0.056 A 
ATOM     14  C   UNL A   1      34.477  24.207  23.921  1.00  0.00     0.004 A 
ATOM     15  C   UNL A   1      35.806  23.937  24.268  1.00  0.00     0.009 A 
BRANCH  11  16
ATOM     16  O   UNL A   1      32.680  22.711  26.728  1.00  0.00    -0.410 OA
BRANCH  16  17
ATOM     17  C   UNL A   1      31.595  22.129  26.090  1.00  0.00     0.412 C 
ATOM     18  N   UNL A   1      31.864  20.867  25.637  1.00  0.00    -0.321 N 
ATOM     19  H   UNL A   1      31.162  20.430  25.103  1.00  0.00     0.167 HD
ATOM     20  O   UNL A   1      30.491  22.634  25.936  1.00  0.00    -0.224 OA
BRANCH  18  21
ATOM     21  C   UNL A   1      33.077  20.106  25.860  1.00  0.00     0.119 C 
BRANCH  21  22
ATOM     22  C   UNL A   1      33.686  19.616  24.544  1.00  0.00     0.021 C 
BRANCH  22  23
ATOM     23  C   UNL A   1      32.847  18.571  23.798  1.00  0.00     0.002 C 
BRANCH  23  24
ATOM     24  C   UNL A   1      33.531  17.218  23.575  1.00  0.00    -0.000 C 
BRANCH  24  25
ATOM     25  C   UNL A   1      34.004  16.507  24.845  1.00  0.00    -0.003 C 
ATOM     26  C   UNL A   1      32.996  15.501  25.380  1.00  0.00     0.004 C 
ENDBRANCH  24  25
ENDBRANCH  23  24
ENDBRANCH  22  23
ENDBRANCH  21  22
ENDBRANCH  18  21
ENDBRANCH  16  17
ENDBRANCH  11  16
ENDBRANCH   4  10
ENDBRANCH   1   3
BRANCH   1  27
ATOM     27  C   UNL A   1      42.194  21.012  26.971  1.00  0.00     0.227 C 
ATOM     28  O   UNL A   1      41.579  19.969  27.234  1.00  0.00    -0.274 OA
ATOM     29  N   UNL A   1      43.361  20.860  26.290  1.00  0.00    -0.356 N 
ATOM     30  H   UNL A   1      43.565  19.926  26.054  1.00  0.00     0.163 HD
BRANCH  29  31
ATOM     31  C   UNL A   1      44.364  21.810  25.849  1.00  0.00     0.117 C 
BRANCH  31  32
ATOM     32  C   UNL A   1      43.773  22.912  24.973  1.00  0.00     0.042 C 
BRANCH  32  33
ATOM     33  C   UNL A   1      43.965  24.316  25.534  1.00  0.00     0.118 C 
BRANCH  33  34
ATOM     34  N   UNL A   1      42.895  25.218  25.129  1.00  0.00    -0.352 N 
ATOM     35  C   UNL A   1      42.168  26.126  25.862  1.00  0.00     0.251 C 
ATOM     36  H   UNL A   1      42.652  25.169  24.177  1.00  0.00     0.163 HD
ATOM     37  O   UNL A   1      41.149  26.604  25.369  1.00  0.00    -0.269 OA
BRANCH  35  38
ATOM     38  C   UNL A   1      42.586  26.516  27.230  1.00  0.00     0.039 A 
ATOM     39  C   UNL A   1      41.676  26.374  28.282  1.00  0.00     0.014 A 
ATOM     40  C   UNL A   1      43.850  27.055  27.477  1.00  0.00     0.014 A 
ATOM     41  C   UNL A   1      42.059  26.702  29.587  1.00  0.00     0.010 A 
ATOM     42  C   UNL A   1      44.259  27.303  28.786  1.00  0.00     0.010 A 
ATOM     43  C   UNL A   1      43.368  27.129  29.856  1.00  0.00    -0.014 A 
BRANCH  43  44
ATOM     44  C   UNL A   1      43.832  27.397  31.243  1.00  0.00     0.031 A 
ATOM     45  C   UNL A   1      44.397  26.281  32.081  1.00  0.00     0.074 A 
ATOM     46  C   UNL A   1      43.671  28.626  31.774  1.00  0.00     0.049 A 
ATOM     47  N   UNL A   1      44.743  26.284  33.342  1.00  0.00    -0.248 NA
ATOM     48  C   UNL A   1      44.569  24.982  31.412  1.00  0.00     0.031 C 
ATOM     49  C   UNL A   1      43.108  29.781  31.072  1.00  0.00     0.029 A 
ATOM     50  N   UNL A   1      43.949  29.106  33.029  1.00  0.00    -0.354 N 
ATOM     51  C   UNL A   1      45.160  24.987  33.625  1.00  0.00     0.074 A 
ATOM     52  C   UNL A   1      44.963  24.214  32.416  1.00  0.00     0.031 C 
ATOM     53  C   UNL A   1      43.100  30.838  31.899  1.00  0.00     0.029 A 
ATOM     54  C   UNL A   1      43.602  30.427  33.206  1.00  0.00     0.049 A 
ATOM     55  H   UNL A   1      44.358  28.558  33.738  1.00  0.00     0.167 HD
ATOM     56  C   UNL A   1      45.675  24.492  34.778  1.00  0.00     0.034 A 
ATOM     57  C   UNL A   1      43.659  31.211  34.301  1.00  0.00     0.034 A 
ATOM     58  C   UNL A   1      45.864  25.280  35.972  1.00  0.00     0.049 A 
ATOM     59  C   UNL A   1      44.185  30.626  35.587  1.00  0.00     0.074 A 
ATOM     60  C   UNL A   1      46.422  24.896  37.180  1.00  0.00     0.029 A 
ATOM     61  N   UNL A   1      45.490  26.611  36.117  1.00  0.00    -0.354 N 
ATOM     62  N   UNL A   1      44.615  29.408  35.827  1.00  0.00    -0.248 NA
ATOM     63  C   UNL A   1      44.238  31.522  36.749  1.00  0.00     0.031 C 
ATOM     64  C   UNL A   1      46.320  25.968  38.073  1.00  0.00     0.029 A 
ATOM     65  C   UNL A   1      45.772  27.050  37.402  1.00  0.00     0.049 A 
ATOM     66  H   UNL A   1      45.083  27.162  35.409  1.00  0.00     0.167 HD
ATOM     67  C   UNL A   1      45.016  29.403  37.160  1.00  0.00     0.074 A 
ATOM     68  C   UNL A   1      44.790  30.741  37.666  1.00  0.00     0.031 C 
ATOM     69  C   UNL A   1      45.530  28.385  37.897  1.00  0.00     0.034 A 
BRANCH  56  70
ATOM     70  C   UNL A   1      46.039  23.025  34.804  1.00  0.00     0.023 A 
ATOM     71  C   UNL A   1      47.365  22.591  34.627  1.00  0.00     0.031 A 
ATOM     72  C   UNL A   1      45.045  22.045  34.976  1.00  0.00     0.131 A 
ATOM     73  C   UNL A   1      47.649  21.220  34.544  1.00  0.00     0.055 A 
ATOM     74  C   UNL A   1      45.347  20.682  34.979  1.00  0.00     0.041 A 
ATOM     75  F   UNL A   1      43.758  22.395  35.131  1.00  0.00    -0.206 F 
ATOM     76  C   UNL A   1      46.653  20.261  34.745  1.00  0.00     0.022 A 
BRANCH  73  77
ATOM     77  S   UNL A   1      49.308  20.711  34.017  1.00  0.00     0.124 S 
ATOM     78  O   UNL A   1      49.938  22.000  33.740  1.00  0.00    -0.237 OA
ATOM     79  O   UNL A   1      49.805  19.994  35.186  1.00  0.00    -0.237 OA
ATOM     80  O   UNL A   1      49.055  19.884  32.838  1.00  0.00    -0.744 OA
ENDBRANCH  73  77
ENDBRANCH  56  70
BRANCH  57  81
ATOM     81  C   UNL A   1      43.192  32.625  34.242  1.00  0.00     0.023 A 
ATOM     82  C   UNL A   1      41.873  32.965  34.582  1.00  0.00     0.031 A 
ATOM     83  C   UNL A   1      44.046  33.656  33.808  1.00  0.00     0.131 A 
ATOM     84  C   UNL A   1      41.433  34.291  34.442  1.00  0.00     0.055 A 
ATOM     85  C   UNL A   1      43.620  34.982  33.725  1.00  0.00     0.041 A 
ATOM     86  F   UNL A   1      45.317  33.388  33.470  1.00  0.00    -0.206 F 
ATOM     87  C   UNL A   1      42.301  35.304  34.030  1.00  0.00     0.022 A 
BRANCH  84  88
ATOM     88  S   UNL A   1      39.680  34.659  34.728  1.00  0.00     0.124 S 
ATOM     89  O   UNL A   1      39.730  36.066  35.105  1.00  0.00    -0.237 OA
ATOM     90  O   UNL A   1      39.092  34.363  33.425  1.00  0.00    -0.237 OA
ATOM     91  O   UNL A   1      39.310  33.738  35.799  1.00  0.00    -0.744 OA
ENDBRANCH  84  88
ENDBRANCH  57  81
BRANCH  69  92
ATOM     92  C   UNL A   1      45.924  28.699  39.319  1.00  0.00     0.023 A 
ATOM     93  C   UNL A   1      44.996  28.655  40.374  1.00  0.00     0.031 A 
ATOM     94  C   UNL A   1      47.253  29.049  39.621  1.00  0.00     0.131 A 
ATOM     95  C   UNL A   1      45.398  29.004  41.673  1.00  0.00     0.055 A 
ATOM     96  C   UNL A   1      47.660  29.336  40.925  1.00  0.00     0.041 A 
ATOM     97  F   UNL A   1      48.180  29.111  38.653  1.00  0.00    -0.206 F 
ATOM     98  C   UNL A   1      46.728  29.326  41.958  1.00  0.00     0.022 A 
BRANCH  95  99
ATOM     99  S   UNL A   1      44.140  29.110  42.977  1.00  0.00     0.124 S 
ATOM    100  O   UNL A   1      43.911  27.703  43.291  1.00  0.00    -0.237 OA
ATOM    101  O   UNL A   1      44.818  29.891  44.006  1.00  0.00    -0.237 OA
ATOM    102  O   UNL A   1      43.023  29.787  42.320  1.00  0.00    -0.744 OA
ENDBRANCH  95  99
ENDBRANCH  69  92
ENDBRANCH  43  44
ENDBRANCH  35  38
ENDBRANCH  33  34
ENDBRANCH  32  33
ENDBRANCH  31  32
ENDBRANCH  29  31
ENDBRANCH   1  27
TORSDOF 22
ENDMDL
