MODEL 1
REMARK VINA RESULT:     -11.1      0.000      0.000
REMARK SMILES COc1ccc2c(c1)c(Cc1nc(-c3ccc(C(=O)NCCCNC(=O)c4ccc(-c5c6nc(c(-c7cc(S(=O)(=O)[O-])ccc7F)c7ccc([nH]7)c(-c7cc(S(=O)(=O)[O-])ccc7F)c7nc(c(-c8cc(S(=O)(=O)[O-])ccc8F)c8ccc5[nH]8)C=C7)C=C6)cc4)cc3)cs1)c(C)n2C(=O)c1ccc(Cl)cc1
REMARK SMILES IDX 21 1 20 2 18 3 19 4 17 6 14 7 15 8 91 9 16 10 90 11 13 12
REMARK SMILES IDX 11 13 12 14 93 15 92 16 10 17 9 18 3 19 4 20 8 21 5 22 7 23
REMARK SMILES IDX 6 24 96 25 94 26 95 27 2 28 1 29 97 30 98 31 99 32 100 33
REMARK SMILES IDX 105 34 101 35 104 36 102 37 103 38 22 39 23 40 24 41 25 42
REMARK SMILES IDX 26 44 27 45 28 46 89 47 29 48 88 49 30 50 31 51 32 52 82 53
REMARK SMILES IDX 33 54 87 55 81 56 83 57 34 58 86 59 80 60 79 61 35 63 67 64
REMARK SMILES IDX 47 65 66 66 48 67 51 68 65 69 84 70 49 71 50 72 64 74 85 75
REMARK SMILES IDX 52 76 36 77 37 78 45 79 38 80 44 81 46 82 43 83 39 84 40 85
REMARK SMILES IDX 41 86 42 87 68 88 69 89 77 90 70 91 76 92 78 93 75 94 71 95
REMARK SMILES IDX 72 96 73 97 74 98 53 99 54 100 62 101 55 102 61 103 63 104
REMARK SMILES IDX 60 105 56 106 57 107 58 108 59 109
REMARK H PARENT 20 5 24 43 83 62 51 73
REMARK Flexibility Score: inf
ROOT
ATOM      1  C   UNL A   1      43.376  24.331  25.256  1.00  0.00     0.118 C 
ENDROOT
BRANCH   1   2
ATOM      2  N   UNL A   1      44.583  25.011  24.812  1.00  0.00    -0.352 N 
ATOM      3  C   UNL A   1      45.643  25.572  25.483  1.00  0.00     0.251 C 
ATOM      4  O   UNL A   1      46.552  26.061  24.810  1.00  0.00    -0.269 OA
ATOM      5  H   UNL A   1      44.655  25.082  23.833  1.00  0.00     0.163 HD
BRANCH   3   6
ATOM      6  C   UNL A   1      45.710  25.690  26.966  1.00  0.00     0.039 A 
ATOM      7  C   UNL A   1      45.564  26.064  29.762  1.00  0.00     0.001 A 
ATOM      8  C   UNL A   1      45.489  27.163  28.900  1.00  0.00     0.011 A 
ATOM      9  C   UNL A   1      45.833  24.802  29.215  1.00  0.00     0.011 A 
ATOM     10  C   UNL A   1      45.554  26.974  27.515  1.00  0.00     0.014 A 
ATOM     11  C   UNL A   1      45.944  24.624  27.832  1.00  0.00     0.014 A 
BRANCH   7  12
ATOM     12  C   UNL A   1      45.415  26.196  31.204  1.00  0.00     0.081 A 
ATOM     13  C   UNL A   1      44.453  25.736  33.146  1.00  0.00     0.098 A 
ATOM     14  N   UNL A   1      44.364  25.579  31.844  1.00  0.00    -0.241 NA
ATOM     15  S   UNL A   1      45.725  26.765  33.666  1.00  0.00    -0.126 S 
ATOM     16  C   UNL A   1      46.234  26.935  32.032  1.00  0.00     0.095 A 
BRANCH  13  17
ATOM     17  C   UNL A   1      43.550  25.040  34.121  1.00  0.00     0.105 C 
BRANCH  17  18
ATOM     18  C   UNL A   1      44.338  24.136  35.042  1.00  0.00    -0.012 A 
ATOM     19  C   UNL A   1      44.625  25.439  38.626  1.00  0.00     0.119 A 
ATOM     20  C   UNL A   1      45.431  24.418  39.095  1.00  0.00     0.048 A 
ATOM     21  C   UNL A   1      44.217  25.433  37.295  1.00  0.00     0.057 A 
ATOM     22  C   UNL A   1      45.840  23.384  38.244  1.00  0.00     0.031 A 
ATOM     23  C   UNL A   1      44.590  24.383  36.421  1.00  0.00     0.008 A 
ATOM     24  C   UNL A   1      45.373  23.335  36.910  1.00  0.00     0.057 A 
ATOM     25  N   UNL A   1      45.521  22.384  35.879  1.00  0.00    -0.280 N 
ATOM     26  C   UNL A   1      44.937  22.923  34.720  1.00  0.00     0.028 A 
ATOM     27  C   UNL A   1      44.920  22.289  33.364  1.00  0.00     0.065 C 
BRANCH  19  28
ATOM     28  O   UNL A   1      44.141  26.461  39.396  1.00  0.00    -0.497 OA
ATOM     29  C   UNL A   1      44.542  26.416  40.761  1.00  0.00     0.278 C 
ENDBRANCH  19  28
BRANCH  25  30
ATOM     30  C   UNL A   1      46.150  21.110  36.002  1.00  0.00     0.262 C 
ATOM     31  O   UNL A   1      45.514  20.153  36.440  1.00  0.00    -0.268 OA
BRANCH  30  32
ATOM     32  C   UNL A   1      47.539  20.804  35.617  1.00  0.00     0.040 A 
ATOM     33  C   UNL A   1      47.878  20.552  34.282  1.00  0.00     0.015 A 
ATOM     34  C   UNL A   1      48.505  20.744  36.627  1.00  0.00     0.015 A 
ATOM     35  C   UNL A   1      49.180  20.153  33.973  1.00  0.00     0.021 A 
ATOM     36  C   UNL A   1      49.806  20.353  36.310  1.00  0.00     0.021 A 
ATOM     37  C   UNL A   1      50.134  20.043  34.989  1.00  0.00     0.041 A 
ATOM     38  Cl  UNL A   1      51.722  19.498  34.613  1.00  0.00    -0.084 Cl
ENDBRANCH  30  32
ENDBRANCH  25  30
ENDBRANCH  17  18
ENDBRANCH  13  17
ENDBRANCH   7  12
ENDBRANCH   3   6
ENDBRANCH   1   2
BRANCH   1  39
ATOM     39  C   UNL A   1      43.324  22.842  24.929  1.00  0.00     0.042 C 
BRANCH  39  40
ATOM     40  C   UNL A   1      43.369  21.881  26.113  1.00  0.00     0.118 C 
BRANCH  40  41
ATOM     41  N   UNL A   1      42.094  21.596  26.743  1.00  0.00    -0.352 N 
ATOM     42  C   UNL A   1      41.098  22.341  27.313  1.00  0.00     0.251 C 
ATOM     43  H   UNL A   1      41.897  20.632  26.765  1.00  0.00     0.163 HD
ATOM     44  O   UNL A   1      40.054  21.726  27.553  1.00  0.00    -0.269 OA
BRANCH  42  45
ATOM     45  C   UNL A   1      41.199  23.771  27.720  1.00  0.00     0.039 A 
ATOM     46  C   UNL A   1      42.215  24.327  28.494  1.00  0.00     0.014 A 
ATOM     47  C   UNL A   1      40.126  24.601  27.335  1.00  0.00     0.014 A 
ATOM     48  C   UNL A   1      42.104  25.632  28.975  1.00  0.00     0.010 A 
ATOM     49  C   UNL A   1      40.028  25.916  27.783  1.00  0.00     0.010 A 
ATOM     50  C   UNL A   1      40.992  26.416  28.651  1.00  0.00    -0.014 A 
BRANCH  50  51
ATOM     51  C   UNL A   1      40.928  27.775  29.193  1.00  0.00     0.031 A 
ATOM     52  C   UNL A   1      41.916  28.746  28.640  1.00  0.00     0.074 A 
ATOM     53  C   UNL A   1      39.976  28.199  30.048  1.00  0.00     0.049 A 
ATOM     54  N   UNL A   1      42.854  29.387  29.258  1.00  0.00    -0.248 NA
ATOM     55  C   UNL A   1      41.905  28.955  27.187  1.00  0.00     0.031 C 
ATOM     56  C   UNL A   1      38.741  27.509  30.431  1.00  0.00     0.029 A 
ATOM     57  N   UNL A   1      39.866  29.407  30.677  1.00  0.00    -0.354 N 
ATOM     58  C   UNL A   1      43.456  30.213  28.305  1.00  0.00     0.074 A 
ATOM     59  C   UNL A   1      42.917  29.808  27.031  1.00  0.00     0.031 C 
ATOM     60  C   UNL A   1      37.909  28.390  31.031  1.00  0.00     0.029 A 
ATOM     61  C   UNL A   1      38.610  29.651  31.210  1.00  0.00     0.049 A 
ATOM     62  H   UNL A   1      40.611  30.046  30.745  1.00  0.00     0.167 HD
ATOM     63  C   UNL A   1      44.238  31.280  28.647  1.00  0.00     0.034 A 
ATOM     64  C   UNL A   1      38.141  30.828  31.690  1.00  0.00     0.034 A 
ATOM     65  C   UNL A   1      44.624  31.227  30.028  1.00  0.00     0.049 A 
ATOM     66  C   UNL A   1      39.289  31.709  31.998  1.00  0.00     0.074 A 
ATOM     67  C   UNL A   1      45.412  30.397  30.796  1.00  0.00     0.029 A 
ATOM     68  N   UNL A   1      43.911  32.000  30.910  1.00  0.00    -0.354 N 
ATOM     69  N   UNL A   1      40.128  31.519  32.976  1.00  0.00    -0.248 NA
ATOM     70  C   UNL A   1      39.732  32.638  30.969  1.00  0.00     0.031 C 
ATOM     71  C   UNL A   1      44.816  30.408  32.089  1.00  0.00     0.029 A 
ATOM     72  C   UNL A   1      43.715  31.267  32.050  1.00  0.00     0.049 A 
ATOM     73  H   UNL A   1      43.596  32.918  30.752  1.00  0.00     0.167 HD
ATOM     74  C   UNL A   1      41.352  31.925  32.466  1.00  0.00     0.074 A 
ATOM     75  C   UNL A   1      41.022  32.734  31.298  1.00  0.00     0.031 C 
ATOM     76  C   UNL A   1      42.518  31.336  32.868  1.00  0.00     0.034 A 
BRANCH  63  77
ATOM     77  C   UNL A   1      44.418  32.532  27.814  1.00  0.00     0.023 A 
ATOM     78  C   UNL A   1      43.783  33.751  28.113  1.00  0.00     0.031 A 
ATOM     79  C   UNL A   1      45.421  32.597  26.820  1.00  0.00     0.131 A 
ATOM     80  C   UNL A   1      44.127  34.943  27.460  1.00  0.00     0.055 A 
ATOM     81  C   UNL A   1      45.811  33.800  26.213  1.00  0.00     0.041 A 
ATOM     82  F   UNL A   1      46.100  31.501  26.445  1.00  0.00    -0.206 F 
ATOM     83  C   UNL A   1      45.163  34.984  26.534  1.00  0.00     0.022 A 
BRANCH  80  84
ATOM     84  S   UNL A   1      43.230  36.478  27.823  1.00  0.00     0.124 S 
ATOM     85  O   UNL A   1      42.443  36.660  26.610  1.00  0.00    -0.237 OA
ATOM     86  O   UNL A   1      42.479  36.108  29.019  1.00  0.00    -0.237 OA
ATOM     87  O   UNL A   1      44.298  37.450  28.044  1.00  0.00    -0.744 OA
ENDBRANCH  80  84
ENDBRANCH  63  77
BRANCH  64  88
ATOM     88  C   UNL A   1      36.779  31.363  31.473  1.00  0.00     0.023 A 
ATOM     89  C   UNL A   1      36.313  31.549  30.157  1.00  0.00     0.031 A 
ATOM     90  C   UNL A   1      36.047  31.963  32.509  1.00  0.00     0.131 A 
ATOM     91  C   UNL A   1      35.185  32.336  29.903  1.00  0.00     0.055 A 
ATOM     92  C   UNL A   1      34.910  32.741  32.255  1.00  0.00     0.041 A 
ATOM     93  F   UNL A   1      36.458  31.858  33.783  1.00  0.00    -0.206 F 
ATOM     94  C   UNL A   1      34.482  32.940  30.945  1.00  0.00     0.022 A 
BRANCH  91  95
ATOM     95  S   UNL A   1      34.659  32.655  28.198  1.00  0.00     0.124 S 
ATOM     96  O   UNL A   1      34.188  31.340  27.771  1.00  0.00    -0.237 OA
ATOM     97  O   UNL A   1      33.621  33.663  28.390  1.00  0.00    -0.237 OA
ATOM     98  O   UNL A   1      35.880  33.116  27.542  1.00  0.00    -0.744 OA
ENDBRANCH  91  95
ENDBRANCH  64  88
BRANCH  76  99
ATOM     99  C   UNL A   1      42.512  30.459  34.102  1.00  0.00     0.023 A 
ATOM    100  C   UNL A   1      42.971  31.033  35.304  1.00  0.00     0.031 A 
ATOM    101  C   UNL A   1      42.301  29.067  34.088  1.00  0.00     0.131 A 
ATOM    102  C   UNL A   1      43.247  30.228  36.414  1.00  0.00     0.055 A 
ATOM    103  C   UNL A   1      42.504  28.278  35.226  1.00  0.00     0.041 A 
ATOM    104  F   UNL A   1      41.984  28.415  32.963  1.00  0.00    -0.206 F 
ATOM    105  C   UNL A   1      42.997  28.854  36.390  1.00  0.00     0.022 A 
BRANCH 102 106
ATOM    106  S   UNL A   1      44.103  30.918  37.855  1.00  0.00     0.124 S 
ATOM    107  O   UNL A   1      45.037  31.855  37.239  1.00  0.00    -0.237 OA
ATOM    108  O   UNL A   1      43.005  31.530  38.603  1.00  0.00    -0.237 OA
ATOM    109  O   UNL A   1      44.711  29.757  38.496  1.00  0.00    -0.744 OA
ENDBRANCH 102 106
ENDBRANCH  76  99
ENDBRANCH  50  51
ENDBRANCH  42  45
ENDBRANCH  40  41
ENDBRANCH  39  40
ENDBRANCH   1  39
TORSDOF 19
ENDMDL
MODEL 2
REMARK VINA RESULT:     -10.7      4.234     12.590
REMARK SMILES COc1ccc2c(c1)c(Cc1nc(-c3ccc(C(=O)NCCCNC(=O)c4ccc(-c5c6nc(c(-c7cc(S(=O)(=O)[O-])ccc7F)c7ccc([nH]7)c(-c7cc(S(=O)(=O)[O-])ccc7F)c7nc(c(-c8cc(S(=O)(=O)[O-])ccc8F)c8ccc5[nH]8)C=C7)C=C6)cc4)cc3)cs1)c(C)n2C(=O)c1ccc(Cl)cc1
REMARK SMILES IDX 21 1 20 2 18 3 19 4 17 6 14 7 15 8 91 9 16 10 90 11 13 12
REMARK SMILES IDX 11 13 12 14 93 15 92 16 10 17 9 18 3 19 4 20 8 21 5 22 7 23
REMARK SMILES IDX 6 24 96 25 94 26 95 27 2 28 1 29 97 30 98 31 99 32 100 33
REMARK SMILES IDX 105 34 101 35 104 36 102 37 103 38 22 39 23 40 24 41 25 42
REMARK SMILES IDX 26 44 27 45 28 46 89 47 29 48 88 49 30 50 31 51 32 52 82 53
REMARK SMILES IDX 33 54 87 55 81 56 83 57 34 58 86 59 80 60 79 61 35 63 67 64
REMARK SMILES IDX 47 65 66 66 48 67 51 68 65 69 84 70 49 71 50 72 64 74 85 75
REMARK SMILES IDX 52 76 36 77 37 78 45 79 38 80 44 81 46 82 43 83 39 84 40 85
REMARK SMILES IDX 41 86 42 87 68 88 69 89 77 90 70 91 76 92 78 93 75 94 71 95
REMARK SMILES IDX 72 96 73 97 74 98 53 99 54 100 62 101 55 102 61 103 63 104
REMARK SMILES IDX 60 105 56 106 57 107 58 108 59 109
REMARK H PARENT 20 5 24 43 83 62 51 73
REMARK Flexibility Score: inf
ROOT
ATOM      1  C   UNL A   1      35.742  31.929  32.336  1.00  0.00     0.118 C 
ENDROOT
BRANCH   1   2
ATOM      2  N   UNL A   1      36.270  32.385  33.612  1.00  0.00    -0.352 N 
ATOM      3  C   UNL A   1      37.479  32.919  33.991  1.00  0.00     0.251 C 
ATOM      4  O   UNL A   1      37.617  33.242  35.172  1.00  0.00    -0.269 OA
ATOM      5  H   UNL A   1      35.630  32.294  34.355  1.00  0.00     0.163 HD
BRANCH   3   6
ATOM      6  C   UNL A   1      38.644  33.051  33.074  1.00  0.00     0.039 A 
ATOM      7  C   UNL A   1      40.893  33.589  31.453  1.00  0.00     0.001 A 
ATOM      8  C   UNL A   1      39.787  34.442  31.425  1.00  0.00     0.011 A 
ATOM      9  C   UNL A   1      40.810  32.408  32.203  1.00  0.00     0.011 A 
ATOM     10  C   UNL A   1      38.676  34.177  32.235  1.00  0.00     0.014 A 
ATOM     11  C   UNL A   1      39.679  32.123  32.976  1.00  0.00     0.014 A 
BRANCH   7  12
ATOM     12  C   UNL A   1      42.106  33.864  30.697  1.00  0.00     0.081 A 
ATOM     13  C   UNL A   1      43.217  34.359  28.844  1.00  0.00     0.098 A 
ATOM     14  N   UNL A   1      42.042  34.028  29.331  1.00  0.00    -0.241 NA
ATOM     15  S   UNL A   1      44.503  34.346  29.982  1.00  0.00    -0.126 S 
ATOM     16  C   UNL A   1      43.379  33.951  31.223  1.00  0.00     0.095 A 
BRANCH  13  17
ATOM     17  C   UNL A   1      43.429  34.767  27.416  1.00  0.00     0.105 C 
BRANCH  17  18
ATOM     18  C   UNL A   1      43.818  36.225  27.319  1.00  0.00    -0.012 A 
ATOM     19  C   UNL A   1      47.512  36.796  26.509  1.00  0.00     0.119 A 
ATOM     20  C   UNL A   1      47.471  38.176  26.577  1.00  0.00     0.048 A 
ATOM     21  C   UNL A   1      46.352  36.063  26.746  1.00  0.00     0.057 A 
ATOM     22  C   UNL A   1      46.277  38.839  26.882  1.00  0.00     0.031 A 
ATOM     23  C   UNL A   1      45.124  36.710  27.026  1.00  0.00     0.008 A 
ATOM     24  C   UNL A   1      45.080  38.106  27.055  1.00  0.00     0.057 A 
ATOM     25  N   UNL A   1      43.740  38.496  27.257  1.00  0.00    -0.280 N 
ATOM     26  C   UNL A   1      42.990  37.329  27.484  1.00  0.00     0.028 A 
ATOM     27  C   UNL A   1      41.531  37.268  27.810  1.00  0.00     0.065 C 
BRANCH  19  28
ATOM     28  O   UNL A   1      48.620  36.067  26.173  1.00  0.00    -0.497 OA
ATOM     29  C   UNL A   1      48.362  34.954  25.323  1.00  0.00     0.278 C 
ENDBRANCH  19  28
BRANCH  25  30
ATOM     30  C   UNL A   1      43.246  39.834  27.231  1.00  0.00     0.262 C 
ATOM     31  O   UNL A   1      42.964  40.362  26.157  1.00  0.00    -0.268 OA
BRANCH  30  32
ATOM     32  C   UNL A   1      43.005  40.676  28.416  1.00  0.00     0.040 A 
ATOM     33  C   UNL A   1      43.993  41.548  28.893  1.00  0.00     0.015 A 
ATOM     34  C   UNL A   1      41.773  40.561  29.068  1.00  0.00     0.015 A 
ATOM     35  C   UNL A   1      43.769  42.243  30.084  1.00  0.00     0.021 A 
ATOM     36  C   UNL A   1      41.554  41.264  30.253  1.00  0.00     0.021 A 
ATOM     37  C   UNL A   1      42.558  42.088  30.764  1.00  0.00     0.041 A 
ATOM     38  Cl  UNL A   1      42.309  42.903  32.259  1.00  0.00    -0.084 Cl
ENDBRANCH  30  32
ENDBRANCH  25  30
ENDBRANCH  17  18
ENDBRANCH  13  17
ENDBRANCH   7  12
ENDBRANCH   3   6
ENDBRANCH   1   2
BRANCH   1  39
ATOM     39  C   UNL A   1      34.576  32.750  31.797  1.00  0.00     0.042 C 
BRANCH  39  40
ATOM     40  C   UNL A   1      34.906  33.779  30.720  1.00  0.00     0.118 C 
BRANCH  40  41
ATOM     41  N   UNL A   1      34.768  33.326  29.349  1.00  0.00    -0.352 N 
ATOM     42  C   UNL A   1      35.330  32.338  28.586  1.00  0.00     0.251 C 
ATOM     43  H   UNL A   1      34.112  33.858  28.845  1.00  0.00     0.163 HD
ATOM     44  O   UNL A   1      34.780  32.140  27.498  1.00  0.00    -0.269 OA
BRANCH  42  45
ATOM     45  C   UNL A   1      36.554  31.560  28.925  1.00  0.00     0.039 A 
ATOM     46  C   UNL A   1      37.795  32.100  29.259  1.00  0.00     0.014 A 
ATOM     47  C   UNL A   1      36.445  30.159  28.825  1.00  0.00     0.014 A 
ATOM     48  C   UNL A   1      38.918  31.280  29.366  1.00  0.00     0.010 A 
ATOM     49  C   UNL A   1      37.556  29.331  28.965  1.00  0.00     0.010 A 
ATOM     50  C   UNL A   1      38.807  29.898  29.182  1.00  0.00    -0.014 A 
BRANCH  50  51
ATOM     51  C   UNL A   1      40.023  29.089  29.298  1.00  0.00     0.031 A 
ATOM     52  C   UNL A   1      40.491  28.810  30.686  1.00  0.00     0.074 A 
ATOM     53  C   UNL A   1      40.645  28.512  28.251  1.00  0.00     0.049 A 
ATOM     54  N   UNL A   1      41.606  29.148  31.249  1.00  0.00    -0.248 NA
ATOM     55  C   UNL A   1      39.546  28.139  31.587  1.00  0.00     0.031 C 
ATOM     56  C   UNL A   1      40.153  28.382  26.875  1.00  0.00     0.029 A 
ATOM     57  N   UNL A   1      41.818  27.814  28.230  1.00  0.00    -0.354 N 
ATOM     58  C   UNL A   1      41.581  28.593  32.531  1.00  0.00     0.074 A 
ATOM     59  C   UNL A   1      40.241  28.099  32.724  1.00  0.00     0.031 C 
ATOM     60  C   UNL A   1      40.901  27.463  26.224  1.00  0.00     0.029 A 
ATOM     61  C   UNL A   1      42.006  27.063  27.080  1.00  0.00     0.049 A 
ATOM     62  H   UNL A   1      42.471  27.840  28.965  1.00  0.00     0.167 HD
ATOM     63  C   UNL A   1      42.709  28.438  33.286  1.00  0.00     0.034 A 
ATOM     64  C   UNL A   1      42.950  26.114  26.869  1.00  0.00     0.034 A 
ATOM     65  C   UNL A   1      43.803  29.202  32.758  1.00  0.00     0.049 A 
ATOM     66  C   UNL A   1      44.042  26.301  27.849  1.00  0.00     0.074 A 
ATOM     67  C   UNL A   1      44.082  30.543  32.610  1.00  0.00     0.029 A 
ATOM     68  N   UNL A   1      44.726  28.532  31.993  1.00  0.00    -0.354 N 
ATOM     69  N   UNL A   1      44.884  27.295  27.840  1.00  0.00    -0.248 NA
ATOM     70  C   UNL A   1      43.980  25.549  29.093  1.00  0.00     0.031 C 
ATOM     71  C   UNL A   1      44.873  30.630  31.429  1.00  0.00     0.029 A 
ATOM     72  C   UNL A   1      45.061  29.336  30.937  1.00  0.00     0.049 A 
ATOM     73  H   UNL A   1      45.084  27.634  32.173  1.00  0.00     0.167 HD
ATOM     74  C   UNL A   1      45.103  27.575  29.180  1.00  0.00     0.074 A 
ATOM     75  C   UNL A   1      44.646  26.386  29.891  1.00  0.00     0.031 C 
ATOM     76  C   UNL A   1      45.367  28.847  29.605  1.00  0.00     0.034 A 
BRANCH  63  77
ATOM     77  C   UNL A   1      42.915  27.365  34.336  1.00  0.00     0.023 A 
ATOM     78  C   UNL A   1      43.650  26.190  34.099  1.00  0.00     0.031 A 
ATOM     79  C   UNL A   1      42.568  27.604  35.686  1.00  0.00     0.131 A 
ATOM     80  C   UNL A   1      44.006  25.319  35.138  1.00  0.00     0.055 A 
ATOM     81  C   UNL A   1      42.979  26.768  36.734  1.00  0.00     0.041 A 
ATOM     82  F   UNL A   1      41.866  28.692  36.041  1.00  0.00    -0.206 F 
ATOM     83  C   UNL A   1      43.705  25.617  36.462  1.00  0.00     0.022 A 
BRANCH  80  84
ATOM     84  S   UNL A   1      44.889  23.776  34.778  1.00  0.00     0.124 S 
ATOM     85  O   UNL A   1      44.433  23.477  33.426  1.00  0.00    -0.237 OA
ATOM     86  O   UNL A   1      46.282  24.195  34.901  1.00  0.00    -0.237 OA
ATOM     87  O   UNL A   1      44.424  22.868  35.825  1.00  0.00    -0.744 OA
ENDBRANCH  80  84
ENDBRANCH  63  77
BRANCH  64  88
ATOM     88  C   UNL A   1      42.733  24.826  26.173  1.00  0.00     0.023 A 
ATOM     89  C   UNL A   1      41.722  23.958  26.628  1.00  0.00     0.031 A 
ATOM     90  C   UNL A   1      43.674  24.306  25.272  1.00  0.00     0.131 A 
ATOM     91  C   UNL A   1      41.692  22.621  26.221  1.00  0.00     0.055 A 
ATOM     92  C   UNL A   1      43.636  22.970  24.853  1.00  0.00     0.041 A 
ATOM     93  F   UNL A   1      44.686  25.068  24.828  1.00  0.00    -0.206 F 
ATOM     94  C   UNL A   1      42.647  22.117  25.339  1.00  0.00     0.022 A 
BRANCH  91  95
ATOM     95  S   UNL A   1      40.450  21.487  26.898  1.00  0.00     0.124 S 
ATOM     96  O   UNL A   1      39.199  22.156  26.546  1.00  0.00    -0.237 OA
ATOM     97  O   UNL A   1      40.734  20.260  26.163  1.00  0.00    -0.237 OA
ATOM     98  O   UNL A   1      40.753  21.459  28.326  1.00  0.00    -0.744 OA
ENDBRANCH  91  95
ENDBRANCH  64  88
BRANCH  76  99
ATOM     99  C   UNL A   1      45.736  29.902  28.584  1.00  0.00     0.023 A 
ATOM    100  C   UNL A   1      47.095  30.263  28.492  1.00  0.00     0.031 A 
ATOM    101  C   UNL A   1      44.806  30.700  27.893  1.00  0.00     0.131 A 
ATOM    102  C   UNL A   1      47.479  31.402  27.776  1.00  0.00     0.055 A 
ATOM    103  C   UNL A   1      45.204  31.793  27.114  1.00  0.00     0.041 A 
ATOM    104  F   UNL A   1      43.486  30.511  28.018  1.00  0.00    -0.206 F 
ATOM    105  C   UNL A   1      46.544  32.159  27.068  1.00  0.00     0.022 A 
BRANCH 102 106
ATOM    106  S   UNL A   1      49.176  32.027  27.892  1.00  0.00     0.124 S 
ATOM    107  O   UNL A   1      49.631  31.942  26.506  1.00  0.00    -0.237 OA
ATOM    108  O   UNL A   1      48.973  33.383  28.401  1.00  0.00    -0.237 OA
ATOM    109  O   UNL A   1      49.828  31.112  28.822  1.00  0.00    -0.744 OA
ENDBRANCH 102 106
ENDBRANCH  76  99
ENDBRANCH  50  51
ENDBRANCH  42  45
ENDBRANCH  40  41
ENDBRANCH  39  40
ENDBRANCH   1  39
TORSDOF 19
ENDMDL
MODEL 3
REMARK VINA RESULT:     -10.5      1.617      2.077
REMARK SMILES COc1ccc2c(c1)c(Cc1nc(-c3ccc(C(=O)NCCCNC(=O)c4ccc(-c5c6nc(c(-c7cc(S(=O)(=O)[O-])ccc7F)c7ccc([nH]7)c(-c7cc(S(=O)(=O)[O-])ccc7F)c7nc(c(-c8cc(S(=O)(=O)[O-])ccc8F)c8ccc5[nH]8)C=C7)C=C6)cc4)cc3)cs1)c(C)n2C(=O)c1ccc(Cl)cc1
REMARK SMILES IDX 21 1 20 2 18 3 19 4 17 6 14 7 15 8 91 9 16 10 90 11 13 12
REMARK SMILES IDX 11 13 12 14 93 15 92 16 10 17 9 18 3 19 4 20 8 21 5 22 7 23
REMARK SMILES IDX 6 24 96 25 94 26 95 27 2 28 1 29 97 30 98 31 99 32 100 33
REMARK SMILES IDX 105 34 101 35 104 36 102 37 103 38 22 39 23 40 24 41 25 42
REMARK SMILES IDX 26 44 27 45 28 46 89 47 29 48 88 49 30 50 31 51 32 52 82 53
REMARK SMILES IDX 33 54 87 55 81 56 83 57 34 58 86 59 80 60 79 61 35 63 67 64
REMARK SMILES IDX 47 65 66 66 48 67 51 68 65 69 84 70 49 71 50 72 64 74 85 75
REMARK SMILES IDX 52 76 36 77 37 78 45 79 38 80 44 81 46 82 43 83 39 84 40 85
REMARK SMILES IDX 41 86 42 87 68 88 69 89 77 90 70 91 76 92 78 93 75 94 71 95
REMARK SMILES IDX 72 96 73 97 74 98 53 99 54 100 62 101 55 102 61 103 63 104
REMARK SMILES IDX 60 105 56 106 57 107 58 108 59 109
REMARK H PARENT 20 5 24 43 83 62 51 73
REMARK Flexibility Score: inf
ROOT
ATOM      1  C   UNL A   1      43.633  24.129  25.313  1.00  0.00     0.118 C 
ENDROOT
BRANCH   1   2
ATOM      2  N   UNL A   1      45.082  24.100  25.432  1.00  0.00    -0.352 N 
ATOM      3  C   UNL A   1      45.936  24.173  26.506  1.00  0.00     0.251 C 
ATOM      4  O   UNL A   1      47.146  24.089  26.282  1.00  0.00    -0.269 OA
ATOM      5  H   UNL A   1      45.544  24.008  24.567  1.00  0.00     0.163 HD
BRANCH   3   6
ATOM      6  C   UNL A   1      45.485  24.427  27.902  1.00  0.00     0.039 A 
ATOM      7  C   UNL A   1      44.785  24.648  30.629  1.00  0.00     0.001 A 
ATOM      8  C   UNL A   1      44.485  23.482  29.919  1.00  0.00     0.011 A 
ATOM      9  C   UNL A   1      45.325  25.737  29.932  1.00  0.00     0.011 A 
ATOM     10  C   UNL A   1      44.840  23.372  28.569  1.00  0.00     0.014 A 
ATOM     11  C   UNL A   1      45.635  25.640  28.571  1.00  0.00     0.014 A 
BRANCH   7  12
ATOM     12  C   UNL A   1      44.516  24.780  32.054  1.00  0.00     0.081 A 
ATOM     13  C   UNL A   1      44.044  23.977  34.064  1.00  0.00     0.098 A 
ATOM     14  N   UNL A   1      44.153  23.675  32.790  1.00  0.00    -0.241 NA
ATOM     15  S   UNL A   1      44.226  25.644  34.432  1.00  0.00    -0.126 S 
ATOM     16  C   UNL A   1      44.556  25.958  32.773  1.00  0.00     0.095 A 
BRANCH  13  17
ATOM     17  C   UNL A   1      43.827  22.950  35.136  1.00  0.00     0.105 C 
BRANCH  17  18
ATOM     18  C   UNL A   1      45.109  22.661  35.882  1.00  0.00    -0.012 A 
ATOM     19  C   UNL A   1      45.601  24.798  39.015  1.00  0.00     0.119 A 
ATOM     20  C   UNL A   1      46.850  24.302  39.343  1.00  0.00     0.048 A 
ATOM     21  C   UNL A   1      44.949  24.318  37.882  1.00  0.00     0.057 A 
ATOM     22  C   UNL A   1      47.461  23.326  38.546  1.00  0.00     0.031 A 
ATOM     23  C   UNL A   1      45.532  23.310  37.076  1.00  0.00     0.008 A 
ATOM     24  C   UNL A   1      46.776  22.785  37.434  1.00  0.00     0.057 A 
ATOM     25  N   UNL A   1      47.084  21.742  36.535  1.00  0.00    -0.280 N 
ATOM     26  C   UNL A   1      46.082  21.725  35.549  1.00  0.00     0.028 A 
ATOM     27  C   UNL A   1      46.037  20.825  34.354  1.00  0.00     0.065 C 
BRANCH  19  28
ATOM     28  O   UNL A   1      44.911  25.715  39.759  1.00  0.00    -0.497 OA
ATOM     29  C   UNL A   1      45.715  26.743  40.327  1.00  0.00     0.278 C 
ENDBRANCH  19  28
BRANCH  25  30
ATOM     30  C   UNL A   1      48.209  20.870  36.622  1.00  0.00     0.262 C 
ATOM     31  O   UNL A   1      48.235  19.988  37.479  1.00  0.00    -0.268 OA
BRANCH  30  32
ATOM     32  C   UNL A   1      49.384  20.903  35.734  1.00  0.00     0.040 A 
ATOM     33  C   UNL A   1      49.575  21.957  34.831  1.00  0.00     0.015 A 
ATOM     34  C   UNL A   1      50.289  19.838  35.796  1.00  0.00     0.015 A 
ATOM     35  C   UNL A   1      50.638  21.894  33.927  1.00  0.00     0.021 A 
ATOM     36  C   UNL A   1      51.353  19.786  34.896  1.00  0.00     0.021 A 
ATOM     37  C   UNL A   1      51.513  20.805  33.955  1.00  0.00     0.041 A 
ATOM     38  Cl  UNL A   1      52.787  20.705  32.803  1.00  0.00    -0.084 Cl
ENDBRANCH  30  32
ENDBRANCH  25  30
ENDBRANCH  17  18
ENDBRANCH  13  17
ENDBRANCH   7  12
ENDBRANCH   3   6
ENDBRANCH   1   2
BRANCH   1  39
ATOM     39  C   UNL A   1      42.990  22.781  25.004  1.00  0.00     0.042 C 
BRANCH  39  40
ATOM     40  C   UNL A   1      42.535  21.951  26.201  1.00  0.00     0.118 C 
BRANCH  40  41
ATOM     41  N   UNL A   1      41.106  21.730  26.309  1.00  0.00    -0.352 N 
ATOM     42  C   UNL A   1      40.020  22.501  26.627  1.00  0.00     0.251 C 
ATOM     43  H   UNL A   1      40.856  20.801  26.105  1.00  0.00     0.163 HD
ATOM     44  O   UNL A   1      38.923  21.982  26.397  1.00  0.00    -0.269 OA
BRANCH  42  45
ATOM     45  C   UNL A   1      40.058  23.843  27.274  1.00  0.00     0.039 A 
ATOM     46  C   UNL A   1      39.108  24.850  27.116  1.00  0.00     0.014 A 
ATOM     47  C   UNL A   1      41.197  24.120  28.055  1.00  0.00     0.014 A 
ATOM     48  C   UNL A   1      39.346  26.131  27.614  1.00  0.00     0.010 A 
ATOM     49  C   UNL A   1      41.423  25.388  28.585  1.00  0.00     0.010 A 
ATOM     50  C   UNL A   1      40.521  26.412  28.317  1.00  0.00    -0.014 A 
BRANCH  50  51
ATOM     51  C   UNL A   1      40.719  27.778  28.807  1.00  0.00     0.031 A 
ATOM     52  C   UNL A   1      41.943  28.476  28.318  1.00  0.00     0.074 A 
ATOM     53  C   UNL A   1      39.820  28.446  29.557  1.00  0.00     0.049 A 
ATOM     54  N   UNL A   1      42.946  28.925  28.999  1.00  0.00    -0.248 NA
ATOM     55  C   UNL A   1      42.100  28.607  26.864  1.00  0.00     0.031 C 
ATOM     56  C   UNL A   1      38.433  28.067  29.846  1.00  0.00     0.029 A 
ATOM     57  N   UNL A   1      39.933  29.678  30.134  1.00  0.00    -0.354 N 
ATOM     58  C   UNL A   1      43.796  29.547  28.080  1.00  0.00     0.074 A 
ATOM     59  C   UNL A   1      43.288  29.205  26.776  1.00  0.00     0.031 C 
ATOM     60  C   UNL A   1      37.775  29.140  30.338  1.00  0.00     0.029 A 
ATOM     61  C   UNL A   1      38.724  30.222  30.540  1.00  0.00     0.049 A 
ATOM     62  H   UNL A   1      40.794  30.140  30.250  1.00  0.00     0.167 HD
ATOM     63  C   UNL A   1      44.767  30.430  28.459  1.00  0.00     0.034 A 
ATOM     64  C   UNL A   1      38.494  31.497  30.937  1.00  0.00     0.034 A 
ATOM     65  C   UNL A   1      45.015  30.365  29.871  1.00  0.00     0.049 A 
ATOM     66  C   UNL A   1      39.780  32.117  31.321  1.00  0.00     0.074 A 
ATOM     67  C   UNL A   1      45.530  29.422  30.734  1.00  0.00     0.029 A 
ATOM     68  N   UNL A   1      44.423  31.321  30.658  1.00  0.00    -0.354 N 
ATOM     69  N   UNL A   1      40.471  31.797  32.379  1.00  0.00    -0.248 NA
ATOM     70  C   UNL A   1      40.506  32.870  30.309  1.00  0.00     0.031 C 
ATOM     71  C   UNL A   1      44.846  29.632  31.965  1.00  0.00     0.029 A 
ATOM     72  C   UNL A   1      43.973  30.710  31.798  1.00  0.00     0.049 A 
ATOM     73  H   UNL A   1      44.337  32.277  30.441  1.00  0.00     0.167 HD
ATOM     74  C   UNL A   1      41.793  31.895  31.972  1.00  0.00     0.074 A 
ATOM     75  C   UNL A   1      41.752  32.696  30.753  1.00  0.00     0.031 C 
ATOM     76  C   UNL A   1      42.759  31.084  32.498  1.00  0.00     0.034 A 
BRANCH  63  77
ATOM     77  C   UNL A   1      45.293  31.567  27.607  1.00  0.00     0.023 A 
ATOM     78  C   UNL A   1      44.639  32.807  27.493  1.00  0.00     0.031 A 
ATOM     79  C   UNL A   1      46.596  31.514  27.061  1.00  0.00     0.131 A 
ATOM     80  C   UNL A   1      45.247  33.909  26.875  1.00  0.00     0.055 A 
ATOM     81  C   UNL A   1      47.230  32.633  26.501  1.00  0.00     0.041 A 
ATOM     82  F   UNL A   1      47.323  30.386  27.106  1.00  0.00    -0.206 F 
ATOM     83  C   UNL A   1      46.555  33.841  26.408  1.00  0.00     0.022 A 
BRANCH  80  84
ATOM     84  S   UNL A   1      44.340  35.468  26.683  1.00  0.00     0.124 S 
ATOM     85  O   UNL A   1      45.376  36.358  26.176  1.00  0.00    -0.237 OA
ATOM     86  O   UNL A   1      43.301  35.092  25.729  1.00  0.00    -0.237 OA
ATOM     87  O   UNL A   1      43.861  35.750  28.035  1.00  0.00    -0.744 OA
ENDBRANCH  80  84
ENDBRANCH  63  77
BRANCH  64  88
ATOM     88  C   UNL A   1      37.309  32.308  30.578  1.00  0.00     0.023 A 
ATOM     89  C   UNL A   1      36.615  33.000  31.590  1.00  0.00     0.031 A 
ATOM     90  C   UNL A   1      36.678  32.183  29.332  1.00  0.00     0.131 A 
ATOM     91  C   UNL A   1      35.332  33.504  31.359  1.00  0.00     0.055 A 
ATOM     92  C   UNL A   1      35.398  32.700  29.097  1.00  0.00     0.041 A 
ATOM     93  F   UNL A   1      37.267  31.503  28.335  1.00  0.00    -0.206 F 
ATOM     94  C   UNL A   1      34.713  33.354  30.119  1.00  0.00     0.022 A 
BRANCH  91  95
ATOM     95  S   UNL A   1      34.407  34.298  32.702  1.00  0.00     0.124 S 
ATOM     96  O   UNL A   1      34.413  33.262  33.733  1.00  0.00    -0.237 OA
ATOM     97  O   UNL A   1      35.233  35.468  32.981  1.00  0.00    -0.237 OA
ATOM     98  O   UNL A   1      33.101  34.568  32.107  1.00  0.00    -0.744 OA
ENDBRANCH  91  95
ENDBRANCH  64  88
BRANCH  76  99
ATOM     99  C   UNL A   1      42.453  30.295  33.754  1.00  0.00     0.023 A 
ATOM    100  C   UNL A   1      42.923  30.818  34.975  1.00  0.00     0.031 A 
ATOM    101  C   UNL A   1      41.942  28.984  33.765  1.00  0.00     0.131 A 
ATOM    102  C   UNL A   1      42.918  30.032  36.132  1.00  0.00     0.055 A 
ATOM    103  C   UNL A   1      41.867  28.230  34.942  1.00  0.00     0.041 A 
ATOM    104  F   UNL A   1      41.586  28.358  32.637  1.00  0.00    -0.206 F 
ATOM    105  C   UNL A   1      42.374  28.746  36.129  1.00  0.00     0.022 A 
BRANCH 102 106
ATOM    106  S   UNL A   1      43.778  30.594  37.625  1.00  0.00     0.124 S 
ATOM    107  O   UNL A   1      42.695  31.201  38.394  1.00  0.00    -0.237 OA
ATOM    108  O   UNL A   1      44.306  29.344  38.168  1.00  0.00    -0.237 OA
ATOM    109  O   UNL A   1      44.787  31.522  37.125  1.00  0.00    -0.744 OA
ENDBRANCH 102 106
ENDBRANCH  76  99
ENDBRANCH  50  51
ENDBRANCH  42  45
ENDBRANCH  40  41
ENDBRANCH  39  40
ENDBRANCH   1  39
TORSDOF 19
ENDMDL
