MODEL 1
REMARK VINA RESULT:     -10.5      0.000      0.000
REMARK SMILES COCCN(CC(=O)NCCCNC(=O)c1ccc(-c2c3nc(c(-c4cc(S(=O)(=O)[O-])ccc4F)c4ccc([nH]4)c(-c4cc(S(=O)(=O)[O-])ccc4F)c4nc(c(-c5cc(S(=O)(=O)[O-])ccc5F)c5ccc2[nH]5)C=C4)C=C3)cc1)C(=O)N(C)[C@H]1CCCC[C@H]1C
REMARK SMILES IDX 10 1 9 2 7 3 8 4 6 6 5 7 4 8 3 9 2 10 1 11 79 12 80 13 81 14
REMARK SMILES IDX 82 15 83 16 84 17 88 18 85 19 87 20 89 21 86 22 11 23 12 24
REMARK SMILES IDX 13 25 14 26 15 28 16 29 17 30 78 31 18 32 77 33 19 34 20 35
REMARK SMILES IDX 21 36 71 37 22 38 76 39 70 40 72 41 23 42 75 43 69 44 68 45
REMARK SMILES IDX 24 47 56 48 36 49 55 50 37 51 40 52 54 53 73 54 38 55 39 56
REMARK SMILES IDX 53 58 74 59 41 60 25 61 26 62 34 63 27 64 33 65 35 66 32 67
REMARK SMILES IDX 28 68 29 69 30 70 31 71 57 72 58 73 66 74 59 75 65 76 67 77
REMARK SMILES IDX 64 78 60 79 61 80 62 81 63 82 42 83 43 84 51 85 44 86 50 87
REMARK SMILES IDX 52 88 49 89 45 90 46 91 47 92 48 93
REMARK H PARENT 9 5 13 27 72 46 40 57
REMARK Flexibility Score: inf
ROOT
ATOM      1  C   UNL A   1      31.844  29.790  25.627  1.00  0.00     0.117 C 
ENDROOT
BRANCH   1   2
ATOM      2  N   UNL A   1      32.860  29.819  24.595  1.00  0.00    -0.354 N 
ATOM      3  C   UNL A   1      33.478  28.779  23.965  1.00  0.00     0.239 C 
ATOM      4  O   UNL A   1      33.974  29.006  22.856  1.00  0.00    -0.273 OA
ATOM      5  H   UNL A   1      33.145  30.716  24.307  1.00  0.00     0.163 HD
BRANCH   3   6
ATOM      6  C   UNL A   1      33.465  27.347  24.538  1.00  0.00     0.221 C 
BRANCH   6   7
ATOM      7  N   UNL A   1      32.773  26.355  23.708  1.00  0.00    -0.313 N 
BRANCH   7   8
ATOM      8  C   UNL A   1      31.292  26.427  23.755  1.00  0.00     0.150 C 
BRANCH   8   9
ATOM      9  C   UNL A   1      30.668  27.283  22.638  1.00  0.00     0.181 C 
BRANCH   9  10
ATOM     10  O   UNL A   1      30.149  28.509  23.144  1.00  0.00    -0.383 OA
ATOM     11  C   UNL A   1      29.018  28.977  22.430  1.00  0.00     0.194 C 
ENDBRANCH   9  10
ENDBRANCH   8   9
ENDBRANCH   7   8
BRANCH   7  12
ATOM     12  C   UNL A   1      33.304  25.426  22.820  1.00  0.00     0.320 C 
ATOM     13  O   UNL A   1      33.945  25.850  21.853  1.00  0.00    -0.248 OA
BRANCH  12  14
ATOM     14  N   UNL A   1      33.198  24.041  23.028  1.00  0.00    -0.324 N 
ATOM     15  C   UNL A   1      33.067  23.118  21.908  1.00  0.00     0.149 C 
BRANCH  14  16
ATOM     16  C   UNL A   1      33.865  23.512  24.279  1.00  0.00     0.089 C 
ATOM     17  C   UNL A   1      33.657  21.984  24.505  1.00  0.00     0.025 C 
ATOM     18  C   UNL A   1      35.398  23.813  24.438  1.00  0.00     0.009 C 
ATOM     19  C   UNL A   1      34.198  21.506  25.854  1.00  0.00     0.002 C 
ATOM     20  C   UNL A   1      35.893  23.352  25.823  1.00  0.00     0.005 C 
ATOM     21  C   UNL A   1      36.274  23.194  23.333  1.00  0.00     0.010 C 
ATOM     22  C   UNL A   1      35.659  21.868  26.065  1.00  0.00     0.000 C 
ENDBRANCH  14  16
ENDBRANCH  12  14
ENDBRANCH   7  12
ENDBRANCH   6   7
ENDBRANCH   3   6
ENDBRANCH   1   2
BRANCH   1  23
ATOM     23  C   UNL A   1      31.620  31.124  26.328  1.00  0.00     0.042 C 
BRANCH  23  24
ATOM     24  C   UNL A   1      32.840  31.672  27.062  1.00  0.00     0.118 C 
BRANCH  24  25
ATOM     25  N   UNL A   1      32.721  33.094  27.359  1.00  0.00    -0.352 N 
ATOM     26  C   UNL A   1      33.337  33.865  28.311  1.00  0.00     0.251 C 
ATOM     27  H   UNL A   1      32.094  33.583  26.778  1.00  0.00     0.163 HD
ATOM     28  O   UNL A   1      32.894  34.995  28.532  1.00  0.00    -0.269 OA
BRANCH  26  29
ATOM     29  C   UNL A   1      34.504  33.366  29.070  1.00  0.00     0.039 A 
ATOM     30  C   UNL A   1      34.288  32.507  30.153  1.00  0.00     0.014 A 
ATOM     31  C   UNL A   1      35.802  33.782  28.763  1.00  0.00     0.014 A 
ATOM     32  C   UNL A   1      35.376  32.020  30.885  1.00  0.00     0.010 A 
ATOM     33  C   UNL A   1      36.889  33.235  29.443  1.00  0.00     0.010 A 
ATOM     34  C   UNL A   1      36.688  32.354  30.516  1.00  0.00    -0.014 A 
BRANCH  34  35
ATOM     35  C   UNL A   1      37.862  31.801  31.242  1.00  0.00     0.031 A 
ATOM     36  C   UNL A   1      38.691  30.711  30.618  1.00  0.00     0.074 A 
ATOM     37  C   UNL A   1      38.141  32.234  32.487  1.00  0.00     0.049 A 
ATOM     38  N   UNL A   1      39.692  30.037  31.123  1.00  0.00    -0.248 NA
ATOM     39  C   UNL A   1      38.321  30.304  29.253  1.00  0.00     0.031 C 
ATOM     40  C   UNL A   1      37.386  33.260  33.212  1.00  0.00     0.029 A 
ATOM     41  N   UNL A   1      39.123  31.862  33.369  1.00  0.00    -0.354 N 
ATOM     42  C   UNL A   1      40.061  29.115  30.148  1.00  0.00     0.074 A 
ATOM     43  C   UNL A   1      39.135  29.280  29.047  1.00  0.00     0.031 C 
ATOM     44  C   UNL A   1      37.946  33.448  34.417  1.00  0.00     0.029 A 
ATOM     45  C   UNL A   1      39.066  32.526  34.573  1.00  0.00     0.049 A 
ATOM     46  H   UNL A   1      39.805  31.182  33.161  1.00  0.00     0.167 HD
ATOM     47  C   UNL A   1      41.091  28.231  30.161  1.00  0.00     0.034 A 
ATOM     48  C   UNL A   1      39.820  32.395  35.683  1.00  0.00     0.034 A 
ATOM     49  C   UNL A   1      42.010  28.089  31.265  1.00  0.00     0.049 A 
ATOM     50  C   UNL A   1      40.943  31.388  35.685  1.00  0.00     0.074 A 
ATOM     51  C   UNL A   1      43.118  27.267  31.364  1.00  0.00     0.029 A 
ATOM     52  N   UNL A   1      41.923  28.782  32.466  1.00  0.00    -0.354 N 
ATOM     53  N   UNL A   1      41.309  30.557  34.736  1.00  0.00    -0.248 NA
ATOM     54  C   UNL A   1      41.757  31.309  36.903  1.00  0.00     0.031 C 
ATOM     55  C   UNL A   1      43.660  27.411  32.646  1.00  0.00     0.029 A 
ATOM     56  C   UNL A   1      42.939  28.383  33.322  1.00  0.00     0.049 A 
ATOM     57  H   UNL A   1      41.240  29.458  32.680  1.00  0.00     0.167 HD
ATOM     58  C   UNL A   1      42.419  29.880  35.234  1.00  0.00     0.074 A 
ATOM     59  C   UNL A   1      42.667  30.410  36.559  1.00  0.00     0.031 C 
ATOM     60  C   UNL A   1      43.167  28.911  34.647  1.00  0.00     0.034 A 
BRANCH  47  61
ATOM     61  C   UNL A   1      41.250  27.333  28.955  1.00  0.00     0.023 A 
ATOM     62  C   UNL A   1      42.258  27.550  27.999  1.00  0.00     0.031 A 
ATOM     63  C   UNL A   1      40.362  26.264  28.738  1.00  0.00     0.131 A 
ATOM     64  C   UNL A   1      42.303  26.770  26.834  1.00  0.00     0.055 A 
ATOM     65  C   UNL A   1      40.465  25.435  27.619  1.00  0.00     0.041 A 
ATOM     66  F   UNL A   1      39.366  26.016  29.603  1.00  0.00    -0.206 F 
ATOM     67  C   UNL A   1      41.429  25.696  26.649  1.00  0.00     0.022 A 
BRANCH  64  68
ATOM     68  S   UNL A   1      43.417  27.275  25.496  1.00  0.00     0.124 S 
ATOM     69  O   UNL A   1      44.456  27.992  26.231  1.00  0.00    -0.237 OA
ATOM     70  O   UNL A   1      43.813  25.997  24.914  1.00  0.00    -0.237 OA
ATOM     71  O   UNL A   1      42.575  28.113  24.646  1.00  0.00    -0.744 OA
ENDBRANCH  64  68
ENDBRANCH  47  61
BRANCH  48  72
ATOM     72  C   UNL A   1      39.539  33.227  36.888  1.00  0.00     0.023 A 
ATOM     73  C   UNL A   1      40.248  34.414  37.127  1.00  0.00     0.031 A 
ATOM     74  C   UNL A   1      38.582  32.827  37.838  1.00  0.00     0.131 A 
ATOM     75  C   UNL A   1      40.022  35.138  38.309  1.00  0.00     0.055 A 
ATOM     76  C   UNL A   1      38.323  33.578  38.984  1.00  0.00     0.041 A 
ATOM     77  F   UNL A   1      37.874  31.701  37.655  1.00  0.00    -0.206 F 
ATOM     78  C   UNL A   1      39.054  34.736  39.232  1.00  0.00     0.022 A 
BRANCH  75  79
ATOM     79  S   UNL A   1      41.070  36.576  38.660  1.00  0.00     0.124 S 
ATOM     80  O   UNL A   1      41.978  36.568  37.518  1.00  0.00    -0.237 OA
ATOM     81  O   UNL A   1      40.096  37.661  38.698  1.00  0.00    -0.237 OA
ATOM     82  O   UNL A   1      41.682  36.246  39.946  1.00  0.00    -0.744 OA
ENDBRANCH  75  79
ENDBRANCH  48  72
BRANCH  60  83
ATOM     83  C   UNL A   1      44.357  28.400  35.425  1.00  0.00     0.023 A 
ATOM     84  C   UNL A   1      44.227  27.412  36.416  1.00  0.00     0.031 A 
ATOM     85  C   UNL A   1      45.639  28.923  35.177  1.00  0.00     0.131 A 
ATOM     86  C   UNL A   1      45.348  27.018  37.162  1.00  0.00     0.055 A 
ATOM     87  C   UNL A   1      46.761  28.482  35.879  1.00  0.00     0.041 A 
ATOM     88  F   UNL A   1      45.821  29.871  34.243  1.00  0.00    -0.206 F 
ATOM     89  C   UNL A   1      46.617  27.533  36.887  1.00  0.00     0.022 A 
BRANCH  86  90
ATOM     90  S   UNL A   1      45.112  25.886  38.560  1.00  0.00     0.124 S 
ATOM     91  O   UNL A   1      43.936  26.451  39.212  1.00  0.00    -0.237 OA
ATOM     92  O   UNL A   1      44.919  24.603  37.893  1.00  0.00    -0.237 OA
ATOM     93  O   UNL A   1      46.359  26.009  39.313  1.00  0.00    -0.744 OA
ENDBRANCH  86  90
ENDBRANCH  60  83
ENDBRANCH  34  35
ENDBRANCH  26  29
ENDBRANCH  24  25
ENDBRANCH  23  24
ENDBRANCH   1  23
TORSDOF 20
ENDMDL
MODEL 2
REMARK VINA RESULT:     -10.3      5.621     10.545
REMARK SMILES COCCN(CC(=O)NCCCNC(=O)c1ccc(-c2c3nc(c(-c4cc(S(=O)(=O)[O-])ccc4F)c4ccc([nH]4)c(-c4cc(S(=O)(=O)[O-])ccc4F)c4nc(c(-c5cc(S(=O)(=O)[O-])ccc5F)c5ccc2[nH]5)C=C4)C=C3)cc1)C(=O)N(C)[C@H]1CCCC[C@H]1C
REMARK SMILES IDX 10 1 9 2 7 3 8 4 6 6 5 7 4 8 3 9 2 10 1 11 79 12 80 13 81 14
REMARK SMILES IDX 82 15 83 16 84 17 88 18 85 19 87 20 89 21 86 22 11 23 12 24
REMARK SMILES IDX 13 25 14 26 15 28 16 29 17 30 78 31 18 32 77 33 19 34 20 35
REMARK SMILES IDX 21 36 71 37 22 38 76 39 70 40 72 41 23 42 75 43 69 44 68 45
REMARK SMILES IDX 24 47 56 48 36 49 55 50 37 51 40 52 54 53 73 54 38 55 39 56
REMARK SMILES IDX 53 58 74 59 41 60 25 61 26 62 34 63 27 64 33 65 35 66 32 67
REMARK SMILES IDX 28 68 29 69 30 70 31 71 57 72 58 73 66 74 59 75 65 76 67 77
REMARK SMILES IDX 64 78 60 79 61 80 62 81 63 82 42 83 43 84 51 85 44 86 50 87
REMARK SMILES IDX 52 88 49 89 45 90 46 91 47 92 48 93
REMARK H PARENT 9 5 13 27 72 46 40 57
REMARK Flexibility Score: inf
ROOT
ATOM      1  C   UNL A   1      33.577  21.896  25.414  1.00  0.00     0.117 C 
ENDROOT
BRANCH   1   2
ATOM      2  N   UNL A   1      33.984  22.055  24.033  1.00  0.00    -0.354 N 
ATOM      3  C   UNL A   1      34.385  23.181  23.377  1.00  0.00     0.239 C 
ATOM      4  O   UNL A   1      35.078  23.029  22.365  1.00  0.00    -0.273 OA
ATOM      5  H   UNL A   1      33.971  21.233  23.491  1.00  0.00     0.163 HD
BRANCH   3   6
ATOM      6  C   UNL A   1      34.098  24.595  23.923  1.00  0.00     0.221 C 
BRANCH   6   7
ATOM      7  N   UNL A   1      32.679  24.968  23.958  1.00  0.00    -0.313 N 
BRANCH   7   8
ATOM      8  C   UNL A   1      31.976  24.867  22.654  1.00  0.00     0.150 C 
BRANCH   8   9
ATOM      9  C   UNL A   1      32.270  26.031  21.691  1.00  0.00     0.181 C 
BRANCH   9  10
ATOM     10  O   UNL A   1      33.170  25.644  20.658  1.00  0.00    -0.383 OA
ATOM     11  C   UNL A   1      32.517  25.259  19.461  1.00  0.00     0.194 C 
ENDBRANCH   9  10
ENDBRANCH   8   9
ENDBRANCH   7   8
BRANCH   7  12
ATOM     12  C   UNL A   1      31.886  25.311  25.047  1.00  0.00     0.320 C 
ATOM     13  O   UNL A   1      31.955  24.605  26.058  1.00  0.00    -0.248 OA
BRANCH  12  14
ATOM     14  N   UNL A   1      31.076  26.458  25.056  1.00  0.00    -0.324 N 
ATOM     15  C   UNL A   1      29.631  26.364  24.905  1.00  0.00     0.149 C 
BRANCH  14  16
ATOM     16  C   UNL A   1      31.607  27.629  25.856  1.00  0.00     0.089 C 
ATOM     17  C   UNL A   1      33.102  27.480  26.271  1.00  0.00     0.025 C 
ATOM     18  C   UNL A   1      31.427  29.053  25.221  1.00  0.00     0.009 C 
ATOM     19  C   UNL A   1      33.567  28.592  27.215  1.00  0.00     0.002 C 
ATOM     20  C   UNL A   1      31.871  30.143  26.216  1.00  0.00     0.005 C 
ATOM     21  C   UNL A   1      32.162  29.235  23.878  1.00  0.00     0.010 C 
ATOM     22  C   UNL A   1      33.319  29.983  26.655  1.00  0.00     0.000 C 
ENDBRANCH  14  16
ENDBRANCH  12  14
ENDBRANCH   7  12
ENDBRANCH   6   7
ENDBRANCH   3   6
ENDBRANCH   1   2
BRANCH   1  23
ATOM     23  C   UNL A   1      34.651  21.313  26.325  1.00  0.00     0.042 C 
BRANCH  23  24
ATOM     24  C   UNL A   1      36.035  21.932  26.155  1.00  0.00     0.118 C 
BRANCH  24  25
ATOM     25  N   UNL A   1      37.070  20.930  25.927  1.00  0.00    -0.352 N 
ATOM     26  C   UNL A   1      38.432  21.055  25.832  1.00  0.00     0.251 C 
ATOM     27  H   UNL A   1      36.735  20.011  25.826  1.00  0.00     0.163 HD
ATOM     28  O   UNL A   1      39.082  20.104  25.391  1.00  0.00    -0.269 OA
BRANCH  26  29
ATOM     29  C   UNL A   1      39.123  22.298  26.238  1.00  0.00     0.039 A 
ATOM     30  C   UNL A   1      40.193  22.215  27.134  1.00  0.00     0.014 A 
ATOM     31  C   UNL A   1      38.689  23.549  25.791  1.00  0.00     0.014 A 
ATOM     32  C   UNL A   1      40.864  23.377  27.530  1.00  0.00     0.010 A 
ATOM     33  C   UNL A   1      39.406  24.697  26.125  1.00  0.00     0.010 A 
ATOM     34  C   UNL A   1      40.497  24.624  27.003  1.00  0.00    -0.014 A 
BRANCH  34  35
ATOM     35  C   UNL A   1      41.232  25.865  27.364  1.00  0.00     0.031 A 
ATOM     36  C   UNL A   1      40.557  26.932  28.185  1.00  0.00     0.074 A 
ATOM     37  C   UNL A   1      42.481  26.060  26.898  1.00  0.00     0.049 A 
ATOM     38  N   UNL A   1      40.992  28.118  28.525  1.00  0.00    -0.248 NA
ATOM     39  C   UNL A   1      39.197  26.632  28.659  1.00  0.00     0.031 C 
ATOM     40  C   UNL A   1      43.226  25.116  26.061  1.00  0.00     0.029 A 
ATOM     41  N   UNL A   1      43.342  27.118  27.048  1.00  0.00    -0.354 N 
ATOM     42  C   UNL A   1      39.956  28.714  29.236  1.00  0.00     0.074 A 
ATOM     43  C   UNL A   1      38.850  27.779  29.225  1.00  0.00     0.031 C 
ATOM     44  C   UNL A   1      44.436  25.629  25.791  1.00  0.00     0.029 A 
ATOM     45  C   UNL A   1      44.540  26.955  26.390  1.00  0.00     0.049 A 
ATOM     46  H   UNL A   1      43.123  27.920  27.577  1.00  0.00     0.167 HD
ATOM     47  C   UNL A   1      39.937  29.919  29.860  1.00  0.00     0.034 A 
ATOM     48  C   UNL A   1      45.594  27.786  26.270  1.00  0.00     0.034 A 
ATOM     49  C   UNL A   1      41.054  30.834  29.869  1.00  0.00     0.049 A 
ATOM     50  C   UNL A   1      45.541  29.131  26.950  1.00  0.00     0.074 A 
ATOM     51  C   UNL A   1      41.165  32.053  30.512  1.00  0.00     0.029 A 
ATOM     52  N   UNL A   1      42.252  30.632  29.195  1.00  0.00    -0.354 N 
ATOM     53  N   UNL A   1      44.572  29.660  27.660  1.00  0.00    -0.248 NA
ATOM     54  C   UNL A   1      46.728  29.983  26.820  1.00  0.00     0.031 C 
ATOM     55  C   UNL A   1      42.399  32.619  30.174  1.00  0.00     0.029 A 
ATOM     56  C   UNL A   1      43.094  31.718  29.382  1.00  0.00     0.049 A 
ATOM     57  H   UNL A   1      42.473  29.834  28.661  1.00  0.00     0.167 HD
ATOM     58  C   UNL A   1      45.047  30.896  28.088  1.00  0.00     0.074 A 
ATOM     59  C   UNL A   1      46.393  31.025  27.567  1.00  0.00     0.031 C 
ATOM     60  C   UNL A   1      44.430  31.838  28.846  1.00  0.00     0.034 A 
BRANCH  47  61
ATOM     61  C   UNL A   1      38.656  30.321  30.556  1.00  0.00     0.023 A 
ATOM     62  C   UNL A   1      37.674  31.094  29.911  1.00  0.00     0.031 A 
ATOM     63  C   UNL A   1      38.426  29.954  31.894  1.00  0.00     0.131 A 
ATOM     64  C   UNL A   1      36.554  31.545  30.625  1.00  0.00     0.055 A 
ATOM     65  C   UNL A   1      37.266  30.334  32.574  1.00  0.00     0.041 A 
ATOM     66  F   UNL A   1      39.332  29.233  32.572  1.00  0.00    -0.206 F 
ATOM     67  C   UNL A   1      36.329  31.149  31.944  1.00  0.00     0.022 A 
BRANCH  64  68
ATOM     68  S   UNL A   1      35.476  32.782  29.852  1.00  0.00     0.124 S 
ATOM     69  O   UNL A   1      36.389  33.911  29.692  1.00  0.00    -0.237 OA
ATOM     70  O   UNL A   1      35.062  32.117  28.622  1.00  0.00    -0.237 OA
ATOM     71  O   UNL A   1      34.419  32.982  30.840  1.00  0.00    -0.744 OA
ENDBRANCH  64  68
ENDBRANCH  47  61
BRANCH  48  72
ATOM     72  C   UNL A   1      46.785  27.382  25.470  1.00  0.00     0.023 A 
ATOM     73  C   UNL A   1      46.954  27.825  24.149  1.00  0.00     0.031 A 
ATOM     74  C   UNL A   1      47.756  26.515  26.004  1.00  0.00     0.131 A 
ATOM     75  C   UNL A   1      48.042  27.366  23.390  1.00  0.00     0.055 A 
ATOM     76  C   UNL A   1      48.865  26.105  25.263  1.00  0.00     0.041 A 
ATOM     77  F   UNL A   1      47.645  26.065  27.263  1.00  0.00    -0.206 F 
ATOM     78  C   UNL A   1      49.007  26.520  23.942  1.00  0.00     0.022 A 
BRANCH  75  79
ATOM     79  S   UNL A   1      48.137  27.831  21.640  1.00  0.00     0.124 S 
ATOM     80  O   UNL A   1      48.515  26.568  21.016  1.00  0.00    -0.237 OA
ATOM     81  O   UNL A   1      46.779  28.296  21.374  1.00  0.00    -0.237 OA
ATOM     82  O   UNL A   1      49.163  28.871  21.618  1.00  0.00    -0.744 OA
ENDBRANCH  75  79
ENDBRANCH  48  72
BRANCH  60  83
ATOM     83  C   UNL A   1      45.232  33.070  29.194  1.00  0.00     0.023 A 
ATOM     84  C   UNL A   1      45.192  34.231  28.402  1.00  0.00     0.031 A 
ATOM     85  C   UNL A   1      46.058  33.075  30.332  1.00  0.00     0.131 A 
ATOM     86  C   UNL A   1      46.007  35.326  28.725  1.00  0.00     0.055 A 
ATOM     87  C   UNL A   1      46.819  34.190  30.684  1.00  0.00     0.041 A 
ATOM     88  F   UNL A   1      46.136  31.992  31.124  1.00  0.00    -0.206 F 
ATOM     89  C   UNL A   1      46.806  35.320  29.871  1.00  0.00     0.022 A 
BRANCH  86  90
ATOM     90  S   UNL A   1      46.079  36.729  27.577  1.00  0.00     0.124 S 
ATOM     91  O   UNL A   1      44.681  36.872  27.185  1.00  0.00    -0.237 OA
ATOM     92  O   UNL A   1      46.618  37.792  28.418  1.00  0.00    -0.237 OA
ATOM     93  O   UNL A   1      46.974  36.261  26.521  1.00  0.00    -0.744 OA
ENDBRANCH  86  90
ENDBRANCH  60  83
ENDBRANCH  34  35
ENDBRANCH  26  29
ENDBRANCH  24  25
ENDBRANCH  23  24
ENDBRANCH   1  23
TORSDOF 20
ENDMDL
MODEL 3
REMARK VINA RESULT:     -10.2      5.491     10.588
REMARK SMILES COCCN(CC(=O)NCCCNC(=O)c1ccc(-c2c3nc(c(-c4cc(S(=O)(=O)[O-])ccc4F)c4ccc([nH]4)c(-c4cc(S(=O)(=O)[O-])ccc4F)c4nc(c(-c5cc(S(=O)(=O)[O-])ccc5F)c5ccc2[nH]5)C=C4)C=C3)cc1)C(=O)N(C)[C@H]1CCCC[C@H]1C
REMARK SMILES IDX 10 1 9 2 7 3 8 4 6 6 5 7 4 8 3 9 2 10 1 11 79 12 80 13 81 14
REMARK SMILES IDX 82 15 83 16 84 17 88 18 85 19 87 20 89 21 86 22 11 23 12 24
REMARK SMILES IDX 13 25 14 26 15 28 16 29 17 30 78 31 18 32 77 33 19 34 20 35
REMARK SMILES IDX 21 36 71 37 22 38 76 39 70 40 72 41 23 42 75 43 69 44 68 45
REMARK SMILES IDX 24 47 56 48 36 49 55 50 37 51 40 52 54 53 73 54 38 55 39 56
REMARK SMILES IDX 53 58 74 59 41 60 25 61 26 62 34 63 27 64 33 65 35 66 32 67
REMARK SMILES IDX 28 68 29 69 30 70 31 71 57 72 58 73 66 74 59 75 65 76 67 77
REMARK SMILES IDX 64 78 60 79 61 80 62 81 63 82 42 83 43 84 51 85 44 86 50 87
REMARK SMILES IDX 52 88 49 89 45 90 46 91 47 92 48 93
REMARK H PARENT 9 5 13 27 72 46 40 57
REMARK Flexibility Score: inf
ROOT
ATOM      1  C   UNL A   1      33.726  22.412  25.278  1.00  0.00     0.117 C 
ENDROOT
BRANCH   1   2
ATOM      2  N   UNL A   1      33.687  22.360  23.831  1.00  0.00    -0.354 N 
ATOM      3  C   UNL A   1      32.966  23.123  22.960  1.00  0.00     0.239 C 
ATOM      4  O   UNL A   1      33.388  23.209  21.802  1.00  0.00    -0.273 OA
ATOM      5  H   UNL A   1      34.263  21.678  23.417  1.00  0.00     0.163 HD
BRANCH   3   6
ATOM      6  C   UNL A   1      31.742  23.947  23.410  1.00  0.00     0.221 C 
BRANCH   6   7
ATOM      7  N   UNL A   1      31.966  25.396  23.482  1.00  0.00    -0.313 N 
BRANCH   7   8
ATOM      8  C   UNL A   1      32.564  25.872  24.754  1.00  0.00     0.150 C 
BRANCH   8   9
ATOM      9  C   UNL A   1      31.766  25.478  26.010  1.00  0.00     0.181 C 
BRANCH   9  10
ATOM     10  O   UNL A   1      30.861  26.505  26.401  1.00  0.00    -0.383 OA
ATOM     11  C   UNL A   1      31.498  27.741  26.672  1.00  0.00     0.194 C 
ENDBRANCH   9  10
ENDBRANCH   8   9
ENDBRANCH   7   8
BRANCH   7  12
ATOM     12  C   UNL A   1      31.782  26.364  22.501  1.00  0.00     0.320 C 
ATOM     13  O   UNL A   1      31.776  25.999  21.321  1.00  0.00    -0.248 OA
BRANCH  12  14
ATOM     14  N   UNL A   1      31.535  27.711  22.811  1.00  0.00    -0.324 N 
ATOM     15  C   UNL A   1      32.580  28.718  22.686  1.00  0.00     0.149 C 
BRANCH  14  16
ATOM     16  C   UNL A   1      30.107  28.177  22.620  1.00  0.00     0.089 C 
ATOM     17  C   UNL A   1      29.081  27.455  23.545  1.00  0.00     0.025 C 
ATOM     18  C   UNL A   1      29.851  29.722  22.737  1.00  0.00     0.009 C 
ATOM     19  C   UNL A   1      27.632  27.821  23.220  1.00  0.00     0.002 C 
ATOM     20  C   UNL A   1      28.392  30.051  22.365  1.00  0.00     0.005 C 
ATOM     21  C   UNL A   1      30.186  30.307  24.123  1.00  0.00     0.010 C 
ATOM     22  C   UNL A   1      27.383  29.321  23.240  1.00  0.00     0.000 C 
ENDBRANCH  14  16
ENDBRANCH  12  14
ENDBRANCH   7  12
ENDBRANCH   6   7
ENDBRANCH   3   6
ENDBRANCH   1   2
BRANCH   1  23
ATOM     23  C   UNL A   1      34.784  21.518  25.913  1.00  0.00     0.042 C 
BRANCH  23  24
ATOM     24  C   UNL A   1      36.210  22.052  25.818  1.00  0.00     0.118 C 
BRANCH  24  25
ATOM     25  N   UNL A   1      37.206  20.988  25.829  1.00  0.00    -0.352 N 
ATOM     26  C   UNL A   1      38.571  21.040  25.944  1.00  0.00     0.251 C 
ATOM     27  H   UNL A   1      36.837  20.080  25.739  1.00  0.00     0.163 HD
ATOM     28  O   UNL A   1      39.224  20.027  25.679  1.00  0.00    -0.269 OA
BRANCH  26  29
ATOM     29  C   UNL A   1      39.263  22.276  26.368  1.00  0.00     0.039 A 
ATOM     30  C   UNL A   1      40.342  22.178  27.251  1.00  0.00     0.014 A 
ATOM     31  C   UNL A   1      38.822  23.534  25.950  1.00  0.00     0.014 A 
ATOM     32  C   UNL A   1      41.014  23.333  27.665  1.00  0.00     0.010 A 
ATOM     33  C   UNL A   1      39.539  24.677  26.300  1.00  0.00     0.010 A 
ATOM     34  C   UNL A   1      40.639  24.590  27.167  1.00  0.00    -0.014 A 
BRANCH  34  35
ATOM     35  C   UNL A   1      41.374  25.825  27.545  1.00  0.00     0.031 A 
ATOM     36  C   UNL A   1      40.701  26.879  28.384  1.00  0.00     0.074 A 
ATOM     37  C   UNL A   1      42.623  26.028  27.080  1.00  0.00     0.049 A 
ATOM     38  N   UNL A   1      41.137  28.059  28.741  1.00  0.00    -0.248 NA
ATOM     39  C   UNL A   1      39.342  26.572  28.855  1.00  0.00     0.031 C 
ATOM     40  C   UNL A   1      43.366  25.097  26.226  1.00  0.00     0.029 A 
ATOM     41  N   UNL A   1      43.484  27.084  27.245  1.00  0.00    -0.354 N 
ATOM     42  C   UNL A   1      40.101  28.644  29.464  1.00  0.00     0.074 A 
ATOM     43  C   UNL A   1      38.996  27.709  29.440  1.00  0.00     0.031 C 
ATOM     44  C   UNL A   1      44.576  25.614  25.962  1.00  0.00     0.029 A 
ATOM     45  C   UNL A   1      44.680  26.930  26.582  1.00  0.00     0.049 A 
ATOM     46  H   UNL A   1      43.265  27.877  27.786  1.00  0.00     0.167 HD
ATOM     47  C   UNL A   1      40.083  29.840  30.106  1.00  0.00     0.034 A 
ATOM     48  C   UNL A   1      45.734  27.764  26.472  1.00  0.00     0.034 A 
ATOM     49  C   UNL A   1      41.200  30.754  30.127  1.00  0.00     0.049 A 
ATOM     50  C   UNL A   1      45.682  29.098  27.174  1.00  0.00     0.074 A 
ATOM     51  C   UNL A   1      41.313  31.964  30.789  1.00  0.00     0.029 A 
ATOM     52  N   UNL A   1      42.397  30.563  29.448  1.00  0.00    -0.354 N 
ATOM     53  N   UNL A   1      44.714  29.616  27.894  1.00  0.00    -0.248 NA
ATOM     54  C   UNL A   1      46.869  29.952  27.054  1.00  0.00     0.031 C 
ATOM     55  C   UNL A   1      42.545  32.535  30.457  1.00  0.00     0.029 A 
ATOM     56  C   UNL A   1      43.239  31.647  29.650  1.00  0.00     0.049 A 
ATOM     57  H   UNL A   1      42.617  29.774  28.901  1.00  0.00     0.167 HD
ATOM     58  C   UNL A   1      45.191  30.845  28.339  1.00  0.00     0.074 A 
ATOM     59  C   UNL A   1      46.535  30.983  27.818  1.00  0.00     0.031 C 
ATOM     60  C   UNL A   1      44.574  31.775  29.113  1.00  0.00     0.034 A 
BRANCH  47  61
ATOM     61  C   UNL A   1      38.804  30.230  30.811  1.00  0.00     0.023 A 
ATOM     62  C   UNL A   1      37.795  30.962  30.160  1.00  0.00     0.031 A 
ATOM     63  C   UNL A   1      38.602  29.895  32.162  1.00  0.00     0.131 A 
ATOM     64  C   UNL A   1      36.674  31.407  30.879  1.00  0.00     0.055 A 
ATOM     65  C   UNL A   1      37.444  30.266  32.849  1.00  0.00     0.041 A 
ATOM     66  F   UNL A   1      39.536  29.215  32.845  1.00  0.00    -0.206 F 
ATOM     67  C   UNL A   1      36.479  31.042  32.212  1.00  0.00     0.022 A 
BRANCH  64  68
ATOM     68  S   UNL A   1      35.556  32.596  30.089  1.00  0.00     0.124 S 
ATOM     69  O   UNL A   1      36.339  33.828  30.157  1.00  0.00    -0.237 OA
ATOM     70  O   UNL A   1      35.376  32.026  28.759  1.00  0.00    -0.237 OA
ATOM     71  O   UNL A   1      34.371  32.572  30.944  1.00  0.00    -0.744 OA
ENDBRANCH  64  68
ENDBRANCH  47  61
BRANCH  48  72
ATOM     72  C   UNL A   1      46.924  27.372  25.664  1.00  0.00     0.023 A 
ATOM     73  C   UNL A   1      47.069  27.802  24.336  1.00  0.00     0.031 A 
ATOM     74  C   UNL A   1      47.917  26.531  26.197  1.00  0.00     0.131 A 
ATOM     75  C   UNL A   1      48.157  27.354  23.570  1.00  0.00     0.055 A 
ATOM     76  C   UNL A   1      49.025  26.133  25.449  1.00  0.00     0.041 A 
ATOM     77  F   UNL A   1      47.829  26.095  27.463  1.00  0.00    -0.206 F 
ATOM     78  C   UNL A   1      49.144  26.534  24.122  1.00  0.00     0.022 A 
BRANCH  75  79
ATOM     79  S   UNL A   1      48.223  27.798  21.813  1.00  0.00     0.124 S 
ATOM     80  O   UNL A   1      48.437  26.500  21.185  1.00  0.00    -0.237 OA
ATOM     81  O   UNL A   1      46.912  28.405  21.603  1.00  0.00    -0.237 OA
ATOM     82  O   UNL A   1      49.353  28.722  21.737  1.00  0.00    -0.744 OA
ENDBRANCH  75  79
ENDBRANCH  48  72
BRANCH  60  83
ATOM     83  C   UNL A   1      45.376  33.002  29.479  1.00  0.00     0.023 A 
ATOM     84  C   UNL A   1      45.343  34.171  28.699  1.00  0.00     0.031 A 
ATOM     85  C   UNL A   1      46.197  32.992  30.621  1.00  0.00     0.131 A 
ATOM     86  C   UNL A   1      46.158  35.261  29.039  1.00  0.00     0.055 A 
ATOM     87  C   UNL A   1      46.959  34.102  30.989  1.00  0.00     0.041 A 
ATOM     88  F   UNL A   1      46.270  31.901  31.402  1.00  0.00    -0.206 F 
ATOM     89  C   UNL A   1      46.952  35.241  30.189  1.00  0.00     0.022 A 
BRANCH  86  90
ATOM     90  S   UNL A   1      46.238  36.676  27.907  1.00  0.00     0.124 S 
ATOM     91  O   UNL A   1      46.758  37.728  28.773  1.00  0.00    -0.237 OA
ATOM     92  O   UNL A   1      47.145  36.196  26.870  1.00  0.00    -0.237 OA
ATOM     93  O   UNL A   1      44.851  36.852  27.481  1.00  0.00    -0.744 OA
ENDBRANCH  86  90
ENDBRANCH  60  83
ENDBRANCH  34  35
ENDBRANCH  26  29
ENDBRANCH  24  25
ENDBRANCH  23  24
ENDBRANCH   1  23
TORSDOF 20
ENDMDL
