MODEL 1
REMARK VINA RESULT:     -12.7      0.000      0.000
REMARK SMILES COC(=O)c1ccc([C@H]2CC(=O)Nc3c(C(=O)NCCCNC(=O)c4ccc(-c5c6nc(c(-c7cc(S(=O)(=O)[O-])ccc7F)c7ccc([nH]7)c(-c7cc(S(=O)(=O)[O-])ccc7F)c7nc(c(-c8cc(S(=O)(=O)[O-])ccc8F)c8ccc5[nH]8)C=C7)C=C6)cc4)cn(-c4ccccc4)c32)cc1
REMARK SMILES IDX 20 1 19 2 18 3 16 4 17 5 15 7 9 8 10 9 96 10 11 11 14 12
REMARK SMILES IDX 89 13 12 14 13 15 88 16 8 18 5 19 6 20 98 21 7 22 97 23 3 24
REMARK SMILES IDX 4 25 2 26 1 27 90 28 91 29 95 30 92 31 94 32 93 33 21 34
REMARK SMILES IDX 22 35 23 36 24 38 25 39 26 40 87 41 27 42 86 43 28 44 29 45
REMARK SMILES IDX 30 46 80 47 31 48 85 49 79 50 81 51 32 52 84 53 78 54 77 55
REMARK SMILES IDX 33 57 65 58 45 59 64 60 46 61 49 62 63 63 82 64 47 65 48 66
REMARK SMILES IDX 62 68 83 69 50 70 34 71 35 72 43 73 36 74 42 75 44 76 41 77
REMARK SMILES IDX 37 78 38 79 39 80 40 81 66 82 67 83 75 84 68 85 74 86 76 87
REMARK SMILES IDX 73 88 69 89 70 90 71 91 72 92 51 93 52 94 60 95 53 96 59 97
REMARK SMILES IDX 61 98 58 99 54 100 55 101 56 102 57 103
REMARK H PARENT 18 6 13 17 22 37 81 56 49 67
REMARK Flexibility Score: inf
ROOT
ATOM      1  C   UNL A   1      37.619  19.971  25.373  1.00  0.00     0.042 C 
ENDROOT
BRANCH   1   2
ATOM      2  C   UNL A   1      36.592  21.089  25.133  1.00  0.00     0.118 C 
BRANCH   2   3
ATOM      3  N   UNL A   1      36.997  22.010  24.095  1.00  0.00    -0.352 N 
ATOM      4  C   UNL A   1      36.458  23.147  23.556  1.00  0.00     0.254 C 
ATOM      5  O   UNL A   1      37.191  23.729  22.750  1.00  0.00    -0.269 OA
ATOM      6  H   UNL A   1      37.855  21.763  23.681  1.00  0.00     0.163 HD
BRANCH   4   7
ATOM      7  C   UNL A   1      35.117  23.686  23.843  1.00  0.00     0.081 A 
ATOM      8  C   UNL A   1      31.425  24.357  23.867  1.00  0.00     0.078 C 
ATOM      9  C   UNL A   1      31.034  23.326  22.785  1.00  0.00     0.115 C 
ATOM     10  C   UNL A   1      32.924  24.345  24.051  1.00  0.00     0.055 A 
ATOM     11  C   UNL A   1      31.848  22.071  22.812  1.00  0.00     0.225 C 
ATOM     12  C   UNL A   1      33.755  23.324  23.621  1.00  0.00     0.076 A 
ATOM     13  N   UNL A   1      33.706  25.232  24.760  1.00  0.00    -0.317 N 
ATOM     14  O   UNL A   1      31.391  20.986  22.454  1.00  0.00    -0.275 OA
ATOM     15  N   UNL A   1      33.166  22.191  23.125  1.00  0.00    -0.324 N 
ATOM     16  C   UNL A   1      35.018  24.915  24.504  1.00  0.00     0.107 A 
ATOM     17  H   UNL A   1      33.741  21.405  22.985  1.00  0.00     0.170 HD
BRANCH   8  18
ATOM     18  C   UNL A   1      30.730  25.652  23.436  1.00  0.00    -0.038 A 
ATOM     19  C   UNL A   1      29.803  28.232  22.749  1.00  0.00     0.060 A 
ATOM     20  C   UNL A   1      30.926  27.700  22.115  1.00  0.00     0.016 A 
ATOM     21  C   UNL A   1      29.123  27.467  23.702  1.00  0.00     0.016 A 
ATOM     22  C   UNL A   1      31.365  26.418  22.436  1.00  0.00     0.005 A 
ATOM     23  C   UNL A   1      29.600  26.198  24.061  1.00  0.00     0.005 A 
BRANCH  19  24
ATOM     24  C   UNL A   1      29.405  29.615  22.381  1.00  0.00     0.337 C 
ATOM     25  O   UNL A   1      29.520  30.069  21.259  1.00  0.00    -0.246 OA
BRANCH  24  26
ATOM     26  O   UNL A   1      28.964  30.290  23.474  1.00  0.00    -0.465 OA
ATOM     27  C   UNL A   1      27.674  30.875  23.292  1.00  0.00     0.282 C 
ENDBRANCH  24  26
ENDBRANCH  19  24
ENDBRANCH   8  18
BRANCH  13  28
ATOM     28  C   UNL A   1      33.279  26.291  25.593  1.00  0.00     0.045 A 
ATOM     29  C   UNL A   1      32.229  26.089  26.495  1.00  0.00     0.026 A 
ATOM     30  C   UNL A   1      33.879  27.550  25.473  1.00  0.00     0.026 A 
ATOM     31  C   UNL A   1      31.735  27.162  27.232  1.00  0.00     0.002 A 
ATOM     32  C   UNL A   1      33.354  28.627  26.188  1.00  0.00     0.002 A 
ATOM     33  C   UNL A   1      32.278  28.435  27.058  1.00  0.00     0.000 A 
ENDBRANCH  13  28
ENDBRANCH   4   7
ENDBRANCH   2   3
ENDBRANCH   1   2
BRANCH   1  34
ATOM     34  C   UNL A   1      38.975  20.513  25.776  1.00  0.00     0.118 C 
BRANCH  34  35
ATOM     35  N   UNL A   1      39.992  19.449  25.793  1.00  0.00    -0.352 N 
ATOM     36  C   UNL A   1      41.364  19.566  25.917  1.00  0.00     0.251 C 
ATOM     37  H   UNL A   1      39.648  18.531  25.705  1.00  0.00     0.163 HD
ATOM     38  O   UNL A   1      42.103  18.667  25.537  1.00  0.00    -0.269 OA
BRANCH  36  39
ATOM     39  C   UNL A   1      41.900  20.801  26.509  1.00  0.00     0.039 A 
ATOM     40  C   UNL A   1      42.273  21.900  25.735  1.00  0.00     0.014 A 
ATOM     41  C   UNL A   1      41.910  20.867  27.896  1.00  0.00     0.014 A 
ATOM     42  C   UNL A   1      42.557  23.098  26.388  1.00  0.00     0.010 A 
ATOM     43  C   UNL A   1      41.929  22.090  28.500  1.00  0.00     0.010 A 
ATOM     44  C   UNL A   1      42.346  23.194  27.777  1.00  0.00    -0.014 A 
BRANCH  44  45
ATOM     45  C   UNL A   1      42.433  24.464  28.490  1.00  0.00     0.031 A 
ATOM     46  C   UNL A   1      41.308  25.386  28.200  1.00  0.00     0.074 A 
ATOM     47  C   UNL A   1      43.339  24.718  29.465  1.00  0.00     0.049 A 
ATOM     48  N   UNL A   1      41.342  26.423  27.434  1.00  0.00    -0.248 NA
ATOM     49  C   UNL A   1      39.949  25.011  28.624  1.00  0.00     0.031 C 
ATOM     50  C   UNL A   1      44.335  23.819  30.062  1.00  0.00     0.029 A 
ATOM     51  N   UNL A   1      43.503  25.850  30.201  1.00  0.00    -0.354 N 
ATOM     52  C   UNL A   1      40.078  26.992  27.502  1.00  0.00     0.074 A 
ATOM     53  C   UNL A   1      39.223  25.970  28.042  1.00  0.00     0.031 C 
ATOM     54  C   UNL A   1      44.823  24.359  31.201  1.00  0.00     0.029 A 
ATOM     55  C   UNL A   1      44.324  25.716  31.320  1.00  0.00     0.049 A 
ATOM     56  H   UNL A   1      43.072  26.703  29.961  1.00  0.00     0.167 HD
ATOM     57  C   UNL A   1      39.919  28.336  27.347  1.00  0.00     0.034 A 
ATOM     58  C   UNL A   1      44.594  26.656  32.268  1.00  0.00     0.034 A 
ATOM     59  C   UNL A   1      41.120  28.928  26.791  1.00  0.00     0.049 A 
ATOM     60  C   UNL A   1      44.324  27.970  31.629  1.00  0.00     0.074 A 
ATOM     61  C   UNL A   1      41.840  28.737  25.627  1.00  0.00     0.029 A 
ATOM     62  N   UNL A   1      41.989  29.556  27.660  1.00  0.00    -0.354 N 
ATOM     63  N   UNL A   1      45.021  28.421  30.620  1.00  0.00    -0.248 NA
ATOM     64  C   UNL A   1      42.981  28.518  31.746  1.00  0.00     0.031 C 
ATOM     65  C   UNL A   1      43.208  28.773  26.034  1.00  0.00     0.029 A 
ATOM     66  C   UNL A   1      43.255  29.092  27.393  1.00  0.00     0.049 A 
ATOM     67  H   UNL A   1      41.745  30.217  28.347  1.00  0.00     0.167 HD
ATOM     68  C   UNL A   1      44.084  28.942  29.741  1.00  0.00     0.074 A 
ATOM     69  C   UNL A   1      42.853  29.055  30.528  1.00  0.00     0.031 C 
ATOM     70  C   UNL A   1      44.305  28.959  28.392  1.00  0.00     0.034 A 
BRANCH  57  71
ATOM     71  C   UNL A   1      38.867  29.174  28.039  1.00  0.00     0.023 A 
ATOM     72  C   UNL A   1      38.908  29.209  29.446  1.00  0.00     0.031 A 
ATOM     73  C   UNL A   1      37.689  29.683  27.448  1.00  0.00     0.131 A 
ATOM     74  C   UNL A   1      37.788  29.607  30.193  1.00  0.00     0.055 A 
ATOM     75  C   UNL A   1      36.600  30.141  28.197  1.00  0.00     0.041 A 
ATOM     76  F   UNL A   1      37.478  29.687  26.129  1.00  0.00    -0.206 F 
ATOM     77  C   UNL A   1      36.630  30.071  29.578  1.00  0.00     0.022 A 
BRANCH  74  78
ATOM     78  S   UNL A   1      37.811  29.324  31.982  1.00  0.00     0.124 S 
ATOM     79  O   UNL A   1      36.451  29.693  32.354  1.00  0.00    -0.237 OA
ATOM     80  O   UNL A   1      38.138  27.904  32.055  1.00  0.00    -0.237 OA
ATOM     81  O   UNL A   1      38.855  30.230  32.453  1.00  0.00    -0.744 OA
ENDBRANCH  74  78
ENDBRANCH  57  71
BRANCH  58  82
ATOM     82  C   UNL A   1      44.697  26.458  33.747  1.00  0.00     0.023 A 
ATOM     83  C   UNL A   1      43.595  26.556  34.629  1.00  0.00     0.031 A 
ATOM     84  C   UNL A   1      45.880  25.902  34.283  1.00  0.00     0.131 A 
ATOM     85  C   UNL A   1      43.707  26.106  35.970  1.00  0.00     0.055 A 
ATOM     86  C   UNL A   1      45.983  25.454  35.603  1.00  0.00     0.041 A 
ATOM     87  F   UNL A   1      46.960  25.695  33.512  1.00  0.00    -0.206 F 
ATOM     88  C   UNL A   1      44.892  25.544  36.450  1.00  0.00     0.022 A 
BRANCH  85  89
ATOM     89  S   UNL A   1      42.279  26.169  37.110  1.00  0.00     0.124 S 
ATOM     90  O   UNL A   1      41.684  24.849  36.938  1.00  0.00    -0.237 OA
ATOM     91  O   UNL A   1      42.913  26.435  38.395  1.00  0.00    -0.237 OA
ATOM     92  O   UNL A   1      41.472  27.275  36.588  1.00  0.00    -0.744 OA
ENDBRANCH  85  89
ENDBRANCH  58  82
BRANCH  70  93
ATOM     93  C   UNL A   1      45.703  28.646  27.881  1.00  0.00     0.023 A 
ATOM     94  C   UNL A   1      46.198  27.354  27.577  1.00  0.00     0.031 A 
ATOM     95  C   UNL A   1      46.529  29.743  27.578  1.00  0.00     0.131 A 
ATOM     96  C   UNL A   1      47.479  27.206  27.002  1.00  0.00     0.055 A 
ATOM     97  C   UNL A   1      47.782  29.594  26.986  1.00  0.00     0.041 A 
ATOM     98  F   UNL A   1      46.110  30.996  27.821  1.00  0.00    -0.206 F 
ATOM     99  C   UNL A   1      48.265  28.323  26.700  1.00  0.00     0.022 A 
BRANCH  96 100
ATOM    100  S   UNL A   1      48.168  25.552  26.652  1.00  0.00     0.124 S 
ATOM    101  O   UNL A   1      49.209  25.393  27.659  1.00  0.00    -0.237 OA
ATOM    102  O   UNL A   1      47.001  24.683  26.797  1.00  0.00    -0.237 OA
ATOM    103  O   UNL A   1      48.664  25.672  25.278  1.00  0.00    -0.744 OA
ENDBRANCH  96 100
ENDBRANCH  70  93
ENDBRANCH  44  45
ENDBRANCH  36  39
ENDBRANCH  34  35
ENDBRANCH   1  34
TORSDOF 17
ENDMDL
MODEL 2
REMARK VINA RESULT:     -12.5      4.075      5.326
REMARK SMILES COC(=O)c1ccc([C@H]2CC(=O)Nc3c(C(=O)NCCCNC(=O)c4ccc(-c5c6nc(c(-c7cc(S(=O)(=O)[O-])ccc7F)c7ccc([nH]7)c(-c7cc(S(=O)(=O)[O-])ccc7F)c7nc(c(-c8cc(S(=O)(=O)[O-])ccc8F)c8ccc5[nH]8)C=C7)C=C6)cc4)cn(-c4ccccc4)c32)cc1
REMARK SMILES IDX 20 1 19 2 18 3 16 4 17 5 15 7 9 8 10 9 96 10 11 11 14 12
REMARK SMILES IDX 89 13 12 14 13 15 88 16 8 18 5 19 6 20 98 21 7 22 97 23 3 24
REMARK SMILES IDX 4 25 2 26 1 27 90 28 91 29 95 30 92 31 94 32 93 33 21 34
REMARK SMILES IDX 22 35 23 36 24 38 25 39 26 40 87 41 27 42 86 43 28 44 29 45
REMARK SMILES IDX 30 46 80 47 31 48 85 49 79 50 81 51 32 52 84 53 78 54 77 55
REMARK SMILES IDX 33 57 65 58 45 59 64 60 46 61 49 62 63 63 82 64 47 65 48 66
REMARK SMILES IDX 62 68 83 69 50 70 34 71 35 72 43 73 36 74 42 75 44 76 41 77
REMARK SMILES IDX 37 78 38 79 39 80 40 81 66 82 67 83 75 84 68 85 74 86 76 87
REMARK SMILES IDX 73 88 69 89 70 90 71 91 72 92 51 93 52 94 60 95 53 96 59 97
REMARK SMILES IDX 61 98 58 99 54 100 55 101 56 102 57 103
REMARK H PARENT 18 6 13 17 22 37 81 56 49 67
REMARK Flexibility Score: inf
ROOT
ATOM      1  C   UNL A   1      38.835  22.828  26.521  1.00  0.00     0.042 C 
ENDROOT
BRANCH   1   2
ATOM      2  C   UNL A   1      37.607  23.511  25.899  1.00  0.00     0.118 C 
BRANCH   2   3
ATOM      3  N   UNL A   1      37.433  23.189  24.501  1.00  0.00    -0.352 N 
ATOM      4  C   UNL A   1      36.428  23.377  23.590  1.00  0.00     0.254 C 
ATOM      5  O   UNL A   1      36.722  23.063  22.432  1.00  0.00    -0.269 OA
ATOM      6  H   UNL A   1      38.214  22.731  24.116  1.00  0.00     0.163 HD
BRANCH   4   7
ATOM      7  C   UNL A   1      35.077  23.884  23.888  1.00  0.00     0.081 A 
ATOM      8  C   UNL A   1      31.370  24.466  23.940  1.00  0.00     0.078 C 
ATOM      9  C   UNL A   1      30.996  23.427  22.861  1.00  0.00     0.115 C 
ATOM     10  C   UNL A   1      32.870  24.490  24.113  1.00  0.00     0.055 A 
ATOM     11  C   UNL A   1      31.840  22.191  22.881  1.00  0.00     0.225 C 
ATOM     12  C   UNL A   1      33.722  23.489  23.677  1.00  0.00     0.076 A 
ATOM     13  N   UNL A   1      33.637  25.396  24.816  1.00  0.00    -0.317 N 
ATOM     14  O   UNL A   1      31.406  21.097  22.525  1.00  0.00    -0.275 OA
ATOM     15  N   UNL A   1      33.157  22.343  23.184  1.00  0.00    -0.324 N 
ATOM     16  C   UNL A   1      34.955  25.109  24.550  1.00  0.00     0.107 A 
ATOM     17  H   UNL A   1      33.749  21.571  23.039  1.00  0.00     0.170 HD
BRANCH   8  18
ATOM     18  C   UNL A   1      30.641  25.745  23.516  1.00  0.00    -0.038 A 
ATOM     19  C   UNL A   1      29.622  28.307  22.896  1.00  0.00     0.060 A 
ATOM     20  C   UNL A   1      30.847  27.895  22.371  1.00  0.00     0.016 A 
ATOM     21  C   UNL A   1      28.890  27.431  23.703  1.00  0.00     0.016 A 
ATOM     22  C   UNL A   1      31.335  26.623  22.657  1.00  0.00     0.005 A 
ATOM     23  C   UNL A   1      29.409  26.171  24.032  1.00  0.00     0.005 A 
BRANCH  19  24
ATOM     24  C   UNL A   1      29.174  29.686  22.576  1.00  0.00     0.337 C 
ATOM     25  O   UNL A   1      29.097  30.574  23.403  1.00  0.00    -0.246 OA
BRANCH  24  26
ATOM     26  O   UNL A   1      28.818  29.781  21.268  1.00  0.00    -0.465 OA
ATOM     27  C   UNL A   1      28.051  30.949  20.975  1.00  0.00     0.282 C 
ENDBRANCH  24  26
ENDBRANCH  19  24
ENDBRANCH   8  18
BRANCH  13  28
ATOM     28  C   UNL A   1      33.191  26.444  25.654  1.00  0.00     0.045 A 
ATOM     29  C   UNL A   1      32.141  26.221  26.550  1.00  0.00     0.026 A 
ATOM     30  C   UNL A   1      33.774  27.712  25.543  1.00  0.00     0.026 A 
ATOM     31  C   UNL A   1      31.628  27.283  27.290  1.00  0.00     0.002 A 
ATOM     32  C   UNL A   1      33.230  28.777  26.262  1.00  0.00     0.002 A 
ATOM     33  C   UNL A   1      32.154  28.565  27.125  1.00  0.00     0.000 A 
ENDBRANCH  13  28
ENDBRANCH   4   7
ENDBRANCH   2   3
ENDBRANCH   1   2
BRANCH   1  34
ATOM     34  C   UNL A   1      39.740  23.813  27.235  1.00  0.00     0.118 C 
BRANCH  34  35
ATOM     35  N   UNL A   1      40.638  24.494  26.289  1.00  0.00    -0.352 N 
ATOM     36  C   UNL A   1      40.823  25.851  26.097  1.00  0.00     0.251 C 
ATOM     37  H   UNL A   1      41.179  23.905  25.716  1.00  0.00     0.163 HD
ATOM     38  O   UNL A   1      41.292  26.275  25.048  1.00  0.00    -0.269 OA
BRANCH  36  39
ATOM     39  C   UNL A   1      40.432  26.761  27.185  1.00  0.00     0.039 A 
ATOM     40  C   UNL A   1      40.103  26.303  28.461  1.00  0.00     0.014 A 
ATOM     41  C   UNL A   1      40.518  28.120  26.913  1.00  0.00     0.014 A 
ATOM     42  C   UNL A   1      39.963  27.243  29.480  1.00  0.00     0.010 A 
ATOM     43  C   UNL A   1      40.641  28.996  27.952  1.00  0.00     0.010 A 
ATOM     44  C   UNL A   1      40.273  28.593  29.223  1.00  0.00    -0.014 A 
BRANCH  44  45
ATOM     45  C   UNL A   1      40.338  29.590  30.285  1.00  0.00     0.031 A 
ATOM     46  C   UNL A   1      39.050  30.285  30.526  1.00  0.00     0.074 A 
ATOM     47  C   UNL A   1      41.405  29.747  31.104  1.00  0.00     0.049 A 
ATOM     48  N   UNL A   1      38.739  31.480  30.152  1.00  0.00    -0.248 NA
ATOM     49  C   UNL A   1      37.908  29.515  31.045  1.00  0.00     0.031 C 
ATOM     50  C   UNL A   1      42.641  28.957  31.178  1.00  0.00     0.029 A 
ATOM     51  N   UNL A   1      41.570  30.626  32.128  1.00  0.00    -0.354 N 
ATOM     52  C   UNL A   1      37.459  31.712  30.634  1.00  0.00     0.074 A 
ATOM     53  C   UNL A   1      36.926  30.415  30.955  1.00  0.00     0.031 C 
ATOM     54  C   UNL A   1      43.305  29.240  32.322  1.00  0.00     0.029 A 
ATOM     55  C   UNL A   1      42.650  30.361  32.970  1.00  0.00     0.049 A 
ATOM     56  H   UNL A   1      40.970  31.395  32.266  1.00  0.00     0.167 HD
ATOM     57  C   UNL A   1      37.065  32.975  30.962  1.00  0.00     0.034 A 
ATOM     58  C   UNL A   1      42.998  31.024  34.108  1.00  0.00     0.034 A 
ATOM     59  C   UNL A   1      37.991  33.951  30.421  1.00  0.00     0.049 A 
ATOM     60  C   UNL A   1      42.385  32.373  33.998  1.00  0.00     0.074 A 
ATOM     61  C   UNL A   1      38.426  34.266  29.148  1.00  0.00     0.029 A 
ATOM     62  N   UNL A   1      38.940  34.478  31.273  1.00  0.00    -0.354 N 
ATOM     63  N   UNL A   1      42.738  33.237  33.084  1.00  0.00    -0.248 NA
ATOM     64  C   UNL A   1      41.044  32.555  34.533  1.00  0.00     0.031 C 
ATOM     65  C   UNL A   1      39.830  34.484  29.286  1.00  0.00     0.029 A 
ATOM     66  C   UNL A   1      40.158  34.401  30.641  1.00  0.00     0.049 A 
ATOM     67  H   UNL A   1      38.774  34.843  32.172  1.00  0.00     0.167 HD
ATOM     68  C   UNL A   1      41.547  33.769  32.613  1.00  0.00     0.074 A 
ATOM     69  C   UNL A   1      40.543  33.377  33.605  1.00  0.00     0.031 C 
ATOM     70  C   UNL A   1      41.427  34.221  31.329  1.00  0.00     0.034 A 
BRANCH  57  71
ATOM     71  C   UNL A   1      36.099  33.324  32.072  1.00  0.00     0.023 A 
ATOM     72  C   UNL A   1      34.981  34.103  31.718  1.00  0.00     0.031 A 
ATOM     73  C   UNL A   1      36.345  33.200  33.458  1.00  0.00     0.131 A 
ATOM     74  C   UNL A   1      34.253  34.807  32.690  1.00  0.00     0.055 A 
ATOM     75  C   UNL A   1      35.576  33.851  34.427  1.00  0.00     0.041 A 
ATOM     76  F   UNL A   1      37.387  32.528  33.957  1.00  0.00    -0.206 F 
ATOM     77  C   UNL A   1      34.544  34.690  34.046  1.00  0.00     0.022 A 
BRANCH  74  78
ATOM     78  S   UNL A   1      33.038  36.028  32.128  1.00  0.00     0.124 S 
ATOM     79  O   UNL A   1      33.332  36.097  30.702  1.00  0.00    -0.237 OA
ATOM     80  O   UNL A   1      31.780  35.389  32.499  1.00  0.00    -0.237 OA
ATOM     81  O   UNL A   1      33.382  37.222  32.896  1.00  0.00    -0.744 OA
ENDBRANCH  74  78
ENDBRANCH  57  71
BRANCH  58  82
ATOM     82  C   UNL A   1      43.487  30.437  35.393  1.00  0.00     0.023 A 
ATOM     83  C   UNL A   1      43.214  29.109  35.802  1.00  0.00     0.031 A 
ATOM     84  C   UNL A   1      44.472  31.129  36.132  1.00  0.00     0.131 A 
ATOM     85  C   UNL A   1      43.916  28.536  36.894  1.00  0.00     0.055 A 
ATOM     86  C   UNL A   1      45.164  30.558  37.203  1.00  0.00     0.041 A 
ATOM     87  F   UNL A   1      44.859  32.366  35.782  1.00  0.00    -0.206 F 
ATOM     88  C   UNL A   1      44.897  29.254  37.582  1.00  0.00     0.022 A 
BRANCH  85  89
ATOM     89  S   UNL A   1      43.622  26.804  37.402  1.00  0.00     0.124 S 
ATOM     90  O   UNL A   1      42.167  26.712  37.367  1.00  0.00    -0.237 OA
ATOM     91  O   UNL A   1      44.346  26.051  36.386  1.00  0.00    -0.237 OA
ATOM     92  O   UNL A   1      44.207  26.736  38.743  1.00  0.00    -0.744 OA
ENDBRANCH  85  89
ENDBRANCH  58  82
BRANCH  70  93
ATOM     93  C   UNL A   1      42.689  34.384  30.496  1.00  0.00     0.023 A 
ATOM     94  C   UNL A   1      43.125  33.499  29.479  1.00  0.00     0.031 A 
ATOM     95  C   UNL A   1      43.420  35.573  30.675  1.00  0.00     0.131 A 
ATOM     96  C   UNL A   1      44.257  33.821  28.699  1.00  0.00     0.055 A 
ATOM     97  C   UNL A   1      44.521  35.899  29.885  1.00  0.00     0.041 A 
ATOM     98  F   UNL A   1      43.047  36.465  31.607  1.00  0.00    -0.206 F 
ATOM     99  C   UNL A   1      44.948  35.021  28.897  1.00  0.00     0.022 A 
BRANCH  96 100
ATOM    100  S   UNL A   1      44.875  32.675  27.420  1.00  0.00     0.124 S 
ATOM    101  O   UNL A   1      46.279  32.497  27.769  1.00  0.00    -0.237 OA
ATOM    102  O   UNL A   1      44.019  31.505  27.599  1.00  0.00    -0.237 OA
ATOM    103  O   UNL A   1      44.648  33.404  26.169  1.00  0.00    -0.744 OA
ENDBRANCH  96 100
ENDBRANCH  70  93
ENDBRANCH  44  45
ENDBRANCH  36  39
ENDBRANCH  34  35
ENDBRANCH   1  34
TORSDOF 17
ENDMDL
MODEL 3
REMARK VINA RESULT:     -11.6      4.727      6.073
REMARK SMILES COC(=O)c1ccc([C@H]2CC(=O)Nc3c(C(=O)NCCCNC(=O)c4ccc(-c5c6nc(c(-c7cc(S(=O)(=O)[O-])ccc7F)c7ccc([nH]7)c(-c7cc(S(=O)(=O)[O-])ccc7F)c7nc(c(-c8cc(S(=O)(=O)[O-])ccc8F)c8ccc5[nH]8)C=C7)C=C6)cc4)cn(-c4ccccc4)c32)cc1
REMARK SMILES IDX 20 1 19 2 18 3 16 4 17 5 15 7 9 8 10 9 96 10 11 11 14 12
REMARK SMILES IDX 89 13 12 14 13 15 88 16 8 18 5 19 6 20 98 21 7 22 97 23 3 24
REMARK SMILES IDX 4 25 2 26 1 27 90 28 91 29 95 30 92 31 94 32 93 33 21 34
REMARK SMILES IDX 22 35 23 36 24 38 25 39 26 40 87 41 27 42 86 43 28 44 29 45
REMARK SMILES IDX 30 46 80 47 31 48 85 49 79 50 81 51 32 52 84 53 78 54 77 55
REMARK SMILES IDX 33 57 65 58 45 59 64 60 46 61 49 62 63 63 82 64 47 65 48 66
REMARK SMILES IDX 62 68 83 69 50 70 34 71 35 72 43 73 36 74 42 75 44 76 41 77
REMARK SMILES IDX 37 78 38 79 39 80 40 81 66 82 67 83 75 84 68 85 74 86 76 87
REMARK SMILES IDX 73 88 69 89 70 90 71 91 72 92 51 93 52 94 60 95 53 96 59 97
REMARK SMILES IDX 61 98 58 99 54 100 55 101 56 102 57 103
REMARK H PARENT 18 6 13 17 22 37 81 56 49 67
REMARK Flexibility Score: inf
ROOT
ATOM      1  C   UNL A   1      38.911  22.888  26.607  1.00  0.00     0.042 C 
ENDROOT
BRANCH   1   2
ATOM      2  C   UNL A   1      37.656  23.506  25.969  1.00  0.00     0.118 C 
BRANCH   2   3
ATOM      3  N   UNL A   1      37.491  23.137  24.582  1.00  0.00    -0.352 N 
ATOM      4  C   UNL A   1      36.491  23.292  23.659  1.00  0.00     0.254 C 
ATOM      5  O   UNL A   1      36.793  22.941  22.514  1.00  0.00    -0.269 OA
ATOM      6  H   UNL A   1      38.276  22.669  24.217  1.00  0.00     0.163 HD
BRANCH   4   7
ATOM      7  C   UNL A   1      35.137  23.805  23.932  1.00  0.00     0.081 A 
ATOM      8  C   UNL A   1      31.430  24.387  23.933  1.00  0.00     0.078 C 
ATOM      9  C   UNL A   1      31.068  23.326  22.872  1.00  0.00     0.115 C 
ATOM     10  C   UNL A   1      32.928  24.415  24.121  1.00  0.00     0.055 A 
ATOM     11  C   UNL A   1      31.911  22.091  22.926  1.00  0.00     0.225 C 
ATOM     12  C   UNL A   1      33.784  23.405  23.715  1.00  0.00     0.076 A 
ATOM     13  N   UNL A   1      33.688  25.335  24.813  1.00  0.00    -0.317 N 
ATOM     14  O   UNL A   1      31.480  20.989  22.589  1.00  0.00    -0.275 OA
ATOM     15  N   UNL A   1      33.224  22.249  23.240  1.00  0.00    -0.324 N 
ATOM     16  C   UNL A   1      35.008  25.044  24.567  1.00  0.00     0.107 A 
ATOM     17  H   UNL A   1      33.818  21.474  23.117  1.00  0.00     0.170 HD
BRANCH   8  18
ATOM     18  C   UNL A   1      30.706  25.657  23.474  1.00  0.00    -0.038 A 
ATOM     19  C   UNL A   1      29.727  28.197  22.715  1.00  0.00     0.060 A 
ATOM     20  C   UNL A   1      30.832  27.649  22.063  1.00  0.00     0.016 A 
ATOM     21  C   UNL A   1      29.090  27.466  23.723  1.00  0.00     0.016 A 
ATOM     22  C   UNL A   1      31.296  26.387  22.421  1.00  0.00     0.005 A 
ATOM     23  C   UNL A   1      29.593  26.218  24.117  1.00  0.00     0.005 A 
BRANCH  19  24
ATOM     24  C   UNL A   1      29.301  29.559  22.304  1.00  0.00     0.337 C 
ATOM     25  O   UNL A   1      29.604  30.064  21.241  1.00  0.00    -0.246 OA
BRANCH  24  26
ATOM     26  O   UNL A   1      28.591  30.156  23.298  1.00  0.00    -0.465 OA
ATOM     27  C   UNL A   1      27.588  31.050  22.815  1.00  0.00     0.282 C 
ENDBRANCH  24  26
ENDBRANCH  19  24
ENDBRANCH   8  18
BRANCH  13  28
ATOM     28  C   UNL A   1      33.233  26.400  25.624  1.00  0.00     0.045 A 
ATOM     29  C   UNL A   1      32.273  26.163  26.614  1.00  0.00     0.026 A 
ATOM     30  C   UNL A   1      33.713  27.696  25.396  1.00  0.00     0.026 A 
ATOM     31  C   UNL A   1      31.744  27.232  27.333  1.00  0.00     0.002 A 
ATOM     32  C   UNL A   1      33.150  28.763  26.095  1.00  0.00     0.002 A 
ATOM     33  C   UNL A   1      32.162  28.533  27.054  1.00  0.00     0.000 A 
ENDBRANCH  13  28
ENDBRANCH   4   7
ENDBRANCH   2   3
ENDBRANCH   1   2
BRANCH   1  34
ATOM     34  C   UNL A   1      39.762  23.921  27.316  1.00  0.00     0.118 C 
BRANCH  34  35
ATOM     35  N   UNL A   1      40.658  24.611  26.375  1.00  0.00    -0.352 N 
ATOM     36  C   UNL A   1      40.919  25.965  26.264  1.00  0.00     0.251 C 
ATOM     37  H   UNL A   1      41.137  24.032  25.740  1.00  0.00     0.163 HD
ATOM     38  O   UNL A   1      41.366  26.431  25.223  1.00  0.00    -0.269 OA
BRANCH  36  39
ATOM     39  C   UNL A   1      40.633  26.820  27.426  1.00  0.00     0.039 A 
ATOM     40  C   UNL A   1      41.026  26.478  28.720  1.00  0.00     0.014 A 
ATOM     41  C   UNL A   1      40.050  28.051  27.157  1.00  0.00     0.014 A 
ATOM     42  C   UNL A   1      40.912  27.444  29.718  1.00  0.00     0.010 A 
ATOM     43  C   UNL A   1      40.187  29.060  28.066  1.00  0.00     0.010 A 
ATOM     44  C   UNL A   1      40.523  28.753  29.372  1.00  0.00    -0.014 A 
BRANCH  44  45
ATOM     45  C   UNL A   1      40.572  29.855  30.326  1.00  0.00     0.031 A 
ATOM     46  C   UNL A   1      39.245  30.454  30.608  1.00  0.00     0.074 A 
ATOM     47  C   UNL A   1      41.677  30.188  31.034  1.00  0.00     0.049 A 
ATOM     48  N   UNL A   1      38.793  31.573  30.150  1.00  0.00    -0.248 NA
ATOM     49  C   UNL A   1      38.225  29.643  31.291  1.00  0.00     0.031 C 
ATOM     50  C   UNL A   1      42.985  29.522  31.078  1.00  0.00     0.029 A 
ATOM     51  N   UNL A   1      41.833  31.179  31.953  1.00  0.00    -0.354 N 
ATOM     52  C   UNL A   1      37.536  31.739  30.714  1.00  0.00     0.074 A 
ATOM     53  C   UNL A   1      37.156  30.439  31.201  1.00  0.00     0.031 C 
ATOM     54  C   UNL A   1      43.703  29.978  32.129  1.00  0.00     0.029 A 
ATOM     55  C   UNL A   1      42.994  31.097  32.721  1.00  0.00     0.049 A 
ATOM     56  H   UNL A   1      41.174  31.901  32.067  1.00  0.00     0.167 HD
ATOM     57  C   UNL A   1      37.048  32.988  30.954  1.00  0.00     0.034 A 
ATOM     58  C   UNL A   1      43.361  31.901  33.759  1.00  0.00     0.034 A 
ATOM     59  C   UNL A   1      37.832  33.982  30.247  1.00  0.00     0.049 A 
ATOM     60  C   UNL A   1      42.614  33.172  33.574  1.00  0.00     0.074 A 
ATOM     61  C   UNL A   1      38.137  34.203  28.917  1.00  0.00     0.029 A 
ATOM     62  N   UNL A   1      38.787  34.675  30.963  1.00  0.00    -0.354 N 
ATOM     63  N   UNL A   1      42.813  33.966  32.556  1.00  0.00    -0.248 NA
ATOM     64  C   UNL A   1      41.306  33.288  34.201  1.00  0.00     0.031 C 
ATOM     65  C   UNL A   1      39.520  34.557  28.915  1.00  0.00     0.029 A 
ATOM     66  C   UNL A   1      39.956  34.642  30.240  1.00  0.00     0.049 A 
ATOM     67  H   UNL A   1      38.655  35.114  31.833  1.00  0.00     0.167 HD
ATOM     68  C   UNL A   1      41.544  34.340  32.139  1.00  0.00     0.074 A 
ATOM     69  C   UNL A   1      40.660  33.963  33.245  1.00  0.00     0.031 C 
ATOM     70  C   UNL A   1      41.285  34.647  30.832  1.00  0.00     0.034 A 
BRANCH  57  71
ATOM     71  C   UNL A   1      36.139  33.362  32.104  1.00  0.00     0.023 A 
ATOM     72  C   UNL A   1      35.026  34.167  31.796  1.00  0.00     0.031 A 
ATOM     73  C   UNL A   1      36.441  33.233  33.478  1.00  0.00     0.131 A 
ATOM     74  C   UNL A   1      34.357  34.890  32.797  1.00  0.00     0.055 A 
ATOM     75  C   UNL A   1      35.729  33.903  34.478  1.00  0.00     0.041 A 
ATOM     76  F   UNL A   1      37.486  32.536  33.933  1.00  0.00    -0.206 F 
ATOM     77  C   UNL A   1      34.703  34.767  34.139  1.00  0.00     0.022 A 
BRANCH  74  78
ATOM     78  S   UNL A   1      33.150  36.139  32.285  1.00  0.00     0.124 S 
ATOM     79  O   UNL A   1      33.979  37.038  31.491  1.00  0.00    -0.237 OA
ATOM     80  O   UNL A   1      32.181  35.334  31.549  1.00  0.00    -0.237 OA
ATOM     81  O   UNL A   1      32.672  36.685  33.553  1.00  0.00    -0.744 OA
ENDBRANCH  74  78
ENDBRANCH  57  71
BRANCH  58  82
ATOM     82  C   UNL A   1      44.000  31.493  35.048  1.00  0.00     0.023 A 
ATOM     83  C   UNL A   1      45.235  32.010  35.508  1.00  0.00     0.031 A 
ATOM     84  C   UNL A   1      43.244  30.752  35.983  1.00  0.00     0.131 A 
ATOM     85  C   UNL A   1      45.655  31.782  36.844  1.00  0.00     0.055 A 
ATOM     86  C   UNL A   1      43.659  30.536  37.300  1.00  0.00     0.041 A 
ATOM     87  F   UNL A   1      42.025  30.282  35.672  1.00  0.00    -0.206 F 
ATOM     88  C   UNL A   1      44.863  31.060  37.740  1.00  0.00     0.022 A 
BRANCH  85  89
ATOM     89  S   UNL A   1      47.217  32.489  37.476  1.00  0.00     0.124 S 
ATOM     90  O   UNL A   1      47.028  32.421  38.920  1.00  0.00    -0.237 OA
ATOM     91  O   UNL A   1      48.220  31.596  36.909  1.00  0.00    -0.237 OA
ATOM     92  O   UNL A   1      47.227  33.846  36.924  1.00  0.00    -0.744 OA
ENDBRANCH  85  89
ENDBRANCH  58  82
BRANCH  70  93
ATOM     93  C   UNL A   1      42.459  34.835  29.884  1.00  0.00     0.023 A 
ATOM     94  C   UNL A   1      43.163  36.047  29.675  1.00  0.00     0.031 A 
ATOM     95  C   UNL A   1      42.956  33.681  29.251  1.00  0.00     0.131 A 
ATOM     96  C   UNL A   1      44.310  36.065  28.852  1.00  0.00     0.055 A 
ATOM     97  C   UNL A   1      44.103  33.699  28.460  1.00  0.00     0.041 A 
ATOM     98  F   UNL A   1      42.348  32.496  29.425  1.00  0.00    -0.206 F 
ATOM     99  C   UNL A   1      44.783  34.893  28.252  1.00  0.00     0.022 A 
BRANCH  96 100
ATOM    100  S   UNL A   1      45.204  37.621  28.519  1.00  0.00     0.124 S 
ATOM    101  O   UNL A   1      44.507  38.177  27.367  1.00  0.00    -0.237 OA
ATOM    102  O   UNL A   1      45.050  38.353  29.774  1.00  0.00    -0.237 OA
ATOM    103  O   UNL A   1      46.573  37.176  28.244  1.00  0.00    -0.744 OA
ENDBRANCH  96 100
ENDBRANCH  70  93
ENDBRANCH  44  45
ENDBRANCH  36  39
ENDBRANCH  34  35
ENDBRANCH   1  34
TORSDOF 17
ENDMDL
