MODEL 1
REMARK VINA RESULT:     -11.0      0.000      0.000
REMARK SMILES CCC(CC)(NC(=O)N(CC(F)(F)F)C(C)C)C(=O)NCCCNC(=O)c1ccc(-c2c3nc(c(-c4cc(S(=O)(=O)[O-])ccc4F)c4ccc([nH]4)c(-c4cc(S(=O)(=O)[O-])ccc4F)c4nc(c(-c5cc(S(=O)(=O)[O-])ccc5F)c5ccc2[nH]5)C=C4)C=C3)cc1
REMARK SMILES IDX 21 1 20 2 18 3 19 4 3 6 2 7 1 8 4 9 5 10 6 11 7 12 8 14 9 15
REMARK SMILES IDX 10 16 11 17 12 18 13 19 14 20 15 21 16 22 17 23 22 24 23 25
REMARK SMILES IDX 24 26 25 27 26 29 27 30 28 31 89 32 29 33 88 34 30 35 31 36
REMARK SMILES IDX 32 37 82 38 33 39 87 40 81 41 83 42 34 43 86 44 80 45 79 46
REMARK SMILES IDX 35 48 67 49 47 50 66 51 48 52 51 53 65 54 84 55 49 56 50 57
REMARK SMILES IDX 64 59 85 60 52 61 36 62 37 63 45 64 38 65 44 66 46 67 43 68
REMARK SMILES IDX 39 69 40 70 41 71 42 72 68 73 69 74 77 75 70 76 76 77 78 78
REMARK SMILES IDX 75 79 71 80 72 81 73 82 74 83 53 84 54 85 62 86 55 87 61 88
REMARK SMILES IDX 63 89 60 90 56 91 57 92 58 93 59 94
REMARK H PARENT 20 5 6 13 24 28 83 47 51 58
REMARK Flexibility Score: inf
ROOT
ATOM      1  C   UNL A   1      31.555  30.559  25.850  1.00  0.00     0.117 C 
ENDROOT
BRANCH   1   2
ATOM      2  N   UNL A   1      30.831  30.510  24.587  1.00  0.00    -0.354 N 
ATOM      3  C   UNL A   1      30.494  29.508  23.717  1.00  0.00     0.245 C 
ATOM      4  O   UNL A   1      29.610  29.778  22.896  1.00  0.00    -0.272 OA
ATOM      5  H   UNL A   1      30.512  31.394  24.294  1.00  0.00     0.163 HD
BRANCH   3   6
ATOM      6  C   UNL A   1      31.121  28.085  23.769  1.00  0.00     0.120 C 
BRANCH   6   7
ATOM      7  C   UNL A   1      32.502  27.908  23.056  1.00  0.00     0.035 C 
ATOM      8  C   UNL A   1      33.730  28.525  23.715  1.00  0.00     0.007 C 
ENDBRANCH   6   7
BRANCH   6   9
ATOM      9  C   UNL A   1      30.074  27.149  23.065  1.00  0.00     0.035 C 
ATOM     10  C   UNL A   1      28.826  26.771  23.855  1.00  0.00     0.007 C 
ENDBRANCH   6   9
BRANCH   6  11
ATOM     11  N   UNL A   1      31.318  27.714  25.193  1.00  0.00    -0.323 N 
ATOM     12  C   UNL A   1      31.455  26.613  25.957  1.00  0.00     0.318 C 
ATOM     13  H   UNL A   1      31.362  28.523  25.752  1.00  0.00     0.166 HD
ATOM     14  O   UNL A   1      31.199  26.837  27.144  1.00  0.00    -0.249 OA
BRANCH  12  15
ATOM     15  N   UNL A   1      31.940  25.396  25.540  1.00  0.00    -0.313 N 
BRANCH  15  16
ATOM     16  C   UNL A   1      31.134  24.236  25.060  1.00  0.00     0.237 C 
BRANCH  16  17
ATOM     17  C   UNL A   1      31.180  23.809  23.577  1.00  0.00     0.406 C 
ATOM     18  F   UNL A   1      31.995  24.594  22.840  1.00  0.00    -0.169 F 
ATOM     19  F   UNL A   1      31.671  22.547  23.480  1.00  0.00    -0.169 F 
ATOM     20  F   UNL A   1      29.974  23.809  22.976  1.00  0.00    -0.169 F 
ENDBRANCH  16  17
ENDBRANCH  15  16
BRANCH  15  21
ATOM     21  C   UNL A   1      33.337  25.029  25.945  1.00  0.00     0.081 C 
ATOM     22  C   UNL A   1      33.550  23.605  26.482  1.00  0.00     0.031 C 
ATOM     23  C   UNL A   1      34.356  25.303  24.836  1.00  0.00     0.031 C 
ENDBRANCH  15  21
ENDBRANCH  12  15
ENDBRANCH   6  11
ENDBRANCH   3   6
ENDBRANCH   1   2
BRANCH   1  24
ATOM     24  C   UNL A   1      31.428  31.824  26.689  1.00  0.00     0.042 C 
BRANCH  24  25
ATOM     25  C   UNL A   1      32.704  32.460  27.214  1.00  0.00     0.118 C 
BRANCH  25  26
ATOM     26  N   UNL A   1      32.569  33.846  27.615  1.00  0.00    -0.352 N 
ATOM     27  C   UNL A   1      33.325  34.535  28.537  1.00  0.00     0.251 C 
ATOM     28  H   UNL A   1      31.851  34.355  27.174  1.00  0.00     0.163 HD
ATOM     29  O   UNL A   1      33.020  35.685  28.837  1.00  0.00    -0.269 OA
BRANCH  27  30
ATOM     30  C   UNL A   1      34.477  33.871  29.198  1.00  0.00     0.039 A 
ATOM     31  C   UNL A   1      35.771  34.205  28.788  1.00  0.00     0.014 A 
ATOM     32  C   UNL A   1      34.289  32.932  30.219  1.00  0.00     0.014 A 
ATOM     33  C   UNL A   1      36.876  33.643  29.436  1.00  0.00     0.010 A 
ATOM     34  C   UNL A   1      35.396  32.406  30.894  1.00  0.00     0.010 A 
ATOM     35  C   UNL A   1      36.702  32.758  30.513  1.00  0.00    -0.014 A 
BRANCH  35  36
ATOM     36  C   UNL A   1      37.872  32.184  31.239  1.00  0.00     0.031 A 
ATOM     37  C   UNL A   1      38.668  31.061  30.627  1.00  0.00     0.074 A 
ATOM     38  C   UNL A   1      38.199  32.636  32.467  1.00  0.00     0.049 A 
ATOM     39  N   UNL A   1      39.655  30.369  31.138  1.00  0.00    -0.248 NA
ATOM     40  C   UNL A   1      38.286  30.655  29.267  1.00  0.00     0.031 C 
ATOM     41  C   UNL A   1      37.514  33.716  33.179  1.00  0.00     0.029 A 
ATOM     42  N   UNL A   1      39.183  32.237  33.340  1.00  0.00    -0.354 N 
ATOM     43  C   UNL A   1      40.008  29.437  30.167  1.00  0.00     0.074 A 
ATOM     44  C   UNL A   1      39.093  29.624  29.059  1.00  0.00     0.031 C 
ATOM     45  C   UNL A   1      38.101  33.897  34.373  1.00  0.00     0.029 A 
ATOM     46  C   UNL A   1      39.174  32.917  34.537  1.00  0.00     0.049 A 
ATOM     47  H   UNL A   1      39.834  31.529  33.129  1.00  0.00     0.167 HD
ATOM     48  C   UNL A   1      41.010  28.521  30.191  1.00  0.00     0.034 A 
ATOM     49  C   UNL A   1      39.922  32.759  35.649  1.00  0.00     0.034 A 
ATOM     50  C   UNL A   1      41.920  28.342  31.297  1.00  0.00     0.049 A 
ATOM     51  C   UNL A   1      40.992  31.693  35.676  1.00  0.00     0.074 A 
ATOM     52  C   UNL A   1      42.988  27.467  31.400  1.00  0.00     0.029 A 
ATOM     53  N   UNL A   1      41.867  29.042  32.495  1.00  0.00    -0.354 N 
ATOM     54  N   UNL A   1      41.327  30.834  34.741  1.00  0.00    -0.248 NA
ATOM     55  C   UNL A   1      41.788  31.578  36.907  1.00  0.00     0.031 C 
ATOM     56  C   UNL A   1      43.534  27.585  32.682  1.00  0.00     0.029 A 
ATOM     57  C   UNL A   1      42.863  28.595  33.353  1.00  0.00     0.049 A 
ATOM     58  H   UNL A   1      41.218  29.751  32.706  1.00  0.00     0.167 HD
ATOM     59  C   UNL A   1      42.401  30.113  35.255  1.00  0.00     0.074 A 
ATOM     60  C   UNL A   1      42.657  30.631  36.582  1.00  0.00     0.031 C 
ATOM     61  C   UNL A   1      43.118  29.118  34.674  1.00  0.00     0.034 A 
BRANCH  48  62
ATOM     62  C   UNL A   1      41.148  27.613  28.991  1.00  0.00     0.023 A 
ATOM     63  C   UNL A   1      42.146  27.815  28.021  1.00  0.00     0.031 A 
ATOM     64  C   UNL A   1      40.260  26.537  28.807  1.00  0.00     0.131 A 
ATOM     65  C   UNL A   1      42.185  27.003  26.878  1.00  0.00     0.055 A 
ATOM     66  C   UNL A   1      40.357  25.681  27.708  1.00  0.00     0.041 A 
ATOM     67  F   UNL A   1      39.276  26.304  29.689  1.00  0.00    -0.206 F 
ATOM     68  C   UNL A   1      41.314  25.922  26.726  1.00  0.00     0.022 A 
BRANCH  65  69
ATOM     69  S   UNL A   1      43.295  27.471  25.522  1.00  0.00     0.124 S 
ATOM     70  O   UNL A   1      42.355  28.022  24.548  1.00  0.00    -0.237 OA
ATOM     71  O   UNL A   1      44.187  28.431  26.162  1.00  0.00    -0.237 OA
ATOM     72  O   UNL A   1      43.914  26.207  25.132  1.00  0.00    -0.744 OA
ENDBRANCH  65  69
ENDBRANCH  48  62
BRANCH  49  73
ATOM     73  C   UNL A   1      39.675  33.608  36.851  1.00  0.00     0.023 A 
ATOM     74  C   UNL A   1      39.019  33.093  37.982  1.00  0.00     0.031 A 
ATOM     75  C   UNL A   1      40.045  34.964  36.865  1.00  0.00     0.131 A 
ATOM     76  C   UNL A   1      38.712  33.941  39.058  1.00  0.00     0.055 A 
ATOM     77  C   UNL A   1      39.788  35.790  37.961  1.00  0.00     0.041 A 
ATOM     78  F   UNL A   1      40.674  35.507  35.810  1.00  0.00    -0.206 F 
ATOM     79  C   UNL A   1      39.103  35.281  39.061  1.00  0.00     0.022 A 
BRANCH  76  80
ATOM     80  S   UNL A   1      37.706  33.287  40.419  1.00  0.00     0.124 S 
ATOM     81  O   UNL A   1      37.357  34.505  41.141  1.00  0.00    -0.237 OA
ATOM     82  O   UNL A   1      36.618  32.630  39.703  1.00  0.00    -0.237 OA
ATOM     83  O   UNL A   1      38.623  32.388  41.116  1.00  0.00    -0.744 OA
ENDBRANCH  76  80
ENDBRANCH  49  73
BRANCH  61  84
ATOM     84  C   UNL A   1      44.302  28.571  35.437  1.00  0.00     0.023 A 
ATOM     85  C   UNL A   1      44.170  27.562  36.406  1.00  0.00     0.031 A 
ATOM     86  C   UNL A   1      45.592  29.065  35.167  1.00  0.00     0.131 A 
ATOM     87  C   UNL A   1      45.304  27.105  37.097  1.00  0.00     0.055 A 
ATOM     88  C   UNL A   1      46.722  28.570  35.820  1.00  0.00     0.041 A 
ATOM     89  F   UNL A   1      45.777  30.031  34.253  1.00  0.00    -0.206 F 
ATOM     90  C   UNL A   1      46.581  27.590  36.798  1.00  0.00     0.022 A 
BRANCH  87  91
ATOM     91  S   UNL A   1      45.087  25.906  38.443  1.00  0.00     0.124 S 
ATOM     92  O   UNL A   1      46.456  25.733  38.919  1.00  0.00    -0.237 OA
ATOM     93  O   UNL A   1      44.182  26.608  39.345  1.00  0.00    -0.237 OA
ATOM     94  O   UNL A   1      44.511  24.740  37.775  1.00  0.00    -0.744 OA
ENDBRANCH  87  91
ENDBRANCH  61  84
ENDBRANCH  35  36
ENDBRANCH  27  30
ENDBRANCH  25  26
ENDBRANCH  24  25
ENDBRANCH   1  24
TORSDOF 20
ENDMDL
MODEL 2
REMARK VINA RESULT:     -10.8      1.629      7.730
REMARK SMILES CCC(CC)(NC(=O)N(CC(F)(F)F)C(C)C)C(=O)NCCCNC(=O)c1ccc(-c2c3nc(c(-c4cc(S(=O)(=O)[O-])ccc4F)c4ccc([nH]4)c(-c4cc(S(=O)(=O)[O-])ccc4F)c4nc(c(-c5cc(S(=O)(=O)[O-])ccc5F)c5ccc2[nH]5)C=C4)C=C3)cc1
REMARK SMILES IDX 21 1 20 2 18 3 19 4 3 6 2 7 1 8 4 9 5 10 6 11 7 12 8 14 9 15
REMARK SMILES IDX 10 16 11 17 12 18 13 19 14 20 15 21 16 22 17 23 22 24 23 25
REMARK SMILES IDX 24 26 25 27 26 29 27 30 28 31 89 32 29 33 88 34 30 35 31 36
REMARK SMILES IDX 32 37 82 38 33 39 87 40 81 41 83 42 34 43 86 44 80 45 79 46
REMARK SMILES IDX 35 48 67 49 47 50 66 51 48 52 51 53 65 54 84 55 49 56 50 57
REMARK SMILES IDX 64 59 85 60 52 61 36 62 37 63 45 64 38 65 44 66 46 67 43 68
REMARK SMILES IDX 39 69 40 70 41 71 42 72 68 73 69 74 77 75 70 76 76 77 78 78
REMARK SMILES IDX 75 79 71 80 72 81 73 82 74 83 53 84 54 85 62 86 55 87 61 88
REMARK SMILES IDX 63 89 60 90 56 91 57 92 58 93 59 94
REMARK H PARENT 20 5 6 13 24 28 83 47 51 58
REMARK Flexibility Score: inf
ROOT
ATOM      1  C   UNL A   1      31.288  30.746  25.716  1.00  0.00     0.117 C 
ENDROOT
BRANCH   1   2
ATOM      2  N   UNL A   1      30.512  30.688  24.484  1.00  0.00    -0.354 N 
ATOM      3  C   UNL A   1      30.147  29.682  23.631  1.00  0.00     0.245 C 
ATOM      4  O   UNL A   1      29.227  29.942  22.847  1.00  0.00    -0.272 OA
ATOM      5  H   UNL A   1      30.173  31.569  24.203  1.00  0.00     0.163 HD
BRANCH   3   6
ATOM      6  C   UNL A   1      30.788  28.265  23.659  1.00  0.00     0.120 C 
BRANCH   6   7
ATOM      7  C   UNL A   1      32.134  28.095  22.882  1.00  0.00     0.035 C 
ATOM      8  C   UNL A   1      33.338  28.904  23.354  1.00  0.00     0.007 C 
ENDBRANCH   6   7
BRANCH   6   9
ATOM      9  C   UNL A   1      29.717  27.316  23.010  1.00  0.00     0.035 C 
ATOM     10  C   UNL A   1      28.547  26.875  23.882  1.00  0.00     0.007 C 
ENDBRANCH   6   9
BRANCH   6  11
ATOM     11  N   UNL A   1      31.055  27.902  25.074  1.00  0.00    -0.323 N 
ATOM     12  C   UNL A   1      31.266  26.807  25.830  1.00  0.00     0.318 C 
ATOM     13  H   UNL A   1      31.088  28.712  25.632  1.00  0.00     0.166 HD
ATOM     14  O   UNL A   1      31.048  27.021  27.027  1.00  0.00    -0.249 OA
BRANCH  12  15
ATOM     15  N   UNL A   1      31.783  25.610  25.393  1.00  0.00    -0.313 N 
BRANCH  15  16
ATOM     16  C   UNL A   1      31.009  24.443  24.879  1.00  0.00     0.237 C 
BRANCH  16  17
ATOM     17  C   UNL A   1      31.223  23.933  23.438  1.00  0.00     0.406 C 
ATOM     18  F   UNL A   1      32.106  22.912  23.379  1.00  0.00    -0.169 F 
ATOM     19  F   UNL A   1      30.052  23.456  22.944  1.00  0.00    -0.169 F 
ATOM     20  F   UNL A   1      31.651  24.882  22.585  1.00  0.00    -0.169 F 
ENDBRANCH  16  17
ENDBRANCH  15  16
BRANCH  15  21
ATOM     21  C   UNL A   1      33.184  25.267  25.805  1.00  0.00     0.081 C 
ATOM     22  C   UNL A   1      33.413  23.854  26.366  1.00  0.00     0.031 C 
ATOM     23  C   UNL A   1      34.201  25.535  24.693  1.00  0.00     0.031 C 
ENDBRANCH  15  21
ENDBRANCH  12  15
ENDBRANCH   6  11
ENDBRANCH   3   6
ENDBRANCH   1   2
BRANCH   1  24
ATOM     24  C   UNL A   1      31.343  32.077  26.454  1.00  0.00     0.042 C 
BRANCH  24  25
ATOM     25  C   UNL A   1      32.594  32.394  27.256  1.00  0.00     0.118 C 
BRANCH  25  26
ATOM     26  N   UNL A   1      32.754  33.793  27.600  1.00  0.00    -0.352 N 
ATOM     27  C   UNL A   1      33.729  34.361  28.389  1.00  0.00     0.251 C 
ATOM     28  H   UNL A   1      32.085  34.410  27.224  1.00  0.00     0.163 HD
ATOM     29  O   UNL A   1      33.670  35.556  28.665  1.00  0.00    -0.269 OA
BRANCH  27  30
ATOM     30  C   UNL A   1      34.823  33.521  28.939  1.00  0.00     0.039 A 
ATOM     31  C   UNL A   1      36.140  33.806  28.569  1.00  0.00     0.014 A 
ATOM     32  C   UNL A   1      34.558  32.466  29.819  1.00  0.00     0.014 A 
ATOM     33  C   UNL A   1      37.195  33.071  29.121  1.00  0.00     0.010 A 
ATOM     34  C   UNL A   1      35.617  31.763  30.403  1.00  0.00     0.010 A 
ATOM     35  C   UNL A   1      36.948  32.060  30.064  1.00  0.00    -0.014 A 
BRANCH  35  36
ATOM     36  C   UNL A   1      38.067  31.298  30.692  1.00  0.00     0.031 A 
ATOM     37  C   UNL A   1      38.524  31.635  32.086  1.00  0.00     0.074 A 
ATOM     38  C   UNL A   1      38.706  30.333  30.000  1.00  0.00     0.049 A 
ATOM     39  N   UNL A   1      39.534  31.156  32.767  1.00  0.00    -0.248 NA
ATOM     40  C   UNL A   1      37.750  32.662  32.798  1.00  0.00     0.031 C 
ATOM     41  C   UNL A   1      38.369  29.906  28.641  1.00  0.00     0.029 A 
ATOM     42  N   UNL A   1      39.780  29.543  30.338  1.00  0.00    -0.354 N 
ATOM     43  C   UNL A   1      39.526  31.828  33.985  1.00  0.00     0.074 A 
ATOM     44  C   UNL A   1      38.438  32.783  33.925  1.00  0.00     0.031 C 
ATOM     45  C   UNL A   1      39.212  28.930  28.265  1.00  0.00     0.029 A 
ATOM     46  C   UNL A   1      40.182  28.692  29.333  1.00  0.00     0.049 A 
ATOM     47  H   UNL A   1      40.220  29.584  31.217  1.00  0.00     0.167 HD
ATOM     48  C   UNL A   1      40.339  31.656  35.059  1.00  0.00     0.034 A 
ATOM     49  C   UNL A   1      41.223  27.837  29.265  1.00  0.00     0.034 A 
ATOM     50  C   UNL A   1      41.418  30.700  35.114  1.00  0.00     0.049 A 
ATOM     51  C   UNL A   1      42.151  27.704  30.450  1.00  0.00     0.074 A 
ATOM     52  C   UNL A   1      42.274  30.425  36.168  1.00  0.00     0.029 A 
ATOM     53  N   UNL A   1      41.801  29.867  34.070  1.00  0.00    -0.354 N 
ATOM     54  N   UNL A   1      42.115  28.332  31.602  1.00  0.00    -0.248 NA
ATOM     55  C   UNL A   1      43.257  26.743  30.326  1.00  0.00     0.031 C 
ATOM     56  C   UNL A   1      43.215  29.483  35.741  1.00  0.00     0.029 A 
ATOM     57  C   UNL A   1      42.898  29.104  34.447  1.00  0.00     0.049 A 
ATOM     58  H   UNL A   1      41.360  29.824  33.192  1.00  0.00     0.167 HD
ATOM     59  C   UNL A   1      43.164  27.807  32.353  1.00  0.00     0.074 A 
ATOM     60  C   UNL A   1      43.816  26.815  31.526  1.00  0.00     0.031 C 
ATOM     61  C   UNL A   1      43.543  28.112  33.620  1.00  0.00     0.034 A 
BRANCH  48  62
ATOM     62  C   UNL A   1      40.111  32.553  36.253  1.00  0.00     0.023 A 
ATOM     63  C   UNL A   1      39.211  32.207  37.277  1.00  0.00     0.031 A 
ATOM     64  C   UNL A   1      40.792  33.779  36.363  1.00  0.00     0.131 A 
ATOM     65  C   UNL A   1      38.963  33.107  38.324  1.00  0.00     0.055 A 
ATOM     66  C   UNL A   1      40.602  34.633  37.451  1.00  0.00     0.041 A 
ATOM     67  F   UNL A   1      41.649  34.172  35.408  1.00  0.00    -0.206 F 
ATOM     68  C   UNL A   1      39.670  34.307  38.432  1.00  0.00     0.022 A 
BRANCH  65  69
ATOM     69  S   UNL A   1      37.595  32.755  39.462  1.00  0.00     0.124 S 
ATOM     70  O   UNL A   1      36.448  32.770  38.557  1.00  0.00    -0.237 OA
ATOM     71  O   UNL A   1      37.963  31.453  40.004  1.00  0.00    -0.237 OA
ATOM     72  O   UNL A   1      37.644  33.864  40.412  1.00  0.00    -0.744 OA
ENDBRANCH  65  69
ENDBRANCH  48  62
BRANCH  49  73
ATOM     73  C   UNL A   1      41.473  27.050  28.022  1.00  0.00     0.023 A 
ATOM     74  C   UNL A   1      41.075  25.707  27.920  1.00  0.00     0.031 A 
ATOM     75  C   UNL A   1      42.164  27.617  26.936  1.00  0.00     0.131 A 
ATOM     76  C   UNL A   1      41.413  24.963  26.778  1.00  0.00     0.055 A 
ATOM     77  C   UNL A   1      42.447  26.889  25.779  1.00  0.00     0.041 A 
ATOM     78  F   UNL A   1      42.569  28.897  26.982  1.00  0.00    -0.206 F 
ATOM     79  C   UNL A   1      42.084  25.548  25.702  1.00  0.00     0.022 A 
BRANCH  76  80
ATOM     80  S   UNL A   1      41.043  23.187  26.758  1.00  0.00     0.124 S 
ATOM     81  O   UNL A   1      41.475  22.779  28.089  1.00  0.00    -0.237 OA
ATOM     82  O   UNL A   1      39.603  23.180  26.519  1.00  0.00    -0.237 OA
ATOM     83  O   UNL A   1      41.857  22.683  25.655  1.00  0.00    -0.744 OA
ENDBRANCH  76  80
ENDBRANCH  49  73
BRANCH  61  84
ATOM     84  C   UNL A   1      44.673  27.310  34.224  1.00  0.00     0.023 A 
ATOM     85  C   UNL A   1      44.454  26.100  34.904  1.00  0.00     0.031 A 
ATOM     86  C   UNL A   1      45.998  27.766  34.093  1.00  0.00     0.131 A 
ATOM     87  C   UNL A   1      45.542  25.405  35.460  1.00  0.00     0.055 A 
ATOM     88  C   UNL A   1      47.079  27.045  34.603  1.00  0.00     0.041 A 
ATOM     89  F   UNL A   1      46.264  28.918  33.456  1.00  0.00    -0.206 F 
ATOM     90  C   UNL A   1      46.853  25.861  35.298  1.00  0.00     0.022 A 
BRANCH  87  91
ATOM     91  S   UNL A   1      45.219  23.922  36.454  1.00  0.00     0.124 S 
ATOM     92  O   UNL A   1      44.128  23.293  35.717  1.00  0.00    -0.237 OA
ATOM     93  O   UNL A   1      46.501  23.229  36.408  1.00  0.00    -0.237 OA
ATOM     94  O   UNL A   1      44.854  24.459  37.764  1.00  0.00    -0.744 OA
ENDBRANCH  87  91
ENDBRANCH  61  84
ENDBRANCH  35  36
ENDBRANCH  27  30
ENDBRANCH  25  26
ENDBRANCH  24  25
ENDBRANCH   1  24
TORSDOF 20
ENDMDL
MODEL 3
REMARK VINA RESULT:     -10.7      1.977      7.931
REMARK SMILES CCC(CC)(NC(=O)N(CC(F)(F)F)C(C)C)C(=O)NCCCNC(=O)c1ccc(-c2c3nc(c(-c4cc(S(=O)(=O)[O-])ccc4F)c4ccc([nH]4)c(-c4cc(S(=O)(=O)[O-])ccc4F)c4nc(c(-c5cc(S(=O)(=O)[O-])ccc5F)c5ccc2[nH]5)C=C4)C=C3)cc1
REMARK SMILES IDX 21 1 20 2 18 3 19 4 3 6 2 7 1 8 4 9 5 10 6 11 7 12 8 14 9 15
REMARK SMILES IDX 10 16 11 17 12 18 13 19 14 20 15 21 16 22 17 23 22 24 23 25
REMARK SMILES IDX 24 26 25 27 26 29 27 30 28 31 89 32 29 33 88 34 30 35 31 36
REMARK SMILES IDX 32 37 82 38 33 39 87 40 81 41 83 42 34 43 86 44 80 45 79 46
REMARK SMILES IDX 35 48 67 49 47 50 66 51 48 52 51 53 65 54 84 55 49 56 50 57
REMARK SMILES IDX 64 59 85 60 52 61 36 62 37 63 45 64 38 65 44 66 46 67 43 68
REMARK SMILES IDX 39 69 40 70 41 71 42 72 68 73 69 74 77 75 70 76 76 77 78 78
REMARK SMILES IDX 75 79 71 80 72 81 73 82 74 83 53 84 54 85 62 86 55 87 61 88
REMARK SMILES IDX 63 89 60 90 56 91 57 92 58 93 59 94
REMARK H PARENT 20 5 6 13 24 28 83 47 51 58
REMARK Flexibility Score: inf
ROOT
ATOM      1  C   UNL A   1      31.536  30.150  25.950  1.00  0.00     0.117 C 
ENDROOT
BRANCH   1   2
ATOM      2  N   UNL A   1      32.592  29.917  24.972  1.00  0.00    -0.354 N 
ATOM      3  C   UNL A   1      32.863  28.916  24.078  1.00  0.00     0.245 C 
ATOM      4  O   UNL A   1      33.676  29.189  23.188  1.00  0.00    -0.272 OA
ATOM      5  H   UNL A   1      33.258  30.641  24.948  1.00  0.00     0.163 HD
BRANCH   3   6
ATOM      6  C   UNL A   1      32.163  27.527  24.115  1.00  0.00     0.120 C 
BRANCH   6   7
ATOM      7  C   UNL A   1      30.601  27.537  24.181  1.00  0.00     0.035 C 
ATOM      8  C   UNL A   1      29.832  27.689  22.873  1.00  0.00     0.007 C 
ENDBRANCH   6   7
BRANCH   6   9
ATOM      9  C   UNL A   1      32.710  26.826  25.411  1.00  0.00     0.035 C 
ATOM     10  C   UNL A   1      31.703  26.482  26.502  1.00  0.00     0.007 C 
ENDBRANCH   6   9
BRANCH   6  11
ATOM     11  N   UNL A   1      32.540  26.782  22.888  1.00  0.00    -0.323 N 
ATOM     12  C   UNL A   1      33.269  25.710  22.522  1.00  0.00     0.318 C 
ATOM     13  H   UNL A   1      32.132  27.201  22.097  1.00  0.00     0.166 HD
ATOM     14  O   UNL A   1      33.580  25.745  21.327  1.00  0.00    -0.249 OA
BRANCH  12  15
ATOM     15  N   UNL A   1      33.553  24.618  23.310  1.00  0.00    -0.313 N 
BRANCH  15  16
ATOM     16  C   UNL A   1      34.900  24.198  23.793  1.00  0.00     0.237 C 
BRANCH  16  17
ATOM     17  C   UNL A   1      35.209  24.143  25.304  1.00  0.00     0.406 C 
ATOM     18  F   UNL A   1      34.285  23.441  25.994  1.00  0.00    -0.169 F 
ATOM     19  F   UNL A   1      36.396  23.515  25.505  1.00  0.00    -0.169 F 
ATOM     20  F   UNL A   1      35.305  25.356  25.882  1.00  0.00    -0.169 F 
ENDBRANCH  16  17
ENDBRANCH  15  16
BRANCH  15  21
ATOM     21  C   UNL A   1      32.520  23.533  23.390  1.00  0.00     0.081 C 
ATOM     22  C   UNL A   1      31.053  23.981  23.485  1.00  0.00     0.031 C 
ATOM     23  C   UNL A   1      32.660  22.512  22.259  1.00  0.00     0.031 C 
ENDBRANCH  15  21
ENDBRANCH  12  15
ENDBRANCH   6  11
ENDBRANCH   3   6
ENDBRANCH   1   2
BRANCH   1  24
ATOM     24  C   UNL A   1      31.426  31.544  26.552  1.00  0.00     0.042 C 
BRANCH  24  25
ATOM     25  C   UNL A   1      32.711  32.246  26.961  1.00  0.00     0.118 C 
BRANCH  25  26
ATOM     26  N   UNL A   1      32.540  33.617  27.394  1.00  0.00    -0.352 N 
ATOM     27  C   UNL A   1      33.261  34.296  28.351  1.00  0.00     0.251 C 
ATOM     28  H   UNL A   1      31.822  34.125  26.951  1.00  0.00     0.163 HD
ATOM     29  O   UNL A   1      32.928  35.433  28.674  1.00  0.00    -0.269 OA
BRANCH  27  30
ATOM     30  C   UNL A   1      34.411  33.637  29.020  1.00  0.00     0.039 A 
ATOM     31  C   UNL A   1      34.157  32.679  30.005  1.00  0.00     0.014 A 
ATOM     32  C   UNL A   1      35.731  33.952  28.677  1.00  0.00     0.014 A 
ATOM     33  C   UNL A   1      35.220  31.997  30.607  1.00  0.00     0.010 A 
ATOM     34  C   UNL A   1      36.789  33.236  29.248  1.00  0.00     0.010 A 
ATOM     35  C   UNL A   1      36.546  32.248  30.217  1.00  0.00    -0.014 A 
BRANCH  35  36
ATOM     36  C   UNL A   1      37.685  31.497  30.821  1.00  0.00     0.031 A 
ATOM     37  C   UNL A   1      38.150  31.820  32.217  1.00  0.00     0.074 A 
ATOM     38  C   UNL A   1      38.334  30.556  30.107  1.00  0.00     0.049 A 
ATOM     39  N   UNL A   1      39.175  31.347  32.880  1.00  0.00    -0.248 NA
ATOM     40  C   UNL A   1      37.364  32.820  32.953  1.00  0.00     0.031 C 
ATOM     41  C   UNL A   1      37.992  30.145  28.744  1.00  0.00     0.029 A 
ATOM     42  N   UNL A   1      39.426  29.781  30.421  1.00  0.00    -0.354 N 
ATOM     43  C   UNL A   1      39.167  31.999  34.109  1.00  0.00     0.074 A 
ATOM     44  C   UNL A   1      38.060  32.935  34.076  1.00  0.00     0.031 C 
ATOM     45  C   UNL A   1      38.850  29.192  28.344  1.00  0.00     0.029 A 
ATOM     46  C   UNL A   1      39.834  28.955  29.398  1.00  0.00     0.049 A 
ATOM     47  H   UNL A   1      39.874  29.816  31.296  1.00  0.00     0.167 HD
ATOM     48  C   UNL A   1      39.994  31.824  35.172  1.00  0.00     0.034 A 
ATOM     49  C   UNL A   1      40.890  28.120  29.305  1.00  0.00     0.034 A 
ATOM     50  C   UNL A   1      41.091  30.887  35.199  1.00  0.00     0.049 A 
ATOM     51  C   UNL A   1      41.832  27.985  30.478  1.00  0.00     0.074 A 
ATOM     52  C   UNL A   1      41.962  30.612  36.241  1.00  0.00     0.029 A 
ATOM     53  N   UNL A   1      41.479  30.080  34.139  1.00  0.00    -0.354 N 
ATOM     54  N   UNL A   1      41.796  28.593  31.641  1.00  0.00    -0.248 NA
ATOM     55  C   UNL A   1      42.955  27.047  30.327  1.00  0.00     0.031 C 
ATOM     56  C   UNL A   1      42.916  29.695  35.789  1.00  0.00     0.029 A 
ATOM     57  C   UNL A   1      42.593  29.331  34.491  1.00  0.00     0.049 A 
ATOM     58  H   UNL A   1      41.030  30.044  33.264  1.00  0.00     0.167 HD
ATOM     59  C   UNL A   1      42.862  28.075  32.373  1.00  0.00     0.074 A 
ATOM     60  C   UNL A   1      43.525  27.110  31.523  1.00  0.00     0.031 C 
ATOM     61  C   UNL A   1      43.248  28.366  33.641  1.00  0.00     0.034 A 
BRANCH  48  62
ATOM     62  C   UNL A   1      39.761  32.697  36.383  1.00  0.00     0.023 A 
ATOM     63  C   UNL A   1      38.954  32.274  37.454  1.00  0.00     0.031 A 
ATOM     64  C   UNL A   1      40.343  33.975  36.462  1.00  0.00     0.131 A 
ATOM     65  C   UNL A   1      38.692  33.149  38.520  1.00  0.00     0.055 A 
ATOM     66  C   UNL A   1      40.145  34.808  37.565  1.00  0.00     0.041 A 
ATOM     67  F   UNL A   1      41.108  34.440  35.462  1.00  0.00    -0.206 F 
ATOM     68  C   UNL A   1      39.302  34.403  38.595  1.00  0.00     0.022 A 
BRANCH  65  69
ATOM     69  S   UNL A   1      37.426  32.681  39.732  1.00  0.00     0.124 S 
ATOM     70  O   UNL A   1      36.239  32.562  38.888  1.00  0.00    -0.237 OA
ATOM     71  O   UNL A   1      37.953  31.433  40.272  1.00  0.00    -0.237 OA
ATOM     72  O   UNL A   1      37.409  33.806  40.663  1.00  0.00    -0.744 OA
ENDBRANCH  65  69
ENDBRANCH  48  62
BRANCH  49  73
ATOM     73  C   UNL A   1      41.143  27.360  28.046  1.00  0.00     0.023 A 
ATOM     74  C   UNL A   1      40.877  25.983  27.964  1.00  0.00     0.031 A 
ATOM     75  C   UNL A   1      41.705  27.990  26.922  1.00  0.00     0.131 A 
ATOM     76  C   UNL A   1      41.218  25.273  26.801  1.00  0.00     0.055 A 
ATOM     77  C   UNL A   1      41.989  27.291  25.748  1.00  0.00     0.041 A 
ATOM     78  F   UNL A   1      41.980  29.305  26.948  1.00  0.00    -0.206 F 
ATOM     79  C   UNL A   1      41.759  25.920  25.688  1.00  0.00     0.022 A 
BRANCH  76  80
ATOM     80  S   UNL A   1      41.029  23.469  26.798  1.00  0.00     0.124 S 
ATOM     81  O   UNL A   1      41.939  23.078  25.728  1.00  0.00    -0.237 OA
ATOM     82  O   UNL A   1      41.442  23.119  28.153  1.00  0.00    -0.237 OA
ATOM     83  O   UNL A   1      39.609  23.277  26.512  1.00  0.00    -0.744 OA
ENDBRANCH  76  80
ENDBRANCH  49  73
BRANCH  61  84
ATOM     84  C   UNL A   1      44.399  27.575  34.220  1.00  0.00     0.023 A 
ATOM     85  C   UNL A   1      44.202  26.399  34.965  1.00  0.00     0.031 A 
ATOM     86  C   UNL A   1      45.721  28.005  34.000  1.00  0.00     0.131 A 
ATOM     87  C   UNL A   1      45.309  25.715  35.493  1.00  0.00     0.055 A 
ATOM     88  C   UNL A   1      46.818  27.292  34.484  1.00  0.00     0.041 A 
ATOM     89  F   UNL A   1      45.967  29.124  33.298  1.00  0.00    -0.206 F 
ATOM     90  C   UNL A   1      46.616  26.144  35.242  1.00  0.00     0.022 A 
BRANCH  87  91
ATOM     91  S   UNL A   1      45.022  24.282  36.570  1.00  0.00     0.124 S 
ATOM     92  O   UNL A   1      46.365  24.001  37.067  1.00  0.00    -0.237 OA
ATOM     93  O   UNL A   1      44.077  24.810  37.548  1.00  0.00    -0.237 OA
ATOM     94  O   UNL A   1      44.473  23.275  35.663  1.00  0.00    -0.744 OA
ENDBRANCH  87  91
ENDBRANCH  61  84
ENDBRANCH  35  36
ENDBRANCH  27  30
ENDBRANCH  25  26
ENDBRANCH  24  25
ENDBRANCH   1  24
TORSDOF 20
ENDMDL
