MODEL 1
REMARK VINA RESULT:     -12.8      0.000      0.000
REMARK SMILES O=C(NCCCNC(=O)c1ccccc1/C=N\NC(=S)NCc1ccccc1)c1ccc(-c2c3nc(c(-c4cc(S(=O)(=O)[O-])ccc4F)c4ccc([nH]4)c(-c4cc(S(=O)(=O)[O-])ccc4F)c4nc(c(-c5cc(S(=O)(=O)[O-])ccc5F)c5ccc2[nH]5)C=C4)C=C3)cc1
REMARK SMILES IDX 7 1 8 2 9 3 6 5 5 6 4 7 3 8 1 9 2 10 29 12 30 13 91 14 31 15
REMARK SMILES IDX 90 16 32 17 33 18 34 19 84 20 35 21 89 22 83 23 85 24 36 25
REMARK SMILES IDX 88 26 82 27 81 28 37 30 69 31 49 32 68 33 50 34 53 35 67 36
REMARK SMILES IDX 86 37 51 38 52 39 66 41 87 42 54 43 38 44 39 45 47 46 40 47
REMARK SMILES IDX 46 48 48 49 45 50 41 51 42 52 43 53 44 54 70 55 71 56 79 57
REMARK SMILES IDX 72 58 78 59 80 60 77 61 73 62 74 63 75 64 76 65 55 66 56 67
REMARK SMILES IDX 64 68 57 69 63 70 65 71 62 72 58 73 59 74 60 75 61 76 10 77
REMARK SMILES IDX 11 78 15 79 12 80 14 81 13 82 16 83 17 84 18 85 19 87 20 88
REMARK SMILES IDX 21 89 22 91 23 92 24 93 28 94 25 95 27 96 26 97
REMARK H PARENT 7 4 3 11 85 29 53 40 18 86 21 90
REMARK Flexibility Score: inf
ROOT
ATOM      1  N   UNL A   1      31.216  25.914  26.875  1.00  0.00    -0.352 N 
ATOM      2  C   UNL A   1      31.776  24.666  26.716  1.00  0.00     0.251 C 
ATOM      3  O   UNL A   1      31.408  23.739  27.432  1.00  0.00    -0.269 OA
ATOM      4  H   UNL A   1      30.521  25.950  27.571  1.00  0.00     0.163 HD
ENDROOT
BRANCH   1   5
ATOM      5  C   UNL A   1      31.451  27.193  26.212  1.00  0.00     0.118 C 
BRANCH   5   6
ATOM      6  C   UNL A   1      32.213  28.227  27.030  1.00  0.00     0.042 C 
BRANCH   6   7
ATOM      7  C   UNL A   1      33.214  29.037  26.227  1.00  0.00     0.118 C 
BRANCH   7   8
ATOM      8  N   UNL A   1      33.055  30.471  26.441  1.00  0.00    -0.352 N 
ATOM      9  O   UNL A   1      33.145  32.424  27.535  1.00  0.00    -0.269 OA
ATOM     10  C   UNL A   1      33.664  31.329  27.323  1.00  0.00     0.251 C 
ATOM     11  H   UNL A   1      32.393  30.898  25.850  1.00  0.00     0.163 HD
BRANCH  10  12
ATOM     12  C   UNL A   1      34.927  30.967  28.004  1.00  0.00     0.039 A 
ATOM     13  C   UNL A   1      35.093  29.708  28.576  1.00  0.00     0.014 A 
ATOM     14  C   UNL A   1      35.999  31.867  27.998  1.00  0.00     0.014 A 
ATOM     15  C   UNL A   1      36.255  29.405  29.275  1.00  0.00     0.010 A 
ATOM     16  C   UNL A   1      37.215  31.516  28.598  1.00  0.00     0.010 A 
ATOM     17  C   UNL A   1      37.345  30.289  29.265  1.00  0.00    -0.014 A 
BRANCH  17  18
ATOM     18  C   UNL A   1      38.619  29.857  29.901  1.00  0.00     0.031 A 
ATOM     19  C   UNL A   1      39.017  30.351  31.262  1.00  0.00     0.074 A 
ATOM     20  C   UNL A   1      39.392  28.963  29.250  1.00  0.00     0.049 A 
ATOM     21  N   UNL A   1      40.062  30.029  31.983  1.00  0.00    -0.248 NA
ATOM     22  C   UNL A   1      38.137  31.344  31.894  1.00  0.00     0.031 C 
ATOM     23  C   UNL A   1      39.108  28.422  27.916  1.00  0.00     0.029 A 
ATOM     24  N   UNL A   1      40.546  28.324  29.622  1.00  0.00    -0.354 N 
ATOM     25  C   UNL A   1      39.979  30.794  33.143  1.00  0.00     0.074 A 
ATOM     26  C   UNL A   1      38.799  31.622  33.008  1.00  0.00     0.031 C 
ATOM     27  C   UNL A   1      40.014  27.480  27.620  1.00  0.00     0.029 A 
ATOM     28  C   UNL A   1      40.993  27.410  28.697  1.00  0.00     0.049 A 
ATOM     29  H   UNL A   1      41.010  28.503  30.472  1.00  0.00     0.167 HD
ATOM     30  C   UNL A   1      40.807  30.795  34.218  1.00  0.00     0.034 A 
ATOM     31  C   UNL A   1      42.078  26.612  28.703  1.00  0.00     0.034 A 
ATOM     32  C   UNL A   1      41.978  29.955  34.329  1.00  0.00     0.049 A 
ATOM     33  C   UNL A   1      43.000  26.665  29.890  1.00  0.00     0.074 A 
ATOM     34  C   UNL A   1      42.866  29.849  35.388  1.00  0.00     0.029 A 
ATOM     35  N   UNL A   1      42.435  29.086  33.346  1.00  0.00    -0.354 N 
ATOM     36  N   UNL A   1      42.892  27.374  30.989  1.00  0.00    -0.248 NA
ATOM     37  C   UNL A   1      44.188  25.807  29.836  1.00  0.00     0.031 C 
ATOM     38  C   UNL A   1      43.896  28.979  35.014  1.00  0.00     0.029 A 
ATOM     39  C   UNL A   1      43.610  28.471  33.757  1.00  0.00     0.049 A 
ATOM     40  H   UNL A   1      41.991  28.930  32.482  1.00  0.00     0.167 HD
ATOM     41  C   UNL A   1      43.989  27.027  31.771  1.00  0.00     0.074 A 
ATOM     42  C   UNL A   1      44.729  26.029  31.024  1.00  0.00     0.031 C 
ATOM     43  C   UNL A   1      44.349  27.489  32.996  1.00  0.00     0.034 A 
BRANCH  30  44
ATOM     44  C   UNL A   1      40.503  31.775  35.330  1.00  0.00     0.023 A 
ATOM     45  C   UNL A   1      39.456  31.563  36.245  1.00  0.00     0.031 A 
ATOM     46  C   UNL A   1      41.254  32.958  35.456  1.00  0.00     0.131 A 
ATOM     47  C   UNL A   1      39.139  32.553  37.188  1.00  0.00     0.055 A 
ATOM     48  C   UNL A   1      40.987  33.899  36.453  1.00  0.00     0.041 A 
ATOM     49  F   UNL A   1      42.252  33.228  34.600  1.00  0.00    -0.206 F 
ATOM     50  C   UNL A   1      39.913  33.708  37.316  1.00  0.00     0.022 A 
BRANCH  47  51
ATOM     51  S   UNL A   1      37.602  32.382  38.139  1.00  0.00     0.124 S 
ATOM     52  O   UNL A   1      36.658  33.139  37.319  1.00  0.00    -0.237 OA
ATOM     53  O   UNL A   1      37.405  30.937  38.164  1.00  0.00    -0.237 OA
ATOM     54  O   UNL A   1      37.925  32.991  39.427  1.00  0.00    -0.744 OA
ENDBRANCH  47  51
ENDBRANCH  30  44
BRANCH  31  55
ATOM     55  C   UNL A   1      42.363  25.717  27.545  1.00  0.00     0.023 A 
ATOM     56  C   UNL A   1      41.911  24.388  27.529  1.00  0.00     0.031 A 
ATOM     57  C   UNL A   1      43.120  26.168  26.448  1.00  0.00     0.131 A 
ATOM     58  C   UNL A   1      42.256  23.545  26.462  1.00  0.00     0.055 A 
ATOM     59  C   UNL A   1      43.410  25.343  25.361  1.00  0.00     0.041 A 
ATOM     60  F   UNL A   1      43.575  27.431  26.410  1.00  0.00    -0.206 F 
ATOM     61  C   UNL A   1      42.988  24.018  25.370  1.00  0.00     0.022 A 
BRANCH  58  62
ATOM     62  S   UNL A   1      41.804  21.792  26.560  1.00  0.00     0.124 S 
ATOM     63  O   UNL A   1      42.423  21.396  27.820  1.00  0.00    -0.237 OA
ATOM     64  O   UNL A   1      40.347  21.854  26.554  1.00  0.00    -0.237 OA
ATOM     65  O   UNL A   1      42.407  21.217  25.360  1.00  0.00    -0.744 OA
ENDBRANCH  58  62
ENDBRANCH  31  55
BRANCH  43  66
ATOM     66  C   UNL A   1      45.581  26.874  33.615  1.00  0.00     0.023 A 
ATOM     67  C   UNL A   1      46.862  27.422  33.423  1.00  0.00     0.031 A 
ATOM     68  C   UNL A   1      45.475  25.696  34.377  1.00  0.00     0.131 A 
ATOM     69  C   UNL A   1      47.990  26.755  33.924  1.00  0.00     0.055 A 
ATOM     70  C   UNL A   1      46.595  25.075  34.932  1.00  0.00     0.041 A 
ATOM     71  F   UNL A   1      44.278  25.124  34.589  1.00  0.00    -0.206 F 
ATOM     72  C   UNL A   1      47.863  25.595  34.693  1.00  0.00     0.022 A 
BRANCH  69  73
ATOM     73  S   UNL A   1      49.637  27.357  33.455  1.00  0.00     0.124 S 
ATOM     74  O   UNL A   1      50.067  26.345  32.495  1.00  0.00    -0.237 OA
ATOM     75  O   UNL A   1      49.341  28.675  32.903  1.00  0.00    -0.237 OA
ATOM     76  O   UNL A   1      50.371  27.365  34.718  1.00  0.00    -0.744 OA
ENDBRANCH  69  73
ENDBRANCH  43  66
ENDBRANCH  17  18
ENDBRANCH  10  12
ENDBRANCH   7   8
ENDBRANCH   6   7
ENDBRANCH   5   6
ENDBRANCH   1   5
BRANCH   2  77
ATOM     77  C   UNL A   1      32.661  24.363  25.578  1.00  0.00     0.048 A 
ATOM     78  C   UNL A   1      34.402  24.768  25.842  1.00  0.00     0.014 A 
ATOM     79  C   UNL A   1      32.223  23.183  24.269  1.00  0.00     0.007 A 
ATOM     80  C   UNL A   1      35.692  24.054  24.776  1.00  0.00     0.001 A 
ATOM     81  C   UNL A   1      33.501  22.486  23.159  1.00  0.00     0.010 A 
ATOM     82  C   UNL A   1      35.232  22.924  23.443  1.00  0.00     0.001 A 
BRANCH  79  83
ATOM     83  C   UNL A   1      30.944  23.372  23.649  1.00  0.00     0.142 C 
ATOM     84  N   UNL A   1      30.807  24.372  22.854  1.00  0.00    -0.181 NA
BRANCH  84  85
ATOM     85  N   UNL A   1      31.848  25.269  22.781  1.00  0.00    -0.254 N 
ATOM     86  H   UNL A   1      32.734  24.852  22.874  1.00  0.00     0.193 HD
BRANCH  85  87
ATOM     87  C   UNL A   1      31.898  26.623  22.604  1.00  0.00     0.187 C 
ATOM     88  S   UNL A   1      33.449  27.254  22.372  1.00  0.00    -0.039 S 
BRANCH  87  89
ATOM     89  N   UNL A   1      30.839  27.565  22.631  1.00  0.00    -0.357 N 
ATOM     90  H   UNL A   1      30.231  27.257  21.922  1.00  0.00     0.163 HD
BRANCH  89  91
ATOM     91  C   UNL A   1      29.901  29.264  23.396  1.00  0.00     0.151 C 
BRANCH  91  92
ATOM     92  C   UNL A   1      28.831  30.422  22.853  1.00  0.00    -0.029 A 
ATOM     93  C   UNL A   1      28.400  30.316  21.514  1.00  0.00     0.005 A 
ATOM     94  C   UNL A   1      28.782  31.689  23.479  1.00  0.00     0.005 A 
ATOM     95  C   UNL A   1      28.030  31.457  20.800  1.00  0.00     0.000 A 
ATOM     96  C   UNL A   1      28.398  32.820  22.757  1.00  0.00     0.000 A 
ATOM     97  C   UNL A   1      28.056  32.707  21.412  1.00  0.00     0.000 A 
ENDBRANCH  91  92
ENDBRANCH  89  91
ENDBRANCH  87  89
ENDBRANCH  85  87
ENDBRANCH  84  85
ENDBRANCH  79  83
ENDBRANCH   2  77
TORSDOF 19
ENDMDL
MODEL 2
REMARK VINA RESULT:     -12.8      2.230      2.737
REMARK SMILES O=C(NCCCNC(=O)c1ccccc1/C=N\NC(=S)NCc1ccccc1)c1ccc(-c2c3nc(c(-c4cc(S(=O)(=O)[O-])ccc4F)c4ccc([nH]4)c(-c4cc(S(=O)(=O)[O-])ccc4F)c4nc(c(-c5cc(S(=O)(=O)[O-])ccc5F)c5ccc2[nH]5)C=C4)C=C3)cc1
REMARK SMILES IDX 7 1 8 2 9 3 6 5 5 6 4 7 3 8 1 9 2 10 29 12 30 13 91 14 31 15
REMARK SMILES IDX 90 16 32 17 33 18 34 19 84 20 35 21 89 22 83 23 85 24 36 25
REMARK SMILES IDX 88 26 82 27 81 28 37 30 69 31 49 32 68 33 50 34 53 35 67 36
REMARK SMILES IDX 86 37 51 38 52 39 66 41 87 42 54 43 38 44 39 45 47 46 40 47
REMARK SMILES IDX 46 48 48 49 45 50 41 51 42 52 43 53 44 54 70 55 71 56 79 57
REMARK SMILES IDX 72 58 78 59 80 60 77 61 73 62 74 63 75 64 76 65 55 66 56 67
REMARK SMILES IDX 64 68 57 69 63 70 65 71 62 72 58 73 59 74 60 75 61 76 10 77
REMARK SMILES IDX 11 78 15 79 12 80 14 81 13 82 16 83 17 84 18 85 19 87 20 88
REMARK SMILES IDX 21 89 22 91 23 92 24 93 28 94 25 95 27 96 26 97
REMARK H PARENT 7 4 3 11 85 29 53 40 18 86 21 90
REMARK Flexibility Score: inf
ROOT
ATOM      1  N   UNL A   1      32.894  27.130  25.540  1.00  0.00    -0.352 N 
ATOM      2  C   UNL A   1      33.163  25.795  25.745  1.00  0.00     0.251 C 
ATOM      3  O   UNL A   1      32.378  25.109  26.395  1.00  0.00    -0.269 OA
ATOM      4  H   UNL A   1      32.044  27.428  25.936  1.00  0.00     0.163 HD
ENDROOT
BRANCH   1   5
ATOM      5  C   UNL A   1      33.624  28.188  24.850  1.00  0.00     0.118 C 
BRANCH   5   6
ATOM      6  C   UNL A   1      32.961  29.560  24.863  1.00  0.00     0.042 C 
BRANCH   6   7
ATOM      7  C   UNL A   1      32.261  29.896  26.168  1.00  0.00     0.118 C 
BRANCH   7   8
ATOM      8  N   UNL A   1      32.177  31.336  26.388  1.00  0.00    -0.352 N 
ATOM      9  O   UNL A   1      32.394  33.280  27.478  1.00  0.00    -0.269 OA
ATOM     10  C   UNL A   1      32.853  32.163  27.250  1.00  0.00     0.251 C 
ATOM     11  H   UNL A   1      31.518  31.795  25.818  1.00  0.00     0.163 HD
BRANCH  10  12
ATOM     12  C   UNL A   1      34.119  31.739  27.891  1.00  0.00     0.039 A 
ATOM     13  C   UNL A   1      35.124  32.665  28.165  1.00  0.00     0.014 A 
ATOM     14  C   UNL A   1      34.274  30.412  28.305  1.00  0.00     0.014 A 
ATOM     15  C   UNL A   1      36.335  32.244  28.698  1.00  0.00     0.010 A 
ATOM     16  C   UNL A   1      35.449  30.011  28.955  1.00  0.00     0.010 A 
ATOM     17  C   UNL A   1      36.502  30.920  29.134  1.00  0.00    -0.014 A 
BRANCH  17  18
ATOM     18  C   UNL A   1      37.762  30.554  29.836  1.00  0.00     0.031 A 
ATOM     19  C   UNL A   1      38.040  31.026  31.234  1.00  0.00     0.074 A 
ATOM     20  C   UNL A   1      38.635  29.739  29.208  1.00  0.00     0.049 A 
ATOM     21  N   UNL A   1      39.059  30.752  32.009  1.00  0.00    -0.248 NA
ATOM     22  C   UNL A   1      37.055  31.934  31.839  1.00  0.00     0.031 C 
ATOM     23  C   UNL A   1      38.471  29.226  27.843  1.00  0.00     0.029 A 
ATOM     24  N   UNL A   1      39.806  29.168  29.633  1.00  0.00    -0.354 N 
ATOM     25  C   UNL A   1      38.852  31.468  33.184  1.00  0.00     0.074 A 
ATOM     26  C   UNL A   1      37.627  32.218  33.001  1.00  0.00     0.031 C 
ATOM     27  C   UNL A   1      39.458  28.361  27.576  1.00  0.00     0.029 A 
ATOM     28  C   UNL A   1      40.372  28.320  28.710  1.00  0.00     0.049 A 
ATOM     29  H   UNL A   1      40.204  29.348  30.515  1.00  0.00     0.167 HD
ATOM     30  C   UNL A   1      39.610  31.488  34.309  1.00  0.00     0.034 A 
ATOM     31  C   UNL A   1      41.508  27.598  28.760  1.00  0.00     0.034 A 
ATOM     32  C   UNL A   1      40.829  30.728  34.469  1.00  0.00     0.049 A 
ATOM     33  C   UNL A   1      42.350  27.673  30.004  1.00  0.00     0.074 A 
ATOM     34  C   UNL A   1      41.656  30.645  35.578  1.00  0.00     0.029 A 
ATOM     35  N   UNL A   1      41.406  29.927  33.490  1.00  0.00    -0.354 N 
ATOM     36  N   UNL A   1      42.125  28.334  31.115  1.00  0.00    -0.248 NA
ATOM     37  C   UNL A   1      43.597  26.901  29.999  1.00  0.00     0.031 C 
ATOM     38  C   UNL A   1      42.766  29.862  35.244  1.00  0.00     0.029 A 
ATOM     39  C   UNL A   1      42.594  29.380  33.956  1.00  0.00     0.049 A 
ATOM     40  H   UNL A   1      41.027  29.771  32.595  1.00  0.00     0.167 HD
ATOM     41  C   UNL A   1      43.195  28.036  31.955  1.00  0.00     0.074 A 
ATOM     42  C   UNL A   1      44.047  27.118  31.226  1.00  0.00     0.031 C 
ATOM     43  C   UNL A   1      43.445  28.479  33.213  1.00  0.00     0.034 A 
BRANCH  30  44
ATOM     44  C   UNL A   1      39.171  32.406  35.429  1.00  0.00     0.023 A 
ATOM     45  C   UNL A   1      39.618  33.737  35.521  1.00  0.00     0.031 A 
ATOM     46  C   UNL A   1      38.317  31.931  36.441  1.00  0.00     0.131 A 
ATOM     47  C   UNL A   1      39.276  34.515  36.638  1.00  0.00     0.055 A 
ATOM     48  C   UNL A   1      37.911  32.739  37.505  1.00  0.00     0.041 A 
ATOM     49  F   UNL A   1      37.874  30.664  36.422  1.00  0.00    -0.206 F 
ATOM     50  C   UNL A   1      38.405  34.035  37.617  1.00  0.00     0.022 A 
BRANCH  47  51
ATOM     51  S   UNL A   1      40.115  36.108  36.872  1.00  0.00     0.124 S 
ATOM     52  O   UNL A   1      39.840  36.779  35.603  1.00  0.00    -0.237 OA
ATOM     53  O   UNL A   1      39.434  36.655  38.040  1.00  0.00    -0.237 OA
ATOM     54  O   UNL A   1      41.511  35.734  37.080  1.00  0.00    -0.744 OA
ENDBRANCH  47  51
ENDBRANCH  30  44
BRANCH  31  55
ATOM     55  C   UNL A   1      41.926  26.766  27.595  1.00  0.00     0.023 A 
ATOM     56  C   UNL A   1      41.718  25.378  27.587  1.00  0.00     0.031 A 
ATOM     57  C   UNL A   1      42.569  27.343  26.486  1.00  0.00     0.131 A 
ATOM     58  C   UNL A   1      42.187  24.608  26.512  1.00  0.00     0.055 A 
ATOM     59  C   UNL A   1      42.981  26.580  25.391  1.00  0.00     0.041 A 
ATOM     60  F   UNL A   1      42.791  28.666  26.441  1.00  0.00    -0.206 F 
ATOM     61  C   UNL A   1      42.803  25.201  25.407  1.00  0.00     0.022 A 
BRANCH  58  62
ATOM     62  S   UNL A   1      42.057  22.802  26.616  1.00  0.00     0.124 S 
ATOM     63  O   UNL A   1      40.657  22.585  26.268  1.00  0.00    -0.237 OA
ATOM     64  O   UNL A   1      43.037  22.371  25.626  1.00  0.00    -0.237 OA
ATOM     65  O   UNL A   1      42.407  22.516  28.005  1.00  0.00    -0.744 OA
ENDBRANCH  58  62
ENDBRANCH  31  55
BRANCH  43  66
ATOM     66  C   UNL A   1      44.678  27.928  33.890  1.00  0.00     0.023 A 
ATOM     67  C   UNL A   1      44.648  26.730  34.626  1.00  0.00     0.031 A 
ATOM     68  C   UNL A   1      45.891  28.636  33.831  1.00  0.00     0.131 A 
ATOM     69  C   UNL A   1      45.789  26.314  35.331  1.00  0.00     0.055 A 
ATOM     70  C   UNL A   1      47.042  28.180  34.476  1.00  0.00     0.041 A 
ATOM     71  F   UNL A   1      45.978  29.789  33.147  1.00  0.00    -0.206 F 
ATOM     72  C   UNL A   1      46.990  27.022  35.245  1.00  0.00     0.022 A 
BRANCH  69  73
ATOM     73  S   UNL A   1      45.647  24.900  36.459  1.00  0.00     0.124 S 
ATOM     74  O   UNL A   1      44.282  24.447  36.206  1.00  0.00    -0.237 OA
ATOM     75  O   UNL A   1      46.710  24.018  35.988  1.00  0.00    -0.237 OA
ATOM     76  O   UNL A   1      45.870  25.490  37.777  1.00  0.00    -0.744 OA
ENDBRANCH  69  73
ENDBRANCH  43  66
ENDBRANCH  17  18
ENDBRANCH  10  12
ENDBRANCH   7   8
ENDBRANCH   6   7
ENDBRANCH   5   6
ENDBRANCH   1   5
BRANCH   2  77
ATOM     77  C   UNL A   1      34.264  25.118  25.039  1.00  0.00     0.048 A 
ATOM     78  C   UNL A   1      35.540  24.422  26.114  1.00  0.00     0.014 A 
ATOM     79  C   UNL A   1      34.121  24.505  23.336  1.00  0.00     0.007 A 
ATOM     80  C   UNL A   1      36.702  23.172  25.484  1.00  0.00     0.001 A 
ATOM     81  C   UNL A   1      35.307  23.279  22.671  1.00  0.00     0.010 A 
ATOM     82  C   UNL A   1      36.579  22.614  23.770  1.00  0.00     0.001 A 
BRANCH  79  83
ATOM     83  C   UNL A   1      33.637  25.441  22.366  1.00  0.00     0.142 C 
ATOM     84  N   UNL A   1      32.407  25.347  22.004  1.00  0.00    -0.181 NA
BRANCH  84  85
ATOM     85  N   UNL A   1      31.697  24.259  22.458  1.00  0.00    -0.254 N 
ATOM     86  H   UNL A   1      31.792  23.463  21.888  1.00  0.00     0.193 HD
BRANCH  85  87
ATOM     87  C   UNL A   1      30.889  24.063  23.542  1.00  0.00     0.187 C 
ATOM     88  S   UNL A   1      31.117  22.591  24.344  1.00  0.00    -0.039 S 
BRANCH  87  89
ATOM     89  N   UNL A   1      29.864  24.898  24.053  1.00  0.00    -0.357 N 
ATOM     90  H   UNL A   1      29.700  24.545  24.956  1.00  0.00     0.163 HD
BRANCH  89  91
ATOM     91  C   UNL A   1      28.526  26.489  23.885  1.00  0.00     0.151 C 
BRANCH  91  92
ATOM     92  C   UNL A   1      28.526  28.028  23.242  1.00  0.00    -0.029 A 
ATOM     93  C   UNL A   1      29.736  28.749  23.311  1.00  0.00     0.005 A 
ATOM     94  C   UNL A   1      27.315  28.751  23.137  1.00  0.00     0.005 A 
ATOM     95  C   UNL A   1      29.723  30.144  23.374  1.00  0.00     0.000 A 
ATOM     96  C   UNL A   1      27.317  30.146  23.190  1.00  0.00     0.000 A 
ATOM     97  C   UNL A   1      28.516  30.837  23.343  1.00  0.00     0.000 A 
ENDBRANCH  91  92
ENDBRANCH  89  91
ENDBRANCH  87  89
ENDBRANCH  85  87
ENDBRANCH  84  85
ENDBRANCH  79  83
ENDBRANCH   2  77
TORSDOF 19
ENDMDL
MODEL 3
REMARK VINA RESULT:     -12.6      2.386      4.588
REMARK SMILES O=C(NCCCNC(=O)c1ccccc1/C=N\NC(=S)NCc1ccccc1)c1ccc(-c2c3nc(c(-c4cc(S(=O)(=O)[O-])ccc4F)c4ccc([nH]4)c(-c4cc(S(=O)(=O)[O-])ccc4F)c4nc(c(-c5cc(S(=O)(=O)[O-])ccc5F)c5ccc2[nH]5)C=C4)C=C3)cc1
REMARK SMILES IDX 7 1 8 2 9 3 6 5 5 6 4 7 3 8 1 9 2 10 29 12 30 13 91 14 31 15
REMARK SMILES IDX 90 16 32 17 33 18 34 19 84 20 35 21 89 22 83 23 85 24 36 25
REMARK SMILES IDX 88 26 82 27 81 28 37 30 69 31 49 32 68 33 50 34 53 35 67 36
REMARK SMILES IDX 86 37 51 38 52 39 66 41 87 42 54 43 38 44 39 45 47 46 40 47
REMARK SMILES IDX 46 48 48 49 45 50 41 51 42 52 43 53 44 54 70 55 71 56 79 57
REMARK SMILES IDX 72 58 78 59 80 60 77 61 73 62 74 63 75 64 76 65 55 66 56 67
REMARK SMILES IDX 64 68 57 69 63 70 65 71 62 72 58 73 59 74 60 75 61 76 10 77
REMARK SMILES IDX 11 78 15 79 12 80 14 81 13 82 16 83 17 84 18 85 19 87 20 88
REMARK SMILES IDX 21 89 22 91 23 92 24 93 28 94 25 95 27 96 26 97
REMARK H PARENT 7 4 3 11 85 29 53 40 18 86 21 90
REMARK Flexibility Score: inf
ROOT
ATOM      1  N   UNL A   1      32.977  26.161  26.200  1.00  0.00    -0.352 N 
ATOM      2  C   UNL A   1      33.214  24.806  26.118  1.00  0.00     0.251 C 
ATOM      3  O   UNL A   1      32.336  24.015  26.452  1.00  0.00    -0.269 OA
ATOM      4  H   UNL A   1      32.073  26.386  26.517  1.00  0.00     0.163 HD
ENDROOT
BRANCH   1   5
ATOM      5  C   UNL A   1      33.805  27.326  25.907  1.00  0.00     0.118 C 
BRANCH   5   6
ATOM      6  C   UNL A   1      33.046  28.620  25.636  1.00  0.00     0.042 C 
BRANCH   6   7
ATOM      7  C   UNL A   1      32.571  29.333  26.889  1.00  0.00     0.118 C 
BRANCH   7   8
ATOM      8  N   UNL A   1      32.615  30.784  26.741  1.00  0.00    -0.352 N 
ATOM      9  O   UNL A   1      33.050  32.909  27.298  1.00  0.00    -0.269 OA
ATOM     10  C   UNL A   1      33.405  31.733  27.342  1.00  0.00     0.251 C 
ATOM     11  H   UNL A   1      31.962  31.146  26.099  1.00  0.00     0.163 HD
BRANCH  10  12
ATOM     12  C   UNL A   1      34.668  31.367  28.021  1.00  0.00     0.039 A 
ATOM     13  C   UNL A   1      34.846  30.095  28.561  1.00  0.00     0.014 A 
ATOM     14  C   UNL A   1      35.730  32.279  28.044  1.00  0.00     0.014 A 
ATOM     15  C   UNL A   1      36.006  29.788  29.259  1.00  0.00     0.010 A 
ATOM     16  C   UNL A   1      36.947  31.926  28.642  1.00  0.00     0.010 A 
ATOM     17  C   UNL A   1      37.087  30.684  29.279  1.00  0.00    -0.014 A 
BRANCH  17  18
ATOM     18  C   UNL A   1      38.362  30.250  29.911  1.00  0.00     0.031 A 
ATOM     19  C   UNL A   1      38.737  30.698  31.294  1.00  0.00     0.074 A 
ATOM     20  C   UNL A   1      39.157  29.395  29.234  1.00  0.00     0.049 A 
ATOM     21  N   UNL A   1      39.780  30.366  32.013  1.00  0.00    -0.248 NA
ATOM     22  C   UNL A   1      37.834  31.651  31.954  1.00  0.00     0.031 C 
ATOM     23  C   UNL A   1      38.895  28.901  27.878  1.00  0.00     0.029 A 
ATOM     24  N   UNL A   1      40.318  28.763  29.594  1.00  0.00    -0.354 N 
ATOM     25  C   UNL A   1      39.672  31.085  33.200  1.00  0.00     0.074 A 
ATOM     26  C   UNL A   1      38.479  31.897  33.085  1.00  0.00     0.031 C 
ATOM     27  C   UNL A   1      39.821  27.987  27.555  1.00  0.00     0.029 A 
ATOM     28  C   UNL A   1      40.791  27.892  28.639  1.00  0.00     0.049 A 
ATOM     29  H   UNL A   1      40.771  28.916  30.455  1.00  0.00     0.167 HD
ATOM     30  C   UNL A   1      40.489  31.059  34.284  1.00  0.00     0.034 A 
ATOM     31  C   UNL A   1      41.889  27.114  28.626  1.00  0.00     0.034 A 
ATOM     32  C   UNL A   1      41.674  30.236  34.375  1.00  0.00     0.049 A 
ATOM     33  C   UNL A   1      42.799  27.137  29.824  1.00  0.00     0.074 A 
ATOM     34  C   UNL A   1      42.553  30.104  35.439  1.00  0.00     0.029 A 
ATOM     35  N   UNL A   1      42.157  29.414  33.364  1.00  0.00    -0.354 N 
ATOM     36  N   UNL A   1      42.667  27.801  30.948  1.00  0.00    -0.248 NA
ATOM     37  C   UNL A   1      44.002  26.303  29.750  1.00  0.00     0.031 C 
ATOM     38  C   UNL A   1      43.603  29.268  35.042  1.00  0.00     0.029 A 
ATOM     39  C   UNL A   1      43.338  28.804  33.764  1.00  0.00     0.049 A 
ATOM     40  H   UNL A   1      41.723  29.282  32.490  1.00  0.00     0.167 HD
ATOM     41  C   UNL A   1      43.762  27.444  31.728  1.00  0.00     0.074 A 
ATOM     42  C   UNL A   1      44.527  26.488  30.951  1.00  0.00     0.031 C 
ATOM     43  C   UNL A   1      44.102  27.865  32.974  1.00  0.00     0.034 A 
BRANCH  30  44
ATOM     44  C   UNL A   1      40.158  31.990  35.429  1.00  0.00     0.023 A 
ATOM     45  C   UNL A   1      39.202  31.658  36.407  1.00  0.00     0.031 A 
ATOM     46  C   UNL A   1      40.784  33.246  35.525  1.00  0.00     0.131 A 
ATOM     47  C   UNL A   1      38.844  32.599  37.385  1.00  0.00     0.055 A 
ATOM     48  C   UNL A   1      40.485  34.143  36.553  1.00  0.00     0.041 A 
ATOM     49  F   UNL A   1      41.688  33.630  34.611  1.00  0.00    -0.206 F 
ATOM     50  C   UNL A   1      39.497  33.829  37.481  1.00  0.00     0.022 A 
BRANCH  47  51
ATOM     51  S   UNL A   1      37.402  32.253  38.432  1.00  0.00     0.124 S 
ATOM     52  O   UNL A   1      37.261  30.806  38.276  1.00  0.00    -0.237 OA
ATOM     53  O   UNL A   1      37.845  32.712  39.743  1.00  0.00    -0.237 OA
ATOM     54  O   UNL A   1      36.337  33.044  37.820  1.00  0.00    -0.744 OA
ENDBRANCH  47  51
ENDBRANCH  30  44
BRANCH  31  55
ATOM     55  C   UNL A   1      42.201  26.269  27.438  1.00  0.00     0.023 A 
ATOM     56  C   UNL A   1      41.826  24.918  27.392  1.00  0.00     0.031 A 
ATOM     57  C   UNL A   1      42.910  26.794  26.341  1.00  0.00     0.131 A 
ATOM     58  C   UNL A   1      42.196  24.126  26.295  1.00  0.00     0.055 A 
ATOM     59  C   UNL A   1      43.225  26.017  25.225  1.00  0.00     0.041 A 
ATOM     60  F   UNL A   1      43.292  28.081  26.332  1.00  0.00    -0.206 F 
ATOM     61  C   UNL A   1      42.879  24.670  25.204  1.00  0.00     0.022 A 
BRANCH  58  62
ATOM     62  S   UNL A   1      41.847  22.348  26.350  1.00  0.00     0.124 S 
ATOM     63  O   UNL A   1      40.394  22.327  26.227  1.00  0.00    -0.237 OA
ATOM     64  O   UNL A   1      42.595  21.856  25.199  1.00  0.00    -0.237 OA
ATOM     65  O   UNL A   1      42.369  21.939  27.652  1.00  0.00    -0.744 OA
ENDBRANCH  58  62
ENDBRANCH  31  55
BRANCH  43  66
ATOM     66  C   UNL A   1      45.339  27.247  33.582  1.00  0.00     0.023 A 
ATOM     67  C   UNL A   1      45.281  26.069  34.348  1.00  0.00     0.031 A 
ATOM     68  C   UNL A   1      46.589  27.872  33.425  1.00  0.00     0.131 A 
ATOM     69  C   UNL A   1      46.437  25.594  34.986  1.00  0.00     0.055 A 
ATOM     70  C   UNL A   1      47.748  27.355  34.005  1.00  0.00     0.041 A 
ATOM     71  F   UNL A   1      46.704  29.003  32.709  1.00  0.00    -0.206 F 
ATOM     72  C   UNL A   1      47.673  26.218  34.805  1.00  0.00     0.022 A 
BRANCH  69  73
ATOM     73  S   UNL A   1      46.279  24.215  36.156  1.00  0.00     0.124 S 
ATOM     74  O   UNL A   1      44.878  23.838  35.993  1.00  0.00    -0.237 OA
ATOM     75  O   UNL A   1      47.260  23.261  35.647  1.00  0.00    -0.237 OA
ATOM     76  O   UNL A   1      46.613  24.819  37.444  1.00  0.00    -0.744 OA
ENDBRANCH  69  73
ENDBRANCH  43  66
ENDBRANCH  17  18
ENDBRANCH  10  12
ENDBRANCH   7   8
ENDBRANCH   6   7
ENDBRANCH   5   6
ENDBRANCH   1   5
BRANCH   2  77
ATOM     77  C   UNL A   1      34.417  24.278  25.453  1.00  0.00     0.048 A 
ATOM     78  C   UNL A   1      35.485  23.269  26.506  1.00  0.00     0.014 A 
ATOM     79  C   UNL A   1      34.566  24.126  23.649  1.00  0.00     0.007 A 
ATOM     80  C   UNL A   1      36.732  22.165  25.774  1.00  0.00     0.001 A 
ATOM     81  C   UNL A   1      35.842  23.053  22.895  1.00  0.00     0.010 A 
ATOM     82  C   UNL A   1      36.903  22.069  23.978  1.00  0.00     0.001 A 
BRANCH  79  83
ATOM     83  C   UNL A   1      34.260  25.302  22.889  1.00  0.00     0.142 C 
ATOM     84  N   UNL A   1      33.283  25.240  22.057  1.00  0.00    -0.181 NA
BRANCH  84  85
ATOM     85  N   UNL A   1      32.709  24.006  21.848  1.00  0.00    -0.254 N 
ATOM     86  H   UNL A   1      32.819  23.672  20.929  1.00  0.00     0.193 HD
BRANCH  85  87
ATOM     87  C   UNL A   1      32.018  23.152  22.660  1.00  0.00     0.187 C 
ATOM     88  S   UNL A   1      30.698  23.842  23.461  1.00  0.00    -0.039 S 
BRANCH  87  89
ATOM     89  N   UNL A   1      32.283  21.791  22.953  1.00  0.00    -0.357 N 
ATOM     90  H   UNL A   1      32.203  21.342  22.081  1.00  0.00     0.163 HD
BRANCH  89  91
ATOM     91  C   UNL A   1      32.755  20.246  24.273  1.00  0.00     0.151 C 
BRANCH  91  92
ATOM     92  C   UNL A   1      32.737  18.578  24.263  1.00  0.00    -0.029 A 
ATOM     93  C   UNL A   1      32.572  17.934  25.507  1.00  0.00     0.005 A 
ATOM     94  C   UNL A   1      33.372  17.870  23.216  1.00  0.00     0.005 A 
ATOM     95  C   UNL A   1      33.112  16.665  25.721  1.00  0.00     0.000 A 
ATOM     96  C   UNL A   1      33.897  16.596  23.440  1.00  0.00     0.000 A 
ATOM     97  C   UNL A   1      33.797  16.011  24.699  1.00  0.00     0.000 A 
ENDBRANCH  91  92
ENDBRANCH  89  91
ENDBRANCH  87  89
ENDBRANCH  85  87
ENDBRANCH  84  85
ENDBRANCH  79  83
ENDBRANCH   2  77
TORSDOF 19
ENDMDL
