MODEL 1
REMARK VINA RESULT:     -11.3      0.000      0.000
REMARK SMILES CC(=O)[C@@H]1CCCC[N@H+]1CC(C)(C)C(=O)NCCCNC(=O)c1ccc(-c2c3nc(c(-c4cc(S(=O)(=O)[O-])ccc4F)c4ccc([nH]4)c(-c4cc(S(=O)(=O)[O-])ccc4F)c4nc(c(-c5cc(S(=O)(=O)[O-])ccc5F)c5ccc2[nH]5)C=C4)C=C3)cc1
REMARK SMILES IDX 18 1 17 2 16 3 14 4 15 5 11 7 12 8 13 9 10 10 9 11 4 12 5 13
REMARK SMILES IDX 6 14 8 15 7 17 2 18 1 19 3 20 19 21 20 22 21 23 22 25 23 26
REMARK SMILES IDX 24 27 85 28 25 29 84 30 26 31 27 32 28 33 78 34 29 35 83 36
REMARK SMILES IDX 77 37 79 38 30 39 82 40 76 41 75 42 31 44 63 45 43 46 62 47
REMARK SMILES IDX 44 48 47 49 61 50 80 51 45 52 46 53 60 55 81 56 48 57 32 58
REMARK SMILES IDX 33 59 41 60 34 61 40 62 42 63 39 64 35 65 36 66 37 67 38 68
REMARK SMILES IDX 64 69 65 70 73 71 66 72 72 73 74 74 71 75 67 76 68 77 69 78
REMARK SMILES IDX 70 79 49 80 50 81 58 82 51 83 57 84 59 85 56 86 52 87 53 88
REMARK SMILES IDX 54 89 55 90
REMARK H PARENT 16 6 9 16 20 24 79 43 47 54
REMARK Flexibility Score: inf
ROOT
ATOM      1  C   UNL A   1      31.522  31.946  26.534  1.00  0.00     0.042 C 
ENDROOT
BRANCH   1   2
ATOM      2  C   UNL A   1      31.514  30.431  26.396  1.00  0.00     0.117 C 
BRANCH   2   3
ATOM      3  N   UNL A   1      31.871  30.038  25.049  1.00  0.00    -0.355 N 
ATOM      4  C   UNL A   1      32.740  29.100  24.597  1.00  0.00     0.231 C 
ATOM      5  O   UNL A   1      33.275  29.362  23.515  1.00  0.00    -0.274 OA
ATOM      6  H   UNL A   1      31.404  30.535  24.340  1.00  0.00     0.163 HD
BRANCH   4   7
ATOM      7  C   UNL A   1      33.090  27.827  25.387  1.00  0.00     0.092 C 
ATOM      8  C   UNL A   1      31.897  27.036  25.937  1.00  0.00     0.027 C 
ATOM      9  C   UNL A   1      33.940  28.300  26.587  1.00  0.00     0.027 C 
BRANCH   7  10
ATOM     10  C   UNL A   1      33.987  26.894  24.482  1.00  0.00     0.279 C 
BRANCH  10  11
ATOM     11  N   UNL A   1      33.745  25.433  24.318  1.00  0.00    -0.325 N 
ATOM     12  C   UNL A   1      33.846  24.870  22.956  1.00  0.00     0.251 C 
ATOM     13  C   UNL A   1      33.492  23.372  22.915  1.00  0.00     0.074 C 
ATOM     14  C   UNL A   1      34.299  22.573  23.926  1.00  0.00     0.012 C 
ATOM     15  C   UNL A   1      34.465  24.636  25.322  1.00  0.00     0.262 C 
ATOM     16  H   UNL A   1      32.744  25.352  24.497  1.00  0.00     0.348 HD
ATOM     17  C   UNL A   1      34.082  23.159  25.309  1.00  0.00     0.062 C 
BRANCH  12  18
ATOM     18  C   UNL A   1      32.903  25.567  21.951  1.00  0.00     0.186 C 
ATOM     19  C   UNL A   1      31.487  25.802  22.427  1.00  0.00     0.094 C 
ATOM     20  O   UNL A   1      33.254  25.988  20.847  1.00  0.00    -0.293 OA
ENDBRANCH  12  18
ENDBRANCH  10  11
ENDBRANCH   7  10
ENDBRANCH   4   7
ENDBRANCH   2   3
ENDBRANCH   1   2
BRANCH   1  21
ATOM     21  C   UNL A   1      32.798  32.480  27.170  1.00  0.00     0.118 C 
BRANCH  21  22
ATOM     22  N   UNL A   1      32.638  33.848  27.647  1.00  0.00    -0.352 N 
ATOM     23  C   UNL A   1      33.239  34.477  28.710  1.00  0.00     0.251 C 
ATOM     24  H   UNL A   1      32.008  34.402  27.131  1.00  0.00     0.163 HD
ATOM     25  O   UNL A   1      32.781  35.535  29.125  1.00  0.00    -0.269 OA
BRANCH  23  26
ATOM     26  C   UNL A   1      34.418  33.858  29.350  1.00  0.00     0.039 A 
ATOM     27  C   UNL A   1      35.695  34.321  29.030  1.00  0.00     0.014 A 
ATOM     28  C   UNL A   1      34.259  32.818  30.269  1.00  0.00     0.014 A 
ATOM     29  C   UNL A   1      36.806  33.780  29.680  1.00  0.00     0.010 A 
ATOM     30  C   UNL A   1      35.351  32.362  30.995  1.00  0.00     0.010 A 
ATOM     31  C   UNL A   1      36.640  32.821  30.694  1.00  0.00    -0.014 A 
BRANCH  31  32
ATOM     32  C   UNL A   1      37.801  32.249  31.422  1.00  0.00     0.031 A 
ATOM     33  C   UNL A   1      38.608  31.147  30.786  1.00  0.00     0.074 A 
ATOM     34  C   UNL A   1      38.089  32.675  32.667  1.00  0.00     0.049 A 
ATOM     35  N   UNL A   1      39.601  30.456  31.281  1.00  0.00    -0.248 NA
ATOM     36  C   UNL A   1      38.219  30.745  29.424  1.00  0.00     0.031 C 
ATOM     37  C   UNL A   1      37.352  33.706  33.400  1.00  0.00     0.029 A 
ATOM     38  N   UNL A   1      39.074  32.289  33.541  1.00  0.00    -0.354 N 
ATOM     39  C   UNL A   1      39.943  29.528  30.302  1.00  0.00     0.074 A 
ATOM     40  C   UNL A   1      38.999  29.696  29.218  1.00  0.00     0.031 C 
ATOM     41  C   UNL A   1      37.933  33.896  34.597  1.00  0.00     0.029 A 
ATOM     42  C   UNL A   1      39.046  32.964  34.740  1.00  0.00     0.049 A 
ATOM     43  H   UNL A   1      39.740  31.594  33.329  1.00  0.00     0.167 HD
ATOM     44  C   UNL A   1      40.965  28.638  30.295  1.00  0.00     0.034 A 
ATOM     45  C   UNL A   1      39.825  32.836  35.834  1.00  0.00     0.034 A 
ATOM     46  C   UNL A   1      41.904  28.498  31.380  1.00  0.00     0.049 A 
ATOM     47  C   UNL A   1      40.941  31.821  35.813  1.00  0.00     0.074 A 
ATOM     48  C   UNL A   1      43.008  27.669  31.462  1.00  0.00     0.029 A 
ATOM     49  N   UNL A   1      41.845  29.200  32.579  1.00  0.00    -0.354 N 
ATOM     50  N   UNL A   1      41.282  30.985  34.860  1.00  0.00    -0.248 NA
ATOM     51  C   UNL A   1      41.784  31.743  37.012  1.00  0.00     0.031 C 
ATOM     52  C   UNL A   1      43.570  27.811  32.734  1.00  0.00     0.029 A 
ATOM     53  C   UNL A   1      42.875  28.799  33.415  1.00  0.00     0.049 A 
ATOM     54  H   UNL A   1      41.171  29.883  32.800  1.00  0.00     0.167 HD
ATOM     55  C   UNL A   1      42.406  30.311  35.330  1.00  0.00     0.074 A 
ATOM     56  C   UNL A   1      42.689  30.848  36.645  1.00  0.00     0.031 C 
ATOM     57  C   UNL A   1      43.142  29.341  34.727  1.00  0.00     0.034 A 
BRANCH  44  58
ATOM     58  C   UNL A   1      41.096  27.736  29.089  1.00  0.00     0.023 A 
ATOM     59  C   UNL A   1      42.096  27.934  28.120  1.00  0.00     0.031 A 
ATOM     60  C   UNL A   1      40.188  26.681  28.886  1.00  0.00     0.131 A 
ATOM     61  C   UNL A   1      42.114  27.149  26.958  1.00  0.00     0.055 A 
ATOM     62  C   UNL A   1      40.268  25.845  27.772  1.00  0.00     0.041 A 
ATOM     63  F   UNL A   1      39.196  26.456  29.761  1.00  0.00    -0.206 F 
ATOM     64  C   UNL A   1      41.225  26.086  26.791  1.00  0.00     0.022 A 
BRANCH  61  65
ATOM     65  S   UNL A   1      43.211  27.638  25.600  1.00  0.00     0.124 S 
ATOM     66  O   UNL A   1      43.936  26.396  25.343  1.00  0.00    -0.237 OA
ATOM     67  O   UNL A   1      42.269  28.053  24.566  1.00  0.00    -0.237 OA
ATOM     68  O   UNL A   1      44.016  28.712  26.179  1.00  0.00    -0.744 OA
ENDBRANCH  61  65
ENDBRANCH  44  58
BRANCH  45  69
ATOM     69  C   UNL A   1      39.581  33.680  37.039  1.00  0.00     0.023 A 
ATOM     70  C   UNL A   1      38.948  33.151  38.177  1.00  0.00     0.031 A 
ATOM     71  C   UNL A   1      39.932  35.042  37.058  1.00  0.00     0.131 A 
ATOM     72  C   UNL A   1      38.637  33.989  39.259  1.00  0.00     0.055 A 
ATOM     73  C   UNL A   1      39.675  35.857  38.161  1.00  0.00     0.041 A 
ATOM     74  F   UNL A   1      40.543  35.600  36.000  1.00  0.00    -0.206 F 
ATOM     75  C   UNL A   1      39.010  35.334  39.265  1.00  0.00     0.022 A 
BRANCH  72  76
ATOM     76  S   UNL A   1      37.647  33.314  40.621  1.00  0.00     0.124 S 
ATOM     77  O   UNL A   1      38.474  32.198  41.064  1.00  0.00    -0.237 OA
ATOM     78  O   UNL A   1      37.563  34.453  41.528  1.00  0.00    -0.237 OA
ATOM     79  O   UNL A   1      36.390  32.941  39.974  1.00  0.00    -0.744 OA
ENDBRANCH  72  76
ENDBRANCH  45  69
BRANCH  57  80
ATOM     80  C   UNL A   1      44.363  28.845  35.465  1.00  0.00     0.023 A 
ATOM     81  C   UNL A   1      44.289  27.825  36.429  1.00  0.00     0.031 A 
ATOM     82  C   UNL A   1      45.622  29.416  35.203  1.00  0.00     0.131 A 
ATOM     83  C   UNL A   1      45.440  27.450  37.139  1.00  0.00     0.055 A 
ATOM     84  C   UNL A   1      46.775  28.989  35.861  1.00  0.00     0.041 A 
ATOM     85  F   UNL A   1      45.753  30.397  34.296  1.00  0.00    -0.206 F 
ATOM     86  C   UNL A   1      46.686  28.010  36.847  1.00  0.00     0.022 A 
BRANCH  83  87
ATOM     87  S   UNL A   1      45.269  26.297  38.529  1.00  0.00     0.124 S 
ATOM     88  O   UNL A   1      43.871  26.481  38.904  1.00  0.00    -0.237 OA
ATOM     89  O   UNL A   1      45.600  25.016  37.914  1.00  0.00    -0.237 OA
ATOM     90  O   UNL A   1      46.243  26.787  39.503  1.00  0.00    -0.744 OA
ENDBRANCH  83  87
ENDBRANCH  57  80
ENDBRANCH  31  32
ENDBRANCH  23  26
ENDBRANCH  21  22
ENDBRANCH   1  21
TORSDOF 16
ENDMDL
MODEL 2
REMARK VINA RESULT:     -11.2      2.274      3.262
REMARK SMILES CC(=O)[C@@H]1CCCC[N@H+]1CC(C)(C)C(=O)NCCCNC(=O)c1ccc(-c2c3nc(c(-c4cc(S(=O)(=O)[O-])ccc4F)c4ccc([nH]4)c(-c4cc(S(=O)(=O)[O-])ccc4F)c4nc(c(-c5cc(S(=O)(=O)[O-])ccc5F)c5ccc2[nH]5)C=C4)C=C3)cc1
REMARK SMILES IDX 18 1 17 2 16 3 14 4 15 5 11 7 12 8 13 9 10 10 9 11 4 12 5 13
REMARK SMILES IDX 6 14 8 15 7 17 2 18 1 19 3 20 19 21 20 22 21 23 22 25 23 26
REMARK SMILES IDX 24 27 85 28 25 29 84 30 26 31 27 32 28 33 78 34 29 35 83 36
REMARK SMILES IDX 77 37 79 38 30 39 82 40 76 41 75 42 31 44 63 45 43 46 62 47
REMARK SMILES IDX 44 48 47 49 61 50 80 51 45 52 46 53 60 55 81 56 48 57 32 58
REMARK SMILES IDX 33 59 41 60 34 61 40 62 42 63 39 64 35 65 36 66 37 67 38 68
REMARK SMILES IDX 64 69 65 70 73 71 66 72 72 73 74 74 71 75 67 76 68 77 69 78
REMARK SMILES IDX 70 79 49 80 50 81 58 82 51 83 57 84 59 85 56 86 52 87 53 88
REMARK SMILES IDX 54 89 55 90
REMARK H PARENT 16 6 9 16 20 24 79 43 47 54
REMARK Flexibility Score: inf
ROOT
ATOM      1  C   UNL A   1      32.822  29.008  23.857  1.00  0.00     0.042 C 
ENDROOT
BRANCH   1   2
ATOM      2  C   UNL A   1      31.797  27.906  23.638  1.00  0.00     0.117 C 
BRANCH   2   3
ATOM      3  N   UNL A   1      32.228  27.006  22.588  1.00  0.00    -0.355 N 
ATOM      4  C   UNL A   1      32.971  25.872  22.637  1.00  0.00     0.231 C 
ATOM      5  O   UNL A   1      33.657  25.654  21.634  1.00  0.00    -0.274 OA
ATOM      6  H   UNL A   1      31.932  27.260  21.684  1.00  0.00     0.163 HD
BRANCH   4   7
ATOM      7  C   UNL A   1      33.012  24.947  23.864  1.00  0.00     0.092 C 
ATOM      8  C   UNL A   1      31.681  24.755  24.600  1.00  0.00     0.027 C 
ATOM      9  C   UNL A   1      34.008  25.600  24.848  1.00  0.00     0.027 C 
BRANCH   7  10
ATOM     10  C   UNL A   1      33.596  23.545  23.429  1.00  0.00     0.279 C 
BRANCH  10  11
ATOM     11  N   UNL A   1      34.714  22.865  24.141  1.00  0.00    -0.325 N 
ATOM     12  C   UNL A   1      34.460  21.516  24.687  1.00  0.00     0.251 C 
ATOM     13  C   UNL A   1      35.667  20.964  25.468  1.00  0.00     0.074 C 
ATOM     14  C   UNL A   1      36.944  21.018  24.646  1.00  0.00     0.012 C 
ATOM     15  C   UNL A   1      35.979  22.954  23.398  1.00  0.00     0.262 C 
ATOM     16  H   UNL A   1      34.801  23.416  24.995  1.00  0.00     0.348 HD
ATOM     17  C   UNL A   1      37.182  22.446  24.189  1.00  0.00     0.062 C 
BRANCH  12  18
ATOM     18  C   UNL A   1      33.261  21.482  25.659  1.00  0.00     0.186 C 
ATOM     19  C   UNL A   1      33.581  21.748  27.113  1.00  0.00     0.094 C 
ATOM     20  O   UNL A   1      32.089  21.324  25.311  1.00  0.00    -0.293 OA
ENDBRANCH  12  18
ENDBRANCH  10  11
ENDBRANCH   7  10
ENDBRANCH   4   7
ENDBRANCH   2   3
ENDBRANCH   1   2
BRANCH   1  21
ATOM     21  C   UNL A   1      33.132  29.251  25.327  1.00  0.00     0.118 C 
BRANCH  21  22
ATOM     22  N   UNL A   1      32.616  30.534  25.788  1.00  0.00    -0.352 N 
ATOM     23  C   UNL A   1      32.975  31.272  26.889  1.00  0.00     0.251 C 
ATOM     24  H   UNL A   1      31.909  30.928  25.228  1.00  0.00     0.163 HD
ATOM     25  O   UNL A   1      32.249  32.184  27.269  1.00  0.00    -0.269 OA
BRANCH  23  26
ATOM     26  C   UNL A   1      34.221  30.944  27.613  1.00  0.00     0.039 A 
ATOM     27  C   UNL A   1      35.141  31.957  27.887  1.00  0.00     0.014 A 
ATOM     28  C   UNL A   1      34.477  29.633  28.019  1.00  0.00     0.014 A 
ATOM     29  C   UNL A   1      36.290  31.661  28.625  1.00  0.00     0.010 A 
ATOM     30  C   UNL A   1      35.559  29.364  28.847  1.00  0.00     0.010 A 
ATOM     31  C   UNL A   1      36.490  30.369  29.141  1.00  0.00    -0.014 A 
BRANCH  31  32
ATOM     32  C   UNL A   1      37.687  30.032  29.952  1.00  0.00     0.031 A 
ATOM     33  C   UNL A   1      38.737  29.113  29.383  1.00  0.00     0.074 A 
ATOM     34  C   UNL A   1      37.799  30.500  31.211  1.00  0.00     0.049 A 
ATOM     35  N   UNL A   1      39.809  28.628  29.952  1.00  0.00    -0.248 NA
ATOM     36  C   UNL A   1      38.530  28.650  28.002  1.00  0.00     0.031 C 
ATOM     37  C   UNL A   1      36.825  31.363  31.883  1.00  0.00     0.029 A 
ATOM     38  N   UNL A   1      38.778  30.311  32.154  1.00  0.00    -0.354 N 
ATOM     39  C   UNL A   1      40.394  27.791  29.007  1.00  0.00     0.074 A 
ATOM     40  C   UNL A   1      39.513  27.776  27.859  1.00  0.00     0.031 C 
ATOM     41  C   UNL A   1      37.273  31.657  33.114  1.00  0.00     0.029 A 
ATOM     42  C   UNL A   1      38.535  30.961  33.342  1.00  0.00     0.049 A 
ATOM     43  H   UNL A   1      39.580  29.762  31.995  1.00  0.00     0.167 HD
ATOM     44  C   UNL A   1      41.569  27.118  29.078  1.00  0.00     0.034 A 
ATOM     45  C   UNL A   1      39.245  30.983  34.488  1.00  0.00     0.034 A 
ATOM     46  C   UNL A   1      42.439  27.160  30.227  1.00  0.00     0.049 A 
ATOM     47  C   UNL A   1      40.538  30.207  34.554  1.00  0.00     0.074 A 
ATOM     48  C   UNL A   1      43.676  26.563  30.392  1.00  0.00     0.029 A 
ATOM     49  N   UNL A   1      42.161  27.831  31.412  1.00  0.00    -0.354 N 
ATOM     50  N   UNL A   1      41.102  29.459  33.633  1.00  0.00    -0.248 NA
ATOM     51  C   UNL A   1      41.294  30.290  35.809  1.00  0.00     0.031 C 
ATOM     52  C   UNL A   1      44.109  26.807  31.699  1.00  0.00     0.029 A 
ATOM     53  C   UNL A   1      43.188  27.635  32.322  1.00  0.00     0.049 A 
ATOM     54  H   UNL A   1      41.352  28.367  31.581  1.00  0.00     0.167 HD
ATOM     55  C   UNL A   1      42.300  29.016  34.186  1.00  0.00     0.074 A 
ATOM     56  C   UNL A   1      42.381  29.592  35.513  1.00  0.00     0.031 C 
ATOM     57  C   UNL A   1      43.253  28.213  33.644  1.00  0.00     0.034 A 
BRANCH  44  58
ATOM     58  C   UNL A   1      41.957  26.266  27.892  1.00  0.00     0.023 A 
ATOM     59  C   UNL A   1      41.521  24.935  27.762  1.00  0.00     0.031 A 
ATOM     60  C   UNL A   1      42.803  26.779  26.892  1.00  0.00     0.131 A 
ATOM     61  C   UNL A   1      41.996  24.140  26.707  1.00  0.00     0.055 A 
ATOM     62  C   UNL A   1      43.198  26.010  25.796  1.00  0.00     0.041 A 
ATOM     63  F   UNL A   1      43.273  28.033  26.972  1.00  0.00    -0.206 F 
ATOM     64  C   UNL A   1      42.809  24.677  25.708  1.00  0.00     0.022 A 
BRANCH  61  65
ATOM     65  S   UNL A   1      41.667  22.358  26.751  1.00  0.00     0.124 S 
ATOM     66  O   UNL A   1      40.227  22.330  26.996  1.00  0.00    -0.237 OA
ATOM     67  O   UNL A   1      42.098  21.923  25.428  1.00  0.00    -0.237 OA
ATOM     68  O   UNL A   1      42.489  21.884  27.863  1.00  0.00    -0.744 OA
ENDBRANCH  61  65
ENDBRANCH  44  58
BRANCH  45  69
ATOM     69  C   UNL A   1      38.758  31.757  35.667  1.00  0.00     0.023 A 
ATOM     70  C   UNL A   1      38.152  31.109  36.757  1.00  0.00     0.031 A 
ATOM     71  C   UNL A   1      38.844  33.160  35.703  1.00  0.00     0.131 A 
ATOM     72  C   UNL A   1      37.609  31.866  37.807  1.00  0.00     0.055 A 
ATOM     73  C   UNL A   1      38.357  33.904  36.778  1.00  0.00     0.041 A 
ATOM     74  F   UNL A   1      39.417  33.831  34.690  1.00  0.00    -0.206 F 
ATOM     75  C   UNL A   1      37.721  33.257  37.833  1.00  0.00     0.022 A 
BRANCH  72  76
ATOM     76  S   UNL A   1      36.664  31.006  39.095  1.00  0.00     0.124 S 
ATOM     77  O   UNL A   1      37.612  31.000  40.204  1.00  0.00    -0.237 OA
ATOM     78  O   UNL A   1      35.501  31.873  39.247  1.00  0.00    -0.237 OA
ATOM     79  O   UNL A   1      36.391  29.699  38.500  1.00  0.00    -0.744 OA
ENDBRANCH  72  76
ENDBRANCH  45  69
BRANCH  57  80
ATOM     80  C   UNL A   1      44.493  27.963  34.469  1.00  0.00     0.023 A 
ATOM     81  C   UNL A   1      44.602  26.864  35.337  1.00  0.00     0.031 A 
ATOM     82  C   UNL A   1      45.581  28.851  34.388  1.00  0.00     0.131 A 
ATOM     83  C   UNL A   1      45.746  26.715  36.136  1.00  0.00     0.055 A 
ATOM     84  C   UNL A   1      46.745  28.659  35.132  1.00  0.00     0.041 A 
ATOM     85  F   UNL A   1      45.531  29.922  33.579  1.00  0.00    -0.206 F 
ATOM     86  C   UNL A   1      46.826  27.594  36.024  1.00  0.00     0.022 A 
BRANCH  83  87
ATOM     87  S   UNL A   1      45.759  25.421  37.407  1.00  0.00     0.124 S 
ATOM     88  O   UNL A   1      47.051  24.784  37.178  1.00  0.00    -0.237 OA
ATOM     89  O   UNL A   1      45.640  26.193  38.640  1.00  0.00    -0.237 OA
ATOM     90  O   UNL A   1      44.595  24.602  37.074  1.00  0.00    -0.744 OA
ENDBRANCH  83  87
ENDBRANCH  57  80
ENDBRANCH  31  32
ENDBRANCH  23  26
ENDBRANCH  21  22
ENDBRANCH   1  21
TORSDOF 16
ENDMDL
MODEL 3
REMARK VINA RESULT:     -11.1      5.642      8.656
REMARK SMILES CC(=O)[C@@H]1CCCC[N@H+]1CC(C)(C)C(=O)NCCCNC(=O)c1ccc(-c2c3nc(c(-c4cc(S(=O)(=O)[O-])ccc4F)c4ccc([nH]4)c(-c4cc(S(=O)(=O)[O-])ccc4F)c4nc(c(-c5cc(S(=O)(=O)[O-])ccc5F)c5ccc2[nH]5)C=C4)C=C3)cc1
REMARK SMILES IDX 18 1 17 2 16 3 14 4 15 5 11 7 12 8 13 9 10 10 9 11 4 12 5 13
REMARK SMILES IDX 6 14 8 15 7 17 2 18 1 19 3 20 19 21 20 22 21 23 22 25 23 26
REMARK SMILES IDX 24 27 85 28 25 29 84 30 26 31 27 32 28 33 78 34 29 35 83 36
REMARK SMILES IDX 77 37 79 38 30 39 82 40 76 41 75 42 31 44 63 45 43 46 62 47
REMARK SMILES IDX 44 48 47 49 61 50 80 51 45 52 46 53 60 55 81 56 48 57 32 58
REMARK SMILES IDX 33 59 41 60 34 61 40 62 42 63 39 64 35 65 36 66 37 67 38 68
REMARK SMILES IDX 64 69 65 70 73 71 66 72 72 73 74 74 71 75 67 76 68 77 69 78
REMARK SMILES IDX 70 79 49 80 50 81 58 82 51 83 57 84 59 85 56 86 52 87 53 88
REMARK SMILES IDX 54 89 55 90
REMARK H PARENT 16 6 9 16 20 24 79 43 47 54
REMARK Flexibility Score: inf
ROOT
ATOM      1  C   UNL A   1      36.700  21.929  24.338  1.00  0.00     0.042 C 
ENDROOT
BRANCH   1   2
ATOM      2  C   UNL A   1      35.193  22.100  24.218  1.00  0.00     0.117 C 
BRANCH   2   3
ATOM      3  N   UNL A   1      34.863  22.974  23.111  1.00  0.00    -0.355 N 
ATOM      4  C   UNL A   1      34.055  24.060  23.046  1.00  0.00     0.231 C 
ATOM      5  O   UNL A   1      33.507  24.239  21.954  1.00  0.00    -0.274 OA
ATOM      6  H   UNL A   1      35.301  22.740  22.261  1.00  0.00     0.163 HD
BRANCH   4   7
ATOM      7  C   UNL A   1      33.782  24.980  24.248  1.00  0.00     0.092 C 
ATOM      8  C   UNL A   1      34.819  24.926  25.377  1.00  0.00     0.027 C 
ATOM      9  C   UNL A   1      32.426  24.519  24.828  1.00  0.00     0.027 C 
BRANCH   7  10
ATOM     10  C   UNL A   1      33.621  26.464  23.732  1.00  0.00     0.279 C 
BRANCH  10  11
ATOM     11  N   UNL A   1      32.357  27.243  23.857  1.00  0.00    -0.325 N 
ATOM     12  C   UNL A   1      32.414  28.534  24.573  1.00  0.00     0.251 C 
ATOM     13  C   UNL A   1      31.028  29.193  24.701  1.00  0.00     0.074 C 
ATOM     14  C   UNL A   1      30.334  29.315  23.354  1.00  0.00     0.012 C 
ATOM     15  C   UNL A   1      31.631  27.326  22.582  1.00  0.00     0.262 C 
ATOM     16  H   UNL A   1      31.809  26.676  24.504  1.00  0.00     0.348 HD
ATOM     17  C   UNL A   1      30.240  27.941  22.717  1.00  0.00     0.062 C 
BRANCH  12  18
ATOM     18  C   UNL A   1      32.965  28.395  26.009  1.00  0.00     0.186 C 
ATOM     19  C   UNL A   1      31.991  27.876  27.043  1.00  0.00     0.094 C 
ATOM     20  O   UNL A   1      34.135  28.612  26.327  1.00  0.00    -0.293 OA
ENDBRANCH  12  18
ENDBRANCH  10  11
ENDBRANCH   7  10
ENDBRANCH   4   7
ENDBRANCH   2   3
ENDBRANCH   1   2
BRANCH   1  21
ATOM     21  C   UNL A   1      37.210  22.112  25.760  1.00  0.00     0.118 C 
BRANCH  21  22
ATOM     22  N   UNL A   1      38.249  21.146  26.095  1.00  0.00    -0.352 N 
ATOM     23  C   UNL A   1      39.552  21.362  26.472  1.00  0.00     0.251 C 
ATOM     24  H   UNL A   1      37.976  20.201  26.045  1.00  0.00     0.163 HD
ATOM     25  O   UNL A   1      40.352  20.433  26.446  1.00  0.00    -0.269 OA
BRANCH  23  26
ATOM     26  C   UNL A   1      39.976  22.717  26.883  1.00  0.00     0.039 A 
ATOM     27  C   UNL A   1      40.878  22.862  27.938  1.00  0.00     0.014 A 
ATOM     28  C   UNL A   1      39.480  23.843  26.223  1.00  0.00     0.014 A 
ATOM     29  C   UNL A   1      41.329  24.137  28.287  1.00  0.00     0.010 A 
ATOM     30  C   UNL A   1      40.013  25.096  26.496  1.00  0.00     0.010 A 
ATOM     31  C   UNL A   1      40.926  25.261  27.546  1.00  0.00    -0.014 A 
BRANCH  31  32
ATOM     32  C   UNL A   1      41.410  26.625  27.877  1.00  0.00     0.031 A 
ATOM     33  C   UNL A   1      42.814  27.027  27.503  1.00  0.00     0.074 A 
ATOM     34  C   UNL A   1      40.616  27.472  28.561  1.00  0.00     0.049 A 
ATOM     35  N   UNL A   1      43.458  28.132  27.772  1.00  0.00    -0.248 NA
ATOM     36  C   UNL A   1      43.608  26.036  26.760  1.00  0.00     0.031 C 
ATOM     37  C   UNL A   1      39.255  27.178  29.012  1.00  0.00     0.029 A 
ATOM     38  N   UNL A   1      40.841  28.752  29.001  1.00  0.00    -0.354 N 
ATOM     39  C   UNL A   1      44.736  27.963  27.248  1.00  0.00     0.074 A 
ATOM     40  C   UNL A   1      44.796  26.619  26.716  1.00  0.00     0.031 C 
ATOM     41  C   UNL A   1      38.754  28.258  29.634  1.00  0.00     0.029 A 
ATOM     42  C   UNL A   1      39.774  29.300  29.675  1.00  0.00     0.049 A 
ATOM     43  H   UNL A   1      41.687  29.233  28.849  1.00  0.00     0.167 HD
ATOM     44  C   UNL A   1      45.756  28.854  27.191  1.00  0.00     0.034 A 
ATOM     45  C   UNL A   1      39.639  30.504  30.268  1.00  0.00     0.034 A 
ATOM     46  C   UNL A   1      45.669  30.195  27.715  1.00  0.00     0.049 A 
ATOM     47  C   UNL A   1      40.796  31.471  30.215  1.00  0.00     0.074 A 
ATOM     48  C   UNL A   1      46.617  31.201  27.667  1.00  0.00     0.029 A 
ATOM     49  N   UNL A   1      44.571  30.717  28.390  1.00  0.00    -0.354 N 
ATOM     50  N   UNL A   1      41.981  31.314  29.672  1.00  0.00    -0.248 NA
ATOM     51  C   UNL A   1      40.591  32.782  30.843  1.00  0.00     0.031 C 
ATOM     52  C   UNL A   1      46.126  32.300  28.378  1.00  0.00     0.029 A 
ATOM     53  C   UNL A   1      44.832  32.018  28.789  1.00  0.00     0.049 A 
ATOM     54  H   UNL A   1      43.730  30.232  28.558  1.00  0.00     0.167 HD
ATOM     55  C   UNL A   1      42.647  32.523  29.859  1.00  0.00     0.074 A 
ATOM     56  C   UNL A   1      41.726  33.399  30.552  1.00  0.00     0.031 C 
ATOM     57  C   UNL A   1      43.904  32.879  29.484  1.00  0.00     0.034 A 
BRANCH  44  58
ATOM     58  C   UNL A   1      47.052  28.392  26.566  1.00  0.00     0.023 A 
ATOM     59  C   UNL A   1      47.235  28.368  25.172  1.00  0.00     0.031 A 
ATOM     60  C   UNL A   1      48.110  27.938  27.374  1.00  0.00     0.131 A 
ATOM     61  C   UNL A   1      48.408  27.824  24.627  1.00  0.00     0.055 A 
ATOM     62  C   UNL A   1      49.311  27.483  26.827  1.00  0.00     0.041 A 
ATOM     63  F   UNL A   1      47.988  27.912  28.710  1.00  0.00    -0.206 F 
ATOM     64  C   UNL A   1      49.459  27.408  25.445  1.00  0.00     0.022 A 
BRANCH  61  65
ATOM     65  S   UNL A   1      48.472  27.521  22.840  1.00  0.00     0.124 S 
ATOM     66  O   UNL A   1      48.440  26.061  22.788  1.00  0.00    -0.237 OA
ATOM     67  O   UNL A   1      47.276  28.204  22.361  1.00  0.00    -0.237 OA
ATOM     68  O   UNL A   1      49.741  28.124  22.435  1.00  0.00    -0.744 OA
ENDBRANCH  61  65
ENDBRANCH  44  58
BRANCH  45  69
ATOM     69  C   UNL A   1      38.372  30.867  30.967  1.00  0.00     0.023 A 
ATOM     70  C   UNL A   1      37.321  31.497  30.279  1.00  0.00     0.031 A 
ATOM     71  C   UNL A   1      38.207  30.633  32.344  1.00  0.00     0.131 A 
ATOM     72  C   UNL A   1      36.181  31.922  30.979  1.00  0.00     0.055 A 
ATOM     73  C   UNL A   1      37.045  31.001  33.023  1.00  0.00     0.041 A 
ATOM     74  F   UNL A   1      39.176  30.029  33.051  1.00  0.00    -0.206 F 
ATOM     75  C   UNL A   1      36.028  31.664  32.342  1.00  0.00     0.022 A 
BRANCH  72  76
ATOM     76  S   UNL A   1      34.938  32.905  30.096  1.00  0.00     0.124 S 
ATOM     77  O   UNL A   1      34.031  33.276  31.176  1.00  0.00    -0.237 OA
ATOM     78  O   UNL A   1      35.746  33.982  29.536  1.00  0.00    -0.237 OA
ATOM     79  O   UNL A   1      34.393  31.965  29.118  1.00  0.00    -0.744 OA
ENDBRANCH  72  76
ENDBRANCH  45  69
BRANCH  57  80
ATOM     80  C   UNL A   1      44.328  34.301  29.765  1.00  0.00     0.023 A 
ATOM     81  C   UNL A   1      44.045  35.354  28.878  1.00  0.00     0.031 A 
ATOM     82  C   UNL A   1      45.040  34.601  30.941  1.00  0.00     0.131 A 
ATOM     83  C   UNL A   1      44.525  36.644  29.150  1.00  0.00     0.055 A 
ATOM     84  C   UNL A   1      45.453  35.900  31.239  1.00  0.00     0.041 A 
ATOM     85  F   UNL A   1      45.344  33.636  31.823  1.00  0.00    -0.206 F 
ATOM     86  C   UNL A   1      45.209  36.928  30.334  1.00  0.00     0.022 A 
BRANCH  83  87
ATOM     87  S   UNL A   1      44.340  37.926  27.880  1.00  0.00     0.124 S 
ATOM     88  O   UNL A   1      43.723  39.012  28.634  1.00  0.00    -0.237 OA
ATOM     89  O   UNL A   1      45.720  38.148  27.457  1.00  0.00    -0.237 OA
ATOM     90  O   UNL A   1      43.480  37.297  26.879  1.00  0.00    -0.744 OA
ENDBRANCH  83  87
ENDBRANCH  57  80
ENDBRANCH  31  32
ENDBRANCH  23  26
ENDBRANCH  21  22
ENDBRANCH   1  21
TORSDOF 16
ENDMDL
