MODEL 1
REMARK VINA RESULT:     -12.8      0.000      0.000
REMARK SMILES Cc1ccc(O[C@H](C)C(=O)Nc2ccsc2C(=O)NCCCNC(=O)c2ccc(-c3c4nc(c(-c5cc(S(=O)(=O)[O-])ccc5F)c5ccc([nH]5)c(-c5cc(S(=O)(=O)[O-])ccc5F)c5nc(c(-c6cc(S(=O)(=O)[O-])ccc6F)c6ccc3[nH]6)C=C5)C=C4)cc2)cc1
REMARK SMILES IDX 20 1 19 2 17 3 18 4 16 6 12 7 13 8 14 9 15 10 11 11 9 12
REMARK SMILES IDX 10 13 7 15 8 16 6 17 5 18 1 19 2 20 3 21 90 22 4 23 89 24
REMARK SMILES IDX 21 25 22 26 23 27 24 28 25 30 26 31 27 32 88 33 28 34 87 35
REMARK SMILES IDX 29 36 30 37 31 38 81 39 32 40 86 41 80 42 82 43 33 44 85 45
REMARK SMILES IDX 79 46 78 47 34 49 66 50 46 51 65 52 47 53 50 54 64 55 83 56
REMARK SMILES IDX 48 57 49 58 63 60 84 61 51 62 35 63 36 64 44 65 37 66 43 67
REMARK SMILES IDX 45 68 42 69 38 70 39 71 40 72 41 73 67 74 68 75 76 76 69 77
REMARK SMILES IDX 75 78 77 79 74 80 70 81 71 82 72 83 73 84 52 85 53 86 61 87
REMARK SMILES IDX 54 88 60 89 62 90 59 91 55 92 56 93 57 94 58 95
REMARK H PARENT 19 5 11 14 23 29 82 48 50 59
REMARK Flexibility Score: inf
ROOT
ATOM      1  C   UNL A   1      37.283  21.516  25.240  1.00  0.00     0.118 C 
ENDROOT
BRANCH   1   2
ATOM      2  N   UNL A   1      36.372  22.048  26.240  1.00  0.00    -0.351 N 
ATOM      3  C   UNL A   1      35.039  22.042  26.546  1.00  0.00     0.263 C 
ATOM      4  O   UNL A   1      34.804  22.734  27.548  1.00  0.00    -0.268 OA
ATOM      5  H   UNL A   1      36.870  22.577  26.904  1.00  0.00     0.163 HD
BRANCH   3   6
ATOM      6  C   UNL A   1      33.961  21.341  25.834  1.00  0.00     0.115 A 
ATOM      7  C   UNL A   1      32.570  21.305  25.832  1.00  0.00     0.065 A 
ATOM      8  C   UNL A   1      32.040  20.407  24.847  1.00  0.00     0.038 A 
ATOM      9  C   UNL A   1      33.006  19.705  24.177  1.00  0.00     0.068 A 
ATOM     10  S   UNL A   1      34.556  20.140  24.697  1.00  0.00    -0.137 S 
BRANCH   7  11
ATOM     11  N   UNL A   1      31.742  22.111  26.581  1.00  0.00    -0.321 N 
ATOM     12  C   UNL A   1      31.472  23.442  26.430  1.00  0.00     0.265 C 
ATOM     13  O   UNL A   1      30.653  23.946  27.210  1.00  0.00    -0.270 OA
ATOM     14  H   UNL A   1      31.282  21.666  27.329  1.00  0.00     0.170 HD
BRANCH  12  15
ATOM     15  C   UNL A   1      32.163  24.330  25.369  1.00  0.00     0.259 C 
ATOM     16  C   UNL A   1      31.060  24.769  24.414  1.00  0.00     0.064 C 
BRANCH  15  17
ATOM     17  O   UNL A   1      33.080  25.252  25.937  1.00  0.00    -0.481 OA
BRANCH  17  18
ATOM     18  C   UNL A   1      32.921  26.565  26.226  1.00  0.00     0.120 A 
ATOM     19  C   UNL A   1      33.164  30.752  27.308  1.00  0.00     0.044 C 
ATOM     20  C   UNL A   1      33.059  29.324  26.865  1.00  0.00    -0.051 A 
ATOM     21  C   UNL A   1      31.973  28.544  27.267  1.00  0.00     0.007 A 
ATOM     22  C   UNL A   1      34.069  28.721  26.116  1.00  0.00     0.007 A 
ATOM     23  C   UNL A   1      31.903  27.181  26.941  1.00  0.00     0.047 A 
ATOM     24  C   UNL A   1      33.996  27.360  25.802  1.00  0.00     0.047 A 
ENDBRANCH  17  18
ENDBRANCH  15  17
ENDBRANCH  12  15
ENDBRANCH   7  11
ENDBRANCH   3   6
ENDBRANCH   1   2
BRANCH   1  25
ATOM     25  C   UNL A   1      38.733  21.593  25.704  1.00  0.00     0.042 C 
BRANCH  25  26
ATOM     26  C   UNL A   1      39.011  22.854  26.513  1.00  0.00     0.118 C 
BRANCH  26  27
ATOM     27  N   UNL A   1      40.400  23.009  26.952  1.00  0.00    -0.352 N 
ATOM     28  C   UNL A   1      41.052  24.175  27.357  1.00  0.00     0.251 C 
ATOM     29  H   UNL A   1      40.942  22.187  26.963  1.00  0.00     0.163 HD
ATOM     30  O   UNL A   1      42.207  24.187  27.708  1.00  0.00    -0.269 OA
BRANCH  28  31
ATOM     31  C   UNL A   1      40.237  25.414  27.409  1.00  0.00     0.039 A 
ATOM     32  C   UNL A   1      40.628  26.484  26.600  1.00  0.00     0.014 A 
ATOM     33  C   UNL A   1      39.399  25.601  28.501  1.00  0.00     0.014 A 
ATOM     34  C   UNL A   1      40.410  27.779  27.057  1.00  0.00     0.010 A 
ATOM     35  C   UNL A   1      39.317  26.875  29.022  1.00  0.00     0.010 A 
ATOM     36  C   UNL A   1      39.888  27.959  28.337  1.00  0.00    -0.014 A 
BRANCH  36  37
ATOM     37  C   UNL A   1      40.058  29.190  29.111  1.00  0.00     0.031 A 
ATOM     38  C   UNL A   1      39.032  30.255  29.054  1.00  0.00     0.074 A 
ATOM     39  C   UNL A   1      41.106  29.325  29.960  1.00  0.00     0.049 A 
ATOM     40  N   UNL A   1      39.200  31.451  29.503  1.00  0.00    -0.248 NA
ATOM     41  C   UNL A   1      37.743  30.082  28.391  1.00  0.00     0.031 C 
ATOM     42  C   UNL A   1      41.257  30.305  31.035  1.00  0.00     0.029 A 
ATOM     43  N   UNL A   1      42.374  28.753  29.838  1.00  0.00    -0.354 N 
ATOM     44  C   UNL A   1      37.989  32.099  29.465  1.00  0.00     0.074 A 
ATOM     45  C   UNL A   1      37.149  31.244  28.669  1.00  0.00     0.031 C 
ATOM     46  C   UNL A   1      42.561  30.471  31.297  1.00  0.00     0.029 A 
ATOM     47  C   UNL A   1      43.297  29.706  30.311  1.00  0.00     0.049 A 
ATOM     48  H   UNL A   1      42.582  27.857  29.488  1.00  0.00     0.167 HD
ATOM     49  C   UNL A   1      37.830  33.221  30.221  1.00  0.00     0.034 A 
ATOM     50  C   UNL A   1      44.270  30.212  29.501  1.00  0.00     0.034 A 
ATOM     51  C   UNL A   1      39.133  33.746  30.654  1.00  0.00     0.049 A 
ATOM     52  C   UNL A   1      44.194  31.709  29.310  1.00  0.00     0.074 A 
ATOM     53  C   UNL A   1      39.803  33.811  31.863  1.00  0.00     0.029 A 
ATOM     54  N   UNL A   1      40.067  34.095  29.678  1.00  0.00    -0.354 N 
ATOM     55  N   UNL A   1      43.165  32.451  29.622  1.00  0.00    -0.248 NA
ATOM     56  C   UNL A   1      45.280  32.483  28.724  1.00  0.00     0.031 C 
ATOM     57  C   UNL A   1      41.159  34.161  31.597  1.00  0.00     0.029 A 
ATOM     58  C   UNL A   1      41.308  34.342  30.232  1.00  0.00     0.049 A 
ATOM     59  H   UNL A   1      39.867  34.156  28.716  1.00  0.00     0.167 HD
ATOM     60  C   UNL A   1      43.399  33.755  29.247  1.00  0.00     0.074 A 
ATOM     61  C   UNL A   1      44.754  33.719  28.718  1.00  0.00     0.031 C 
ATOM     62  C   UNL A   1      42.441  34.727  29.385  1.00  0.00     0.034 A 
BRANCH  49  63
ATOM     63  C   UNL A   1      36.497  33.730  30.762  1.00  0.00     0.023 A 
ATOM     64  C   UNL A   1      35.567  34.292  29.856  1.00  0.00     0.031 A 
ATOM     65  C   UNL A   1      36.114  33.818  32.120  1.00  0.00     0.131 A 
ATOM     66  C   UNL A   1      34.391  34.935  30.300  1.00  0.00     0.055 A 
ATOM     67  C   UNL A   1      34.941  34.448  32.559  1.00  0.00     0.041 A 
ATOM     68  F   UNL A   1      36.841  33.315  33.117  1.00  0.00    -0.206 F 
ATOM     69  C   UNL A   1      34.076  35.022  31.651  1.00  0.00     0.022 A 
BRANCH  66  70
ATOM     70  S   UNL A   1      33.286  35.711  29.088  1.00  0.00     0.124 S 
ATOM     71  O   UNL A   1      32.604  34.558  28.511  1.00  0.00    -0.237 OA
ATOM     72  O   UNL A   1      32.478  36.591  29.925  1.00  0.00    -0.237 OA
ATOM     73  O   UNL A   1      34.205  36.399  28.182  1.00  0.00    -0.744 OA
ENDBRANCH  66  70
ENDBRANCH  49  63
BRANCH  50  74
ATOM     74  C   UNL A   1      44.773  29.230  28.502  1.00  0.00     0.023 A 
ATOM     75  C   UNL A   1      45.626  28.213  28.980  1.00  0.00     0.031 A 
ATOM     76  C   UNL A   1      44.141  29.032  27.268  1.00  0.00     0.131 A 
ATOM     77  C   UNL A   1      45.693  26.980  28.318  1.00  0.00     0.055 A 
ATOM     78  C   UNL A   1      44.265  27.820  26.574  1.00  0.00     0.041 A 
ATOM     79  F   UNL A   1      43.289  29.947  26.782  1.00  0.00    -0.206 F 
ATOM     80  C   UNL A   1      45.008  26.771  27.120  1.00  0.00     0.022 A 
BRANCH  77  81
ATOM     81  S   UNL A   1      46.473  25.591  29.191  1.00  0.00     0.124 S 
ATOM     82  O   UNL A   1      47.889  25.822  28.925  1.00  0.00    -0.237 OA
ATOM     83  O   UNL A   1      46.038  25.808  30.571  1.00  0.00    -0.237 OA
ATOM     84  O   UNL A   1      45.898  24.413  28.549  1.00  0.00    -0.744 OA
ENDBRANCH  77  81
ENDBRANCH  50  74
BRANCH  62  85
ATOM     85  C   UNL A   1      42.477  36.141  28.800  1.00  0.00     0.023 A 
ATOM     86  C   UNL A   1      42.985  37.263  29.471  1.00  0.00     0.031 A 
ATOM     87  C   UNL A   1      42.012  36.407  27.485  1.00  0.00     0.131 A 
ATOM     88  C   UNL A   1      42.978  38.550  28.892  1.00  0.00     0.055 A 
ATOM     89  C   UNL A   1      42.043  37.676  26.891  1.00  0.00     0.041 A 
ATOM     90  F   UNL A   1      41.520  35.443  26.694  1.00  0.00    -0.206 F 
ATOM     91  C   UNL A   1      42.519  38.764  27.600  1.00  0.00     0.022 A 
BRANCH  88  92
ATOM     92  S   UNL A   1      43.551  39.945  29.901  1.00  0.00     0.124 S 
ATOM     93  O   UNL A   1      42.395  40.838  29.868  1.00  0.00    -0.237 OA
ATOM     94  O   UNL A   1      43.820  39.308  31.186  1.00  0.00    -0.237 OA
ATOM     95  O   UNL A   1      44.729  40.430  29.187  1.00  0.00    -0.744 OA
ENDBRANCH  88  92
ENDBRANCH  62  85
ENDBRANCH  36  37
ENDBRANCH  28  31
ENDBRANCH  26  27
ENDBRANCH  25  26
ENDBRANCH   1  25
TORSDOF 17
ENDMDL
MODEL 2
REMARK VINA RESULT:     -12.5      1.678      2.037
REMARK SMILES Cc1ccc(O[C@H](C)C(=O)Nc2ccsc2C(=O)NCCCNC(=O)c2ccc(-c3c4nc(c(-c5cc(S(=O)(=O)[O-])ccc5F)c5ccc([nH]5)c(-c5cc(S(=O)(=O)[O-])ccc5F)c5nc(c(-c6cc(S(=O)(=O)[O-])ccc6F)c6ccc3[nH]6)C=C5)C=C4)cc2)cc1
REMARK SMILES IDX 20 1 19 2 17 3 18 4 16 6 12 7 13 8 14 9 15 10 11 11 9 12
REMARK SMILES IDX 10 13 7 15 8 16 6 17 5 18 1 19 2 20 3 21 90 22 4 23 89 24
REMARK SMILES IDX 21 25 22 26 23 27 24 28 25 30 26 31 27 32 88 33 28 34 87 35
REMARK SMILES IDX 29 36 30 37 31 38 81 39 32 40 86 41 80 42 82 43 33 44 85 45
REMARK SMILES IDX 79 46 78 47 34 49 66 50 46 51 65 52 47 53 50 54 64 55 83 56
REMARK SMILES IDX 48 57 49 58 63 60 84 61 51 62 35 63 36 64 44 65 37 66 43 67
REMARK SMILES IDX 45 68 42 69 38 70 39 71 40 72 41 73 67 74 68 75 76 76 69 77
REMARK SMILES IDX 75 78 77 79 74 80 70 81 71 82 72 83 73 84 52 85 53 86 61 87
REMARK SMILES IDX 54 88 60 89 62 90 59 91 55 92 56 93 57 94 58 95
REMARK H PARENT 19 5 11 14 23 29 82 48 50 59
REMARK Flexibility Score: inf
ROOT
ATOM      1  C   UNL A   1      37.188  21.368  25.134  1.00  0.00     0.118 C 
ENDROOT
BRANCH   1   2
ATOM      2  N   UNL A   1      36.320  22.297  25.838  1.00  0.00    -0.351 N 
ATOM      3  C   UNL A   1      35.105  22.906  25.690  1.00  0.00     0.263 C 
ATOM      4  O   UNL A   1      34.868  23.674  26.635  1.00  0.00    -0.268 OA
ATOM      5  H   UNL A   1      36.737  22.573  26.686  1.00  0.00     0.163 HD
BRANCH   3   6
ATOM      6  C   UNL A   1      34.147  22.736  24.588  1.00  0.00     0.115 A 
ATOM      7  C   UNL A   1      33.611  23.494  23.552  1.00  0.00     0.065 A 
ATOM      8  C   UNL A   1      32.699  22.748  22.733  1.00  0.00     0.038 A 
ATOM      9  C   UNL A   1      32.475  21.477  23.191  1.00  0.00     0.068 A 
ATOM     10  S   UNL A   1      33.378  21.155  24.584  1.00  0.00    -0.137 S 
BRANCH   7  11
ATOM     11  N   UNL A   1      33.973  24.782  23.224  1.00  0.00    -0.321 N 
ATOM     12  C   UNL A   1      33.423  25.961  23.640  1.00  0.00     0.265 C 
ATOM     13  O   UNL A   1      33.950  27.006  23.237  1.00  0.00    -0.270 OA
ATOM     14  H   UNL A   1      34.732  24.863  22.603  1.00  0.00     0.170 HD
BRANCH  12  15
ATOM     15  C   UNL A   1      32.171  26.038  24.545  1.00  0.00     0.259 C 
ATOM     16  C   UNL A   1      32.551  26.955  25.701  1.00  0.00     0.064 C 
BRANCH  15  17
ATOM     17  O   UNL A   1      30.970  26.208  23.809  1.00  0.00    -0.481 OA
BRANCH  17  18
ATOM     18  C   UNL A   1      30.369  27.344  23.383  1.00  0.00     0.120 A 
ATOM     19  C   UNL A   1      27.901  30.510  21.757  1.00  0.00     0.044 C 
ATOM     20  C   UNL A   1      28.746  29.445  22.388  1.00  0.00    -0.051 A 
ATOM     21  C   UNL A   1      30.135  29.478  22.248  1.00  0.00     0.007 A 
ATOM     22  C   UNL A   1      28.171  28.363  23.053  1.00  0.00     0.007 A 
ATOM     23  C   UNL A   1      30.936  28.443  22.751  1.00  0.00     0.047 A 
ATOM     24  C   UNL A   1      28.977  27.329  23.543  1.00  0.00     0.047 A 
ENDBRANCH  17  18
ENDBRANCH  15  17
ENDBRANCH  12  15
ENDBRANCH   7  11
ENDBRANCH   3   6
ENDBRANCH   1   2
BRANCH   1  25
ATOM     25  C   UNL A   1      38.617  21.427  25.659  1.00  0.00     0.042 C 
BRANCH  25  26
ATOM     26  C   UNL A   1      38.952  22.785  26.264  1.00  0.00     0.118 C 
BRANCH  26  27
ATOM     27  N   UNL A   1      40.328  22.920  26.749  1.00  0.00    -0.352 N 
ATOM     28  C   UNL A   1      40.965  24.067  27.226  1.00  0.00     0.251 C 
ATOM     29  H   UNL A   1      40.870  22.099  26.738  1.00  0.00     0.163 HD
ATOM     30  O   UNL A   1      42.110  24.063  27.610  1.00  0.00    -0.269 OA
BRANCH  28  31
ATOM     31  C   UNL A   1      40.147  25.301  27.311  1.00  0.00     0.039 A 
ATOM     32  C   UNL A   1      40.517  26.383  26.507  1.00  0.00     0.014 A 
ATOM     33  C   UNL A   1      39.332  25.471  28.423  1.00  0.00     0.014 A 
ATOM     34  C   UNL A   1      40.304  27.671  26.986  1.00  0.00     0.010 A 
ATOM     35  C   UNL A   1      39.256  26.738  28.962  1.00  0.00     0.010 A 
ATOM     36  C   UNL A   1      39.809  27.833  28.279  1.00  0.00    -0.014 A 
BRANCH  36  37
ATOM     37  C   UNL A   1      39.991  29.055  29.065  1.00  0.00     0.031 A 
ATOM     38  C   UNL A   1      38.978  30.132  29.013  1.00  0.00     0.074 A 
ATOM     39  C   UNL A   1      41.037  29.169  29.919  1.00  0.00     0.049 A 
ATOM     40  N   UNL A   1      39.159  31.322  29.474  1.00  0.00    -0.248 NA
ATOM     41  C   UNL A   1      37.689  29.981  28.344  1.00  0.00     0.031 C 
ATOM     42  C   UNL A   1      41.196  30.137  31.004  1.00  0.00     0.029 A 
ATOM     43  N   UNL A   1      42.299  28.583  29.796  1.00  0.00    -0.354 N 
ATOM     44  C   UNL A   1      37.955  31.985  29.438  1.00  0.00     0.074 A 
ATOM     45  C   UNL A   1      37.109  31.148  28.631  1.00  0.00     0.031 C 
ATOM     46  C   UNL A   1      42.501  30.285  31.271  1.00  0.00     0.029 A 
ATOM     47  C   UNL A   1      43.231  29.520  30.281  1.00  0.00     0.049 A 
ATOM     48  H   UNL A   1      42.497  27.688  29.439  1.00  0.00     0.167 HD
ATOM     49  C   UNL A   1      37.807  33.102  30.203  1.00  0.00     0.034 A 
ATOM     50  C   UNL A   1      44.213  30.021  29.480  1.00  0.00     0.034 A 
ATOM     51  C   UNL A   1      39.115  33.607  30.646  1.00  0.00     0.049 A 
ATOM     52  C   UNL A   1      44.156  31.522  29.302  1.00  0.00     0.074 A 
ATOM     53  C   UNL A   1      39.781  33.653  31.858  1.00  0.00     0.029 A 
ATOM     54  N   UNL A   1      40.057  33.954  29.677  1.00  0.00    -0.354 N 
ATOM     55  N   UNL A   1      43.135  32.273  29.617  1.00  0.00    -0.248 NA
ATOM     56  C   UNL A   1      45.253  32.287  28.728  1.00  0.00     0.031 C 
ATOM     57  C   UNL A   1      41.143  33.989  31.601  1.00  0.00     0.029 A 
ATOM     58  C   UNL A   1      41.299  34.181  30.237  1.00  0.00     0.049 A 
ATOM     59  H   UNL A   1      39.862  34.026  28.715  1.00  0.00     0.167 HD
ATOM     60  C   UNL A   1      43.387  33.577  29.255  1.00  0.00     0.074 A 
ATOM     61  C   UNL A   1      44.743  33.529  28.731  1.00  0.00     0.031 C 
ATOM     62  C   UNL A   1      42.439  34.560  29.399  1.00  0.00     0.034 A 
BRANCH  49  63
ATOM     63  C   UNL A   1      36.479  33.623  30.744  1.00  0.00     0.023 A 
ATOM     64  C   UNL A   1      35.573  34.233  29.845  1.00  0.00     0.031 A 
ATOM     65  C   UNL A   1      36.080  33.675  32.099  1.00  0.00     0.131 A 
ATOM     66  C   UNL A   1      34.405  34.888  30.295  1.00  0.00     0.055 A 
ATOM     67  C   UNL A   1      34.915  34.315  32.544  1.00  0.00     0.041 A 
ATOM     68  F   UNL A   1      36.783  33.123  33.088  1.00  0.00    -0.206 F 
ATOM     69  C   UNL A   1      34.074  34.938  31.644  1.00  0.00     0.022 A 
BRANCH  66  70
ATOM     70  S   UNL A   1      33.333  35.726  29.096  1.00  0.00     0.124 S 
ATOM     71  O   UNL A   1      32.598  34.612  28.508  1.00  0.00    -0.237 OA
ATOM     72  O   UNL A   1      32.568  36.633  29.945  1.00  0.00    -0.237 OA
ATOM     73  O   UNL A   1      34.280  36.382  28.194  1.00  0.00    -0.744 OA
ENDBRANCH  66  70
ENDBRANCH  49  63
BRANCH  50  74
ATOM     74  C   UNL A   1      44.708  29.043  28.474  1.00  0.00     0.023 A 
ATOM     75  C   UNL A   1      45.541  28.007  28.946  1.00  0.00     0.031 A 
ATOM     76  C   UNL A   1      44.083  28.869  27.233  1.00  0.00     0.131 A 
ATOM     77  C   UNL A   1      45.593  26.780  28.272  1.00  0.00     0.055 A 
ATOM     78  C   UNL A   1      44.193  27.663  26.527  1.00  0.00     0.041 A 
ATOM     79  F   UNL A   1      43.249  29.803  26.751  1.00  0.00    -0.206 F 
ATOM     80  C   UNL A   1      44.914  26.596  27.066  1.00  0.00     0.022 A 
BRANCH  77  81
ATOM     81  S   UNL A   1      46.344  25.370  29.135  1.00  0.00     0.124 S 
ATOM     82  O   UNL A   1      47.767  25.589  28.896  1.00  0.00    -0.237 OA
ATOM     83  O   UNL A   1      45.887  25.569  30.510  1.00  0.00    -0.237 OA
ATOM     84  O   UNL A   1      45.767  24.208  28.464  1.00  0.00    -0.744 OA
ENDBRANCH  77  81
ENDBRANCH  50  74
BRANCH  62  85
ATOM     85  C   UNL A   1      42.495  35.978  28.826  1.00  0.00     0.023 A 
ATOM     86  C   UNL A   1      43.025  37.086  29.505  1.00  0.00     0.031 A 
ATOM     87  C   UNL A   1      42.027  36.264  27.517  1.00  0.00     0.131 A 
ATOM     88  C   UNL A   1      43.035  38.378  28.939  1.00  0.00     0.055 A 
ATOM     89  C   UNL A   1      42.075  37.538  26.935  1.00  0.00     0.041 A 
ATOM     90  F   UNL A   1      41.515  35.316  26.720  1.00  0.00    -0.206 F 
ATOM     91  C   UNL A   1      42.572  38.612  27.651  1.00  0.00     0.022 A 
BRANCH  88  92
ATOM     92  S   UNL A   1      43.636  39.754  29.957  1.00  0.00     0.124 S 
ATOM     93  O   UNL A   1      42.495  40.667  29.938  1.00  0.00    -0.237 OA
ATOM     94  O   UNL A   1      43.900  39.100  31.235  1.00  0.00    -0.237 OA
ATOM     95  O   UNL A   1      44.819  40.225  29.242  1.00  0.00    -0.744 OA
ENDBRANCH  88  92
ENDBRANCH  62  85
ENDBRANCH  36  37
ENDBRANCH  28  31
ENDBRANCH  26  27
ENDBRANCH  25  26
ENDBRANCH   1  25
TORSDOF 17
ENDMDL
MODEL 3
REMARK VINA RESULT:     -11.6      2.905      4.568
REMARK SMILES Cc1ccc(O[C@H](C)C(=O)Nc2ccsc2C(=O)NCCCNC(=O)c2ccc(-c3c4nc(c(-c5cc(S(=O)(=O)[O-])ccc5F)c5ccc([nH]5)c(-c5cc(S(=O)(=O)[O-])ccc5F)c5nc(c(-c6cc(S(=O)(=O)[O-])ccc6F)c6ccc3[nH]6)C=C5)C=C4)cc2)cc1
REMARK SMILES IDX 20 1 19 2 17 3 18 4 16 6 12 7 13 8 14 9 15 10 11 11 9 12
REMARK SMILES IDX 10 13 7 15 8 16 6 17 5 18 1 19 2 20 3 21 90 22 4 23 89 24
REMARK SMILES IDX 21 25 22 26 23 27 24 28 25 30 26 31 27 32 88 33 28 34 87 35
REMARK SMILES IDX 29 36 30 37 31 38 81 39 32 40 86 41 80 42 82 43 33 44 85 45
REMARK SMILES IDX 79 46 78 47 34 49 66 50 46 51 65 52 47 53 50 54 64 55 83 56
REMARK SMILES IDX 48 57 49 58 63 60 84 61 51 62 35 63 36 64 44 65 37 66 43 67
REMARK SMILES IDX 45 68 42 69 38 70 39 71 40 72 41 73 67 74 68 75 76 76 69 77
REMARK SMILES IDX 75 78 77 79 74 80 70 81 71 82 72 83 73 84 52 85 53 86 61 87
REMARK SMILES IDX 54 88 60 89 62 90 59 91 55 92 56 93 57 94 58 95
REMARK H PARENT 19 5 11 14 23 29 82 48 50 59
REMARK Flexibility Score: inf
ROOT
ATOM      1  C   UNL A   1      35.918  22.693  24.525  1.00  0.00     0.118 C 
ENDROOT
BRANCH   1   2
ATOM      2  N   UNL A   1      35.243  22.092  25.663  1.00  0.00    -0.351 N 
ATOM      3  C   UNL A   1      34.041  22.150  26.313  1.00  0.00     0.263 C 
ATOM      4  O   UNL A   1      34.028  21.404  27.303  1.00  0.00    -0.268 OA
ATOM      5  H   UNL A   1      35.836  21.441  26.103  1.00  0.00     0.163 HD
BRANCH   3   6
ATOM      6  C   UNL A   1      32.870  22.963  25.957  1.00  0.00     0.115 A 
ATOM      7  C   UNL A   1      32.381  23.651  24.850  1.00  0.00     0.065 A 
ATOM      8  C   UNL A   1      31.106  24.263  25.096  1.00  0.00     0.038 A 
ATOM      9  C   UNL A   1      30.678  24.122  26.389  1.00  0.00     0.068 A 
ATOM     10  S   UNL A   1      31.780  23.227  27.310  1.00  0.00    -0.137 S 
BRANCH   7  11
ATOM     11  N   UNL A   1      32.952  23.673  23.598  1.00  0.00    -0.321 N 
ATOM     12  C   UNL A   1      32.962  22.697  22.641  1.00  0.00     0.265 C 
ATOM     13  O   UNL A   1      33.511  22.964  21.564  1.00  0.00    -0.270 OA
ATOM     14  H   UNL A   1      33.418  24.506  23.359  1.00  0.00     0.170 HD
BRANCH  12  15
ATOM     15  C   UNL A   1      32.359  21.290  22.862  1.00  0.00     0.259 C 
ATOM     16  C   UNL A   1      31.747  20.887  21.526  1.00  0.00     0.064 C 
BRANCH  15  17
ATOM     17  O   UNL A   1      33.224  20.429  23.586  1.00  0.00    -0.481 OA
BRANCH  17  18
ATOM     18  C   UNL A   1      33.082  19.118  23.896  1.00  0.00     0.120 A 
ATOM     19  C   UNL A   1      32.921  15.125  25.565  1.00  0.00     0.044 C 
ATOM     20  C   UNL A   1      32.902  16.505  24.981  1.00  0.00    -0.051 A 
ATOM     21  C   UNL A   1      33.299  16.712  23.658  1.00  0.00     0.007 A 
ATOM     22  C   UNL A   1      32.570  17.615  25.755  1.00  0.00     0.007 A 
ATOM     23  C   UNL A   1      33.376  18.005  23.121  1.00  0.00     0.047 A 
ATOM     24  C   UNL A   1      32.659  18.903  25.215  1.00  0.00     0.047 A 
ENDBRANCH  17  18
ENDBRANCH  15  17
ENDBRANCH  12  15
ENDBRANCH   7  11
ENDBRANCH   3   6
ENDBRANCH   1   2
BRANCH   1  25
ATOM     25  C   UNL A   1      37.431  22.703  24.711  1.00  0.00     0.042 C 
BRANCH  25  26
ATOM     26  C   UNL A   1      37.841  22.256  26.110  1.00  0.00     0.118 C 
BRANCH  26  27
ATOM     27  N   UNL A   1      39.284  22.097  26.306  1.00  0.00    -0.352 N 
ATOM     28  C   UNL A   1      40.213  23.065  26.695  1.00  0.00     0.251 C 
ATOM     29  H   UNL A   1      39.644  21.196  26.143  1.00  0.00     0.163 HD
ATOM     30  O   UNL A   1      41.387  22.821  26.833  1.00  0.00    -0.269 OA
BRANCH  28  31
ATOM     31  C   UNL A   1      39.682  24.414  27.007  1.00  0.00     0.039 A 
ATOM     32  C   UNL A   1      40.097  25.478  26.202  1.00  0.00     0.014 A 
ATOM     33  C   UNL A   1      39.141  24.629  28.269  1.00  0.00     0.014 A 
ATOM     34  C   UNL A   1      40.235  26.736  26.779  1.00  0.00     0.010 A 
ATOM     35  C   UNL A   1      39.417  25.836  28.876  1.00  0.00     0.010 A 
ATOM     36  C   UNL A   1      40.034  26.869  28.152  1.00  0.00    -0.014 A 
BRANCH  36  37
ATOM     37  C   UNL A   1      40.596  27.963  28.947  1.00  0.00     0.031 A 
ATOM     38  C   UNL A   1      39.764  29.137  29.293  1.00  0.00     0.074 A 
ATOM     39  C   UNL A   1      41.849  27.867  29.452  1.00  0.00     0.049 A 
ATOM     40  N   UNL A   1      40.227  30.238  29.777  1.00  0.00    -0.248 NA
ATOM     41  C   UNL A   1      38.329  29.199  29.034  1.00  0.00     0.031 C 
ATOM     42  C   UNL A   1      42.442  28.677  30.516  1.00  0.00     0.029 A 
ATOM     43  N   UNL A   1      42.932  27.174  28.906  1.00  0.00    -0.354 N 
ATOM     44  C   UNL A   1      39.164  31.020  30.161  1.00  0.00     0.074 A 
ATOM     45  C   UNL A   1      38.016  30.376  29.579  1.00  0.00     0.031 C 
ATOM     46  C   UNL A   1      43.776  28.657  30.389  1.00  0.00     0.029 A 
ATOM     47  C   UNL A   1      44.081  27.946  29.164  1.00  0.00     0.049 A 
ATOM     48  H   UNL A   1      42.898  26.313  28.432  1.00  0.00     0.167 HD
ATOM     49  C   UNL A   1      39.393  32.046  31.026  1.00  0.00     0.034 A 
ATOM     50  C   UNL A   1      44.848  28.437  28.150  1.00  0.00     0.034 A 
ATOM     51  C   UNL A   1      40.828  32.359  31.095  1.00  0.00     0.049 A 
ATOM     52  C   UNL A   1      44.941  29.946  28.125  1.00  0.00     0.074 A 
ATOM     53  C   UNL A   1      41.816  32.191  32.049  1.00  0.00     0.029 A 
ATOM     54  N   UNL A   1      41.487  32.721  29.920  1.00  0.00    -0.354 N 
ATOM     55  N   UNL A   1      44.165  30.754  28.794  1.00  0.00    -0.248 NA
ATOM     56  C   UNL A   1      45.917  30.658  27.312  1.00  0.00     0.031 C 
ATOM     57  C   UNL A   1      43.077  32.414  31.423  1.00  0.00     0.029 A 
ATOM     58  C   UNL A   1      42.857  32.751  30.097  1.00  0.00     0.049 A 
ATOM     59  H   UNL A   1      41.033  32.928  29.071  1.00  0.00     0.167 HD
ATOM     60  C   UNL A   1      44.471  32.060  28.484  1.00  0.00     0.074 A 
ATOM     61  C   UNL A   1      45.599  31.937  27.574  1.00  0.00     0.031 C 
ATOM     62  C   UNL A   1      43.745  33.110  28.989  1.00  0.00     0.034 A 
BRANCH  49  63
ATOM     63  C   UNL A   1      38.359  32.631  31.984  1.00  0.00     0.023 A 
ATOM     64  C   UNL A   1      38.557  32.474  33.376  1.00  0.00     0.031 A 
ATOM     65  C   UNL A   1      37.128  33.231  31.634  1.00  0.00     0.131 A 
ATOM     66  C   UNL A   1      37.566  32.837  34.314  1.00  0.00     0.055 A 
ATOM     67  C   UNL A   1      36.149  33.601  32.567  1.00  0.00     0.041 A 
ATOM     68  F   UNL A   1      36.776  33.495  30.376  1.00  0.00    -0.206 F 
ATOM     69  C   UNL A   1      36.357  33.395  33.915  1.00  0.00     0.022 A 
BRANCH  66  70
ATOM     70  S   UNL A   1      37.850  32.526  36.079  1.00  0.00     0.124 S 
ATOM     71  O   UNL A   1      39.166  33.120  36.288  1.00  0.00    -0.237 OA
ATOM     72  O   UNL A   1      36.722  33.211  36.699  1.00  0.00    -0.237 OA
ATOM     73  O   UNL A   1      37.812  31.067  36.176  1.00  0.00    -0.744 OA
ENDBRANCH  66  70
ENDBRANCH  49  63
BRANCH  50  74
ATOM     74  C   UNL A   1      44.896  27.541  26.962  1.00  0.00     0.023 A 
ATOM     75  C   UNL A   1      45.741  26.415  27.047  1.00  0.00     0.031 A 
ATOM     76  C   UNL A   1      43.885  27.533  25.993  1.00  0.00     0.131 A 
ATOM     77  C   UNL A   1      45.459  25.264  26.300  1.00  0.00     0.055 A 
ATOM     78  C   UNL A   1      43.649  26.403  25.199  1.00  0.00     0.041 A 
ATOM     79  F   UNL A   1      43.027  28.559  25.892  1.00  0.00    -0.206 F 
ATOM     80  C   UNL A   1      44.410  25.245  25.380  1.00  0.00     0.022 A 
BRANCH  77  81
ATOM     81  S   UNL A   1      46.323  23.730  26.748  1.00  0.00     0.124 S 
ATOM     82  O   UNL A   1      47.573  24.236  27.307  1.00  0.00    -0.237 OA
ATOM     83  O   UNL A   1      45.397  23.120  27.702  1.00  0.00    -0.237 OA
ATOM     84  O   UNL A   1      46.446  23.019  25.479  1.00  0.00    -0.744 OA
ENDBRANCH  77  81
ENDBRANCH  50  74
BRANCH  62  85
ATOM     85  C   UNL A   1      43.822  34.573  28.548  1.00  0.00     0.023 A 
ATOM     86  C   UNL A   1      44.206  35.633  29.383  1.00  0.00     0.031 A 
ATOM     87  C   UNL A   1      43.530  34.958  27.212  1.00  0.00     0.131 A 
ATOM     88  C   UNL A   1      44.241  36.969  28.931  1.00  0.00     0.055 A 
ATOM     89  C   UNL A   1      43.605  36.278  26.749  1.00  0.00     0.041 A 
ATOM     90  F   UNL A   1      43.173  34.067  26.276  1.00  0.00    -0.206 F 
ATOM     91  C   UNL A   1      43.953  37.300  27.614  1.00  0.00     0.022 A 
BRANCH  88  92
ATOM     92  S   UNL A   1      44.636  38.270  30.133  1.00  0.00     0.124 S 
ATOM     93  O   UNL A   1      44.880  37.497  31.348  1.00  0.00    -0.237 OA
ATOM     94  O   UNL A   1      45.813  38.894  29.536  1.00  0.00    -0.237 OA
ATOM     95  O   UNL A   1      43.434  39.099  30.155  1.00  0.00    -0.744 OA
ENDBRANCH  88  92
ENDBRANCH  62  85
ENDBRANCH  36  37
ENDBRANCH  28  31
ENDBRANCH  26  27
ENDBRANCH  25  26
ENDBRANCH   1  25
TORSDOF 17
ENDMDL
