MODEL 1
REMARK VINA RESULT:     -12.4      0.000      0.000
REMARK SMILES N#Cc1ccc2c(c1)C=C(C(=O)NCCCNC(=O)c1ccc(-c3c4nc(c(-c5cc(S(=O)(=O)[O-])ccc5F)c5ccc([nH]5)c(-c5cc(S(=O)(=O)[O-])ccc5F)c5nc(c(-c6cc(S(=O)(=O)[O-])ccc6F)c6ccc3[nH]6)C=C5)C=C4)cc1)[C@@H](C(F)(F)F)O2
REMARK SMILES IDX 16 1 15 2 14 3 13 4 11 5 12 6 10 8 3 9 4 10 8 11 5 12 7 13
REMARK SMILES IDX 6 14 9 15 88 16 83 17 2 18 1 19 84 20 85 21 86 22 87 23
REMARK SMILES IDX 17 24 18 25 19 27 20 28 21 29 82 30 22 31 81 32 23 33 24 34
REMARK SMILES IDX 25 35 75 36 26 37 80 38 74 39 76 40 27 41 79 42 73 43 72 44
REMARK SMILES IDX 28 46 60 47 40 48 59 49 41 50 44 51 58 52 77 53 42 54 43 55
REMARK SMILES IDX 57 57 78 58 45 59 29 60 30 61 38 62 31 63 37 64 39 65 36 66
REMARK SMILES IDX 32 67 33 68 34 69 35 70 61 71 62 72 70 73 63 74 69 75 71 76
REMARK SMILES IDX 68 77 64 78 65 79 66 80 67 81 46 82 47 83 55 84 48 85 54 86
REMARK SMILES IDX 56 87 53 88 49 89 50 90 51 91 52 92
REMARK H PARENT 13 7 17 26 76 45 44 56
REMARK Flexibility Score: inf
ROOT
ATOM      1  C   UNL A   1      32.674  30.144  26.194  1.00  0.00     0.118 C 
ENDROOT
BRANCH   1   2
ATOM      2  C   UNL A   1      31.735  29.185  26.902  1.00  0.00     0.042 C 
BRANCH   2   3
ATOM      3  C   UNL A   1      32.405  27.853  27.181  1.00  0.00     0.118 C 
BRANCH   3   4
ATOM      4  N   UNL A   1      31.480  26.736  27.045  1.00  0.00    -0.352 N 
ATOM      5  C   UNL A   1      31.459  25.541  26.409  1.00  0.00     0.251 C 
ATOM      6  O   UNL A   1      30.453  24.851  26.603  1.00  0.00    -0.270 OA
ATOM      7  H   UNL A   1      30.649  26.891  27.550  1.00  0.00     0.163 HD
BRANCH   5   8
ATOM      8  C   UNL A   1      32.546  25.030  25.524  1.00  0.00     0.067 C 
ATOM      9  C   UNL A   1      36.805  22.784  25.068  1.00  0.00     0.053 A 
ATOM     10  C   UNL A   1      36.653  22.788  23.677  1.00  0.00     0.023 A 
ATOM     11  C   UNL A   1      35.796  23.313  25.887  1.00  0.00     0.031 A 
ATOM     12  C   UNL A   1      35.501  23.321  23.106  1.00  0.00     0.048 A 
ATOM     13  C   UNL A   1      34.641  23.854  25.313  1.00  0.00     0.018 A 
ATOM     14  C   UNL A   1      34.510  23.857  23.923  1.00  0.00     0.128 A 
ATOM     15  C   UNL A   1      33.552  24.373  26.131  1.00  0.00     0.025 C 
ATOM     16  O   UNL A   1      33.406  24.332  23.283  1.00  0.00    -0.475 OA
ATOM     17  C   UNL A   1      32.563  25.239  24.038  1.00  0.00     0.314 C 
BRANCH   9  18
ATOM     18  C   UNL A   1      37.990  22.229  25.649  1.00  0.00     0.099 C 
ATOM     19  N   UNL A   1      38.950  21.787  26.131  1.00  0.00    -0.192 NA
ENDBRANCH   9  18
BRANCH  17  20
ATOM     20  C   UNL A   1      32.924  26.691  23.658  1.00  0.00     0.429 C 
ATOM     21  F   UNL A   1      33.958  27.136  24.413  1.00  0.00    -0.167 F 
ATOM     22  F   UNL A   1      33.310  26.818  22.366  1.00  0.00    -0.167 F 
ATOM     23  F   UNL A   1      31.892  27.545  23.836  1.00  0.00    -0.167 F 
ENDBRANCH  17  20
ENDBRANCH   5   8
ENDBRANCH   3   4
ENDBRANCH   2   3
ENDBRANCH   1   2
BRANCH   1  24
ATOM     24  N   UNL A   1      32.493  31.527  26.642  1.00  0.00    -0.352 N 
ATOM     25  C   UNL A   1      33.260  32.300  27.485  1.00  0.00     0.251 C 
ATOM     26  H   UNL A   1      31.695  31.977  26.283  1.00  0.00     0.163 HD
ATOM     27  O   UNL A   1      32.815  33.357  27.918  1.00  0.00    -0.269 OA
BRANCH  25  28
ATOM     28  C   UNL A   1      34.597  31.822  27.879  1.00  0.00     0.039 A 
ATOM     29  C   UNL A   1      34.780  30.477  28.189  1.00  0.00     0.014 A 
ATOM     30  C   UNL A   1      35.653  32.726  28.012  1.00  0.00     0.014 A 
ATOM     31  C   UNL A   1      35.908  30.092  28.891  1.00  0.00     0.010 A 
ATOM     32  C   UNL A   1      36.857  32.293  28.574  1.00  0.00     0.010 A 
ATOM     33  C   UNL A   1      36.966  30.991  29.089  1.00  0.00    -0.014 A 
BRANCH  33  34
ATOM     34  C   UNL A   1      38.165  30.531  29.837  1.00  0.00     0.031 A 
ATOM     35  C   UNL A   1      38.389  30.937  31.270  1.00  0.00     0.074 A 
ATOM     36  C   UNL A   1      39.020  29.682  29.232  1.00  0.00     0.049 A 
ATOM     37  N   UNL A   1      39.364  30.596  32.073  1.00  0.00    -0.248 NA
ATOM     38  C   UNL A   1      37.403  31.843  31.882  1.00  0.00     0.031 C 
ATOM     39  C   UNL A   1      38.894  29.217  27.849  1.00  0.00     0.029 A 
ATOM     40  N   UNL A   1      40.137  29.037  29.696  1.00  0.00    -0.354 N 
ATOM     41  C   UNL A   1      39.126  31.263  33.271  1.00  0.00     0.074 A 
ATOM     42  C   UNL A   1      37.936  32.062  33.077  1.00  0.00     0.031 C 
ATOM     43  C   UNL A   1      39.846  28.311  27.600  1.00  0.00     0.029 A 
ATOM     44  C   UNL A   1      40.718  28.207  28.764  1.00  0.00     0.049 A 
ATOM     45  H   UNL A   1      40.490  29.155  30.608  1.00  0.00     0.167 HD
ATOM     46  C   UNL A   1      39.827  31.198  34.426  1.00  0.00     0.034 A 
ATOM     47  C   UNL A   1      41.840  27.463  28.821  1.00  0.00     0.034 A 
ATOM     48  C   UNL A   1      40.997  30.373  34.603  1.00  0.00     0.049 A 
ATOM     49  C   UNL A   1      42.621  27.437  30.106  1.00  0.00     0.074 A 
ATOM     50  C   UNL A   1      41.758  30.211  35.748  1.00  0.00     0.029 A 
ATOM     51  N   UNL A   1      41.576  29.575  33.626  1.00  0.00    -0.354 N 
ATOM     52  N   UNL A   1      42.352  28.035  31.243  1.00  0.00    -0.248 NA
ATOM     53  C   UNL A   1      43.848  26.633  30.127  1.00  0.00     0.031 C 
ATOM     54  C   UNL A   1      42.843  29.394  35.438  1.00  0.00     0.029 A 
ATOM     55  C   UNL A   1      42.704  28.951  34.133  1.00  0.00     0.049 A 
ATOM     56  H   UNL A   1      41.236  29.469  32.709  1.00  0.00     0.167 HD
ATOM     57  C   UNL A   1      43.363  27.657  32.122  1.00  0.00     0.074 A 
ATOM     58  C   UNL A   1      44.228  26.754  31.392  1.00  0.00     0.031 C 
ATOM     59  C   UNL A   1      43.556  28.032  33.412  1.00  0.00     0.034 A 
BRANCH  46  60
ATOM     60  C   UNL A   1      39.374  32.022  35.611  1.00  0.00     0.023 A 
ATOM     61  C   UNL A   1      38.667  31.402  36.661  1.00  0.00     0.031 A 
ATOM     62  C   UNL A   1      39.494  33.422  35.630  1.00  0.00     0.131 A 
ATOM     63  C   UNL A   1      38.058  32.184  37.649  1.00  0.00     0.055 A 
ATOM     64  C   UNL A   1      38.935  34.194  36.652  1.00  0.00     0.041 A 
ATOM     65  F   UNL A   1      40.154  34.066  34.654  1.00  0.00    -0.206 F 
ATOM     66  C   UNL A   1      38.198  33.576  37.657  1.00  0.00     0.022 A 
BRANCH  63  67
ATOM     67  S   UNL A   1      36.982  31.437  38.904  1.00  0.00     0.124 S 
ATOM     68  O   UNL A   1      37.807  31.540  40.106  1.00  0.00    -0.237 OA
ATOM     69  O   UNL A   1      35.818  32.317  38.868  1.00  0.00    -0.237 OA
ATOM     70  O   UNL A   1      36.765  30.079  38.416  1.00  0.00    -0.744 OA
ENDBRANCH  63  67
ENDBRANCH  46  60
BRANCH  47  71
ATOM     71  C   UNL A   1      42.245  26.670  27.623  1.00  0.00     0.023 A 
ATOM     72  C   UNL A   1      42.083  25.272  27.600  1.00  0.00     0.031 A 
ATOM     73  C   UNL A   1      42.910  27.273  26.544  1.00  0.00     0.131 A 
ATOM     74  C   UNL A   1      42.658  24.519  26.570  1.00  0.00     0.055 A 
ATOM     75  C   UNL A   1      43.403  26.526  25.471  1.00  0.00     0.041 A 
ATOM     76  F   UNL A   1      43.106  28.601  26.525  1.00  0.00    -0.206 F 
ATOM     77  C   UNL A   1      43.297  25.138  25.493  1.00  0.00     0.022 A 
BRANCH  74  78
ATOM     78  S   UNL A   1      42.736  22.708  26.680  1.00  0.00     0.124 S 
ATOM     79  O   UNL A   1      41.867  22.434  27.819  1.00  0.00    -0.237 OA
ATOM     80  O   UNL A   1      42.210  22.311  25.375  1.00  0.00    -0.237 OA
ATOM     81  O   UNL A   1      44.153  22.435  26.885  1.00  0.00    -0.744 OA
ENDBRANCH  74  78
ENDBRANCH  47  71
BRANCH  59  82
ATOM     82  C   UNL A   1      44.736  27.460  34.165  1.00  0.00     0.023 A 
ATOM     83  C   UNL A   1      44.585  26.259  34.887  1.00  0.00     0.031 A 
ATOM     84  C   UNL A   1      45.941  28.168  34.303  1.00  0.00     0.131 A 
ATOM     85  C   UNL A   1      45.597  25.834  35.755  1.00  0.00     0.055 A 
ATOM     86  C   UNL A   1      46.975  27.704  35.116  1.00  0.00     0.041 A 
ATOM     87  F   UNL A   1      46.131  29.327  33.651  1.00  0.00    -0.206 F 
ATOM     88  C   UNL A   1      46.798  26.542  35.862  1.00  0.00     0.022 A 
BRANCH  85  89
ATOM     89  S   UNL A   1      45.346  24.418  36.860  1.00  0.00     0.124 S 
ATOM     90  O   UNL A   1      44.943  23.372  35.924  1.00  0.00    -0.237 OA
ATOM     91  O   UNL A   1      46.672  24.250  37.449  1.00  0.00    -0.237 OA
ATOM     92  O   UNL A   1      44.304  24.867  37.778  1.00  0.00    -0.744 OA
ENDBRANCH  85  89
ENDBRANCH  59  82
ENDBRANCH  33  34
ENDBRANCH  25  28
ENDBRANCH   1  24
TORSDOF 15
ENDMDL
MODEL 2
REMARK VINA RESULT:     -12.4      5.017     10.284
REMARK SMILES N#Cc1ccc2c(c1)C=C(C(=O)NCCCNC(=O)c1ccc(-c3c4nc(c(-c5cc(S(=O)(=O)[O-])ccc5F)c5ccc([nH]5)c(-c5cc(S(=O)(=O)[O-])ccc5F)c5nc(c(-c6cc(S(=O)(=O)[O-])ccc6F)c6ccc3[nH]6)C=C5)C=C4)cc1)[C@@H](C(F)(F)F)O2
REMARK SMILES IDX 16 1 15 2 14 3 13 4 11 5 12 6 10 8 3 9 4 10 8 11 5 12 7 13
REMARK SMILES IDX 6 14 9 15 88 16 83 17 2 18 1 19 84 20 85 21 86 22 87 23
REMARK SMILES IDX 17 24 18 25 19 27 20 28 21 29 82 30 22 31 81 32 23 33 24 34
REMARK SMILES IDX 25 35 75 36 26 37 80 38 74 39 76 40 27 41 79 42 73 43 72 44
REMARK SMILES IDX 28 46 60 47 40 48 59 49 41 50 44 51 58 52 77 53 42 54 43 55
REMARK SMILES IDX 57 57 78 58 45 59 29 60 30 61 38 62 31 63 37 64 39 65 36 66
REMARK SMILES IDX 32 67 33 68 34 69 35 70 61 71 62 72 70 73 63 74 69 75 71 76
REMARK SMILES IDX 68 77 64 78 65 79 66 80 67 81 46 82 47 83 55 84 48 85 54 86
REMARK SMILES IDX 56 87 53 88 49 89 50 90 51 91 52 92
REMARK H PARENT 13 7 17 26 76 45 44 56
REMARK Flexibility Score: inf
ROOT
ATOM      1  C   UNL A   1      36.789  22.169  25.160  1.00  0.00     0.118 C 
ENDROOT
BRANCH   1   2
ATOM      2  C   UNL A   1      35.616  22.088  26.120  1.00  0.00     0.042 C 
BRANCH   2   3
ATOM      3  C   UNL A   1      34.482  21.259  25.547  1.00  0.00     0.118 C 
BRANCH   3   4
ATOM      4  N   UNL A   1      34.078  21.722  24.227  1.00  0.00    -0.352 N 
ATOM      5  C   UNL A   1      33.425  22.789  23.709  1.00  0.00     0.251 C 
ATOM      6  O   UNL A   1      33.331  22.812  22.478  1.00  0.00    -0.270 OA
ATOM      7  H   UNL A   1      34.353  21.092  23.523  1.00  0.00     0.163 HD
BRANCH   5   8
ATOM      8  C   UNL A   1      32.840  23.900  24.515  1.00  0.00     0.067 C 
ATOM      9  C   UNL A   1      33.444  28.103  26.831  1.00  0.00     0.053 A 
ATOM     10  C   UNL A   1      32.063  28.182  27.038  1.00  0.00     0.023 A 
ATOM     11  C   UNL A   1      33.987  27.026  26.114  1.00  0.00     0.031 A 
ATOM     12  C   UNL A   1      31.227  27.189  26.535  1.00  0.00     0.048 A 
ATOM     13  C   UNL A   1      33.148  26.026  25.612  1.00  0.00     0.018 A 
ATOM     14  C   UNL A   1      31.772  26.117  25.836  1.00  0.00     0.128 A 
ATOM     15  C   UNL A   1      33.668  24.915  24.825  1.00  0.00     0.025 C 
ATOM     16  O   UNL A   1      30.881  25.206  25.356  1.00  0.00    -0.475 OA
ATOM     17  C   UNL A   1      31.417  23.908  24.993  1.00  0.00     0.314 C 
BRANCH   9  18
ATOM     18  C   UNL A   1      34.297  29.130  27.347  1.00  0.00     0.099 C 
ATOM     19  N   UNL A   1      34.983  29.973  27.760  1.00  0.00    -0.192 NA
ENDBRANCH   9  18
BRANCH  17  20
ATOM     20  C   UNL A   1      31.189  22.928  26.162  1.00  0.00     0.429 C 
ATOM     21  F   UNL A   1      32.197  23.022  27.064  1.00  0.00    -0.167 F 
ATOM     22  F   UNL A   1      30.043  23.172  26.841  1.00  0.00    -0.167 F 
ATOM     23  F   UNL A   1      31.127  21.640  25.755  1.00  0.00    -0.167 F 
ENDBRANCH  17  20
ENDBRANCH   5   8
ENDBRANCH   3   4
ENDBRANCH   2   3
ENDBRANCH   1   2
BRANCH   1  24
ATOM     24  N   UNL A   1      37.769  21.105  25.394  1.00  0.00    -0.352 N 
ATOM     25  C   UNL A   1      39.035  21.161  25.930  1.00  0.00     0.251 C 
ATOM     26  H   UNL A   1      37.475  20.206  25.123  1.00  0.00     0.163 HD
ATOM     27  O   UNL A   1      39.786  20.196  25.827  1.00  0.00    -0.269 OA
BRANCH  25  28
ATOM     28  C   UNL A   1      39.481  22.400  26.594  1.00  0.00     0.039 A 
ATOM     29  C   UNL A   1      38.969  23.623  26.173  1.00  0.00     0.014 A 
ATOM     30  C   UNL A   1      40.462  22.349  27.585  1.00  0.00     0.014 A 
ATOM     31  C   UNL A   1      39.626  24.788  26.526  1.00  0.00     0.010 A 
ATOM     32  C   UNL A   1      41.013  23.540  28.064  1.00  0.00     0.010 A 
ATOM     33  C   UNL A   1      40.654  24.766  27.481  1.00  0.00    -0.014 A 
BRANCH  33  34
ATOM     34  C   UNL A   1      41.323  26.043  27.841  1.00  0.00     0.031 A 
ATOM     35  C   UNL A   1      42.722  26.345  27.372  1.00  0.00     0.074 A 
ATOM     36  C   UNL A   1      40.629  26.965  28.539  1.00  0.00     0.049 A 
ATOM     37  N   UNL A   1      43.436  27.424  27.570  1.00  0.00    -0.248 NA
ATOM     38  C   UNL A   1      43.415  25.309  26.589  1.00  0.00     0.031 C 
ATOM     39  C   UNL A   1      39.264  26.779  29.036  1.00  0.00     0.029 A 
ATOM     40  N   UNL A   1      40.952  28.239  28.928  1.00  0.00    -0.354 N 
ATOM     41  C   UNL A   1      44.665  27.188  26.962  1.00  0.00     0.074 A 
ATOM     42  C   UNL A   1      44.616  25.847  26.423  1.00  0.00     0.031 C 
ATOM     43  C   UNL A   1      38.841  27.918  29.596  1.00  0.00     0.029 A 
ATOM     44  C   UNL A   1      39.935  28.881  29.600  1.00  0.00     0.049 A 
ATOM     45  H   UNL A   1      41.824  28.656  28.744  1.00  0.00     0.167 HD
ATOM     46  C   UNL A   1      45.725  28.022  26.852  1.00  0.00     0.034 A 
ATOM     47  C   UNL A   1      39.890  30.097  30.180  1.00  0.00     0.034 A 
ATOM     48  C   UNL A   1      45.740  29.365  27.376  1.00  0.00     0.049 A 
ATOM     49  C   UNL A   1      41.095  30.989  30.074  1.00  0.00     0.074 A 
ATOM     50  C   UNL A   1      46.754  30.303  27.284  1.00  0.00     0.029 A 
ATOM     51  N   UNL A   1      44.707  29.967  28.081  1.00  0.00    -0.354 N 
ATOM     52  N   UNL A   1      42.230  30.768  29.452  1.00  0.00    -0.248 NA
ATOM     53  C   UNL A   1      41.019  32.297  30.733  1.00  0.00     0.031 C 
ATOM     54  C   UNL A   1      46.374  31.429  28.010  1.00  0.00     0.029 A 
ATOM     55  C   UNL A   1      45.078  31.247  28.462  1.00  0.00     0.049 A 
ATOM     56  H   UNL A   1      43.840  29.547  28.283  1.00  0.00     0.167 HD
ATOM     57  C   UNL A   1      42.992  31.920  29.623  1.00  0.00     0.074 A 
ATOM     58  C   UNL A   1      42.173  32.846  30.379  1.00  0.00     0.031 C 
ATOM     59  C   UNL A   1      44.253  32.180  29.198  1.00  0.00     0.034 A 
BRANCH  46  60
ATOM     60  C   UNL A   1      46.969  27.541  26.139  1.00  0.00     0.023 A 
ATOM     61  C   UNL A   1      47.191  27.913  24.798  1.00  0.00     0.031 A 
ATOM     62  C   UNL A   1      47.840  26.603  26.718  1.00  0.00     0.131 A 
ATOM     63  C   UNL A   1      48.217  27.305  24.065  1.00  0.00     0.055 A 
ATOM     64  C   UNL A   1      48.901  26.043  26.000  1.00  0.00     0.041 A 
ATOM     65  F   UNL A   1      47.675  26.211  27.991  1.00  0.00    -0.206 F 
ATOM     66  C   UNL A   1      49.080  26.380  24.662  1.00  0.00     0.022 A 
BRANCH  63  67
ATOM     67  S   UNL A   1      48.409  27.614  22.288  1.00  0.00     0.124 S 
ATOM     68  O   UNL A   1      47.200  28.377  21.985  1.00  0.00    -0.237 OA
ATOM     69  O   UNL A   1      49.655  28.375  22.246  1.00  0.00    -0.237 OA
ATOM     70  O   UNL A   1      48.464  26.279  21.704  1.00  0.00    -0.744 OA
ENDBRANCH  63  67
ENDBRANCH  46  60
BRANCH  47  71
ATOM     71  C   UNL A   1      38.639  30.521  30.874  1.00  0.00     0.023 A 
ATOM     72  C   UNL A   1      37.692  31.328  30.213  1.00  0.00     0.031 A 
ATOM     73  C   UNL A   1      38.430  30.239  32.232  1.00  0.00     0.131 A 
ATOM     74  C   UNL A   1      36.634  31.895  30.934  1.00  0.00     0.055 A 
ATOM     75  C   UNL A   1      37.322  30.733  32.926  1.00  0.00     0.041 A 
ATOM     76  F   UNL A   1      39.312  29.490  32.912  1.00  0.00    -0.206 F 
ATOM     77  C   UNL A   1      36.429  31.584  32.281  1.00  0.00     0.022 A 
BRANCH  74  78
ATOM     78  S   UNL A   1      35.590  33.178  30.188  1.00  0.00     0.124 S 
ATOM     79  O   UNL A   1      36.277  33.437  28.927  1.00  0.00    -0.237 OA
ATOM     80  O   UNL A   1      34.307  32.486  30.078  1.00  0.00    -0.237 OA
ATOM     81  O   UNL A   1      35.626  34.263  31.162  1.00  0.00    -0.744 OA
ENDBRANCH  74  78
ENDBRANCH  47  71
BRANCH  59  82
ATOM     82  C   UNL A   1      44.859  33.532  29.502  1.00  0.00     0.023 A 
ATOM     83  C   UNL A   1      44.767  34.566  28.550  1.00  0.00     0.031 A 
ATOM     84  C   UNL A   1      45.651  33.750  30.641  1.00  0.00     0.131 A 
ATOM     85  C   UNL A   1      45.500  35.745  28.726  1.00  0.00     0.055 A 
ATOM     86  C   UNL A   1      46.325  34.954  30.846  1.00  0.00     0.041 A 
ATOM     87  F   UNL A   1      45.787  32.791  31.573  1.00  0.00    -0.206 F 
ATOM     88  C   UNL A   1      46.267  35.952  29.876  1.00  0.00     0.022 A 
BRANCH  85  89
ATOM     89  S   UNL A   1      45.580  37.000  27.418  1.00  0.00     0.124 S 
ATOM     90  O   UNL A   1      44.174  37.373  27.272  1.00  0.00    -0.237 OA
ATOM     91  O   UNL A   1      46.435  38.017  28.022  1.00  0.00    -0.237 OA
ATOM     92  O   UNL A   1      46.155  36.288  26.281  1.00  0.00    -0.744 OA
ENDBRANCH  85  89
ENDBRANCH  59  82
ENDBRANCH  33  34
ENDBRANCH  25  28
ENDBRANCH   1  24
TORSDOF 15
ENDMDL
MODEL 3
REMARK VINA RESULT:     -12.3      5.214     10.077
REMARK SMILES N#Cc1ccc2c(c1)C=C(C(=O)NCCCNC(=O)c1ccc(-c3c4nc(c(-c5cc(S(=O)(=O)[O-])ccc5F)c5ccc([nH]5)c(-c5cc(S(=O)(=O)[O-])ccc5F)c5nc(c(-c6cc(S(=O)(=O)[O-])ccc6F)c6ccc3[nH]6)C=C5)C=C4)cc1)[C@@H](C(F)(F)F)O2
REMARK SMILES IDX 16 1 15 2 14 3 13 4 11 5 12 6 10 8 3 9 4 10 8 11 5 12 7 13
REMARK SMILES IDX 6 14 9 15 88 16 83 17 2 18 1 19 84 20 85 21 86 22 87 23
REMARK SMILES IDX 17 24 18 25 19 27 20 28 21 29 82 30 22 31 81 32 23 33 24 34
REMARK SMILES IDX 25 35 75 36 26 37 80 38 74 39 76 40 27 41 79 42 73 43 72 44
REMARK SMILES IDX 28 46 60 47 40 48 59 49 41 50 44 51 58 52 77 53 42 54 43 55
REMARK SMILES IDX 57 57 78 58 45 59 29 60 30 61 38 62 31 63 37 64 39 65 36 66
REMARK SMILES IDX 32 67 33 68 34 69 35 70 61 71 62 72 70 73 63 74 69 75 71 76
REMARK SMILES IDX 68 77 64 78 65 79 66 80 67 81 46 82 47 83 55 84 48 85 54 86
REMARK SMILES IDX 56 87 53 88 49 89 50 90 51 91 52 92
REMARK H PARENT 13 7 17 26 76 45 44 56
REMARK Flexibility Score: inf
ROOT
ATOM      1  C   UNL A   1      37.261  22.473  24.901  1.00  0.00     0.118 C 
ENDROOT
BRANCH   1   2
ATOM      2  C   UNL A   1      36.108  22.712  25.857  1.00  0.00     0.042 C 
BRANCH   2   3
ATOM      3  C   UNL A   1      35.480  24.076  25.644  1.00  0.00     0.118 C 
BRANCH   3   4
ATOM      4  N   UNL A   1      34.096  24.119  26.095  1.00  0.00    -0.352 N 
ATOM      5  C   UNL A   1      32.972  23.387  25.911  1.00  0.00     0.251 C 
ATOM      6  O   UNL A   1      31.980  23.763  26.542  1.00  0.00    -0.270 OA
ATOM      7  H   UNL A   1      33.934  24.884  26.694  1.00  0.00     0.163 HD
BRANCH   5   8
ATOM      8  C   UNL A   1      32.873  22.191  25.024  1.00  0.00     0.067 C 
ATOM      9  C   UNL A   1      33.735  17.488  24.299  1.00  0.00     0.053 A 
ATOM     10  C   UNL A   1      32.996  17.540  23.112  1.00  0.00     0.023 A 
ATOM     11  C   UNL A   1      33.862  18.633  25.098  1.00  0.00     0.031 A 
ATOM     12  C   UNL A   1      32.389  18.731  22.723  1.00  0.00     0.048 A 
ATOM     13  C   UNL A   1      33.257  19.831  24.706  1.00  0.00     0.018 A 
ATOM     14  C   UNL A   1      32.529  19.866  23.515  1.00  0.00     0.128 A 
ATOM     15  C   UNL A   1      33.329  21.031  25.532  1.00  0.00     0.025 C 
ATOM     16  O   UNL A   1      31.881  20.980  23.075  1.00  0.00    -0.475 OA
ATOM     17  C   UNL A   1      32.323  22.246  23.629  1.00  0.00     0.314 C 
BRANCH   9  18
ATOM     18  C   UNL A   1      34.353  16.258  24.694  1.00  0.00     0.099 C 
ATOM     19  N   UNL A   1      34.863  15.262  25.006  1.00  0.00    -0.192 NA
ENDBRANCH   9  18
BRANCH  17  20
ATOM     20  C   UNL A   1      33.306  22.908  22.640  1.00  0.00     0.429 C 
ATOM     21  F   UNL A   1      33.253  24.258  22.751  1.00  0.00    -0.167 F 
ATOM     22  F   UNL A   1      34.595  22.556  22.861  1.00  0.00    -0.167 F 
ATOM     23  F   UNL A   1      33.037  22.594  21.353  1.00  0.00    -0.167 F 
ENDBRANCH  17  20
ENDBRANCH   5   8
ENDBRANCH   3   4
ENDBRANCH   2   3
ENDBRANCH   1   2
BRANCH   1  24
ATOM     24  N   UNL A   1      38.156  21.411  25.368  1.00  0.00    -0.352 N 
ATOM     25  C   UNL A   1      39.305  21.479  26.123  1.00  0.00     0.251 C 
ATOM     26  H   UNL A   1      37.893  20.501  25.099  1.00  0.00     0.163 HD
ATOM     27  O   UNL A   1      40.037  20.499  26.212  1.00  0.00    -0.269 OA
BRANCH  25  28
ATOM     28  C   UNL A   1      39.653  22.748  26.787  1.00  0.00     0.039 A 
ATOM     29  C   UNL A   1      39.150  23.944  26.285  1.00  0.00     0.014 A 
ATOM     30  C   UNL A   1      40.540  22.753  27.866  1.00  0.00     0.014 A 
ATOM     31  C   UNL A   1      39.739  25.137  26.662  1.00  0.00     0.010 A 
ATOM     32  C   UNL A   1      41.011  23.974  28.357  1.00  0.00     0.010 A 
ATOM     33  C   UNL A   1      40.675  25.172  27.707  1.00  0.00    -0.014 A 
BRANCH  33  34
ATOM     34  C   UNL A   1      41.274  26.477  28.088  1.00  0.00     0.031 A 
ATOM     35  C   UNL A   1      42.687  26.825  27.702  1.00  0.00     0.074 A 
ATOM     36  C   UNL A   1      40.504  27.382  28.728  1.00  0.00     0.049 A 
ATOM     37  N   UNL A   1      43.348  27.932  27.928  1.00  0.00    -0.248 NA
ATOM     38  C   UNL A   1      43.465  25.806  26.980  1.00  0.00     0.031 C 
ATOM     39  C   UNL A   1      39.118  27.152  29.141  1.00  0.00     0.029 A 
ATOM     40  N   UNL A   1      40.755  28.672  29.116  1.00  0.00    -0.354 N 
ATOM     41  C   UNL A   1      44.620  27.734  27.401  1.00  0.00     0.074 A 
ATOM     42  C   UNL A   1      44.654  26.386  26.881  1.00  0.00     0.031 C 
ATOM     43  C   UNL A   1      38.620  28.281  29.657  1.00  0.00     0.029 A 
ATOM     44  C   UNL A   1      39.676  29.284  29.713  1.00  0.00     0.049 A 
ATOM     45  H   UNL A   1      41.622  29.118  28.980  1.00  0.00     0.167 HD
ATOM     46  C   UNL A   1      45.654  28.605  27.344  1.00  0.00     0.034 A 
ATOM     47  C   UNL A   1      39.551  30.505  30.271  1.00  0.00     0.034 A 
ATOM     48  C   UNL A   1      45.588  29.955  27.848  1.00  0.00     0.049 A 
ATOM     49  C   UNL A   1      40.727  31.440  30.226  1.00  0.00     0.074 A 
ATOM     50  C   UNL A   1      46.571  30.929  27.805  1.00  0.00     0.029 A 
ATOM     51  N   UNL A   1      44.491  30.527  28.478  1.00  0.00    -0.354 N 
ATOM     52  N   UNL A   1      41.906  31.254  29.679  1.00  0.00    -0.248 NA
ATOM     53  C   UNL A   1      40.561  32.753  30.859  1.00  0.00     0.031 C 
ATOM     54  C   UNL A   1      46.105  32.050  28.488  1.00  0.00     0.029 A 
ATOM     55  C   UNL A   1      44.790  31.825  28.862  1.00  0.00     0.049 A 
ATOM     56  H   UNL A   1      43.629  30.078  28.631  1.00  0.00     0.167 HD
ATOM     57  C   UNL A   1      42.612  32.435  29.880  1.00  0.00     0.074 A 
ATOM     58  C   UNL A   1      41.715  33.340  30.569  1.00  0.00     0.031 C 
ATOM     59  C   UNL A   1      43.888  32.736  29.530  1.00  0.00     0.034 A 
BRANCH  46  60
ATOM     60  C   UNL A   1      46.957  28.162  26.718  1.00  0.00     0.023 A 
ATOM     61  C   UNL A   1      47.106  28.204  25.317  1.00  0.00     0.031 A 
ATOM     62  C   UNL A   1      47.977  27.559  27.474  1.00  0.00     0.131 A 
ATOM     63  C   UNL A   1      48.215  27.599  24.715  1.00  0.00     0.055 A 
ATOM     64  C   UNL A   1      49.112  27.010  26.871  1.00  0.00     0.041 A 
ATOM     65  F   UNL A   1      47.887  27.490  28.811  1.00  0.00    -0.206 F 
ATOM     66  C   UNL A   1      49.225  27.012  25.485  1.00  0.00     0.022 A 
BRANCH  63  67
ATOM     67  S   UNL A   1      48.343  27.462  22.910  1.00  0.00     0.124 S 
ATOM     68  O   UNL A   1      48.276  26.015  22.714  1.00  0.00    -0.237 OA
ATOM     69  O   UNL A   1      47.168  28.207  22.466  1.00  0.00    -0.237 OA
ATOM     70  O   UNL A   1      49.632  28.072  22.603  1.00  0.00    -0.744 OA
ENDBRANCH  63  67
ENDBRANCH  46  60
BRANCH  47  71
ATOM     71  C   UNL A   1      38.243  30.892  30.879  1.00  0.00     0.023 A 
ATOM     72  C   UNL A   1      37.240  31.495  30.096  1.00  0.00     0.031 A 
ATOM     73  C   UNL A   1      38.025  30.784  32.261  1.00  0.00     0.131 A 
ATOM     74  C   UNL A   1      36.111  32.046  30.713  1.00  0.00     0.055 A 
ATOM     75  C   UNL A   1      36.854  31.253  32.860  1.00  0.00     0.041 A 
ATOM     76  F   UNL A   1      38.957  30.233  33.053  1.00  0.00    -0.206 F 
ATOM     77  C   UNL A   1      35.899  31.909  32.088  1.00  0.00     0.022 A 
BRANCH  74  78
ATOM     78  S   UNL A   1      34.964  33.096  29.776  1.00  0.00     0.124 S 
ATOM     79  O   UNL A   1      35.861  34.099  29.211  1.00  0.00    -0.237 OA
ATOM     80  O   UNL A   1      34.402  32.142  28.823  1.00  0.00    -0.237 OA
ATOM     81  O   UNL A   1      34.033  33.580  30.789  1.00  0.00    -0.744 OA
ENDBRANCH  74  78
ENDBRANCH  47  71
BRANCH  59  82
ATOM     82  C   UNL A   1      44.423  34.114  29.851  1.00  0.00     0.023 A 
ATOM     83  C   UNL A   1      44.255  35.160  28.922  1.00  0.00     0.031 A 
ATOM     84  C   UNL A   1      45.226  34.353  30.978  1.00  0.00     0.131 A 
ATOM     85  C   UNL A   1      44.925  36.374  29.108  1.00  0.00     0.055 A 
ATOM     86  C   UNL A   1      45.835  35.589  31.195  1.00  0.00     0.041 A 
ATOM     87  F   UNL A   1      45.433  33.386  31.887  1.00  0.00    -0.206 F 
ATOM     88  C   UNL A   1      45.702  36.600  30.248  1.00  0.00     0.022 A 
BRANCH  85  89
ATOM     89  S   UNL A   1      44.908  37.657  27.826  1.00  0.00     0.124 S 
ATOM     90  O   UNL A   1      46.253  37.541  27.265  1.00  0.00    -0.237 OA
ATOM     91  O   UNL A   1      43.828  37.204  26.954  1.00  0.00    -0.237 OA
ATOM     92  O   UNL A   1      44.646  38.889  28.563  1.00  0.00    -0.744 OA
ENDBRANCH  85  89
ENDBRANCH  59  82
ENDBRANCH  33  34
ENDBRANCH  25  28
ENDBRANCH   1  24
TORSDOF 15
ENDMDL
