MODEL 1
REMARK VINA RESULT:     -12.5      0.000      0.000
REMARK SMILES C[C@H]1[C@H](C(=O)NCCCNC(=O)c2ccc(-c3c4nc(c(-c5cc(S(=O)(=O)[O-])ccc5F)c5ccc([nH]5)c(-c5cc(S(=O)(=O)[O-])ccc5F)c5nc(c(-c6cc(S(=O)(=O)[O-])ccc6F)c6ccc3[nH]6)C=C5)C=C4)cc2)CC[N@@H+]1Cc1ccc(C(F)(F)F)cc1
REMARK SMILES IDX 8 1 7 2 6 3 4 4 5 5 3 7 1 8 2 9 78 10 76 11 77 12 79 14
REMARK SMILES IDX 80 15 81 16 89 17 82 18 88 19 83 20 84 21 85 22 86 23 87 24
REMARK SMILES IDX 9 25 10 26 11 27 12 29 13 30 14 31 75 32 15 33 74 34 16 35
REMARK SMILES IDX 17 36 18 37 68 38 19 39 73 40 67 41 69 42 20 43 72 44 66 45
REMARK SMILES IDX 65 46 21 48 53 49 33 50 52 51 34 52 37 53 51 54 70 55 35 56
REMARK SMILES IDX 36 57 50 59 71 60 38 61 22 62 23 63 31 64 24 65 30 66 32 67
REMARK SMILES IDX 29 68 25 69 26 70 27 71 28 72 54 73 55 74 63 75 56 76 62 77
REMARK SMILES IDX 64 78 61 79 57 80 58 81 59 82 60 83 39 84 40 85 48 86 41 87
REMARK SMILES IDX 47 88 49 89 46 90 42 91 43 92 44 93 45 94
REMARK H PARENT 6 6 78 13 10 28 69 47 37 58
REMARK Flexibility Score: inf
ROOT
ATOM      1  C   UNL A   1      31.689  29.359  27.060  1.00  0.00     0.042 C 
ENDROOT
BRANCH   1   2
ATOM      2  C   UNL A   1      32.281  27.959  27.199  1.00  0.00     0.117 C 
BRANCH   2   3
ATOM      3  N   UNL A   1      31.299  26.921  26.992  1.00  0.00    -0.356 N 
ATOM      4  C   UNL A   1      31.447  25.667  26.494  1.00  0.00     0.229 C 
ATOM      5  O   UNL A   1      30.439  24.949  26.506  1.00  0.00    -0.275 OA
ATOM      6  H   UNL A   1      30.381  27.160  27.252  1.00  0.00     0.163 HD
BRANCH   4   7
ATOM      7  C   UNL A   1      32.770  25.091  25.998  1.00  0.00     0.142 C 
ATOM      8  C   UNL A   1      33.720  23.076  27.152  1.00  0.00     0.076 C 
ATOM      9  C   UNL A   1      32.941  23.560  25.920  1.00  0.00     0.193 C 
ATOM     10  N   UNL A   1      33.766  23.303  24.720  1.00  0.00    -0.328 N 
ATOM     11  C   UNL A   1      33.219  25.598  24.637  1.00  0.00     0.081 C 
ATOM     12  C   UNL A   1      34.289  24.582  24.261  1.00  0.00     0.263 C 
ATOM     13  H   UNL A   1      34.546  22.707  24.999  1.00  0.00     0.348 HD
BRANCH  10  14
ATOM     14  C   UNL A   1      33.273  22.350  23.706  1.00  0.00     0.299 C 
BRANCH  14  15
ATOM     15  C   UNL A   1      33.356  20.850  23.967  1.00  0.00     0.006 A 
ATOM     16  C   UNL A   1      32.368  19.981  23.475  1.00  0.00     0.010 A 
ATOM     17  C   UNL A   1      34.394  20.275  24.710  1.00  0.00     0.010 A 
ATOM     18  C   UNL A   1      32.535  18.587  23.537  1.00  0.00     0.013 A 
ATOM     19  C   UNL A   1      34.587  18.893  24.741  1.00  0.00     0.013 A 
ATOM     20  C   UNL A   1      33.690  18.034  24.102  1.00  0.00     0.056 A 
BRANCH  20  21
ATOM     21  C   UNL A   1      34.023  16.569  23.942  1.00  0.00     0.416 C 
ATOM     22  F   UNL A   1      35.071  16.156  24.696  1.00  0.00    -0.166 F 
ATOM     23  F   UNL A   1      32.954  15.779  24.250  1.00  0.00    -0.166 F 
ATOM     24  F   UNL A   1      34.341  16.239  22.654  1.00  0.00    -0.166 F 
ENDBRANCH  20  21
ENDBRANCH  14  15
ENDBRANCH  10  14
ENDBRANCH   4   7
ENDBRANCH   2   3
ENDBRANCH   1   2
BRANCH   1  25
ATOM     25  C   UNL A   1      32.496  30.278  26.149  1.00  0.00     0.118 C 
BRANCH  25  26
ATOM     26  N   UNL A   1      32.364  31.688  26.505  1.00  0.00    -0.352 N 
ATOM     27  C   UNL A   1      33.059  32.499  27.365  1.00  0.00     0.251 C 
ATOM     28  H   UNL A   1      31.631  32.148  26.035  1.00  0.00     0.163 HD
ATOM     29  O   UNL A   1      32.588  33.607  27.628  1.00  0.00    -0.269 OA
BRANCH  27  30
ATOM     30  C   UNL A   1      34.321  32.091  28.013  1.00  0.00     0.039 A 
ATOM     31  C   UNL A   1      34.413  30.789  28.530  1.00  0.00     0.014 A 
ATOM     32  C   UNL A   1      35.375  32.981  28.208  1.00  0.00     0.014 A 
ATOM     33  C   UNL A   1      35.568  30.376  29.198  1.00  0.00     0.010 A 
ATOM     34  C   UNL A   1      36.562  32.540  28.782  1.00  0.00     0.010 A 
ATOM     35  C   UNL A   1      36.663  31.243  29.306  1.00  0.00    -0.014 A 
BRANCH  35  36
ATOM     36  C   UNL A   1      37.905  30.860  30.023  1.00  0.00     0.031 A 
ATOM     37  C   UNL A   1      38.860  29.897  29.369  1.00  0.00     0.074 A 
ATOM     38  C   UNL A   1      38.120  31.296  31.279  1.00  0.00     0.049 A 
ATOM     39  N   UNL A   1      39.876  29.253  29.881  1.00  0.00    -0.248 NA
ATOM     40  C   UNL A   1      38.596  29.579  27.957  1.00  0.00     0.031 C 
ATOM     41  C   UNL A   1      37.248  32.213  32.017  1.00  0.00     0.029 A 
ATOM     42  N   UNL A   1      39.124  31.007  32.165  1.00  0.00    -0.354 N 
ATOM     43  C   UNL A   1      40.345  28.422  28.867  1.00  0.00     0.074 A 
ATOM     44  C   UNL A   1      39.461  28.602  27.735  1.00  0.00     0.031 C 
ATOM     45  C   UNL A   1      37.760  32.415  33.241  1.00  0.00     0.029 A 
ATOM     46  C   UNL A   1      38.962  31.603  33.394  1.00  0.00     0.049 A 
ATOM     47  H   UNL A   1      39.888  30.427  31.944  1.00  0.00     0.167 HD
ATOM     48  C   UNL A   1      41.424  27.599  28.878  1.00  0.00     0.034 A 
ATOM     49  C   UNL A   1      39.687  31.485  34.522  1.00  0.00     0.034 A 
ATOM     50  C   UNL A   1      42.306  27.469  30.013  1.00  0.00     0.049 A 
ATOM     51  C   UNL A   1      40.894  30.583  34.508  1.00  0.00     0.074 A 
ATOM     52  C   UNL A   1      43.455  26.708  30.136  1.00  0.00     0.029 A 
ATOM     53  N   UNL A   1      42.138  28.130  31.225  1.00  0.00    -0.354 N 
ATOM     54  N   UNL A   1      41.334  29.808  33.541  1.00  0.00    -0.248 NA
ATOM     55  C   UNL A   1      41.707  30.550  35.728  1.00  0.00     0.031 C 
ATOM     56  C   UNL A   1      43.950  26.867  31.436  1.00  0.00     0.029 A 
ATOM     57  C   UNL A   1      43.152  27.782  32.104  1.00  0.00     0.049 A 
ATOM     58  H   UNL A   1      41.405  28.755  31.429  1.00  0.00     0.167 HD
ATOM     59  C   UNL A   1      42.492  29.212  34.033  1.00  0.00     0.074 A 
ATOM     60  C   UNL A   1      42.690  29.737  35.369  1.00  0.00     0.031 C 
ATOM     61  C   UNL A   1      43.317  28.311  33.439  1.00  0.00     0.034 A 
BRANCH  48  62
ATOM     62  C   UNL A   1      41.680  26.771  27.638  1.00  0.00     0.023 A 
ATOM     63  C   UNL A   1      41.310  25.416  27.562  1.00  0.00     0.031 A 
ATOM     64  C   UNL A   1      42.353  27.326  26.533  1.00  0.00     0.131 A 
ATOM     65  C   UNL A   1      41.701  24.640  26.461  1.00  0.00     0.055 A 
ATOM     66  C   UNL A   1      42.655  26.571  25.397  1.00  0.00     0.041 A 
ATOM     67  F   UNL A   1      42.751  28.608  26.548  1.00  0.00    -0.206 F 
ATOM     68  C   UNL A   1      42.347  25.213  25.364  1.00  0.00     0.022 A 
BRANCH  65  69
ATOM     69  S   UNL A   1      41.501  22.839  26.557  1.00  0.00     0.124 S 
ATOM     70  O   UNL A   1      40.047  22.703  26.492  1.00  0.00    -0.237 OA
ATOM     71  O   UNL A   1      42.238  22.378  25.384  1.00  0.00    -0.237 OA
ATOM     72  O   UNL A   1      42.097  22.494  27.844  1.00  0.00    -0.744 OA
ENDBRANCH  65  69
ENDBRANCH  48  62
BRANCH  49  73
ATOM     73  C   UNL A   1      39.290  32.225  35.754  1.00  0.00     0.023 A 
ATOM     74  C   UNL A   1      38.528  31.604  36.755  1.00  0.00     0.031 A 
ATOM     75  C   UNL A   1      39.655  33.570  35.943  1.00  0.00     0.131 A 
ATOM     76  C   UNL A   1      38.121  32.336  37.882  1.00  0.00     0.055 A 
ATOM     77  C   UNL A   1      39.290  34.280  37.088  1.00  0.00     0.041 A 
ATOM     78  F   UNL A   1      40.395  34.210  35.022  1.00  0.00    -0.206 F 
ATOM     79  C   UNL A   1      38.508  33.665  38.061  1.00  0.00     0.022 A 
BRANCH  76  80
ATOM     80  S   UNL A   1      37.017  31.541  39.081  1.00  0.00     0.124 S 
ATOM     81  O   UNL A   1      35.851  32.414  39.037  1.00  0.00    -0.237 OA
ATOM     82  O   UNL A   1      36.847  30.213  38.499  1.00  0.00    -0.237 OA
ATOM     83  O   UNL A   1      37.783  31.579  40.325  1.00  0.00    -0.744 OA
ENDBRANCH  76  80
ENDBRANCH  49  73
BRANCH  61  84
ATOM     84  C   UNL A   1      44.524  27.876  34.232  1.00  0.00     0.023 A 
ATOM     85  C   UNL A   1      44.499  26.726  35.039  1.00  0.00     0.031 A 
ATOM     86  C   UNL A   1      45.702  28.642  34.204  1.00  0.00     0.131 A 
ATOM     87  C   UNL A   1      45.607  26.412  35.839  1.00  0.00     0.055 A 
ATOM     88  C   UNL A   1      46.825  28.287  34.951  1.00  0.00     0.041 A 
ATOM     89  F   UNL A   1      45.779  29.751  33.450  1.00  0.00    -0.206 F 
ATOM     90  C   UNL A   1      46.776  27.175  35.787  1.00  0.00     0.022 A 
BRANCH  87  91
ATOM     91  S   UNL A   1      45.458  25.055  37.033  1.00  0.00     0.124 S 
ATOM     92  O   UNL A   1      45.571  25.759  38.307  1.00  0.00    -0.237 OA
ATOM     93  O   UNL A   1      44.141  24.509  36.721  1.00  0.00    -0.237 OA
ATOM     94  O   UNL A   1      46.584  24.184  36.703  1.00  0.00    -0.744 OA
ENDBRANCH  87  91
ENDBRANCH  61  84
ENDBRANCH  35  36
ENDBRANCH  27  30
ENDBRANCH  25  26
ENDBRANCH   1  25
TORSDOF 16
ENDMDL
MODEL 2
REMARK VINA RESULT:     -12.3      5.943     10.719
REMARK SMILES C[C@H]1[C@H](C(=O)NCCCNC(=O)c2ccc(-c3c4nc(c(-c5cc(S(=O)(=O)[O-])ccc5F)c5ccc([nH]5)c(-c5cc(S(=O)(=O)[O-])ccc5F)c5nc(c(-c6cc(S(=O)(=O)[O-])ccc6F)c6ccc3[nH]6)C=C5)C=C4)cc2)CC[N@@H+]1Cc1ccc(C(F)(F)F)cc1
REMARK SMILES IDX 8 1 7 2 6 3 4 4 5 5 3 7 1 8 2 9 78 10 76 11 77 12 79 14
REMARK SMILES IDX 80 15 81 16 89 17 82 18 88 19 83 20 84 21 85 22 86 23 87 24
REMARK SMILES IDX 9 25 10 26 11 27 12 29 13 30 14 31 75 32 15 33 74 34 16 35
REMARK SMILES IDX 17 36 18 37 68 38 19 39 73 40 67 41 69 42 20 43 72 44 66 45
REMARK SMILES IDX 65 46 21 48 53 49 33 50 52 51 34 52 37 53 51 54 70 55 35 56
REMARK SMILES IDX 36 57 50 59 71 60 38 61 22 62 23 63 31 64 24 65 30 66 32 67
REMARK SMILES IDX 29 68 25 69 26 70 27 71 28 72 54 73 55 74 63 75 56 76 62 77
REMARK SMILES IDX 64 78 61 79 57 80 58 81 59 82 60 83 39 84 40 85 48 86 41 87
REMARK SMILES IDX 47 88 49 89 46 90 42 91 43 92 44 93 45 94
REMARK H PARENT 6 6 78 13 10 28 69 47 37 58
REMARK Flexibility Score: inf
ROOT
ATOM      1  C   UNL A   1      34.580  21.865  27.199  1.00  0.00     0.042 C 
ENDROOT
BRANCH   1   2
ATOM      2  C   UNL A   1      33.291  21.451  26.493  1.00  0.00     0.117 C 
BRANCH   2   3
ATOM      3  N   UNL A   1      32.136  22.157  26.994  1.00  0.00    -0.356 N 
ATOM      4  C   UNL A   1      31.676  23.400  26.698  1.00  0.00     0.229 C 
ATOM      5  O   UNL A   1      30.602  23.726  27.218  1.00  0.00    -0.275 OA
ATOM      6  H   UNL A   1      31.598  21.660  27.652  1.00  0.00     0.163 HD
BRANCH   4   7
ATOM      7  C   UNL A   1      32.363  24.361  25.733  1.00  0.00     0.142 C 
ATOM      8  C   UNL A   1      33.437  23.435  23.664  1.00  0.00     0.076 C 
ATOM      9  C   UNL A   1      32.194  24.149  24.214  1.00  0.00     0.193 C 
ATOM     10  N   UNL A   1      32.136  25.501  23.618  1.00  0.00    -0.328 N 
ATOM     11  C   UNL A   1      32.041  25.830  25.954  1.00  0.00     0.081 C 
ATOM     12  C   UNL A   1      32.517  26.455  24.651  1.00  0.00     0.263 C 
ATOM     13  H   UNL A   1      32.821  25.539  22.863  1.00  0.00     0.348 HD
BRANCH  10  14
ATOM     14  C   UNL A   1      31.000  25.845  22.740  1.00  0.00     0.299 C 
BRANCH  14  15
ATOM     15  C   UNL A   1      30.378  27.234  22.810  1.00  0.00     0.006 A 
ATOM     16  C   UNL A   1      31.052  28.349  22.285  1.00  0.00     0.010 A 
ATOM     17  C   UNL A   1      29.131  27.468  23.404  1.00  0.00     0.010 A 
ATOM     18  C   UNL A   1      30.408  29.593  22.166  1.00  0.00     0.013 A 
ATOM     19  C   UNL A   1      28.471  28.689  23.253  1.00  0.00     0.013 A 
ATOM     20  C   UNL A   1      29.080  29.749  22.579  1.00  0.00     0.056 A 
BRANCH  20  21
ATOM     21  C   UNL A   1      28.281  30.980  22.218  1.00  0.00     0.416 C 
ATOM     22  F   UNL A   1      27.248  31.232  23.059  1.00  0.00    -0.166 F 
ATOM     23  F   UNL A   1      29.070  32.093  22.186  1.00  0.00    -0.166 F 
ATOM     24  F   UNL A   1      27.732  30.905  20.969  1.00  0.00    -0.166 F 
ENDBRANCH  20  21
ENDBRANCH  14  15
ENDBRANCH  10  14
ENDBRANCH   4   7
ENDBRANCH   2   3
ENDBRANCH   1   2
BRANCH   1  25
ATOM     25  C   UNL A   1      35.667  22.360  26.250  1.00  0.00     0.118 C 
BRANCH  25  26
ATOM     26  N   UNL A   1      36.635  21.323  25.906  1.00  0.00    -0.352 N 
ATOM     27  C   UNL A   1      37.999  21.332  25.774  1.00  0.00     0.251 C 
ATOM     28  H   UNL A   1      36.227  20.443  25.734  1.00  0.00     0.163 HD
ATOM     29  O   UNL A   1      38.540  20.351  25.259  1.00  0.00    -0.269 OA
BRANCH  27  30
ATOM     30  C   UNL A   1      38.840  22.473  26.185  1.00  0.00     0.039 A 
ATOM     31  C   UNL A   1      39.965  22.216  26.985  1.00  0.00     0.014 A 
ATOM     32  C   UNL A   1      38.500  23.790  25.885  1.00  0.00     0.014 A 
ATOM     33  C   UNL A   1      40.759  23.270  27.443  1.00  0.00     0.010 A 
ATOM     34  C   UNL A   1      39.346  24.830  26.253  1.00  0.00     0.010 A 
ATOM     35  C   UNL A   1      40.469  24.585  27.057  1.00  0.00    -0.014 A 
BRANCH  35  36
ATOM     36  C   UNL A   1      41.270  25.741  27.531  1.00  0.00     0.031 A 
ATOM     37  C   UNL A   1      40.613  26.781  28.399  1.00  0.00     0.074 A 
ATOM     38  C   UNL A   1      42.539  25.900  27.107  1.00  0.00     0.049 A 
ATOM     39  N   UNL A   1      41.036  27.969  28.742  1.00  0.00    -0.248 NA
ATOM     40  C   UNL A   1      39.270  26.452  28.903  1.00  0.00     0.031 C 
ATOM     41  C   UNL A   1      43.267  24.966  26.245  1.00  0.00     0.029 A 
ATOM     42  N   UNL A   1      43.432  26.918  27.323  1.00  0.00    -0.354 N 
ATOM     43  C   UNL A   1      39.995  28.546  29.465  1.00  0.00     0.074 A 
ATOM     44  C   UNL A   1      38.902  27.598  29.453  1.00  0.00     0.031 C 
ATOM     45  C   UNL A   1      44.496  25.451  26.012  1.00  0.00     0.029 A 
ATOM     46  C   UNL A   1      44.625  26.752  26.660  1.00  0.00     0.049 A 
ATOM     47  H   UNL A   1      43.237  27.693  27.897  1.00  0.00     0.167 HD
ATOM     48  C   UNL A   1      39.965  29.748  30.093  1.00  0.00     0.034 A 
ATOM     49  C   UNL A   1      45.690  27.570  26.565  1.00  0.00     0.034 A 
ATOM     50  C   UNL A   1      41.086  30.656  30.114  1.00  0.00     0.049 A 
ATOM     51  C   UNL A   1      45.645  28.892  27.287  1.00  0.00     0.074 A 
ATOM     52  C   UNL A   1      41.199  31.880  30.750  1.00  0.00     0.029 A 
ATOM     53  N   UNL A   1      42.299  30.431  29.472  1.00  0.00    -0.354 N 
ATOM     54  N   UNL A   1      44.660  29.424  27.975  1.00  0.00    -0.248 NA
ATOM     55  C   UNL A   1      46.858  29.715  27.231  1.00  0.00     0.031 C 
ATOM     56  C   UNL A   1      42.457  32.416  30.450  1.00  0.00     0.029 A 
ATOM     57  C   UNL A   1      43.159  31.498  29.685  1.00  0.00     0.049 A 
ATOM     58  H   UNL A   1      42.516  29.629  28.944  1.00  0.00     0.167 HD
ATOM     59  C   UNL A   1      45.144  30.638  28.453  1.00  0.00     0.074 A 
ATOM     60  C   UNL A   1      46.516  30.743  27.994  1.00  0.00     0.031 C 
ATOM     61  C   UNL A   1      44.517  31.583  29.202  1.00  0.00     0.034 A 
BRANCH  48  62
ATOM     62  C   UNL A   1      38.674  30.144  30.776  1.00  0.00     0.023 A 
ATOM     63  C   UNL A   1      37.656  30.836  30.094  1.00  0.00     0.031 A 
ATOM     64  C   UNL A   1      38.477  29.876  32.143  1.00  0.00     0.131 A 
ATOM     65  C   UNL A   1      36.543  31.322  30.795  1.00  0.00     0.055 A 
ATOM     66  C   UNL A   1      37.320  30.280  32.816  1.00  0.00     0.041 A 
ATOM     67  F   UNL A   1      39.416  29.237  32.858  1.00  0.00    -0.206 F 
ATOM     68  C   UNL A   1      36.353  31.026  32.147  1.00  0.00     0.022 A 
BRANCH  65  69
ATOM     69  S   UNL A   1      35.432  32.487  29.957  1.00  0.00     0.124 S 
ATOM     70  O   UNL A   1      35.004  31.701  28.802  1.00  0.00    -0.237 OA
ATOM     71  O   UNL A   1      34.413  32.736  30.973  1.00  0.00    -0.237 OA
ATOM     72  O   UNL A   1      36.295  33.622  29.647  1.00  0.00    -0.744 OA
ENDBRANCH  65  69
ENDBRANCH  48  62
BRANCH  49  73
ATOM     73  C   UNL A   1      46.876  27.174  25.752  1.00  0.00     0.023 A 
ATOM     74  C   UNL A   1      47.077  27.696  24.466  1.00  0.00     0.031 A 
ATOM     75  C   UNL A   1      47.818  26.254  26.245  1.00  0.00     0.131 A 
ATOM     76  C   UNL A   1      48.172  27.268  23.699  1.00  0.00     0.055 A 
ATOM     77  C   UNL A   1      48.933  25.867  25.498  1.00  0.00     0.041 A 
ATOM     78  F   UNL A   1      47.680  25.731  27.475  1.00  0.00    -0.206 F 
ATOM     79  C   UNL A   1      49.108  26.367  24.212  1.00  0.00     0.022 A 
BRANCH  76  80
ATOM     80  S   UNL A   1      48.317  27.856  21.990  1.00  0.00     0.124 S 
ATOM     81  O   UNL A   1      49.580  28.584  22.030  1.00  0.00    -0.237 OA
ATOM     82  O   UNL A   1      48.322  26.604  21.240  1.00  0.00    -0.237 OA
ATOM     83  O   UNL A   1      47.124  28.681  21.812  1.00  0.00    -0.744 OA
ENDBRANCH  76  80
ENDBRANCH  49  73
BRANCH  61  84
ATOM     84  C   UNL A   1      45.337  32.788  29.591  1.00  0.00     0.023 A 
ATOM     85  C   UNL A   1      45.377  33.941  28.790  1.00  0.00     0.031 A 
ATOM     86  C   UNL A   1      46.112  32.767  30.763  1.00  0.00     0.131 A 
ATOM     87  C   UNL A   1      46.229  35.000  29.134  1.00  0.00     0.055 A 
ATOM     88  C   UNL A   1      46.908  33.851  31.136  1.00  0.00     0.041 A 
ATOM     89  F   UNL A   1      46.112  31.689  31.564  1.00  0.00    -0.206 F 
ATOM     90  C   UNL A   1      46.981  34.970  30.311  1.00  0.00     0.022 A 
BRANCH  87  91
ATOM     91  S   UNL A   1      46.424  36.371  27.964  1.00  0.00     0.124 S 
ATOM     92  O   UNL A   1      45.048  36.831  27.803  1.00  0.00    -0.237 OA
ATOM     93  O   UNL A   1      47.317  37.273  28.686  1.00  0.00    -0.237 OA
ATOM     94  O   UNL A   1      47.008  35.735  26.785  1.00  0.00    -0.744 OA
ENDBRANCH  87  91
ENDBRANCH  61  84
ENDBRANCH  35  36
ENDBRANCH  27  30
ENDBRANCH  25  26
ENDBRANCH   1  25
TORSDOF 16
ENDMDL
MODEL 3
REMARK VINA RESULT:     -12.3      2.178      2.821
REMARK SMILES C[C@H]1[C@H](C(=O)NCCCNC(=O)c2ccc(-c3c4nc(c(-c5cc(S(=O)(=O)[O-])ccc5F)c5ccc([nH]5)c(-c5cc(S(=O)(=O)[O-])ccc5F)c5nc(c(-c6cc(S(=O)(=O)[O-])ccc6F)c6ccc3[nH]6)C=C5)C=C4)cc2)CC[N@@H+]1Cc1ccc(C(F)(F)F)cc1
REMARK SMILES IDX 8 1 7 2 6 3 4 4 5 5 3 7 1 8 2 9 78 10 76 11 77 12 79 14
REMARK SMILES IDX 80 15 81 16 89 17 82 18 88 19 83 20 84 21 85 22 86 23 87 24
REMARK SMILES IDX 9 25 10 26 11 27 12 29 13 30 14 31 75 32 15 33 74 34 16 35
REMARK SMILES IDX 17 36 18 37 68 38 19 39 73 40 67 41 69 42 20 43 72 44 66 45
REMARK SMILES IDX 65 46 21 48 53 49 33 50 52 51 34 52 37 53 51 54 70 55 35 56
REMARK SMILES IDX 36 57 50 59 71 60 38 61 22 62 23 63 31 64 24 65 30 66 32 67
REMARK SMILES IDX 29 68 25 69 26 70 27 71 28 72 54 73 55 74 63 75 56 76 62 77
REMARK SMILES IDX 64 78 61 79 57 80 58 81 59 82 60 83 39 84 40 85 48 86 41 87
REMARK SMILES IDX 47 88 49 89 46 90 42 91 43 92 44 93 45 94
REMARK H PARENT 6 6 78 13 10 28 69 47 37 58
REMARK Flexibility Score: inf
ROOT
ATOM      1  C   UNL A   1      31.598  31.627  26.437  1.00  0.00     0.042 C 
ENDROOT
BRANCH   1   2
ATOM      2  C   UNL A   1      31.744  30.170  26.003  1.00  0.00     0.117 C 
BRANCH   2   3
ATOM      3  N   UNL A   1      31.444  29.977  24.604  1.00  0.00    -0.356 N 
ATOM      4  C   UNL A   1      31.718  28.928  23.789  1.00  0.00     0.229 C 
ATOM      5  O   UNL A   1      31.266  28.992  22.639  1.00  0.00    -0.275 OA
ATOM      6  H   UNL A   1      30.965  30.723  24.176  1.00  0.00     0.163 HD
BRANCH   4   7
ATOM      7  C   UNL A   1      32.477  27.678  24.225  1.00  0.00     0.142 C 
ATOM      8  C   UNL A   1      31.584  26.329  26.142  1.00  0.00     0.076 C 
ATOM      9  C   UNL A   1      31.684  26.413  24.612  1.00  0.00     0.193 C 
ATOM     10  N   UNL A   1      32.487  25.267  24.136  1.00  0.00    -0.328 N 
ATOM     11  C   UNL A   1      33.525  27.188  23.239  1.00  0.00     0.081 C 
ATOM     12  C   UNL A   1      33.793  25.776  23.741  1.00  0.00     0.263 C 
ATOM     13  H   UNL A   1      32.605  24.622  24.918  1.00  0.00     0.348 HD
BRANCH  10  14
ATOM     14  C   UNL A   1      31.845  24.256  23.272  1.00  0.00     0.299 C 
BRANCH  14  15
ATOM     15  C   UNL A   1      31.899  22.782  23.657  1.00  0.00     0.006 A 
ATOM     16  C   UNL A   1      32.079  21.792  22.677  1.00  0.00     0.010 A 
ATOM     17  C   UNL A   1      31.759  22.347  24.981  1.00  0.00     0.010 A 
ATOM     18  C   UNL A   1      32.327  20.456  23.036  1.00  0.00     0.013 A 
ATOM     19  C   UNL A   1      32.044  21.030  25.347  1.00  0.00     0.013 A 
ATOM     20  C   UNL A   1      32.390  20.082  24.383  1.00  0.00     0.056 A 
BRANCH  20  21
ATOM     21  C   UNL A   1      32.919  18.729  24.803  1.00  0.00     0.416 C 
ATOM     22  F   UNL A   1      34.223  18.527  24.495  1.00  0.00    -0.166 F 
ATOM     23  F   UNL A   1      32.775  18.536  26.146  1.00  0.00    -0.166 F 
ATOM     24  F   UNL A   1      32.236  17.695  24.226  1.00  0.00    -0.166 F 
ENDBRANCH  20  21
ENDBRANCH  14  15
ENDBRANCH  10  14
ENDBRANCH   4   7
ENDBRANCH   2   3
ENDBRANCH   1   2
BRANCH   1  25
ATOM     25  C   UNL A   1      32.798  32.158  27.214  1.00  0.00     0.118 C 
BRANCH  25  26
ATOM     26  N   UNL A   1      32.632  33.547  27.632  1.00  0.00    -0.352 N 
ATOM     27  C   UNL A   1      33.234  34.304  28.604  1.00  0.00     0.251 C 
ATOM     28  H   UNL A   1      31.953  34.038  27.114  1.00  0.00     0.163 HD
ATOM     29  O   UNL A   1      32.739  35.400  28.878  1.00  0.00    -0.269 OA
BRANCH  27  30
ATOM     30  C   UNL A   1      34.419  33.851  29.358  1.00  0.00     0.039 A 
ATOM     31  C   UNL A   1      35.675  34.365  28.995  1.00  0.00     0.014 A 
ATOM     32  C   UNL A   1      34.340  32.868  30.342  1.00  0.00     0.014 A 
ATOM     33  C   UNL A   1      36.830  33.924  29.645  1.00  0.00     0.010 A 
ATOM     34  C   UNL A   1      35.475  32.506  31.058  1.00  0.00     0.010 A 
ATOM     35  C   UNL A   1      36.735  33.009  30.701  1.00  0.00    -0.014 A 
BRANCH  35  36
ATOM     36  C   UNL A   1      37.933  32.496  31.411  1.00  0.00     0.031 A 
ATOM     37  C   UNL A   1      38.728  31.377  30.791  1.00  0.00     0.074 A 
ATOM     38  C   UNL A   1      38.242  32.964  32.635  1.00  0.00     0.049 A 
ATOM     39  N   UNL A   1      39.661  30.627  31.316  1.00  0.00    -0.248 NA
ATOM     40  C   UNL A   1      38.383  31.025  29.405  1.00  0.00     0.031 C 
ATOM     41  C   UNL A   1      37.526  34.030  33.340  1.00  0.00     0.029 A 
ATOM     42  N   UNL A   1      39.223  32.586  33.515  1.00  0.00    -0.354 N 
ATOM     43  C   UNL A   1      39.982  29.687  30.341  1.00  0.00     0.074 A 
ATOM     44  C   UNL A   1      39.099  29.928  29.220  1.00  0.00     0.031 C 
ATOM     45  C   UNL A   1      38.096  34.223  34.539  1.00  0.00     0.029 A 
ATOM     46  C   UNL A   1      39.180  33.262  34.711  1.00  0.00     0.049 A 
ATOM     47  H   UNL A   1      39.893  31.895  33.310  1.00  0.00     0.167 HD
ATOM     48  C   UNL A   1      40.938  28.725  30.375  1.00  0.00     0.034 A 
ATOM     49  C   UNL A   1      39.915  33.105  35.829  1.00  0.00     0.034 A 
ATOM     50  C   UNL A   1      41.827  28.534  31.496  1.00  0.00     0.049 A 
ATOM     51  C   UNL A   1      40.986  32.044  35.839  1.00  0.00     0.074 A 
ATOM     52  C   UNL A   1      42.863  27.628  31.636  1.00  0.00     0.029 A 
ATOM     53  N   UNL A   1      41.786  29.274  32.673  1.00  0.00    -0.354 N 
ATOM     54  N   UNL A   1      41.288  31.167  34.908  1.00  0.00    -0.248 NA
ATOM     55  C   UNL A   1      41.822  31.963  37.041  1.00  0.00     0.031 C 
ATOM     56  C   UNL A   1      43.413  27.785  32.914  1.00  0.00     0.029 A 
ATOM     57  C   UNL A   1      42.768  28.836  33.548  1.00  0.00     0.049 A 
ATOM     58  H   UNL A   1      41.152  30.004  32.857  1.00  0.00     0.167 HD
ATOM     59  C   UNL A   1      42.366  30.442  35.407  1.00  0.00     0.074 A 
ATOM     60  C   UNL A   1      42.673  31.004  36.707  1.00  0.00     0.031 C 
ATOM     61  C   UNL A   1      43.043  29.406  34.846  1.00  0.00     0.034 A 
BRANCH  48  62
ATOM     62  C   UNL A   1      41.042  27.805  29.177  1.00  0.00     0.023 A 
ATOM     63  C   UNL A   1      42.037  27.973  28.197  1.00  0.00     0.031 A 
ATOM     64  C   UNL A   1      40.099  26.780  28.980  1.00  0.00     0.131 A 
ATOM     65  C   UNL A   1      42.009  27.204  27.026  1.00  0.00     0.055 A 
ATOM     66  C   UNL A   1      40.134  25.951  27.855  1.00  0.00     0.041 A 
ATOM     67  F   UNL A   1      39.112  26.577  29.866  1.00  0.00    -0.206 F 
ATOM     68  C   UNL A   1      41.080  26.174  26.858  1.00  0.00     0.022 A 
BRANCH  65  69
ATOM     69  S   UNL A   1      43.095  27.677  25.651  1.00  0.00     0.124 S 
ATOM     70  O   UNL A   1      42.140  28.264  24.714  1.00  0.00    -0.237 OA
ATOM     71  O   UNL A   1      44.020  28.610  26.288  1.00  0.00    -0.237 OA
ATOM     72  O   UNL A   1      43.681  26.410  25.224  1.00  0.00    -0.744 OA
ENDBRANCH  65  69
ENDBRANCH  48  62
BRANCH  49  73
ATOM     73  C   UNL A   1      39.659  33.956  37.026  1.00  0.00     0.023 A 
ATOM     74  C   UNL A   1      38.999  33.439  38.151  1.00  0.00     0.031 A 
ATOM     75  C   UNL A   1      40.058  35.304  37.056  1.00  0.00     0.131 A 
ATOM     76  C   UNL A   1      38.722  34.274  39.245  1.00  0.00     0.055 A 
ATOM     77  C   UNL A   1      39.824  36.118  38.167  1.00  0.00     0.041 A 
ATOM     78  F   UNL A   1      40.704  35.846  36.011  1.00  0.00    -0.206 F 
ATOM     79  C   UNL A   1      39.142  35.605  39.266  1.00  0.00     0.022 A 
BRANCH  76  80
ATOM     80  S   UNL A   1      37.741  33.608  40.618  1.00  0.00     0.124 S 
ATOM     81  O   UNL A   1      37.323  34.825  41.303  1.00  0.00    -0.237 OA
ATOM     82  O   UNL A   1      36.694  32.876  39.912  1.00  0.00    -0.237 OA
ATOM     83  O   UNL A   1      38.697  32.776  41.346  1.00  0.00    -0.744 OA
ENDBRANCH  76  80
ENDBRANCH  49  73
BRANCH  61  84
ATOM     84  C   UNL A   1      44.202  28.851  35.637  1.00  0.00     0.023 A 
ATOM     85  C   UNL A   1      44.037  27.779  36.530  1.00  0.00     0.031 A 
ATOM     86  C   UNL A   1      45.478  29.425  35.517  1.00  0.00     0.131 A 
ATOM     87  C   UNL A   1      45.115  27.358  37.320  1.00  0.00     0.055 A 
ATOM     88  C   UNL A   1      46.564  28.958  36.257  1.00  0.00     0.041 A 
ATOM     89  F   UNL A   1      45.691  30.452  34.679  1.00  0.00    -0.206 F 
ATOM     90  C   UNL A   1      46.383  27.929  37.177  1.00  0.00     0.022 A 
BRANCH  87  91
ATOM     91  S   UNL A   1      44.812  26.128  38.618  1.00  0.00     0.124 S 
ATOM     92  O   UNL A   1      43.853  25.236  37.973  1.00  0.00    -0.237 OA
ATOM     93  O   UNL A   1      46.145  25.576  38.842  1.00  0.00    -0.237 OA
ATOM     94  O   UNL A   1      44.277  26.921  39.722  1.00  0.00    -0.744 OA
ENDBRANCH  87  91
ENDBRANCH  61  84
ENDBRANCH  35  36
ENDBRANCH  27  30
ENDBRANCH  25  26
ENDBRANCH   1  25
TORSDOF 16
ENDMDL
