MODEL 1
REMARK VINA RESULT:     -12.0      0.000      0.000
REMARK SMILES CC(=O)N[C@@H](Cc1c(OCC(C)C)ccc2ccccc12)C(=O)NCCCNC(=O)c1ccc(-c2c3nc(c(-c4cc(S(=O)(=O)[O-])ccc4F)c4ccc([nH]4)c(-c4cc(S(=O)(=O)[O-])ccc4F)c4nc(c(-c5cc(S(=O)(=O)[O-])ccc5F)c5ccc2[nH]5)C=C4)C=C3)cc1
REMARK SMILES IDX 25 1 24 2 22 3 23 4 5 6 4 7 1 8 2 9 3 10 6 12 7 13 8 14
REMARK SMILES IDX 21 15 14 16 16 17 20 18 15 19 17 20 19 21 18 22 9 23 10 24
REMARK SMILES IDX 11 25 12 26 13 27 26 28 27 29 28 30 29 31 30 33 31 34 32 35
REMARK SMILES IDX 93 36 33 37 92 38 34 39 35 40 36 41 86 42 37 43 91 44 85 45
REMARK SMILES IDX 87 46 38 47 90 48 84 49 83 50 39 52 71 53 51 54 70 55 52 56
REMARK SMILES IDX 55 57 69 58 88 59 53 60 54 61 68 63 89 64 56 65 40 66 41 67
REMARK SMILES IDX 49 68 42 69 48 70 50 71 47 72 43 73 44 74 45 75 46 76 72 77
REMARK SMILES IDX 73 78 81 79 74 80 80 81 82 82 79 83 75 84 76 85 77 86 78 87
REMARK SMILES IDX 57 88 58 89 66 90 59 91 65 92 67 93 64 94 60 95 61 96 62 97
REMARK SMILES IDX 63 98
REMARK H PARENT 24 5 4 11 28 32 87 51 55 62
REMARK Flexibility Score: inf
ROOT
ATOM      1  C   UNL A   1      31.827  29.179  24.690  1.00  0.00     0.117 C 
ENDROOT
BRANCH   1   2
ATOM      2  N   UNL A   1      33.163  29.281  24.134  1.00  0.00    -0.354 N 
ATOM      3  C   UNL A   1      33.860  28.370  23.397  1.00  0.00     0.242 C 
ATOM      4  O   UNL A   1      34.817  28.795  22.738  1.00  0.00    -0.273 OA
ATOM      5  H   UNL A   1      33.633  30.127  24.315  1.00  0.00     0.163 HD
BRANCH   3   6
ATOM      6  C   UNL A   1      33.434  26.891  23.259  1.00  0.00     0.175 C 
BRANCH   6   7
ATOM      7  N   UNL A   1      33.651  26.333  21.926  1.00  0.00    -0.344 N 
ATOM      8  C   UNL A   1      31.280  25.824  21.475  1.00  0.00     0.114 C 
ATOM      9  C   UNL A   1      32.715  25.911  21.030  1.00  0.00     0.217 C 
ATOM     10  O   UNL A   1      33.064  25.571  19.901  1.00  0.00    -0.275 OA
ATOM     11  H   UNL A   1      34.590  26.254  21.640  1.00  0.00     0.164 HD
ENDBRANCH   6   7
BRANCH   6  12
ATOM     12  C   UNL A   1      33.915  25.968  24.397  1.00  0.00     0.075 C 
BRANCH  12  13
ATOM     13  C   UNL A   1      33.471  24.512  24.423  1.00  0.00     0.005 A 
ATOM     14  C   UNL A   1      34.268  23.528  23.785  1.00  0.00     0.123 A 
ATOM     15  C   UNL A   1      32.273  24.118  25.114  1.00  0.00    -0.011 A 
ATOM     16  C   UNL A   1      33.802  22.219  23.695  1.00  0.00     0.047 A 
ATOM     17  C   UNL A   1      31.910  22.747  25.115  1.00  0.00    -0.018 A 
ATOM     18  C   UNL A   1      31.459  24.987  25.882  1.00  0.00     0.009 A 
ATOM     19  C   UNL A   1      32.647  21.830  24.365  1.00  0.00     0.012 A 
ATOM     20  C   UNL A   1      30.846  22.285  25.904  1.00  0.00     0.009 A 
ATOM     21  C   UNL A   1      30.408  24.514  26.674  1.00  0.00     0.001 A 
ATOM     22  C   UNL A   1      30.112  23.160  26.698  1.00  0.00     0.001 A 
BRANCH  14  23
ATOM     23  O   UNL A   1      35.511  23.927  23.368  1.00  0.00    -0.493 OA
BRANCH  23  24
ATOM     24  C   UNL A   1      36.577  22.977  23.239  1.00  0.00     0.232 C 
BRANCH  24  25
ATOM     25  C   UNL A   1      37.297  22.652  24.567  1.00  0.00     0.020 C 
ATOM     26  C   UNL A   1      36.924  23.566  25.734  1.00  0.00     0.011 C 
ATOM     27  C   UNL A   1      36.999  21.205  24.971  1.00  0.00     0.011 C 
ENDBRANCH  24  25
ENDBRANCH  23  24
ENDBRANCH  14  23
ENDBRANCH  12  13
ENDBRANCH   6  12
ENDBRANCH   3   6
ENDBRANCH   1   2
BRANCH   1  28
ATOM     28  C   UNL A   1      31.349  30.423  25.408  1.00  0.00     0.042 C 
BRANCH  28  29
ATOM     29  C   UNL A   1      32.227  30.817  26.587  1.00  0.00     0.118 C 
BRANCH  29  30
ATOM     30  N   UNL A   1      32.173  32.241  26.916  1.00  0.00    -0.352 N 
ATOM     31  C   UNL A   1      33.042  33.040  27.629  1.00  0.00     0.251 C 
ATOM     32  H   UNL A   1      31.380  32.710  26.568  1.00  0.00     0.163 HD
ATOM     33  O   UNL A   1      32.721  34.189  27.908  1.00  0.00    -0.269 OA
BRANCH  31  34
ATOM     34  C   UNL A   1      34.339  32.495  28.093  1.00  0.00     0.039 A 
ATOM     35  C   UNL A   1      35.464  33.324  28.118  1.00  0.00     0.014 A 
ATOM     36  C   UNL A   1      34.439  31.179  28.539  1.00  0.00     0.014 A 
ATOM     37  C   UNL A   1      36.650  32.865  28.700  1.00  0.00     0.010 A 
ATOM     38  C   UNL A   1      35.570  30.771  29.233  1.00  0.00     0.010 A 
ATOM     39  C   UNL A   1      36.692  31.607  29.324  1.00  0.00    -0.014 A 
BRANCH  39  40
ATOM     40  C   UNL A   1      37.885  31.130  30.075  1.00  0.00     0.031 A 
ATOM     41  C   UNL A   1      38.829  30.148  29.430  1.00  0.00     0.074 A 
ATOM     42  C   UNL A   1      38.049  31.478  31.368  1.00  0.00     0.049 A 
ATOM     43  N   UNL A   1      39.815  29.472  29.959  1.00  0.00    -0.248 NA
ATOM     44  C   UNL A   1      38.587  29.842  28.011  1.00  0.00     0.031 C 
ATOM     45  C   UNL A   1      37.161  32.361  32.129  1.00  0.00     0.029 A 
ATOM     46  N   UNL A   1      39.006  31.110  32.281  1.00  0.00    -0.354 N 
ATOM     47  C   UNL A   1      40.279  28.629  28.953  1.00  0.00     0.074 A 
ATOM     48  C   UNL A   1      39.417  28.833  27.808  1.00  0.00     0.031 C 
ATOM     49  C   UNL A   1      37.627  32.484  33.382  1.00  0.00     0.029 A 
ATOM     50  C   UNL A   1      38.815  31.651  33.532  1.00  0.00     0.049 A 
ATOM     51  H   UNL A   1      39.759  30.515  32.061  1.00  0.00     0.167 HD
ATOM     52  C   UNL A   1      41.339  27.784  28.973  1.00  0.00     0.034 A 
ATOM     53  C   UNL A   1      39.507  31.481  34.677  1.00  0.00     0.034 A 
ATOM     54  C   UNL A   1      42.213  27.634  30.111  1.00  0.00     0.049 A 
ATOM     55  C   UNL A   1      40.710  30.575  34.666  1.00  0.00     0.074 A 
ATOM     56  C   UNL A   1      43.372  26.884  30.217  1.00  0.00     0.029 A 
ATOM     57  N   UNL A   1      42.023  28.248  31.343  1.00  0.00    -0.354 N 
ATOM     58  N   UNL A   1      41.178  29.836  33.687  1.00  0.00    -0.248 NA
ATOM     59  C   UNL A   1      41.485  30.490  35.910  1.00  0.00     0.031 C 
ATOM     60  C   UNL A   1      43.849  26.999  31.528  1.00  0.00     0.029 A 
ATOM     61  C   UNL A   1      43.028  27.876  32.222  1.00  0.00     0.049 A 
ATOM     62  H   UNL A   1      41.282  28.859  31.560  1.00  0.00     0.167 HD
ATOM     63  C   UNL A   1      42.318  29.217  34.191  1.00  0.00     0.074 A 
ATOM     64  C   UNL A   1      42.475  29.683  35.553  1.00  0.00     0.031 C 
ATOM     65  C   UNL A   1      43.161  28.344  33.582  1.00  0.00     0.034 A 
BRANCH  52  66
ATOM     66  C   UNL A   1      41.590  26.951  27.735  1.00  0.00     0.023 A 
ATOM     67  C   UNL A   1      41.299  25.576  27.697  1.00  0.00     0.031 A 
ATOM     68  C   UNL A   1      42.176  27.528  26.595  1.00  0.00     0.131 A 
ATOM     69  C   UNL A   1      41.688  24.807  26.590  1.00  0.00     0.055 A 
ATOM     70  C   UNL A   1      42.474  26.773  25.458  1.00  0.00     0.041 A 
ATOM     71  F   UNL A   1      42.494  28.832  26.574  1.00  0.00    -0.206 F 
ATOM     72  C   UNL A   1      42.249  25.400  25.459  1.00  0.00     0.022 A 
BRANCH  69  73
ATOM     73  S   UNL A   1      41.606  22.999  26.725  1.00  0.00     0.124 S 
ATOM     74  O   UNL A   1      42.318  22.581  25.520  1.00  0.00    -0.237 OA
ATOM     75  O   UNL A   1      42.286  22.746  27.989  1.00  0.00    -0.237 OA
ATOM     76  O   UNL A   1      40.170  22.720  26.719  1.00  0.00    -0.744 OA
ENDBRANCH  69  73
ENDBRANCH  52  66
BRANCH  53  77
ATOM     77  C   UNL A   1      39.080  32.177  35.925  1.00  0.00     0.023 A 
ATOM     78  C   UNL A   1      38.328  31.510  36.904  1.00  0.00     0.031 A 
ATOM     79  C   UNL A   1      39.404  33.527  36.147  1.00  0.00     0.131 A 
ATOM     80  C   UNL A   1      37.890  32.203  38.044  1.00  0.00     0.055 A 
ATOM     81  C   UNL A   1      39.006  34.200  37.304  1.00  0.00     0.041 A 
ATOM     82  F   UNL A   1      40.131  34.208  35.247  1.00  0.00    -0.206 F 
ATOM     83  C   UNL A   1      38.234  33.540  38.255  1.00  0.00     0.022 A 
BRANCH  80  84
ATOM     84  S   UNL A   1      36.807  31.347  39.219  1.00  0.00     0.124 S 
ATOM     85  O   UNL A   1      37.618  31.354  40.432  1.00  0.00    -0.237 OA
ATOM     86  O   UNL A   1      35.630  32.210  39.230  1.00  0.00    -0.237 OA
ATOM     87  O   UNL A   1      36.609  30.035  38.607  1.00  0.00    -0.744 OA
ENDBRANCH  80  84
ENDBRANCH  53  77
BRANCH  65  88
ATOM     88  C   UNL A   1      44.352  27.876  34.381  1.00  0.00     0.023 A 
ATOM     89  C   UNL A   1      44.273  26.774  35.248  1.00  0.00     0.031 A 
ATOM     90  C   UNL A   1      45.581  28.552  34.275  1.00  0.00     0.131 A 
ATOM     91  C   UNL A   1      45.388  26.410  36.016  1.00  0.00     0.055 A 
ATOM     92  C   UNL A   1      46.703  28.149  34.998  1.00  0.00     0.041 A 
ATOM     93  F   UNL A   1      45.710  29.613  33.462  1.00  0.00    -0.206 F 
ATOM     94  C   UNL A   1      46.608  27.080  35.885  1.00  0.00     0.022 A 
BRANCH  91  95
ATOM     95  S   UNL A   1      45.201  25.101  37.257  1.00  0.00     0.124 S 
ATOM     96  O   UNL A   1      46.204  25.476  38.247  1.00  0.00    -0.237 OA
ATOM     97  O   UNL A   1      43.809  25.257  37.669  1.00  0.00    -0.237 OA
ATOM     98  O   UNL A   1      45.492  23.877  36.511  1.00  0.00    -0.744 OA
ENDBRANCH  91  95
ENDBRANCH  65  88
ENDBRANCH  39  40
ENDBRANCH  31  34
ENDBRANCH  29  30
ENDBRANCH  28  29
ENDBRANCH   1  28
TORSDOF 19
ENDMDL
MODEL 2
REMARK VINA RESULT:     -11.6      1.959      2.239
REMARK SMILES CC(=O)N[C@@H](Cc1c(OCC(C)C)ccc2ccccc12)C(=O)NCCCNC(=O)c1ccc(-c2c3nc(c(-c4cc(S(=O)(=O)[O-])ccc4F)c4ccc([nH]4)c(-c4cc(S(=O)(=O)[O-])ccc4F)c4nc(c(-c5cc(S(=O)(=O)[O-])ccc5F)c5ccc2[nH]5)C=C4)C=C3)cc1
REMARK SMILES IDX 25 1 24 2 22 3 23 4 5 6 4 7 1 8 2 9 3 10 6 12 7 13 8 14
REMARK SMILES IDX 21 15 14 16 16 17 20 18 15 19 17 20 19 21 18 22 9 23 10 24
REMARK SMILES IDX 11 25 12 26 13 27 26 28 27 29 28 30 29 31 30 33 31 34 32 35
REMARK SMILES IDX 93 36 33 37 92 38 34 39 35 40 36 41 86 42 37 43 91 44 85 45
REMARK SMILES IDX 87 46 38 47 90 48 84 49 83 50 39 52 71 53 51 54 70 55 52 56
REMARK SMILES IDX 55 57 69 58 88 59 53 60 54 61 68 63 89 64 56 65 40 66 41 67
REMARK SMILES IDX 49 68 42 69 48 70 50 71 47 72 43 73 44 74 45 75 46 76 72 77
REMARK SMILES IDX 73 78 81 79 74 80 80 81 82 82 79 83 75 84 76 85 77 86 78 87
REMARK SMILES IDX 57 88 58 89 66 90 59 91 65 92 67 93 64 94 60 95 61 96 62 97
REMARK SMILES IDX 63 98
REMARK H PARENT 24 5 4 11 28 32 87 51 55 62
REMARK Flexibility Score: inf
ROOT
ATOM      1  C   UNL A   1      31.865  29.124  24.893  1.00  0.00     0.117 C 
ENDROOT
BRANCH   1   2
ATOM      2  N   UNL A   1      33.174  29.285  24.290  1.00  0.00    -0.354 N 
ATOM      3  C   UNL A   1      33.858  28.428  23.479  1.00  0.00     0.242 C 
ATOM      4  O   UNL A   1      34.778  28.907  22.805  1.00  0.00    -0.273 OA
ATOM      5  H   UNL A   1      33.634  30.130  24.495  1.00  0.00     0.163 HD
BRANCH   3   6
ATOM      6  C   UNL A   1      33.457  26.948  23.282  1.00  0.00     0.175 C 
BRANCH   6   7
ATOM      7  N   UNL A   1      33.645  26.460  21.918  1.00  0.00    -0.344 N 
ATOM      8  C   UNL A   1      31.376  25.524  21.670  1.00  0.00     0.114 C 
ATOM      9  C   UNL A   1      32.721  25.883  21.098  1.00  0.00     0.217 C 
ATOM     10  O   UNL A   1      33.017  25.629  19.932  1.00  0.00    -0.275 OA
ATOM     11  H   UNL A   1      34.550  26.561  21.544  1.00  0.00     0.164 HD
ENDBRANCH   6   7
BRANCH   6  12
ATOM     12  C   UNL A   1      33.990  25.983  24.360  1.00  0.00     0.075 C 
BRANCH  12  13
ATOM     13  C   UNL A   1      33.481  24.548  24.402  1.00  0.00     0.005 A 
ATOM     14  C   UNL A   1      34.218  23.527  23.752  1.00  0.00     0.123 A 
ATOM     15  C   UNL A   1      32.281  24.212  25.120  1.00  0.00    -0.011 A 
ATOM     16  C   UNL A   1      33.691  22.240  23.679  1.00  0.00     0.047 A 
ATOM     17  C   UNL A   1      31.856  22.859  25.136  1.00  0.00    -0.018 A 
ATOM     18  C   UNL A   1      31.525  25.121  25.901  1.00  0.00     0.009 A 
ATOM     19  C   UNL A   1      32.534  21.907  24.375  1.00  0.00     0.012 A 
ATOM     20  C   UNL A   1      30.790  22.450  25.950  1.00  0.00     0.009 A 
ATOM     21  C   UNL A   1      30.470  24.700  26.718  1.00  0.00     0.001 A 
ATOM     22  C   UNL A   1      30.114  23.361  26.755  1.00  0.00     0.001 A 
BRANCH  14  23
ATOM     23  O   UNL A   1      35.469  23.867  23.306  1.00  0.00    -0.493 OA
BRANCH  23  24
ATOM     24  C   UNL A   1      36.506  22.881  23.222  1.00  0.00     0.232 C 
BRANCH  24  25
ATOM     25  C   UNL A   1      37.294  22.679  24.536  1.00  0.00     0.020 C 
ATOM     26  C   UNL A   1      36.982  23.702  25.630  1.00  0.00     0.011 C 
ATOM     27  C   UNL A   1      37.018  21.278  25.091  1.00  0.00     0.011 C 
ENDBRANCH  24  25
ENDBRANCH  23  24
ENDBRANCH  14  23
ENDBRANCH  12  13
ENDBRANCH   6  12
ENDBRANCH   3   6
ENDBRANCH   1   2
BRANCH   1  28
ATOM     28  C   UNL A   1      31.334  30.364  25.580  1.00  0.00     0.042 C 
BRANCH  28  29
ATOM     29  C   UNL A   1      32.168  30.798  26.777  1.00  0.00     0.118 C 
BRANCH  29  30
ATOM     30  N   UNL A   1      32.133  32.238  27.034  1.00  0.00    -0.352 N 
ATOM     31  C   UNL A   1      33.029  33.066  27.676  1.00  0.00     0.251 C 
ATOM     32  H   UNL A   1      31.331  32.693  26.689  1.00  0.00     0.163 HD
ATOM     33  O   UNL A   1      32.723  34.230  27.907  1.00  0.00    -0.269 OA
BRANCH  31  34
ATOM     34  C   UNL A   1      34.337  32.536  28.125  1.00  0.00     0.039 A 
ATOM     35  C   UNL A   1      35.462  33.365  28.093  1.00  0.00     0.014 A 
ATOM     36  C   UNL A   1      34.450  31.237  28.613  1.00  0.00     0.014 A 
ATOM     37  C   UNL A   1      36.663  32.926  28.659  1.00  0.00     0.010 A 
ATOM     38  C   UNL A   1      35.598  30.852  29.291  1.00  0.00     0.010 A 
ATOM     39  C   UNL A   1      36.722  31.691  29.325  1.00  0.00    -0.014 A 
BRANCH  39  40
ATOM     40  C   UNL A   1      37.934  31.239  30.060  1.00  0.00     0.031 A 
ATOM     41  C   UNL A   1      38.838  30.202  29.444  1.00  0.00     0.074 A 
ATOM     42  C   UNL A   1      38.151  31.662  31.323  1.00  0.00     0.049 A 
ATOM     43  N   UNL A   1      39.833  29.543  29.977  1.00  0.00    -0.248 NA
ATOM     44  C   UNL A   1      38.540  29.815  28.056  1.00  0.00     0.031 C 
ATOM     45  C   UNL A   1      37.305  32.605  32.059  1.00  0.00     0.029 A 
ATOM     46  N   UNL A   1      39.135  31.334  32.222  1.00  0.00    -0.354 N 
ATOM     47  C   UNL A   1      40.246  28.632  29.009  1.00  0.00     0.074 A 
ATOM     48  C   UNL A   1      39.346  28.781  27.885  1.00  0.00     0.031 C 
ATOM     49  C   UNL A   1      37.819  32.796  33.285  1.00  0.00     0.029 A 
ATOM     50  C   UNL A   1      38.998  31.953  33.443  1.00  0.00     0.049 A 
ATOM     51  H   UNL A   1      39.870  30.713  32.012  1.00  0.00     0.167 HD
ATOM     52  C   UNL A   1      41.293  27.771  29.043  1.00  0.00     0.034 A 
ATOM     53  C   UNL A   1      39.730  31.841  34.571  1.00  0.00     0.034 A 
ATOM     54  C   UNL A   1      42.206  27.675  30.157  1.00  0.00     0.049 A 
ATOM     55  C   UNL A   1      40.918  30.915  34.572  1.00  0.00     0.074 A 
ATOM     56  C   UNL A   1      43.356  26.913  30.267  1.00  0.00     0.029 A 
ATOM     57  N   UNL A   1      42.071  28.366  31.354  1.00  0.00    -0.354 N 
ATOM     58  N   UNL A   1      41.337  30.109  33.625  1.00  0.00    -0.248 NA
ATOM     59  C   UNL A   1      41.736  30.892  35.791  1.00  0.00     0.031 C 
ATOM     60  C   UNL A   1      43.882  27.099  31.551  1.00  0.00     0.029 A 
ATOM     61  C   UNL A   1      43.102  28.031  32.218  1.00  0.00     0.049 A 
ATOM     62  H   UNL A   1      41.348  29.003  31.560  1.00  0.00     0.167 HD
ATOM     63  C   UNL A   1      42.485  29.501  34.125  1.00  0.00     0.074 A 
ATOM     64  C   UNL A   1      42.699  30.048  35.449  1.00  0.00     0.031 C 
ATOM     65  C   UNL A   1      43.292  28.579  33.541  1.00  0.00     0.034 A 
BRANCH  52  66
ATOM     66  C   UNL A   1      41.485  26.860  27.851  1.00  0.00     0.023 A 
ATOM     67  C   UNL A   1      41.130  25.500  27.894  1.00  0.00     0.031 A 
ATOM     68  C   UNL A   1      42.079  27.344  26.672  1.00  0.00     0.131 A 
ATOM     69  C   UNL A   1      41.465  24.653  26.826  1.00  0.00     0.055 A 
ATOM     70  C   UNL A   1      42.324  26.515  25.576  1.00  0.00     0.041 A 
ATOM     71  F   UNL A   1      42.458  28.629  26.575  1.00  0.00    -0.206 F 
ATOM     72  C   UNL A   1      42.035  25.156  25.656  1.00  0.00     0.022 A 
BRANCH  69  73
ATOM     73  S   UNL A   1      41.301  22.862  27.064  1.00  0.00     0.124 S 
ATOM     74  O   UNL A   1      42.176  22.636  28.212  1.00  0.00    -0.237 OA
ATOM     75  O   UNL A   1      39.872  22.706  27.310  1.00  0.00    -0.237 OA
ATOM     76  O   UNL A   1      41.783  22.303  25.802  1.00  0.00    -0.744 OA
ENDBRANCH  69  73
ENDBRANCH  52  66
BRANCH  53  77
ATOM     77  C   UNL A   1      39.360  32.619  35.788  1.00  0.00     0.023 A 
ATOM     78  C   UNL A   1      39.860  33.913  35.998  1.00  0.00     0.031 A 
ATOM     79  C   UNL A   1      38.516  32.070  36.769  1.00  0.00     0.131 A 
ATOM     80  C   UNL A   1      39.542  34.604  37.180  1.00  0.00     0.055 A 
ATOM     81  C   UNL A   1      38.166  32.778  37.920  1.00  0.00     0.041 A 
ATOM     82  F   UNL A   1      38.002  30.840  36.611  1.00  0.00    -0.206 F 
ATOM     83  C   UNL A   1      38.690  34.048  38.136  1.00  0.00     0.022 A 
BRANCH  80  84
ATOM     84  S   UNL A   1      40.315  36.217  37.478  1.00  0.00     0.124 S 
ATOM     85  O   UNL A   1      39.290  36.898  38.263  1.00  0.00    -0.237 OA
ATOM     86  O   UNL A   1      41.529  35.842  38.196  1.00  0.00    -0.237 OA
ATOM     87  O   UNL A   1      40.527  36.747  36.133  1.00  0.00    -0.744 OA
ENDBRANCH  80  84
ENDBRANCH  53  77
BRANCH  65  88
ATOM     88  C   UNL A   1      44.504  28.139  34.324  1.00  0.00     0.023 A 
ATOM     89  C   UNL A   1      45.727  28.823  34.236  1.00  0.00     0.031 A 
ATOM     90  C   UNL A   1      44.431  27.013  35.163  1.00  0.00     0.131 A 
ATOM     91  C   UNL A   1      46.845  28.345  34.935  1.00  0.00     0.055 A 
ATOM     92  C   UNL A   1      45.530  26.575  35.900  1.00  0.00     0.041 A 
ATOM     93  F   UNL A   1      43.286  26.321  35.281  1.00  0.00    -0.206 F 
ATOM     94  C   UNL A   1      46.751  27.235  35.780  1.00  0.00     0.022 A 
BRANCH  91  95
ATOM     95  S   UNL A   1      48.451  29.141  34.659  1.00  0.00     0.124 S 
ATOM     96  O   UNL A   1      48.586  29.058  33.209  1.00  0.00    -0.237 OA
ATOM     97  O   UNL A   1      48.235  30.477  35.205  1.00  0.00    -0.237 OA
ATOM     98  O   UNL A   1      49.382  28.306  35.418  1.00  0.00    -0.744 OA
ENDBRANCH  91  95
ENDBRANCH  65  88
ENDBRANCH  39  40
ENDBRANCH  31  34
ENDBRANCH  29  30
ENDBRANCH  28  29
ENDBRANCH   1  28
TORSDOF 19
ENDMDL
MODEL 3
REMARK VINA RESULT:     -11.2      2.164      3.291
REMARK SMILES CC(=O)N[C@@H](Cc1c(OCC(C)C)ccc2ccccc12)C(=O)NCCCNC(=O)c1ccc(-c2c3nc(c(-c4cc(S(=O)(=O)[O-])ccc4F)c4ccc([nH]4)c(-c4cc(S(=O)(=O)[O-])ccc4F)c4nc(c(-c5cc(S(=O)(=O)[O-])ccc5F)c5ccc2[nH]5)C=C4)C=C3)cc1
REMARK SMILES IDX 25 1 24 2 22 3 23 4 5 6 4 7 1 8 2 9 3 10 6 12 7 13 8 14
REMARK SMILES IDX 21 15 14 16 16 17 20 18 15 19 17 20 19 21 18 22 9 23 10 24
REMARK SMILES IDX 11 25 12 26 13 27 26 28 27 29 28 30 29 31 30 33 31 34 32 35
REMARK SMILES IDX 93 36 33 37 92 38 34 39 35 40 36 41 86 42 37 43 91 44 85 45
REMARK SMILES IDX 87 46 38 47 90 48 84 49 83 50 39 52 71 53 51 54 70 55 52 56
REMARK SMILES IDX 55 57 69 58 88 59 53 60 54 61 68 63 89 64 56 65 40 66 41 67
REMARK SMILES IDX 49 68 42 69 48 70 50 71 47 72 43 73 44 74 45 75 46 76 72 77
REMARK SMILES IDX 73 78 81 79 74 80 80 81 82 82 79 83 75 84 76 85 77 86 78 87
REMARK SMILES IDX 57 88 58 89 66 90 59 91 65 92 67 93 64 94 60 95 61 96 62 97
REMARK SMILES IDX 63 98
REMARK H PARENT 24 5 4 11 28 32 87 51 55 62
REMARK Flexibility Score: inf
ROOT
ATOM      1  C   UNL A   1      32.074  26.851  26.511  1.00  0.00     0.117 C 
ENDROOT
BRANCH   1   2
ATOM      2  N   UNL A   1      31.068  25.808  26.528  1.00  0.00    -0.354 N 
ATOM      3  C   UNL A   1      31.207  24.475  26.276  1.00  0.00     0.242 C 
ATOM      4  O   UNL A   1      30.310  23.729  26.689  1.00  0.00    -0.273 OA
ATOM      5  H   UNL A   1      30.156  26.102  26.753  1.00  0.00     0.163 HD
BRANCH   3   6
ATOM      6  C   UNL A   1      32.467  23.865  25.621  1.00  0.00     0.175 C 
BRANCH   6   7
ATOM      7  N   UNL A   1      33.197  24.795  24.762  1.00  0.00    -0.344 N 
ATOM      8  C   UNL A   1      33.130  23.380  22.742  1.00  0.00     0.114 C 
ATOM      9  C   UNL A   1      33.458  24.679  23.429  1.00  0.00     0.217 C 
ATOM     10  O   UNL A   1      33.991  25.610  22.830  1.00  0.00    -0.275 OA
ATOM     11  H   UNL A   1      33.542  25.606  25.200  1.00  0.00     0.164 HD
ENDBRANCH   6   7
BRANCH   6  12
ATOM     12  C   UNL A   1      33.377  23.070  26.579  1.00  0.00     0.075 C 
BRANCH  12  13
ATOM     13  C   UNL A   1      34.479  22.187  26.009  1.00  0.00     0.005 A 
ATOM     14  C   UNL A   1      34.143  20.935  25.436  1.00  0.00     0.123 A 
ATOM     15  C   UNL A   1      35.849  22.622  26.015  1.00  0.00    -0.011 A 
ATOM     16  C   UNL A   1      35.158  20.070  25.032  1.00  0.00     0.047 A 
ATOM     17  C   UNL A   1      36.836  21.765  25.463  1.00  0.00    -0.018 A 
ATOM     18  C   UNL A   1      36.292  23.895  26.453  1.00  0.00     0.009 A 
ATOM     19  C   UNL A   1      36.485  20.487  25.030  1.00  0.00     0.012 A 
ATOM     20  C   UNL A   1      38.158  22.204  25.296  1.00  0.00     0.009 A 
ATOM     21  C   UNL A   1      37.611  24.326  26.272  1.00  0.00     0.001 A 
ATOM     22  C   UNL A   1      38.539  23.486  25.678  1.00  0.00     0.001 A 
BRANCH  14  23
ATOM     23  O   UNL A   1      32.809  20.694  25.235  1.00  0.00    -0.493 OA
BRANCH  23  24
ATOM     24  C   UNL A   1      32.352  20.087  24.019  1.00  0.00     0.232 C 
BRANCH  24  25
ATOM     25  C   UNL A   1      32.808  18.622  23.835  1.00  0.00     0.020 C 
ATOM     26  C   UNL A   1      32.342  17.667  24.934  1.00  0.00     0.011 C 
ATOM     27  C   UNL A   1      32.305  18.093  22.488  1.00  0.00     0.011 C 
ENDBRANCH  24  25
ENDBRANCH  23  24
ENDBRANCH  14  23
ENDBRANCH  12  13
ENDBRANCH   6  12
ENDBRANCH   3   6
ENDBRANCH   1   2
BRANCH   1  28
ATOM     28  C   UNL A   1      31.694  28.077  25.707  1.00  0.00     0.042 C 
BRANCH  28  29
ATOM     29  C   UNL A   1      32.784  29.139  25.670  1.00  0.00     0.118 C 
BRANCH  29  30
ATOM     30  N   UNL A   1      32.365  30.436  26.200  1.00  0.00    -0.352 N 
ATOM     31  C   UNL A   1      32.975  31.288  27.096  1.00  0.00     0.251 C 
ATOM     32  H   UNL A   1      31.499  30.755  25.858  1.00  0.00     0.163 HD
ATOM     33  O   UNL A   1      32.368  32.268  27.514  1.00  0.00    -0.269 OA
BRANCH  31  34
ATOM     34  C   UNL A   1      34.343  30.995  27.585  1.00  0.00     0.039 A 
ATOM     35  C   UNL A   1      35.266  32.037  27.712  1.00  0.00     0.014 A 
ATOM     36  C   UNL A   1      34.704  29.702  27.954  1.00  0.00     0.014 A 
ATOM     37  C   UNL A   1      36.503  31.797  28.318  1.00  0.00     0.010 A 
ATOM     38  C   UNL A   1      35.873  29.492  28.673  1.00  0.00     0.010 A 
ATOM     39  C   UNL A   1      36.790  30.536  28.866  1.00  0.00    -0.014 A 
BRANCH  39  40
ATOM     40  C   UNL A   1      38.032  30.268  29.640  1.00  0.00     0.031 A 
ATOM     41  C   UNL A   1      39.034  29.268  29.121  1.00  0.00     0.074 A 
ATOM     42  C   UNL A   1      38.197  30.822  30.859  1.00  0.00     0.049 A 
ATOM     43  N   UNL A   1      40.081  28.755  29.712  1.00  0.00    -0.248 NA
ATOM     44  C   UNL A   1      38.784  28.731  27.774  1.00  0.00     0.031 C 
ATOM     45  C   UNL A   1      37.262  31.745  31.505  1.00  0.00     0.029 A 
ATOM     46  N   UNL A   1      39.200  30.670  31.784  1.00  0.00    -0.354 N 
ATOM     47  C   UNL A   1      40.585  27.803  28.832  1.00  0.00     0.074 A 
ATOM     48  C   UNL A   1      39.685  27.765  27.699  1.00  0.00     0.031 C 
ATOM     49  C   UNL A   1      37.744  32.094  32.709  1.00  0.00     0.029 A 
ATOM     50  C   UNL A   1      38.996  31.382  32.944  1.00  0.00     0.049 A 
ATOM     51  H   UNL A   1      39.991  30.104  31.632  1.00  0.00     0.167 HD
ATOM     52  C   UNL A   1      41.707  27.050  28.944  1.00  0.00     0.034 A 
ATOM     53  C   UNL A   1      39.724  31.441  34.077  1.00  0.00     0.034 A 
ATOM     54  C   UNL A   1      42.615  27.140  30.062  1.00  0.00     0.049 A 
ATOM     55  C   UNL A   1      40.993  30.634  34.164  1.00  0.00     0.074 A 
ATOM     56  C   UNL A   1      43.829  26.502  30.241  1.00  0.00     0.029 A 
ATOM     57  N   UNL A   1      42.406  27.922  31.191  1.00  0.00    -0.354 N 
ATOM     58  N   UNL A   1      41.494  29.788  33.294  1.00  0.00    -0.248 NA
ATOM     59  C   UNL A   1      41.800  30.798  35.379  1.00  0.00     0.031 C 
ATOM     60  C   UNL A   1      44.325  26.852  31.503  1.00  0.00     0.029 A 
ATOM     61  C   UNL A   1      43.455  27.764  32.083  1.00  0.00     0.049 A 
ATOM     62  H   UNL A   1      41.625  28.505  31.338  1.00  0.00     0.167 HD
ATOM     63  C   UNL A   1      42.689  29.337  33.847  1.00  0.00     0.074 A 
ATOM     64  C   UNL A   1      42.840  30.019  35.117  1.00  0.00     0.031 C 
ATOM     65  C   UNL A   1      43.583  28.445  33.351  1.00  0.00     0.034 A 
BRANCH  52  66
ATOM     66  C   UNL A   1      41.992  26.057  27.840  1.00  0.00     0.023 A 
ATOM     67  C   UNL A   1      41.687  24.690  27.976  1.00  0.00     0.031 A 
ATOM     68  C   UNL A   1      42.627  26.470  26.656  1.00  0.00     0.131 A 
ATOM     69  C   UNL A   1      42.107  23.777  26.997  1.00  0.00     0.055 A 
ATOM     70  C   UNL A   1      42.958  25.567  25.643  1.00  0.00     0.041 A 
ATOM     71  F   UNL A   1      42.962  27.757  26.472  1.00  0.00    -0.206 F 
ATOM     72  C   UNL A   1      42.716  24.208  25.819  1.00  0.00     0.022 A 
BRANCH  69  73
ATOM     73  S   UNL A   1      41.998  22.004  27.371  1.00  0.00     0.124 S 
ATOM     74  O   UNL A   1      40.628  21.893  27.868  1.00  0.00    -0.237 OA
ATOM     75  O   UNL A   1      42.259  21.391  26.075  1.00  0.00    -0.237 OA
ATOM     76  O   UNL A   1      43.036  21.802  28.380  1.00  0.00    -0.744 OA
ENDBRANCH  69  73
ENDBRANCH  52  66
BRANCH  53  77
ATOM     77  C   UNL A   1      39.274  32.289  35.218  1.00  0.00     0.023 A 
ATOM     78  C   UNL A   1      39.748  33.600  35.377  1.00  0.00     0.031 A 
ATOM     79  C   UNL A   1      38.376  31.791  36.179  1.00  0.00     0.131 A 
ATOM     80  C   UNL A   1      39.352  34.358  36.491  1.00  0.00     0.055 A 
ATOM     81  C   UNL A   1      37.949  32.564  37.260  1.00  0.00     0.041 A 
ATOM     82  F   UNL A   1      37.883  30.547  36.067  1.00  0.00    -0.206 F 
ATOM     83  C   UNL A   1      38.447  33.853  37.427  1.00  0.00     0.022 A 
BRANCH  80  84
ATOM     84  S   UNL A   1      40.090  35.997  36.734  1.00  0.00     0.124 S 
ATOM     85  O   UNL A   1      39.398  36.461  37.932  1.00  0.00    -0.237 OA
ATOM     86  O   UNL A   1      41.504  35.671  36.895  1.00  0.00    -0.237 OA
ATOM     87  O   UNL A   1      39.754  36.708  35.503  1.00  0.00    -0.744 OA
ENDBRANCH  80  84
ENDBRANCH  53  77
BRANCH  65  88
ATOM     88  C   UNL A   1      44.823  28.193  34.170  1.00  0.00     0.023 A 
ATOM     89  C   UNL A   1      44.901  27.128  35.083  1.00  0.00     0.031 A 
ATOM     90  C   UNL A   1      45.939  29.039  34.039  1.00  0.00     0.131 A 
ATOM     91  C   UNL A   1      46.052  26.967  35.868  1.00  0.00     0.055 A 
ATOM     92  C   UNL A   1      47.102  28.838  34.781  1.00  0.00     0.041 A 
ATOM     93  F   UNL A   1      45.915  30.073  33.182  1.00  0.00    -0.206 F 
ATOM     94  C   UNL A   1      47.160  27.805  35.711  1.00  0.00     0.022 A 
BRANCH  91  95
ATOM     95  S   UNL A   1      46.051  25.696  37.163  1.00  0.00     0.124 S 
ATOM     96  O   UNL A   1      44.624  25.484  37.380  1.00  0.00    -0.237 OA
ATOM     97  O   UNL A   1      46.770  24.598  36.524  1.00  0.00    -0.237 OA
ATOM     98  O   UNL A   1      46.759  26.336  38.271  1.00  0.00    -0.744 OA
ENDBRANCH  91  95
ENDBRANCH  65  88
ENDBRANCH  39  40
ENDBRANCH  31  34
ENDBRANCH  29  30
ENDBRANCH  28  29
ENDBRANCH   1  28
TORSDOF 19
ENDMDL
