MODEL 1
REMARK VINA RESULT:     -12.3      0.000      0.000
REMARK SMILES Cc1c(N[C@@H]2CC[C@@H]([NH3+])C2)cccc1C(=O)NCCCNC(=O)c1ccc(-c2c3nc(c(-c4cc(S(=O)(=O)[O-])ccc4F)c4ccc([nH]4)c(-c4cc(S(=O)(=O)[O-])ccc4F)c4nc(c(-c5cc(S(=O)(=O)[O-])ccc5F)c5ccc2[nH]5)C=C4)C=C3)cc1
REMARK SMILES IDX 19 1 18 2 17 3 15 4 16 5 14 7 1 8 2 9 3 10 11 11 13 12 12 13
REMARK SMILES IDX 4 14 5 16 6 17 10 18 7 19 8 20 9 21 20 25 21 26 22 27 23 29
REMARK SMILES IDX 24 30 25 31 86 32 26 33 85 34 27 35 28 36 29 37 79 38 30 39
REMARK SMILES IDX 84 40 78 41 80 42 31 43 83 44 77 45 76 46 32 48 64 49 44 50
REMARK SMILES IDX 63 51 45 52 48 53 62 54 81 55 46 56 47 57 61 59 82 60 49 61
REMARK SMILES IDX 33 62 34 63 42 64 35 65 41 66 43 67 40 68 36 69 37 70 38 71
REMARK SMILES IDX 39 72 65 73 66 74 74 75 67 76 73 77 75 78 72 79 68 80 69 81
REMARK SMILES IDX 70 82 71 83 50 84 51 85 59 86 52 87 58 88 60 89 57 90 53 91
REMARK SMILES IDX 54 92 55 93 56 94
REMARK H PARENT 17 6 4 15 9 22 9 23 9 24 21 28 80 47 48 58
REMARK Flexibility Score: inf
ROOT
ATOM      1  C   UNL A   1      32.925  31.234  26.692  1.00  0.00     0.042 C 
ENDROOT
BRANCH   1   2
ATOM      2  C   UNL A   1      31.666  30.515  26.192  1.00  0.00     0.118 C 
BRANCH   2   3
ATOM      3  N   UNL A   1      31.804  30.111  24.792  1.00  0.00    -0.352 N 
ATOM      4  C   UNL A   1      32.037  28.937  24.123  1.00  0.00     0.251 C 
ATOM      5  O   UNL A   1      31.981  29.019  22.889  1.00  0.00    -0.269 OA
ATOM      6  H   UNL A   1      31.706  30.873  24.177  1.00  0.00     0.163 HD
BRANCH   4   7
ATOM      7  C   UNL A   1      32.308  27.578  24.710  1.00  0.00     0.044 A 
ATOM      8  C   UNL A   1      29.977  26.545  24.585  1.00  0.00     0.047 C 
ATOM      9  C   UNL A   1      31.451  26.467  24.815  1.00  0.00    -0.015 A 
ATOM     10  C   UNL A   1      31.913  25.215  25.302  1.00  0.00     0.038 A 
ATOM     11  C   UNL A   1      33.115  25.183  25.999  1.00  0.00     0.026 A 
ATOM     12  C   UNL A   1      33.561  27.462  25.344  1.00  0.00     0.014 A 
ATOM     13  C   UNL A   1      33.935  26.305  26.031  1.00  0.00     0.003 A 
BRANCH  10  14
ATOM     14  N   UNL A   1      31.107  24.112  25.105  1.00  0.00    -0.382 N 
ATOM     15  H   UNL A   1      30.287  24.103  25.652  1.00  0.00     0.160 HD
BRANCH  14  16
ATOM     16  C   UNL A   1      31.257  22.973  24.238  1.00  0.00     0.085 C 
ATOM     17  C   UNL A   1      31.927  21.757  24.881  1.00  0.00     0.031 C 
ATOM     18  C   UNL A   1      32.008  23.283  22.953  1.00  0.00     0.089 C 
ATOM     19  C   UNL A   1      32.990  21.311  23.878  1.00  0.00     0.067 C 
ATOM     20  C   UNL A   1      32.587  21.933  22.539  1.00  0.00     0.182 C 
BRANCH  20  21
ATOM     21  N   UNL A   1      31.598  21.108  21.841  1.00  0.00    -0.355 N 
ATOM     22  H   UNL A   1      30.758  21.028  22.414  1.00  0.00     0.344 HD
ATOM     23  H   UNL A   1      31.986  20.180  21.676  1.00  0.00     0.344 HD
ATOM     24  H   UNL A   1      31.362  21.542  20.949  1.00  0.00     0.344 HD
ENDBRANCH  20  21
ENDBRANCH  14  16
ENDBRANCH  10  14
ENDBRANCH   4   7
ENDBRANCH   2   3
ENDBRANCH   1   2
BRANCH   1  25
ATOM     25  C   UNL A   1      33.663  30.588  27.840  1.00  0.00     0.118 C 
BRANCH  25  26
ATOM     26  N   UNL A   1      34.518  31.492  28.616  1.00  0.00    -0.352 N 
ATOM     27  C   UNL A   1      35.674  31.197  29.329  1.00  0.00     0.251 C 
ATOM     28  H   UNL A   1      34.235  32.434  28.634  1.00  0.00     0.163 HD
ATOM     29  O   UNL A   1      36.311  32.060  29.924  1.00  0.00    -0.269 OA
BRANCH  27  30
ATOM     30  C   UNL A   1      36.237  29.824  29.224  1.00  0.00     0.039 A 
ATOM     31  C   UNL A   1      36.844  29.361  30.396  1.00  0.00     0.014 A 
ATOM     32  C   UNL A   1      36.672  29.389  27.981  1.00  0.00     0.014 A 
ATOM     33  C   UNL A   1      38.129  28.848  30.315  1.00  0.00     0.010 A 
ATOM     34  C   UNL A   1      37.995  29.019  27.897  1.00  0.00     0.010 A 
ATOM     35  C   UNL A   1      38.743  28.847  29.068  1.00  0.00    -0.014 A 
BRANCH  35  36
ATOM     36  C   UNL A   1      40.156  28.593  28.875  1.00  0.00     0.031 A 
ATOM     37  C   UNL A   1      40.510  27.202  28.580  1.00  0.00     0.074 A 
ATOM     38  C   UNL A   1      41.077  29.578  28.950  1.00  0.00     0.049 A 
ATOM     39  N   UNL A   1      41.622  26.647  28.896  1.00  0.00    -0.248 NA
ATOM     40  C   UNL A   1      39.550  26.277  27.985  1.00  0.00     0.031 C 
ATOM     41  C   UNL A   1      42.495  29.504  28.611  1.00  0.00     0.029 A 
ATOM     42  N   UNL A   1      40.938  30.825  29.557  1.00  0.00    -0.354 N 
ATOM     43  C   UNL A   1      41.643  25.408  28.296  1.00  0.00     0.074 A 
ATOM     44  C   UNL A   1      40.291  25.178  27.862  1.00  0.00     0.031 C 
ATOM     45  C   UNL A   1      43.143  30.514  29.218  1.00  0.00     0.029 A 
ATOM     46  C   UNL A   1      42.195  31.189  30.087  1.00  0.00     0.049 A 
ATOM     47  H   UNL A   1      40.111  31.357  29.607  1.00  0.00     0.167 HD
ATOM     48  C   UNL A   1      42.845  24.803  28.100  1.00  0.00     0.034 A 
ATOM     49  C   UNL A   1      42.337  31.337  31.440  1.00  0.00     0.034 A 
ATOM     50  C   UNL A   1      43.914  25.596  28.723  1.00  0.00     0.049 A 
ATOM     51  C   UNL A   1      43.148  30.214  32.076  1.00  0.00     0.074 A 
ATOM     52  C   UNL A   1      44.819  26.527  28.241  1.00  0.00     0.029 A 
ATOM     53  N   UNL A   1      43.892  25.771  30.100  1.00  0.00    -0.354 N 
ATOM     54  N   UNL A   1      43.667  29.201  31.432  1.00  0.00    -0.248 NA
ATOM     55  C   UNL A   1      43.358  30.116  33.517  1.00  0.00     0.031 C 
ATOM     56  C   UNL A   1      45.294  27.298  29.348  1.00  0.00     0.029 A 
ATOM     57  C   UNL A   1      44.722  26.801  30.506  1.00  0.00     0.049 A 
ATOM     58  H   UNL A   1      43.349  25.227  30.715  1.00  0.00     0.167 HD
ATOM     59  C   UNL A   1      44.214  28.307  32.321  1.00  0.00     0.074 A 
ATOM     60  C   UNL A   1      43.970  28.924  33.619  1.00  0.00     0.031 C 
ATOM     61  C   UNL A   1      44.792  27.122  31.929  1.00  0.00     0.034 A 
BRANCH  48  62
ATOM     62  C   UNL A   1      43.081  23.688  27.101  1.00  0.00     0.023 A 
ATOM     63  C   UNL A   1      42.385  22.477  27.280  1.00  0.00     0.031 A 
ATOM     64  C   UNL A   1      43.986  23.696  26.017  1.00  0.00     0.131 A 
ATOM     65  C   UNL A   1      42.658  21.345  26.489  1.00  0.00     0.055 A 
ATOM     66  C   UNL A   1      44.298  22.557  25.262  1.00  0.00     0.041 A 
ATOM     67  F   UNL A   1      44.578  24.812  25.582  1.00  0.00    -0.206 F 
ATOM     68  C   UNL A   1      43.636  21.367  25.501  1.00  0.00     0.022 A 
BRANCH  65  69
ATOM     69  S   UNL A   1      41.707  19.831  26.772  1.00  0.00     0.124 S 
ATOM     70  O   UNL A   1      41.645  19.254  25.434  1.00  0.00    -0.237 OA
ATOM     71  O   UNL A   1      42.533  19.127  27.745  1.00  0.00    -0.237 OA
ATOM     72  O   UNL A   1      40.432  20.325  27.291  1.00  0.00    -0.744 OA
ENDBRANCH  65  69
ENDBRANCH  48  62
BRANCH  49  73
ATOM     73  C   UNL A   1      41.125  31.991  32.037  1.00  0.00     0.023 A 
ATOM     74  C   UNL A   1      40.218  31.159  32.736  1.00  0.00     0.031 A 
ATOM     75  C   UNL A   1      41.174  33.348  32.386  1.00  0.00     0.131 A 
ATOM     76  C   UNL A   1      39.584  31.637  33.895  1.00  0.00     0.055 A 
ATOM     77  C   UNL A   1      40.515  33.820  33.524  1.00  0.00     0.041 A 
ATOM     78  F   UNL A   1      41.991  34.194  31.739  1.00  0.00    -0.206 F 
ATOM     79  C   UNL A   1      39.784  32.949  34.327  1.00  0.00     0.022 A 
BRANCH  76  80
ATOM     80  S   UNL A   1      38.694  30.488  34.987  1.00  0.00     0.124 S 
ATOM     81  O   UNL A   1      38.156  29.517  34.043  1.00  0.00    -0.237 OA
ATOM     82  O   UNL A   1      39.743  30.000  35.876  1.00  0.00    -0.237 OA
ATOM     83  O   UNL A   1      37.706  31.349  35.641  1.00  0.00    -0.744 OA
ENDBRANCH  76  80
ENDBRANCH  49  73
BRANCH  61  84
ATOM     84  C   UNL A   1      45.442  26.122  32.877  1.00  0.00     0.023 A 
ATOM     85  C   UNL A   1      44.709  25.406  33.830  1.00  0.00     0.031 A 
ATOM     86  C   UNL A   1      46.841  25.880  32.897  1.00  0.00     0.131 A 
ATOM     87  C   UNL A   1      45.303  24.393  34.605  1.00  0.00     0.055 A 
ATOM     88  C   UNL A   1      47.446  24.927  33.723  1.00  0.00     0.041 A 
ATOM     89  F   UNL A   1      47.700  26.546  32.117  1.00  0.00    -0.206 F 
ATOM     90  C   UNL A   1      46.670  24.149  34.561  1.00  0.00     0.022 A 
BRANCH  87  91
ATOM     91  S   UNL A   1      44.218  23.362  35.618  1.00  0.00     0.124 S 
ATOM     92  O   UNL A   1      43.039  23.217  34.776  1.00  0.00    -0.237 OA
ATOM     93  O   UNL A   1      45.027  22.161  35.791  1.00  0.00    -0.237 OA
ATOM     94  O   UNL A   1      44.023  24.161  36.832  1.00  0.00    -0.744 OA
ENDBRANCH  87  91
ENDBRANCH  61  84
ENDBRANCH  35  36
ENDBRANCH  27  30
ENDBRANCH  25  26
ENDBRANCH   1  25
TORSDOF 16
ENDMDL
MODEL 2
REMARK VINA RESULT:     -12.1      2.144      2.718
REMARK SMILES Cc1c(N[C@@H]2CC[C@@H]([NH3+])C2)cccc1C(=O)NCCCNC(=O)c1ccc(-c2c3nc(c(-c4cc(S(=O)(=O)[O-])ccc4F)c4ccc([nH]4)c(-c4cc(S(=O)(=O)[O-])ccc4F)c4nc(c(-c5cc(S(=O)(=O)[O-])ccc5F)c5ccc2[nH]5)C=C4)C=C3)cc1
REMARK SMILES IDX 19 1 18 2 17 3 15 4 16 5 14 7 1 8 2 9 3 10 11 11 13 12 12 13
REMARK SMILES IDX 4 14 5 16 6 17 10 18 7 19 8 20 9 21 20 25 21 26 22 27 23 29
REMARK SMILES IDX 24 30 25 31 86 32 26 33 85 34 27 35 28 36 29 37 79 38 30 39
REMARK SMILES IDX 84 40 78 41 80 42 31 43 83 44 77 45 76 46 32 48 64 49 44 50
REMARK SMILES IDX 63 51 45 52 48 53 62 54 81 55 46 56 47 57 61 59 82 60 49 61
REMARK SMILES IDX 33 62 34 63 42 64 35 65 41 66 43 67 40 68 36 69 37 70 38 71
REMARK SMILES IDX 39 72 65 73 66 74 74 75 67 76 73 77 75 78 72 79 68 80 69 81
REMARK SMILES IDX 70 82 71 83 50 84 51 85 59 86 52 87 58 88 60 89 57 90 53 91
REMARK SMILES IDX 54 92 55 93 56 94
REMARK H PARENT 17 6 4 15 9 22 9 23 9 24 21 28 80 47 48 58
REMARK Flexibility Score: inf
ROOT
ATOM      1  C   UNL A   1      33.523  31.397  27.416  1.00  0.00     0.042 C 
ENDROOT
BRANCH   1   2
ATOM      2  C   UNL A   1      32.442  30.617  26.657  1.00  0.00     0.118 C 
BRANCH   2   3
ATOM      3  N   UNL A   1      32.933  30.154  25.358  1.00  0.00    -0.352 N 
ATOM      4  C   UNL A   1      32.712  29.070  24.549  1.00  0.00     0.251 C 
ATOM      5  O   UNL A   1      33.279  29.114  23.449  1.00  0.00    -0.269 OA
ATOM      6  H   UNL A   1      33.587  30.778  24.968  1.00  0.00     0.163 HD
BRANCH   4   7
ATOM      7  C   UNL A   1      31.841  27.874  24.826  1.00  0.00     0.044 A 
ATOM      8  C   UNL A   1      33.525  26.327  25.962  1.00  0.00     0.047 C 
ATOM      9  C   UNL A   1      32.139  26.704  25.550  1.00  0.00    -0.015 A 
ATOM     10  C   UNL A   1      31.150  25.718  25.808  1.00  0.00     0.038 A 
ATOM     11  C   UNL A   1      29.985  25.740  25.051  1.00  0.00     0.026 A 
ATOM     12  C   UNL A   1      30.601  27.895  24.157  1.00  0.00     0.014 A 
ATOM     13  C   UNL A   1      29.713  26.820  24.218  1.00  0.00     0.003 A 
BRANCH  10  14
ATOM     14  N   UNL A   1      31.434  24.756  26.757  1.00  0.00    -0.382 N 
ATOM     15  H   UNL A   1      31.357  25.067  27.688  1.00  0.00     0.160 HD
BRANCH  14  16
ATOM     16  C   UNL A   1      31.824  23.377  26.619  1.00  0.00     0.085 C 
ATOM     17  C   UNL A   1      33.133  23.005  27.317  1.00  0.00     0.031 C 
ATOM     18  C   UNL A   1      31.929  22.918  25.173  1.00  0.00     0.089 C 
ATOM     19  C   UNL A   1      33.930  22.218  26.277  1.00  0.00     0.067 C 
ATOM     20  C   UNL A   1      32.909  21.749  25.237  1.00  0.00     0.182 C 
BRANCH  20  21
ATOM     21  N   UNL A   1      32.251  20.509  25.655  1.00  0.00    -0.355 N 
ATOM     22  H   UNL A   1      31.521  20.269  24.984  1.00  0.00     0.344 HD
ATOM     23  H   UNL A   1      31.837  20.638  26.577  1.00  0.00     0.344 HD
ATOM     24  H   UNL A   1      32.938  19.756  25.692  1.00  0.00     0.344 HD
ENDBRANCH  20  21
ENDBRANCH  14  16
ENDBRANCH  10  14
ENDBRANCH   4   7
ENDBRANCH   2   3
ENDBRANCH   1   2
BRANCH   1  25
ATOM     25  C   UNL A   1      34.597  30.579  28.095  1.00  0.00     0.118 C 
BRANCH  25  26
ATOM     26  N   UNL A   1      35.604  31.360  28.821  1.00  0.00    -0.352 N 
ATOM     27  C   UNL A   1      36.796  30.926  29.389  1.00  0.00     0.251 C 
ATOM     28  H   UNL A   1      35.408  32.319  28.920  1.00  0.00     0.163 HD
ATOM     29  O   UNL A   1      37.564  31.694  29.957  1.00  0.00    -0.269 OA
BRANCH  27  30
ATOM     30  C   UNL A   1      37.221  29.520  29.151  1.00  0.00     0.039 A 
ATOM     31  C   UNL A   1      37.557  28.817  30.312  1.00  0.00     0.014 A 
ATOM     32  C   UNL A   1      37.822  29.216  27.938  1.00  0.00     0.014 A 
ATOM     33  C   UNL A   1      38.775  28.156  30.353  1.00  0.00     0.010 A 
ATOM     34  C   UNL A   1      39.092  28.690  28.006  1.00  0.00     0.010 A 
ATOM     35  C   UNL A   1      39.597  28.254  29.237  1.00  0.00    -0.014 A 
BRANCH  35  36
ATOM     36  C   UNL A   1      40.988  27.847  29.231  1.00  0.00     0.031 A 
ATOM     37  C   UNL A   1      41.245  26.494  28.729  1.00  0.00     0.074 A 
ATOM     38  C   UNL A   1      41.976  28.667  29.650  1.00  0.00     0.049 A 
ATOM     39  N   UNL A   1      42.214  25.745  29.106  1.00  0.00    -0.248 NA
ATOM     40  C   UNL A   1      40.323  25.830  27.813  1.00  0.00     0.031 C 
ATOM     41  C   UNL A   1      43.417  28.461  29.541  1.00  0.00     0.029 A 
ATOM     42  N   UNL A   1      41.855  29.794  30.461  1.00  0.00    -0.354 N 
ATOM     43  C   UNL A   1      42.218  24.641  28.285  1.00  0.00     0.074 A 
ATOM     44  C   UNL A   1      40.955  24.679  27.598  1.00  0.00     0.031 C 
ATOM     45  C   UNL A   1      44.041  29.249  30.435  1.00  0.00     0.029 A 
ATOM     46  C   UNL A   1      43.021  29.883  31.252  1.00  0.00     0.049 A 
ATOM     47  H   UNL A   1      41.094  30.418  30.480  1.00  0.00     0.167 HD
ATOM     48  C   UNL A   1      43.367  23.921  28.172  1.00  0.00     0.034 A 
ATOM     49  C   UNL A   1      42.922  29.769  32.612  1.00  0.00     0.034 A 
ATOM     50  C   UNL A   1      44.376  24.437  29.107  1.00  0.00     0.049 A 
ATOM     51  C   UNL A   1      43.479  28.451  33.137  1.00  0.00     0.074 A 
ATOM     52  C   UNL A   1      45.448  25.306  28.975  1.00  0.00     0.029 A 
ATOM     53  N   UNL A   1      44.116  24.368  30.469  1.00  0.00    -0.354 N 
ATOM     54  N   UNL A   1      44.002  27.506  32.399  1.00  0.00    -0.248 NA
ATOM     55  C   UNL A   1      43.405  28.072  34.545  1.00  0.00     0.031 C 
ATOM     56  C   UNL A   1      45.785  25.796  30.275  1.00  0.00     0.029 A 
ATOM     57  C   UNL A   1      44.957  25.186  31.202  1.00  0.00     0.049 A 
ATOM     58  H   UNL A   1      43.414  23.804  30.866  1.00  0.00     0.167 HD
ATOM     59  C   UNL A   1      44.277  26.403  33.171  1.00  0.00     0.074 A 
ATOM     60  C   UNL A   1      43.860  26.809  34.508  1.00  0.00     0.031 C 
ATOM     61  C   UNL A   1      44.793  25.238  32.653  1.00  0.00     0.034 A 
BRANCH  48  62
ATOM     62  C   UNL A   1      43.669  22.979  27.025  1.00  0.00     0.023 A 
ATOM     63  C   UNL A   1      43.058  21.710  27.029  1.00  0.00     0.031 A 
ATOM     64  C   UNL A   1      44.562  23.202  25.954  1.00  0.00     0.131 A 
ATOM     65  C   UNL A   1      43.400  20.723  26.084  1.00  0.00     0.055 A 
ATOM     66  C   UNL A   1      44.944  22.206  25.044  1.00  0.00     0.041 A 
ATOM     67  F   UNL A   1      45.074  24.407  25.684  1.00  0.00    -0.206 F 
ATOM     68  C   UNL A   1      44.366  20.952  25.111  1.00  0.00     0.022 A 
BRANCH  65  69
ATOM     69  S   UNL A   1      42.556  19.123  26.148  1.00  0.00     0.124 S 
ATOM     70  O   UNL A   1      42.356  18.939  27.581  1.00  0.00    -0.237 OA
ATOM     71  O   UNL A   1      41.360  19.375  25.352  1.00  0.00    -0.237 OA
ATOM     72  O   UNL A   1      43.519  18.209  25.536  1.00  0.00    -0.744 OA
ENDBRANCH  65  69
ENDBRANCH  48  62
BRANCH  49  73
ATOM     73  C   UNL A   1      41.695  30.467  33.120  1.00  0.00     0.023 A 
ATOM     74  C   UNL A   1      41.677  31.881  33.052  1.00  0.00     0.031 A 
ATOM     75  C   UNL A   1      40.465  29.794  33.113  1.00  0.00     0.131 A 
ATOM     76  C   UNL A   1      40.482  32.550  32.736  1.00  0.00     0.055 A 
ATOM     77  C   UNL A   1      39.278  30.473  32.828  1.00  0.00     0.041 A 
ATOM     78  F   UNL A   1      40.415  28.456  33.208  1.00  0.00    -0.206 F 
ATOM     79  C   UNL A   1      39.294  31.839  32.560  1.00  0.00     0.022 A 
BRANCH  76  80
ATOM     80  S   UNL A   1      40.512  34.316  32.309  1.00  0.00     0.124 S 
ATOM     81  O   UNL A   1      40.890  34.935  33.573  1.00  0.00    -0.237 OA
ATOM     82  O   UNL A   1      41.508  34.380  31.243  1.00  0.00    -0.237 OA
ATOM     83  O   UNL A   1      39.140  34.573  31.863  1.00  0.00    -0.744 OA
ENDBRANCH  76  80
ENDBRANCH  49  73
BRANCH  61  84
ATOM     84  C   UNL A   1      45.147  24.007  33.476  1.00  0.00     0.023 A 
ATOM     85  C   UNL A   1      46.447  23.757  33.930  1.00  0.00     0.031 A 
ATOM     86  C   UNL A   1      44.200  23.001  33.801  1.00  0.00     0.131 A 
ATOM     87  C   UNL A   1      46.729  22.687  34.799  1.00  0.00     0.055 A 
ATOM     88  C   UNL A   1      44.496  21.892  34.601  1.00  0.00     0.041 A 
ATOM     89  F   UNL A   1      42.933  23.034  33.369  1.00  0.00    -0.206 F 
ATOM     90  C   UNL A   1      45.762  21.748  35.136  1.00  0.00     0.022 A 
BRANCH  87  91
ATOM     91  S   UNL A   1      48.383  22.604  35.525  1.00  0.00     0.124 S 
ATOM     92  O   UNL A   1      48.233  23.386  36.744  1.00  0.00    -0.237 OA
ATOM     93  O   UNL A   1      48.554  21.167  35.708  1.00  0.00    -0.237 OA
ATOM     94  O   UNL A   1      49.238  23.206  34.497  1.00  0.00    -0.744 OA
ENDBRANCH  87  91
ENDBRANCH  61  84
ENDBRANCH  35  36
ENDBRANCH  27  30
ENDBRANCH  25  26
ENDBRANCH   1  25
TORSDOF 16
ENDMDL
MODEL 3
REMARK VINA RESULT:     -12.1      1.520      1.918
REMARK SMILES Cc1c(N[C@@H]2CC[C@@H]([NH3+])C2)cccc1C(=O)NCCCNC(=O)c1ccc(-c2c3nc(c(-c4cc(S(=O)(=O)[O-])ccc4F)c4ccc([nH]4)c(-c4cc(S(=O)(=O)[O-])ccc4F)c4nc(c(-c5cc(S(=O)(=O)[O-])ccc5F)c5ccc2[nH]5)C=C4)C=C3)cc1
REMARK SMILES IDX 19 1 18 2 17 3 15 4 16 5 14 7 1 8 2 9 3 10 11 11 13 12 12 13
REMARK SMILES IDX 4 14 5 16 6 17 10 18 7 19 8 20 9 21 20 25 21 26 22 27 23 29
REMARK SMILES IDX 24 30 25 31 86 32 26 33 85 34 27 35 28 36 29 37 79 38 30 39
REMARK SMILES IDX 84 40 78 41 80 42 31 43 83 44 77 45 76 46 32 48 64 49 44 50
REMARK SMILES IDX 63 51 45 52 48 53 62 54 81 55 46 56 47 57 61 59 82 60 49 61
REMARK SMILES IDX 33 62 34 63 42 64 35 65 41 66 43 67 40 68 36 69 37 70 38 71
REMARK SMILES IDX 39 72 65 73 66 74 74 75 67 76 73 77 75 78 72 79 68 80 69 81
REMARK SMILES IDX 70 82 71 83 50 84 51 85 59 86 52 87 58 88 60 89 57 90 53 91
REMARK SMILES IDX 54 92 55 93 56 94
REMARK H PARENT 17 6 4 15 9 22 9 23 9 24 21 28 80 47 48 58
REMARK Flexibility Score: inf
ROOT
ATOM      1  C   UNL A   1      32.868  31.588  27.476  1.00  0.00     0.042 C 
ENDROOT
BRANCH   1   2
ATOM      2  C   UNL A   1      32.027  30.474  26.840  1.00  0.00     0.118 C 
BRANCH   2   3
ATOM      3  N   UNL A   1      32.533  30.116  25.514  1.00  0.00    -0.352 N 
ATOM      4  C   UNL A   1      32.413  29.043  24.668  1.00  0.00     0.251 C 
ATOM      5  O   UNL A   1      32.943  29.190  23.559  1.00  0.00    -0.269 OA
ATOM      6  H   UNL A   1      33.104  30.823  25.135  1.00  0.00     0.163 HD
BRANCH   4   7
ATOM      7  C   UNL A   1      31.687  27.748  24.917  1.00  0.00     0.044 A 
ATOM      8  C   UNL A   1      33.518  26.407  26.086  1.00  0.00     0.047 C 
ATOM      9  C   UNL A   1      32.107  26.617  25.642  1.00  0.00    -0.015 A 
ATOM     10  C   UNL A   1      31.239  25.517  25.870  1.00  0.00     0.038 A 
ATOM     11  C   UNL A   1      30.098  25.404  25.085  1.00  0.00     0.026 A 
ATOM     12  C   UNL A   1      30.470  27.626  24.219  1.00  0.00     0.014 A 
ATOM     13  C   UNL A   1      29.717  26.450  24.251  1.00  0.00     0.003 A 
BRANCH  10  14
ATOM     14  N   UNL A   1      31.615  24.589  26.821  1.00  0.00    -0.382 N 
ATOM     15  H   UNL A   1      31.680  24.946  27.736  1.00  0.00     0.160 HD
BRANCH  14  16
ATOM     16  C   UNL A   1      31.927  23.188  26.704  1.00  0.00     0.085 C 
ATOM     17  C   UNL A   1      32.837  22.637  27.803  1.00  0.00     0.031 C 
ATOM     18  C   UNL A   1      32.546  22.814  25.366  1.00  0.00     0.089 C 
ATOM     19  C   UNL A   1      33.913  21.839  27.067  1.00  0.00     0.067 C 
ATOM     20  C   UNL A   1      33.339  21.547  25.678  1.00  0.00     0.182 C 
BRANCH  20  21
ATOM     21  N   UNL A   1      32.484  20.358  25.691  1.00  0.00    -0.355 N 
ATOM     22  H   UNL A   1      32.517  19.905  24.778  1.00  0.00     0.344 HD
ATOM     23  H   UNL A   1      31.524  20.633  25.900  1.00  0.00     0.344 HD
ATOM     24  H   UNL A   1      32.815  19.710  26.405  1.00  0.00     0.344 HD
ENDBRANCH  20  21
ENDBRANCH  14  16
ENDBRANCH  10  14
ENDBRANCH   4   7
ENDBRANCH   2   3
ENDBRANCH   1   2
BRANCH   1  25
ATOM     25  C   UNL A   1      34.364  31.381  27.494  1.00  0.00     0.118 C 
BRANCH  25  26
ATOM     26  N   UNL A   1      35.056  31.956  28.652  1.00  0.00    -0.352 N 
ATOM     27  C   UNL A   1      35.975  31.354  29.502  1.00  0.00     0.251 C 
ATOM     28  H   UNL A   1      34.839  32.894  28.853  1.00  0.00     0.163 HD
ATOM     29  O   UNL A   1      36.499  31.960  30.430  1.00  0.00    -0.269 OA
BRANCH  27  30
ATOM     30  C   UNL A   1      36.455  29.986  29.167  1.00  0.00     0.039 A 
ATOM     31  C   UNL A   1      36.915  29.254  30.267  1.00  0.00     0.014 A 
ATOM     32  C   UNL A   1      36.979  29.769  27.901  1.00  0.00     0.014 A 
ATOM     33  C   UNL A   1      38.166  28.662  30.188  1.00  0.00     0.010 A 
ATOM     34  C   UNL A   1      38.277  29.313  27.852  1.00  0.00     0.010 A 
ATOM     35  C   UNL A   1      38.896  28.854  29.021  1.00  0.00    -0.014 A 
BRANCH  35  36
ATOM     36  C   UNL A   1      40.302  28.527  28.896  1.00  0.00     0.031 A 
ATOM     37  C   UNL A   1      40.597  27.120  28.610  1.00  0.00     0.074 A 
ATOM     38  C   UNL A   1      41.268  29.462  29.021  1.00  0.00     0.049 A 
ATOM     39  N   UNL A   1      41.661  26.506  28.977  1.00  0.00    -0.248 NA
ATOM     40  C   UNL A   1      39.620  26.249  27.963  1.00  0.00     0.031 C 
ATOM     41  C   UNL A   1      42.696  29.315  28.752  1.00  0.00     0.029 A 
ATOM     42  N   UNL A   1      41.164  30.712  29.628  1.00  0.00    -0.354 N 
ATOM     43  C   UNL A   1      41.646  25.271  28.372  1.00  0.00     0.074 A 
ATOM     44  C   UNL A   1      40.307  25.113  27.871  1.00  0.00     0.031 C 
ATOM     45  C   UNL A   1      43.365  30.287  29.396  1.00  0.00     0.029 A 
ATOM     46  C   UNL A   1      42.411  31.008  30.222  1.00  0.00     0.049 A 
ATOM     47  H   UNL A   1      40.366  31.287  29.641  1.00  0.00     0.167 HD
ATOM     48  C   UNL A   1      42.823  24.603  28.231  1.00  0.00     0.034 A 
ATOM     49  C   UNL A   1      42.494  31.144  31.580  1.00  0.00     0.034 A 
ATOM     50  C   UNL A   1      43.900  25.337  28.911  1.00  0.00     0.049 A 
ATOM     51  C   UNL A   1      43.213  29.978  32.249  1.00  0.00     0.074 A 
ATOM     52  C   UNL A   1      44.876  26.221  28.479  1.00  0.00     0.029 A 
ATOM     53  N   UNL A   1      43.820  25.509  30.286  1.00  0.00    -0.354 N 
ATOM     54  N   UNL A   1      43.710  28.941  31.625  1.00  0.00    -0.248 NA
ATOM     55  C   UNL A   1      43.346  29.864  33.698  1.00  0.00     0.031 C 
ATOM     56  C   UNL A   1      45.336  26.962  29.613  1.00  0.00     0.029 A 
ATOM     57  C   UNL A   1      44.681  26.492  30.738  1.00  0.00     0.049 A 
ATOM     58  H   UNL A   1      43.220  24.992  30.871  1.00  0.00     0.167 HD
ATOM     59  C   UNL A   1      44.164  28.017  32.535  1.00  0.00     0.074 A 
ATOM     60  C   UNL A   1      43.889  28.642  33.823  1.00  0.00     0.031 C 
ATOM     61  C   UNL A   1      44.698  26.804  32.166  1.00  0.00     0.034 A 
BRANCH  48  62
ATOM     62  C   UNL A   1      43.050  23.481  27.239  1.00  0.00     0.023 A 
ATOM     63  C   UNL A   1      42.368  22.266  27.443  1.00  0.00     0.031 A 
ATOM     64  C   UNL A   1      43.934  23.485  26.138  1.00  0.00     0.131 A 
ATOM     65  C   UNL A   1      42.635  21.128  26.657  1.00  0.00     0.055 A 
ATOM     66  C   UNL A   1      44.241  22.342  25.387  1.00  0.00     0.041 A 
ATOM     67  F   UNL A   1      44.508  24.603  25.681  1.00  0.00    -0.206 F 
ATOM     68  C   UNL A   1      43.594  21.149  25.651  1.00  0.00     0.022 A 
BRANCH  65  69
ATOM     69  S   UNL A   1      41.703  19.609  26.973  1.00  0.00     0.124 S 
ATOM     70  O   UNL A   1      41.215  19.267  25.642  1.00  0.00    -0.237 OA
ATOM     71  O   UNL A   1      42.724  18.734  27.536  1.00  0.00    -0.237 OA
ATOM     72  O   UNL A   1      40.672  20.036  27.918  1.00  0.00    -0.744 OA
ENDBRANCH  65  69
ENDBRANCH  48  62
BRANCH  49  73
ATOM     73  C   UNL A   1      41.291  31.859  32.122  1.00  0.00     0.023 A 
ATOM     74  C   UNL A   1      40.317  31.077  32.788  1.00  0.00     0.031 A 
ATOM     75  C   UNL A   1      41.387  33.216  32.461  1.00  0.00     0.131 A 
ATOM     76  C   UNL A   1      39.658  31.595  33.916  1.00  0.00     0.055 A 
ATOM     77  C   UNL A   1      40.705  33.728  33.567  1.00  0.00     0.041 A 
ATOM     78  F   UNL A   1      42.269  34.016  31.842  1.00  0.00    -0.206 F 
ATOM     79  C   UNL A   1      39.901  32.900  34.345  1.00  0.00     0.022 A 
BRANCH  76  80
ATOM     80  S   UNL A   1      38.671  30.498  34.978  1.00  0.00     0.124 S 
ATOM     81  O   UNL A   1      38.139  29.537  34.022  1.00  0.00    -0.237 OA
ATOM     82  O   UNL A   1      39.658  29.981  35.922  1.00  0.00    -0.237 OA
ATOM     83  O   UNL A   1      37.691  31.408  35.575  1.00  0.00    -0.744 OA
ENDBRANCH  76  80
ENDBRANCH  49  73
BRANCH  61  84
ATOM     84  C   UNL A   1      45.248  25.769  33.138  1.00  0.00     0.023 A 
ATOM     85  C   UNL A   1      46.589  25.368  33.127  1.00  0.00     0.031 A 
ATOM     86  C   UNL A   1      44.434  25.100  34.089  1.00  0.00     0.131 A 
ATOM     87  C   UNL A   1      47.107  24.510  34.115  1.00  0.00     0.055 A 
ATOM     88  C   UNL A   1      44.933  24.187  35.023  1.00  0.00     0.041 A 
ATOM     89  F   UNL A   1      43.112  25.295  34.173  1.00  0.00    -0.206 F 
ATOM     90  C   UNL A   1      46.287  23.912  35.064  1.00  0.00     0.022 A 
BRANCH  87  91
ATOM     91  S   UNL A   1      48.896  24.259  34.158  1.00  0.00     0.124 S 
ATOM     92  O   UNL A   1      49.284  24.946  35.382  1.00  0.00    -0.237 OA
ATOM     93  O   UNL A   1      48.991  22.804  34.188  1.00  0.00    -0.237 OA
ATOM     94  O   UNL A   1      49.360  24.886  32.916  1.00  0.00    -0.744 OA
ENDBRANCH  87  91
ENDBRANCH  61  84
ENDBRANCH  35  36
ENDBRANCH  27  30
ENDBRANCH  25  26
ENDBRANCH   1  25
TORSDOF 16
ENDMDL
