MODEL 1
REMARK VINA RESULT:     -11.7      0.000      0.000
REMARK SMILES Cc1nc(-c2ccco2)nc(S)c1C(=O)NCCCNC(=O)c1ccc(-c2c3nc(c(-c4cc(S(=O)(=O)[O-])ccc4F)c4ccc([nH]4)c(-c4cc(S(=O)(=O)[O-])ccc4F)c4nc(c(-c5cc(S(=O)(=O)[O-])ccc5F)c5ccc2[nH]5)C=C4)C=C3)cc1
REMARK SMILES IDX 19 1 18 2 17 3 16 4 14 5 15 6 13 8 1 9 2 10 3 11 4 12 11 13
REMARK SMILES IDX 10 14 5 15 6 16 9 17 7 18 8 19 12 20 20 22 21 23 22 25 23 26
REMARK SMILES IDX 24 27 85 28 25 29 84 30 26 31 27 32 28 33 78 34 29 35 83 36
REMARK SMILES IDX 77 37 79 38 30 39 82 40 76 41 75 42 31 44 63 45 43 46 62 47
REMARK SMILES IDX 44 48 47 49 61 50 80 51 45 52 46 53 60 55 81 56 48 57 32 58
REMARK SMILES IDX 33 59 41 60 34 61 40 62 42 63 39 64 35 65 36 66 37 67 38 68
REMARK SMILES IDX 64 69 65 70 73 71 66 72 72 73 74 74 71 75 67 76 68 77 69 78
REMARK SMILES IDX 70 79 49 80 50 81 58 82 51 83 57 84 59 85 56 86 52 87 53 88
REMARK SMILES IDX 54 89 55 90
REMARK H PARENT 16 7 12 21 20 24 79 43 47 54
REMARK Flexibility Score: inf
ROOT
ATOM      1  C   UNL A   1      32.622  31.940  26.947  1.00  0.00     0.118 C 
ENDROOT
BRANCH   1   2
ATOM      2  C   UNL A   1      31.364  31.381  26.298  1.00  0.00     0.042 C 
BRANCH   2   3
ATOM      3  C   UNL A   1      31.565  30.050  25.569  1.00  0.00     0.118 C 
BRANCH   3   4
ATOM      4  N   UNL A   1      30.838  30.071  24.315  1.00  0.00    -0.352 N 
ATOM      5  C   UNL A   1      30.703  29.206  23.263  1.00  0.00     0.255 C 
ATOM      6  O   UNL A   1      30.168  29.690  22.261  1.00  0.00    -0.269 OA
ATOM      7  H   UNL A   1      30.320  30.899  24.192  1.00  0.00     0.163 HD
BRANCH   5   8
ATOM      8  C   UNL A   1      31.070  27.763  23.226  1.00  0.00     0.093 A 
ATOM      9  C   UNL A   1      28.808  26.705  23.880  1.00  0.00     0.068 C 
ATOM     10  C   UNL A   1      30.247  26.675  23.499  1.00  0.00     0.055 A 
ATOM     11  N   UNL A   1      30.714  25.405  23.552  1.00  0.00    -0.230 NA
ATOM     12  C   UNL A   1      32.029  25.208  23.450  1.00  0.00     0.196 A 
ATOM     13  C   UNL A   1      32.432  27.423  23.091  1.00  0.00     0.110 A 
ATOM     14  N   UNL A   1      32.926  26.165  23.235  1.00  0.00    -0.218 NA
BRANCH  12  15
ATOM     15  C   UNL A   1      32.480  23.891  23.837  1.00  0.00     0.171 A 
ATOM     16  C   UNL A   1      32.623  22.696  23.160  1.00  0.00     0.054 A 
ATOM     17  O   UNL A   1      32.992  23.772  25.099  1.00  0.00    -0.461 OA
ATOM     18  C   UNL A   1      33.288  21.812  24.045  1.00  0.00     0.043 A 
ATOM     19  C   UNL A   1      33.478  22.510  25.213  1.00  0.00     0.196 A 
ENDBRANCH  12  15
BRANCH  13  20
ATOM     20  S   UNL A   1      33.743  28.574  22.660  1.00  0.00    -0.123 SA
ATOM     21  H   UNL A   1      34.913  28.157  23.215  1.00  0.00     0.110 HD
ENDBRANCH  13  20
ENDBRANCH   5   8
ENDBRANCH   3   4
ENDBRANCH   2   3
ENDBRANCH   1   2
BRANCH   1  22
ATOM     22  N   UNL A   1      32.500  33.354  27.251  1.00  0.00    -0.352 N 
ATOM     23  C   UNL A   1      33.170  34.114  28.186  1.00  0.00     0.251 C 
ATOM     24  H   UNL A   1      31.840  33.843  26.708  1.00  0.00     0.163 HD
ATOM     25  O   UNL A   1      32.767  35.243  28.433  1.00  0.00    -0.269 OA
BRANCH  23  26
ATOM     26  C   UNL A   1      34.342  33.559  28.909  1.00  0.00     0.039 A 
ATOM     27  C   UNL A   1      35.643  33.948  28.587  1.00  0.00     0.014 A 
ATOM     28  C   UNL A   1      34.131  32.634  29.936  1.00  0.00     0.014 A 
ATOM     29  C   UNL A   1      36.727  33.282  29.150  1.00  0.00     0.010 A 
ATOM     30  C   UNL A   1      35.225  32.043  30.580  1.00  0.00     0.010 A 
ATOM     31  C   UNL A   1      36.533  32.323  30.158  1.00  0.00    -0.014 A 
BRANCH  31  32
ATOM     32  C   UNL A   1      37.712  31.645  30.767  1.00  0.00     0.031 A 
ATOM     33  C   UNL A   1      38.132  31.949  32.180  1.00  0.00     0.074 A 
ATOM     34  C   UNL A   1      38.382  30.723  30.049  1.00  0.00     0.049 A 
ATOM     35  N   UNL A   1      39.133  31.458  32.864  1.00  0.00    -0.248 NA
ATOM     36  C   UNL A   1      37.329  32.934  32.922  1.00  0.00     0.031 C 
ATOM     37  C   UNL A   1      38.059  30.342  28.674  1.00  0.00     0.029 A 
ATOM     38  N   UNL A   1      39.453  29.925  30.371  1.00  0.00    -0.354 N 
ATOM     39  C   UNL A   1      39.090  32.081  34.108  1.00  0.00     0.074 A 
ATOM     40  C   UNL A   1      37.991  33.019  34.069  1.00  0.00     0.031 C 
ATOM     41  C   UNL A   1      38.875  29.352  28.288  1.00  0.00     0.029 A 
ATOM     42  C   UNL A   1      39.838  29.083  29.352  1.00  0.00     0.049 A 
ATOM     43  H   UNL A   1      39.901  29.953  31.246  1.00  0.00     0.167 HD
ATOM     44  C   UNL A   1      39.884  31.872  35.186  1.00  0.00     0.034 A 
ATOM     45  C   UNL A   1      40.861  28.209  29.266  1.00  0.00     0.034 A 
ATOM     46  C   UNL A   1      40.968  30.921  35.208  1.00  0.00     0.049 A 
ATOM     47  C   UNL A   1      41.758  28.025  30.462  1.00  0.00     0.074 A 
ATOM     48  C   UNL A   1      41.822  30.626  36.256  1.00  0.00     0.029 A 
ATOM     49  N   UNL A   1      41.346  30.110  34.146  1.00  0.00    -0.354 N 
ATOM     50  N   UNL A   1      41.683  28.600  31.640  1.00  0.00    -0.248 NA
ATOM     51  C   UNL A   1      42.873  27.079  30.327  1.00  0.00     0.031 C 
ATOM     52  C   UNL A   1      42.756  29.693  35.808  1.00  0.00     0.029 A 
ATOM     53  C   UNL A   1      42.437  29.335  34.508  1.00  0.00     0.049 A 
ATOM     54  H   UNL A   1      40.905  30.088  33.266  1.00  0.00     0.167 HD
ATOM     55  C   UNL A   1      42.728  28.072  32.391  1.00  0.00     0.074 A 
ATOM     56  C   UNL A   1      43.403  27.110  31.543  1.00  0.00     0.031 C 
ATOM     57  C   UNL A   1      43.097  28.365  33.664  1.00  0.00     0.034 A 
BRANCH  44  58
ATOM     58  C   UNL A   1      39.622  32.662  36.447  1.00  0.00     0.023 A 
ATOM     59  C   UNL A   1      38.692  32.193  37.394  1.00  0.00     0.031 A 
ATOM     60  C   UNL A   1      40.185  33.936  36.647  1.00  0.00     0.131 A 
ATOM     61  C   UNL A   1      38.323  33.007  38.473  1.00  0.00     0.055 A 
ATOM     62  C   UNL A   1      39.850  34.723  37.750  1.00  0.00     0.041 A 
ATOM     63  F   UNL A   1      41.077  34.433  35.773  1.00  0.00    -0.206 F 
ATOM     64  C   UNL A   1      38.904  34.266  38.661  1.00  0.00     0.022 A 
BRANCH  61  65
ATOM     65  S   UNL A   1      37.022  32.500  39.632  1.00  0.00     0.124 S 
ATOM     66  O   UNL A   1      37.407  31.122  39.928  1.00  0.00    -0.237 OA
ATOM     67  O   UNL A   1      37.204  33.448  40.728  1.00  0.00    -0.237 OA
ATOM     68  O   UNL A   1      35.791  32.650  38.865  1.00  0.00    -0.744 OA
ENDBRANCH  61  65
ENDBRANCH  44  58
BRANCH  45  69
ATOM     69  C   UNL A   1      41.039  27.430  28.005  1.00  0.00     0.023 A 
ATOM     70  C   UNL A   1      40.725  26.059  27.955  1.00  0.00     0.031 A 
ATOM     71  C   UNL A   1      41.655  28.005  26.881  1.00  0.00     0.131 A 
ATOM     72  C   UNL A   1      41.115  25.292  26.850  1.00  0.00     0.055 A 
ATOM     73  C   UNL A   1      41.965  27.252  25.746  1.00  0.00     0.041 A 
ATOM     74  F   UNL A   1      41.987  29.306  26.882  1.00  0.00    -0.206 F 
ATOM     75  C   UNL A   1      41.716  25.884  25.737  1.00  0.00     0.022 A 
BRANCH  72  76
ATOM     76  S   UNL A   1      41.001  23.481  26.893  1.00  0.00     0.124 S 
ATOM     77  O   UNL A   1      41.912  23.092  25.822  1.00  0.00    -0.237 OA
ATOM     78  O   UNL A   1      41.459  23.188  28.249  1.00  0.00    -0.237 OA
ATOM     79  O   UNL A   1      39.588  23.217  26.648  1.00  0.00    -0.744 OA
ENDBRANCH  72  76
ENDBRANCH  45  69
BRANCH  57  80
ATOM     80  C   UNL A   1      44.283  27.646  34.262  1.00  0.00     0.023 A 
ATOM     81  C   UNL A   1      44.103  26.397  34.888  1.00  0.00     0.031 A 
ATOM     82  C   UNL A   1      45.540  28.267  34.368  1.00  0.00     0.131 A 
ATOM     83  C   UNL A   1      45.142  25.837  35.640  1.00  0.00     0.055 A 
ATOM     84  C   UNL A   1      46.590  27.678  35.072  1.00  0.00     0.041 A 
ATOM     85  F   UNL A   1      45.759  29.463  33.799  1.00  0.00    -0.206 F 
ATOM     86  C   UNL A   1      46.388  26.466  35.728  1.00  0.00     0.022 A 
BRANCH  83  87
ATOM     87  S   UNL A   1      44.882  24.332  36.619  1.00  0.00     0.124 S 
ATOM     88  O   UNL A   1      46.251  23.862  36.819  1.00  0.00    -0.237 OA
ATOM     89  O   UNL A   1      44.221  24.853  37.814  1.00  0.00    -0.237 OA
ATOM     90  O   UNL A   1      44.056  23.491  35.760  1.00  0.00    -0.744 OA
ENDBRANCH  83  87
ENDBRANCH  57  80
ENDBRANCH  31  32
ENDBRANCH  23  26
ENDBRANCH   1  22
TORSDOF 15
ENDMDL
MODEL 2
REMARK VINA RESULT:     -11.6      3.247      8.690
REMARK SMILES Cc1nc(-c2ccco2)nc(S)c1C(=O)NCCCNC(=O)c1ccc(-c2c3nc(c(-c4cc(S(=O)(=O)[O-])ccc4F)c4ccc([nH]4)c(-c4cc(S(=O)(=O)[O-])ccc4F)c4nc(c(-c5cc(S(=O)(=O)[O-])ccc5F)c5ccc2[nH]5)C=C4)C=C3)cc1
REMARK SMILES IDX 19 1 18 2 17 3 16 4 14 5 15 6 13 8 1 9 2 10 3 11 4 12 11 13
REMARK SMILES IDX 10 14 5 15 6 16 9 17 7 18 8 19 12 20 20 22 21 23 22 25 23 26
REMARK SMILES IDX 24 27 85 28 25 29 84 30 26 31 27 32 28 33 78 34 29 35 83 36
REMARK SMILES IDX 77 37 79 38 30 39 82 40 76 41 75 42 31 44 63 45 43 46 62 47
REMARK SMILES IDX 44 48 47 49 61 50 80 51 45 52 46 53 60 55 81 56 48 57 32 58
REMARK SMILES IDX 33 59 41 60 34 61 40 62 42 63 39 64 35 65 36 66 37 67 38 68
REMARK SMILES IDX 64 69 65 70 73 71 66 72 72 73 74 74 71 75 67 76 68 77 69 78
REMARK SMILES IDX 70 79 49 80 50 81 58 82 51 83 57 84 59 85 56 86 52 87 53 88
REMARK SMILES IDX 54 89 55 90
REMARK H PARENT 16 7 12 21 20 24 79 43 47 54
REMARK Flexibility Score: inf
ROOT
ATOM      1  C   UNL A   1      34.256  28.774  25.867  1.00  0.00     0.118 C 
ENDROOT
BRANCH   1   2
ATOM      2  C   UNL A   1      33.178  27.706  25.966  1.00  0.00     0.042 C 
BRANCH   2   3
ATOM      3  C   UNL A   1      33.683  26.275  25.765  1.00  0.00     0.118 C 
BRANCH   3   4
ATOM      4  N   UNL A   1      33.696  25.960  24.350  1.00  0.00    -0.352 N 
ATOM      5  C   UNL A   1      33.888  24.820  23.616  1.00  0.00     0.255 C 
ATOM      6  O   UNL A   1      34.050  25.006  22.406  1.00  0.00    -0.269 OA
ATOM      7  H   UNL A   1      33.525  26.749  23.786  1.00  0.00     0.163 HD
BRANCH   5   8
ATOM      8  C   UNL A   1      33.860  23.414  24.106  1.00  0.00     0.093 A 
ATOM      9  C   UNL A   1      36.365  22.820  23.917  1.00  0.00     0.068 C 
ATOM     10  C   UNL A   1      34.937  22.542  24.233  1.00  0.00     0.055 A 
ATOM     11  N   UNL A   1      34.783  21.242  24.578  1.00  0.00    -0.230 NA
ATOM     12  C   UNL A   1      33.546  20.758  24.689  1.00  0.00     0.196 A 
ATOM     13  C   UNL A   1      32.606  22.797  24.293  1.00  0.00     0.110 A 
ATOM     14  N   UNL A   1      32.434  21.472  24.547  1.00  0.00    -0.218 NA
BRANCH  12  15
ATOM     15  C   UNL A   1      33.457  19.316  24.735  1.00  0.00     0.171 A 
ATOM     16  C   UNL A   1      34.318  18.297  24.377  1.00  0.00     0.054 A 
ATOM     17  O   UNL A   1      32.358  18.795  25.360  1.00  0.00    -0.461 OA
ATOM     18  C   UNL A   1      33.727  17.094  24.837  1.00  0.00     0.043 A 
ATOM     19  C   UNL A   1      32.533  17.451  25.415  1.00  0.00     0.196 A 
ENDBRANCH  12  15
BRANCH  13  20
ATOM     20  S   UNL A   1      31.025  23.651  24.276  1.00  0.00    -0.123 SA
ATOM     21  H   UNL A   1      30.764  24.098  23.019  1.00  0.00     0.110 HD
ENDBRANCH  13  20
ENDBRANCH   5   8
ENDBRANCH   3   4
ENDBRANCH   2   3
ENDBRANCH   1   2
BRANCH   1  22
ATOM     22  N   UNL A   1      33.816  30.049  26.401  1.00  0.00    -0.352 N 
ATOM     23  C   UNL A   1      34.313  30.780  27.459  1.00  0.00     0.251 C 
ATOM     24  H   UNL A   1      33.045  30.453  25.939  1.00  0.00     0.163 HD
ATOM     25  O   UNL A   1      33.665  31.726  27.886  1.00  0.00    -0.269 OA
BRANCH  23  26
ATOM     26  C   UNL A   1      35.602  30.404  28.095  1.00  0.00     0.039 A 
ATOM     27  C   UNL A   1      36.823  30.785  27.538  1.00  0.00     0.014 A 
ATOM     28  C   UNL A   1      35.584  29.658  29.278  1.00  0.00     0.014 A 
ATOM     29  C   UNL A   1      38.011  30.269  28.048  1.00  0.00     0.010 A 
ATOM     30  C   UNL A   1      36.786  29.230  29.852  1.00  0.00     0.010 A 
ATOM     31  C   UNL A   1      38.009  29.488  29.215  1.00  0.00    -0.014 A 
BRANCH  31  32
ATOM     32  C   UNL A   1      39.296  28.971  29.758  1.00  0.00     0.031 A 
ATOM     33  C   UNL A   1      39.989  27.799  29.117  1.00  0.00     0.074 A 
ATOM     34  C   UNL A   1      39.860  29.590  30.814  1.00  0.00     0.049 A 
ATOM     35  N   UNL A   1      41.108  27.215  29.461  1.00  0.00    -0.248 NA
ATOM     36  C   UNL A   1      39.341  27.197  27.940  1.00  0.00     0.031 C 
ATOM     37  C   UNL A   1      39.283  30.741  31.510  1.00  0.00     0.029 A 
ATOM     38  N   UNL A   1      41.042  29.361  31.475  1.00  0.00    -0.354 N 
ATOM     39  C   UNL A   1      41.293  26.174  28.556  1.00  0.00     0.074 A 
ATOM     40  C   UNL A   1      40.146  26.178  27.675  1.00  0.00     0.031 C 
ATOM     41  C   UNL A   1      40.132  31.149  32.463  1.00  0.00     0.029 A 
ATOM     42  C   UNL A   1      41.274  30.241  32.508  1.00  0.00     0.049 A 
ATOM     43  H   UNL A   1      41.663  28.638  31.234  1.00  0.00     0.167 HD
ATOM     44  C   UNL A   1      42.333  25.311  28.461  1.00  0.00     0.034 A 
ATOM     45  C   UNL A   1      42.276  30.304  33.409  1.00  0.00     0.034 A 
ATOM     46  C   UNL A   1      43.473  25.333  29.342  1.00  0.00     0.049 A 
ATOM     47  C   UNL A   1      43.400  29.306  33.311  1.00  0.00     0.074 A 
ATOM     48  C   UNL A   1      44.585  24.510  29.319  1.00  0.00     0.029 A 
ATOM     49  N   UNL A   1      43.656  26.220  30.395  1.00  0.00    -0.354 N 
ATOM     50  N   UNL A   1      43.573  28.348  32.430  1.00  0.00    -0.248 NA
ATOM     51  C   UNL A   1      44.464  29.392  34.319  1.00  0.00     0.031 C 
ATOM     52  C   UNL A   1      45.403  24.850  30.396  1.00  0.00     0.029 A 
ATOM     53  C   UNL A   1      44.850  25.944  31.043  1.00  0.00     0.049 A 
ATOM     54  H   UNL A   1      43.031  26.938  30.645  1.00  0.00     0.167 HD
ATOM     55  C   UNL A   1      44.773  27.730  32.765  1.00  0.00     0.074 A 
ATOM     56  C   UNL A   1      45.298  28.441  33.914  1.00  0.00     0.031 C 
ATOM     57  C   UNL A   1      45.377  26.666  32.179  1.00  0.00     0.034 A 
BRANCH  44  58
ATOM     58  C   UNL A   1      42.316  24.270  27.365  1.00  0.00     0.023 A 
ATOM     59  C   UNL A   1      41.714  23.017  27.591  1.00  0.00     0.031 A 
ATOM     60  C   UNL A   1      43.009  24.464  26.156  1.00  0.00     0.131 A 
ATOM     61  C   UNL A   1      41.851  21.995  26.642  1.00  0.00     0.055 A 
ATOM     62  C   UNL A   1      43.101  23.457  25.193  1.00  0.00     0.041 A 
ATOM     63  F   UNL A   1      43.604  25.639  25.891  1.00  0.00    -0.206 F 
ATOM     64  C   UNL A   1      42.534  22.212  25.440  1.00  0.00     0.022 A 
BRANCH  61  65
ATOM     65  S   UNL A   1      41.217  20.325  26.959  1.00  0.00     0.124 S 
ATOM     66  O   UNL A   1      40.846  20.410  28.370  1.00  0.00    -0.237 OA
ATOM     67  O   UNL A   1      40.098  20.242  26.024  1.00  0.00    -0.237 OA
ATOM     68  O   UNL A   1      42.352  19.458  26.666  1.00  0.00    -0.744 OA
ENDBRANCH  61  65
ENDBRANCH  44  58
BRANCH  45  69
ATOM     69  C   UNL A   1      42.251  31.383  34.441  1.00  0.00     0.023 A 
ATOM     70  C   UNL A   1      41.297  31.366  35.475  1.00  0.00     0.031 A 
ATOM     71  C   UNL A   1      43.080  32.511  34.328  1.00  0.00     0.131 A 
ATOM     72  C   UNL A   1      41.130  32.492  36.291  1.00  0.00     0.055 A 
ATOM     73  C   UNL A   1      42.967  33.597  35.198  1.00  0.00     0.041 A 
ATOM     74  F   UNL A   1      43.998  32.582  33.351  1.00  0.00    -0.206 F 
ATOM     75  C   UNL A   1      41.972  33.600  36.171  1.00  0.00     0.022 A 
BRANCH  72  76
ATOM     76  S   UNL A   1      39.714  32.618  37.419  1.00  0.00     0.124 S 
ATOM     77  O   UNL A   1      40.359  32.565  38.726  1.00  0.00    -0.237 OA
ATOM     78  O   UNL A   1      39.151  33.913  37.044  1.00  0.00    -0.237 OA
ATOM     79  O   UNL A   1      38.892  31.463  37.073  1.00  0.00    -0.744 OA
ENDBRANCH  72  76
ENDBRANCH  45  69
BRANCH  57  80
ATOM     80  C   UNL A   1      46.693  26.178  32.738  1.00  0.00     0.023 A 
ATOM     81  C   UNL A   1      47.899  26.518  32.094  1.00  0.00     0.031 A 
ATOM     82  C   UNL A   1      46.742  25.243  33.787  1.00  0.00     0.131 A 
ATOM     83  C   UNL A   1      49.091  25.887  32.465  1.00  0.00     0.055 A 
ATOM     84  C   UNL A   1      47.942  24.658  34.191  1.00  0.00     0.041 A 
ATOM     85  F   UNL A   1      45.619  24.876  34.426  1.00  0.00    -0.206 F 
ATOM     86  C   UNL A   1      49.121  24.965  33.517  1.00  0.00     0.022 A 
BRANCH  83  87
ATOM     87  S   UNL A   1      50.622  26.154  31.529  1.00  0.00     0.124 S 
ATOM     88  O   UNL A   1      51.456  26.848  32.508  1.00  0.00    -0.237 OA
ATOM     89  O   UNL A   1      51.033  24.788  31.216  1.00  0.00    -0.237 OA
ATOM     90  O   UNL A   1      50.202  26.961  30.389  1.00  0.00    -0.744 OA
ENDBRANCH  83  87
ENDBRANCH  57  80
ENDBRANCH  31  32
ENDBRANCH  23  26
ENDBRANCH   1  22
TORSDOF 15
ENDMDL
MODEL 3
REMARK VINA RESULT:     -11.6      2.771      8.524
REMARK SMILES Cc1nc(-c2ccco2)nc(S)c1C(=O)NCCCNC(=O)c1ccc(-c2c3nc(c(-c4cc(S(=O)(=O)[O-])ccc4F)c4ccc([nH]4)c(-c4cc(S(=O)(=O)[O-])ccc4F)c4nc(c(-c5cc(S(=O)(=O)[O-])ccc5F)c5ccc2[nH]5)C=C4)C=C3)cc1
REMARK SMILES IDX 19 1 18 2 17 3 16 4 14 5 15 6 13 8 1 9 2 10 3 11 4 12 11 13
REMARK SMILES IDX 10 14 5 15 6 16 9 17 7 18 8 19 12 20 20 22 21 23 22 25 23 26
REMARK SMILES IDX 24 27 85 28 25 29 84 30 26 31 27 32 28 33 78 34 29 35 83 36
REMARK SMILES IDX 77 37 79 38 30 39 82 40 76 41 75 42 31 44 63 45 43 46 62 47
REMARK SMILES IDX 44 48 47 49 61 50 80 51 45 52 46 53 60 55 81 56 48 57 32 58
REMARK SMILES IDX 33 59 41 60 34 61 40 62 42 63 39 64 35 65 36 66 37 67 38 68
REMARK SMILES IDX 64 69 65 70 73 71 66 72 72 73 74 74 71 75 67 76 68 77 69 78
REMARK SMILES IDX 70 79 49 80 50 81 58 82 51 83 57 84 59 85 56 86 52 87 53 88
REMARK SMILES IDX 54 89 55 90
REMARK H PARENT 16 7 12 21 20 24 79 43 47 54
REMARK Flexibility Score: inf
ROOT
ATOM      1  C   UNL A   1      34.164  28.655  25.679  1.00  0.00     0.118 C 
ENDROOT
BRANCH   1   2
ATOM      2  C   UNL A   1      33.224  27.511  26.027  1.00  0.00     0.042 C 
BRANCH   2   3
ATOM      3  C   UNL A   1      33.803  26.117  25.772  1.00  0.00     0.118 C 
BRANCH   3   4
ATOM      4  N   UNL A   1      33.751  25.823  24.353  1.00  0.00    -0.352 N 
ATOM      5  C   UNL A   1      33.899  24.692  23.596  1.00  0.00     0.255 C 
ATOM      6  O   UNL A   1      34.011  24.895  22.382  1.00  0.00    -0.269 OA
ATOM      7  H   UNL A   1      33.565  26.621  23.808  1.00  0.00     0.163 HD
BRANCH   5   8
ATOM      8  C   UNL A   1      33.878  23.279  24.066  1.00  0.00     0.093 A 
ATOM      9  C   UNL A   1      36.379  22.684  23.824  1.00  0.00     0.068 C 
ATOM     10  C   UNL A   1      34.955  22.404  24.161  1.00  0.00     0.055 A 
ATOM     11  N   UNL A   1      34.805  21.099  24.490  1.00  0.00    -0.230 NA
ATOM     12  C   UNL A   1      33.570  20.615  24.617  1.00  0.00     0.196 A 
ATOM     13  C   UNL A   1      32.627  22.661  24.266  1.00  0.00     0.110 A 
ATOM     14  N   UNL A   1      32.457  21.333  24.504  1.00  0.00    -0.218 NA
BRANCH  12  15
ATOM     15  C   UNL A   1      33.480  19.173  24.643  1.00  0.00     0.171 A 
ATOM     16  C   UNL A   1      34.385  18.158  24.404  1.00  0.00     0.054 A 
ATOM     17  O   UNL A   1      32.306  18.647  25.107  1.00  0.00    -0.461 OA
ATOM     18  C   UNL A   1      33.739  16.951  24.772  1.00  0.00     0.043 A 
ATOM     19  C   UNL A   1      32.475  17.303  25.180  1.00  0.00     0.196 A 
ENDBRANCH  12  15
BRANCH  13  20
ATOM     20  S   UNL A   1      31.047  23.517  24.289  1.00  0.00    -0.123 SA
ATOM     21  H   UNL A   1      31.186  24.742  23.716  1.00  0.00     0.110 HD
ENDBRANCH  13  20
ENDBRANCH   5   8
ENDBRANCH   3   4
ENDBRANCH   2   3
ENDBRANCH   1   2
BRANCH   1  22
ATOM     22  N   UNL A   1      33.707  29.924  26.216  1.00  0.00    -0.352 N 
ATOM     23  C   UNL A   1      34.193  30.657  27.277  1.00  0.00     0.251 C 
ATOM     24  H   UNL A   1      32.933  30.319  25.753  1.00  0.00     0.163 HD
ATOM     25  O   UNL A   1      33.532  31.594  27.705  1.00  0.00    -0.269 OA
BRANCH  23  26
ATOM     26  C   UNL A   1      35.485  30.295  27.915  1.00  0.00     0.039 A 
ATOM     27  C   UNL A   1      36.702  30.550  27.282  1.00  0.00     0.014 A 
ATOM     28  C   UNL A   1      35.474  29.692  29.176  1.00  0.00     0.014 A 
ATOM     29  C   UNL A   1      37.882  30.040  27.814  1.00  0.00     0.010 A 
ATOM     30  C   UNL A   1      36.675  29.276  29.762  1.00  0.00     0.010 A 
ATOM     31  C   UNL A   1      37.886  29.399  29.064  1.00  0.00    -0.014 A 
BRANCH  31  32
ATOM     32  C   UNL A   1      39.166  28.887  29.626  1.00  0.00     0.031 A 
ATOM     33  C   UNL A   1      39.891  27.740  28.974  1.00  0.00     0.074 A 
ATOM     34  C   UNL A   1      39.695  29.488  30.710  1.00  0.00     0.049 A 
ATOM     35  N   UNL A   1      41.010  27.163  29.331  1.00  0.00    -0.248 NA
ATOM     36  C   UNL A   1      39.280  27.159  27.768  1.00  0.00     0.031 C 
ATOM     37  C   UNL A   1      39.085  30.613  31.419  1.00  0.00     0.029 A 
ATOM     38  N   UNL A   1      40.864  29.259  31.394  1.00  0.00    -0.354 N 
ATOM     39  C   UNL A   1      41.231  26.148  28.407  1.00  0.00     0.074 A 
ATOM     40  C   UNL A   1      40.107  26.157  27.498  1.00  0.00     0.031 C 
ATOM     41  C   UNL A   1      39.904  31.009  32.402  1.00  0.00     0.029 A 
ATOM     42  C   UNL A   1      41.058  30.116  32.454  1.00  0.00     0.049 A 
ATOM     43  H   UNL A   1      41.501  28.550  31.151  1.00  0.00     0.167 HD
ATOM     44  C   UNL A   1      42.285  25.301  28.316  1.00  0.00     0.034 A 
ATOM     45  C   UNL A   1      42.037  30.170  33.380  1.00  0.00     0.034 A 
ATOM     46  C   UNL A   1      43.404  25.317  29.226  1.00  0.00     0.049 A 
ATOM     47  C   UNL A   1      43.177  29.191  33.286  1.00  0.00     0.074 A 
ATOM     48  C   UNL A   1      44.527  24.510  29.211  1.00  0.00     0.029 A 
ATOM     49  N   UNL A   1      43.548  26.181  30.305  1.00  0.00    -0.354 N 
ATOM     50  N   UNL A   1      43.385  28.257  32.387  1.00  0.00    -0.248 NA
ATOM     51  C   UNL A   1      44.215  29.266  34.322  1.00  0.00     0.031 C 
ATOM     52  C   UNL A   1      45.313  24.835  30.316  1.00  0.00     0.029 A 
ATOM     53  C   UNL A   1      44.730  25.905  30.975  1.00  0.00     0.049 A 
ATOM     54  H   UNL A   1      42.907  26.883  30.556  1.00  0.00     0.167 HD
ATOM     55  C   UNL A   1      44.585  27.647  32.737  1.00  0.00     0.074 A 
ATOM     56  C   UNL A   1      45.071  28.337  33.915  1.00  0.00     0.031 C 
ATOM     57  C   UNL A   1      45.219  26.607  32.140  1.00  0.00     0.034 A 
BRANCH  44  58
ATOM     58  C   UNL A   1      42.311  24.287  27.196  1.00  0.00     0.023 A 
ATOM     59  C   UNL A   1      41.541  23.111  27.291  1.00  0.00     0.031 A 
ATOM     60  C   UNL A   1      43.192  24.416  26.107  1.00  0.00     0.131 A 
ATOM     61  C   UNL A   1      41.697  22.096  26.338  1.00  0.00     0.055 A 
ATOM     62  C   UNL A   1      43.308  23.421  25.134  1.00  0.00     0.041 A 
ATOM     63  F   UNL A   1      43.951  25.516  25.970  1.00  0.00    -0.206 F 
ATOM     64  C   UNL A   1      42.571  22.249  25.255  1.00  0.00     0.022 A 
BRANCH  61  65
ATOM     65  S   UNL A   1      40.835  20.508  26.504  1.00  0.00     0.124 S 
ATOM     66  O   UNL A   1      39.496  20.844  26.023  1.00  0.00    -0.237 OA
ATOM     67  O   UNL A   1      41.616  19.644  25.624  1.00  0.00    -0.237 OA
ATOM     68  O   UNL A   1      40.926  20.208  27.928  1.00  0.00    -0.744 OA
ENDBRANCH  61  65
ENDBRANCH  44  58
BRANCH  45  69
ATOM     69  C   UNL A   1      41.971  31.223  34.437  1.00  0.00     0.023 A 
ATOM     70  C   UNL A   1      40.964  31.194  35.420  1.00  0.00     0.031 A 
ATOM     71  C   UNL A   1      42.819  32.342  34.396  1.00  0.00     0.131 A 
ATOM     72  C   UNL A   1      40.769  32.302  36.254  1.00  0.00     0.055 A 
ATOM     73  C   UNL A   1      42.674  33.408  35.288  1.00  0.00     0.041 A 
ATOM     74  F   UNL A   1      43.788  32.425  33.471  1.00  0.00    -0.206 F 
ATOM     75  C   UNL A   1      41.630  33.401  36.207  1.00  0.00     0.022 A 
BRANCH  72  76
ATOM     76  S   UNL A   1      39.297  32.418  37.310  1.00  0.00     0.124 S 
ATOM     77  O   UNL A   1      39.881  32.430  38.647  1.00  0.00    -0.237 OA
ATOM     78  O   UNL A   1      38.713  33.682  36.865  1.00  0.00    -0.237 OA
ATOM     79  O   UNL A   1      38.529  31.227  36.966  1.00  0.00    -0.744 OA
ENDBRANCH  72  76
ENDBRANCH  45  69
BRANCH  57  80
ATOM     80  C   UNL A   1      46.527  26.122  32.720  1.00  0.00     0.023 A 
ATOM     81  C   UNL A   1      46.528  25.106  33.696  1.00  0.00     0.031 A 
ATOM     82  C   UNL A   1      47.739  26.778  32.444  1.00  0.00     0.131 A 
ATOM     83  C   UNL A   1      47.701  24.816  34.401  1.00  0.00     0.055 A 
ATOM     84  C   UNL A   1      48.920  26.446  33.109  1.00  0.00     0.041 A 
ATOM     85  F   UNL A   1      47.789  27.761  31.531  1.00  0.00    -0.206 F 
ATOM     86  C   UNL A   1      48.900  25.474  34.106  1.00  0.00     0.022 A 
BRANCH  83  87
ATOM     87  S   UNL A   1      47.693  23.656  35.796  1.00  0.00     0.124 S 
ATOM     88  O   UNL A   1      48.632  24.288  36.719  1.00  0.00    -0.237 OA
ATOM     89  O   UNL A   1      46.293  23.686  36.211  1.00  0.00    -0.237 OA
ATOM     90  O   UNL A   1      48.149  22.399  35.211  1.00  0.00    -0.744 OA
ENDBRANCH  83  87
ENDBRANCH  57  80
ENDBRANCH  31  32
ENDBRANCH  23  26
ENDBRANCH   1  22
TORSDOF 15
ENDMDL
