MODEL 1
REMARK VINA RESULT:     -11.9      0.000      0.000
REMARK SMILES CC[C@@H]1CCCN(S(=O)(=O)c2cc(C(=O)NCCCNC(=O)c3ccc(-c4c5nc(c(-c6cc(S(=O)(=O)[O-])ccc6F)c6ccc([nH]6)c(-c6cc(S(=O)(=O)[O-])ccc6F)c6nc(c(-c7cc(S(=O)(=O)[O-])ccc7F)c7ccc4[nH]7)C=C6)C=C5)cc3)ccc2F)C1
REMARK SMILES IDX 18 1 17 2 16 3 14 4 15 5 13 7 11 8 12 9 88 10 87 11 89 12
REMARK SMILES IDX 86 13 8 14 9 15 10 16 7 17 3 18 4 19 90 20 5 21 6 22 2 23
REMARK SMILES IDX 1 24 19 25 20 26 21 27 22 29 23 30 24 31 85 32 25 33 84 34
REMARK SMILES IDX 26 35 27 36 28 37 78 38 29 39 83 40 77 41 79 42 30 43 82 44
REMARK SMILES IDX 76 45 75 46 31 48 63 49 43 50 62 51 44 52 47 53 61 54 80 55
REMARK SMILES IDX 45 56 46 57 60 59 81 60 48 61 32 62 33 63 41 64 34 65 40 66
REMARK SMILES IDX 42 67 39 68 35 69 36 70 37 71 38 72 64 73 65 74 73 75 66 76
REMARK SMILES IDX 72 77 74 78 71 79 67 80 68 81 69 82 70 83 49 84 50 85 58 86
REMARK SMILES IDX 51 87 57 88 59 89 56 90 52 91 53 92 54 93 55 94
REMARK H PARENT 16 6 20 28 79 47 47 58
REMARK Flexibility Score: inf
ROOT
ATOM      1  C   UNL A   1      35.333  21.766  25.123  1.00  0.00     0.042 C 
ENDROOT
BRANCH   1   2
ATOM      2  C   UNL A   1      35.342  20.335  24.585  1.00  0.00     0.118 C 
BRANCH   2   3
ATOM      3  N   UNL A   1      34.220  19.556  25.075  1.00  0.00    -0.352 N 
ATOM      4  C   UNL A   1      32.862  19.742  25.023  1.00  0.00     0.251 C 
ATOM      5  O   UNL A   1      32.152  18.813  25.408  1.00  0.00    -0.269 OA
ATOM      6  H   UNL A   1      34.486  18.730  25.539  1.00  0.00     0.163 HD
BRANCH   4   7
ATOM      7  C   UNL A   1      32.200  20.986  24.527  1.00  0.00     0.041 A 
ATOM      8  C   UNL A   1      31.253  23.163  25.105  1.00  0.00     0.119 A 
ATOM      9  C   UNL A   1      31.783  21.922  25.493  1.00  0.00     0.038 A 
ATOM     10  C   UNL A   1      31.144  23.474  23.757  1.00  0.00     0.143 A 
ATOM     11  C   UNL A   1      31.529  22.554  22.792  1.00  0.00     0.041 A 
ATOM     12  F   UNL A   1      30.662  24.653  23.344  1.00  0.00    -0.206 F 
ATOM     13  C   UNL A   1      32.077  21.326  23.175  1.00  0.00     0.017 A 
BRANCH   8  14
ATOM     14  S   UNL A   1      30.955  24.417  26.309  1.00  0.00     0.246 S 
ATOM     15  O   UNL A   1      31.518  23.984  27.574  1.00  0.00    -0.207 OA
ATOM     16  O   UNL A   1      29.554  24.769  26.233  1.00  0.00    -0.207 OA
BRANCH  14  17
ATOM     17  N   UNL A   1      31.842  25.815  25.795  1.00  0.00    -0.197 NA
ATOM     18  C   UNL A   1      31.829  28.321  25.788  1.00  0.00     0.004 C 
ATOM     19  C   UNL A   1      33.332  28.317  26.106  1.00  0.00     0.006 C 
ATOM     20  C   UNL A   1      31.193  27.048  26.357  1.00  0.00     0.106 C 
ATOM     21  C   UNL A   1      34.005  27.042  25.616  1.00  0.00     0.017 C 
ATOM     22  C   UNL A   1      33.297  25.788  26.129  1.00  0.00     0.102 C 
BRANCH  18  23
ATOM     23  C   UNL A   1      31.575  28.527  24.281  1.00  0.00     0.001 C 
ATOM     24  C   UNL A   1      30.230  27.996  23.809  1.00  0.00     0.004 C 
ENDBRANCH  18  23
ENDBRANCH  14  17
ENDBRANCH   8  14
ENDBRANCH   4   7
ENDBRANCH   2   3
ENDBRANCH   1   2
BRANCH   1  25
ATOM     25  C   UNL A   1      36.477  22.086  26.085  1.00  0.00     0.118 C 
BRANCH  25  26
ATOM     26  N   UNL A   1      37.516  21.071  26.053  1.00  0.00    -0.352 N 
ATOM     27  C   UNL A   1      38.881  21.177  26.133  1.00  0.00     0.251 C 
ATOM     28  H   UNL A   1      37.183  20.150  25.955  1.00  0.00     0.163 HD
ATOM     29  O   UNL A   1      39.556  20.194  25.831  1.00  0.00    -0.269 OA
BRANCH  27  30
ATOM     30  C   UNL A   1      39.551  22.428  26.565  1.00  0.00     0.039 A 
ATOM     31  C   UNL A   1      39.224  23.614  25.897  1.00  0.00     0.014 A 
ATOM     32  C   UNL A   1      40.554  22.442  27.539  1.00  0.00     0.014 A 
ATOM     33  C   UNL A   1      39.874  24.807  26.225  1.00  0.00     0.010 A 
ATOM     34  C   UNL A   1      41.158  23.647  27.912  1.00  0.00     0.010 A 
ATOM     35  C   UNL A   1      40.834  24.839  27.248  1.00  0.00    -0.014 A 
BRANCH  35  36
ATOM     36  C   UNL A   1      41.504  26.116  27.610  1.00  0.00     0.031 A 
ATOM     37  C   UNL A   1      42.911  26.400  27.158  1.00  0.00     0.074 A 
ATOM     38  C   UNL A   1      40.838  27.024  28.351  1.00  0.00     0.049 A 
ATOM     39  N   UNL A   1      43.642  27.467  27.359  1.00  0.00    -0.248 NA
ATOM     40  C   UNL A   1      43.595  25.341  26.403  1.00  0.00     0.031 C 
ATOM     41  C   UNL A   1      39.481  26.848  28.876  1.00  0.00     0.029 A 
ATOM     42  N   UNL A   1      41.198  28.277  28.778  1.00  0.00    -0.354 N 
ATOM     43  C   UNL A   1      44.871  27.207  26.764  1.00  0.00     0.074 A 
ATOM     44  C   UNL A   1      44.804  25.859  26.239  1.00  0.00     0.031 C 
ATOM     45  C   UNL A   1      39.108  27.970  29.510  1.00  0.00     0.029 A 
ATOM     46  C   UNL A   1      40.206  28.931  29.471  1.00  0.00     0.049 A 
ATOM     47  H   UNL A   1      42.084  28.672  28.605  1.00  0.00     0.167 HD
ATOM     48  C   UNL A   1      45.948  28.022  26.646  1.00  0.00     0.034 A 
ATOM     49  C   UNL A   1      40.177  30.166  30.008  1.00  0.00     0.034 A 
ATOM     50  C   UNL A   1      45.991  29.372  27.149  1.00  0.00     0.049 A 
ATOM     51  C   UNL A   1      41.383  31.054  29.873  1.00  0.00     0.074 A 
ATOM     52  C   UNL A   1      47.009  30.303  27.025  1.00  0.00     0.029 A 
ATOM     53  N   UNL A   1      44.978  29.983  27.874  1.00  0.00    -0.354 N 
ATOM     54  N   UNL A   1      42.527  30.798  29.283  1.00  0.00    -0.248 NA
ATOM     55  C   UNL A   1      41.297  32.394  30.470  1.00  0.00     0.031 C 
ATOM     56  C   UNL A   1      46.634  31.456  27.722  1.00  0.00     0.029 A 
ATOM     57  C   UNL A   1      45.357  31.267  28.228  1.00  0.00     0.049 A 
ATOM     58  H   UNL A   1      44.116  29.566  28.102  1.00  0.00     0.167 HD
ATOM     59  C   UNL A   1      43.291  31.951  29.422  1.00  0.00     0.074 A 
ATOM     60  C   UNL A   1      42.481  32.905  30.153  1.00  0.00     0.031 C 
ATOM     61  C   UNL A   1      44.546  32.199  28.972  1.00  0.00     0.034 A 
BRANCH  48  62
ATOM     62  C   UNL A   1      47.173  27.472  25.959  1.00  0.00     0.023 A 
ATOM     63  C   UNL A   1      48.167  26.782  26.672  1.00  0.00     0.031 A 
ATOM     64  C   UNL A   1      47.340  27.630  24.573  1.00  0.00     0.131 A 
ATOM     65  C   UNL A   1      49.312  26.321  26.004  1.00  0.00     0.055 A 
ATOM     66  C   UNL A   1      48.449  27.111  23.903  1.00  0.00     0.041 A 
ATOM     67  F   UNL A   1      46.428  28.295  23.845  1.00  0.00    -0.206 F 
ATOM     68  C   UNL A   1      49.448  26.460  24.621  1.00  0.00     0.022 A 
BRANCH  65  69
ATOM     69  S   UNL A   1      50.666  25.620  26.984  1.00  0.00     0.124 S 
ATOM     70  O   UNL A   1      51.652  25.317  25.949  1.00  0.00    -0.237 OA
ATOM     71  O   UNL A   1      51.004  26.715  27.886  1.00  0.00    -0.237 OA
ATOM     72  O   UNL A   1      50.060  24.453  27.621  1.00  0.00    -0.744 OA
ENDBRANCH  65  69
ENDBRANCH  48  62
BRANCH  49  73
ATOM     73  C   UNL A   1      38.951  30.630  30.712  1.00  0.00     0.023 A 
ATOM     74  C   UNL A   1      37.922  31.279  30.014  1.00  0.00     0.031 A 
ATOM     75  C   UNL A   1      38.773  30.383  32.084  1.00  0.00     0.131 A 
ATOM     76  C   UNL A   1      36.757  31.669  30.695  1.00  0.00     0.055 A 
ATOM     77  C   UNL A   1      37.602  30.746  32.751  1.00  0.00     0.041 A 
ATOM     78  F   UNL A   1      39.725  29.748  32.787  1.00  0.00    -0.206 F 
ATOM     79  C   UNL A   1      36.586  31.395  32.055  1.00  0.00     0.022 A 
BRANCH  76  80
ATOM     80  S   UNL A   1      35.458  32.538  29.776  1.00  0.00     0.124 S 
ATOM     81  O   UNL A   1      36.146  33.759  29.372  1.00  0.00    -0.237 OA
ATOM     82  O   UNL A   1      35.147  31.590  28.711  1.00  0.00    -0.237 OA
ATOM     83  O   UNL A   1      34.401  32.716  30.771  1.00  0.00    -0.744 OA
ENDBRANCH  76  80
ENDBRANCH  49  73
BRANCH  61  84
ATOM     84  C   UNL A   1      45.123  33.564  29.231  1.00  0.00     0.023 A 
ATOM     85  C   UNL A   1      45.003  34.600  28.293  1.00  0.00     0.031 A 
ATOM     86  C   UNL A   1      45.727  33.845  30.470  1.00  0.00     0.131 A 
ATOM     87  C   UNL A   1      45.494  35.877  28.603  1.00  0.00     0.055 A 
ATOM     88  C   UNL A   1      46.180  35.125  30.787  1.00  0.00     0.041 A 
ATOM     89  F   UNL A   1      45.857  32.885  31.399  1.00  0.00    -0.206 F 
ATOM     90  C   UNL A   1      46.066  36.149  29.851  1.00  0.00     0.022 A 
BRANCH  87  91
ATOM     91  S   UNL A   1      45.375  37.190  27.358  1.00  0.00     0.124 S 
ATOM     92  O   UNL A   1      45.688  38.378  28.144  1.00  0.00    -0.237 OA
ATOM     93  O   UNL A   1      46.379  36.791  26.377  1.00  0.00    -0.237 OA
ATOM     94  O   UNL A   1      43.991  37.098  26.895  1.00  0.00    -0.744 OA
ENDBRANCH  87  91
ENDBRANCH  61  84
ENDBRANCH  35  36
ENDBRANCH  27  30
ENDBRANCH  25  26
ENDBRANCH   1  25
TORSDOF 16
ENDMDL
MODEL 2
REMARK VINA RESULT:     -11.9      4.615      9.472
REMARK SMILES CC[C@@H]1CCCN(S(=O)(=O)c2cc(C(=O)NCCCNC(=O)c3ccc(-c4c5nc(c(-c6cc(S(=O)(=O)[O-])ccc6F)c6ccc([nH]6)c(-c6cc(S(=O)(=O)[O-])ccc6F)c6nc(c(-c7cc(S(=O)(=O)[O-])ccc7F)c7ccc4[nH]7)C=C6)C=C5)cc3)ccc2F)C1
REMARK SMILES IDX 18 1 17 2 16 3 14 4 15 5 13 7 11 8 12 9 88 10 87 11 89 12
REMARK SMILES IDX 86 13 8 14 9 15 10 16 7 17 3 18 4 19 90 20 5 21 6 22 2 23
REMARK SMILES IDX 1 24 19 25 20 26 21 27 22 29 23 30 24 31 85 32 25 33 84 34
REMARK SMILES IDX 26 35 27 36 28 37 78 38 29 39 83 40 77 41 79 42 30 43 82 44
REMARK SMILES IDX 76 45 75 46 31 48 63 49 43 50 62 51 44 52 47 53 61 54 80 55
REMARK SMILES IDX 45 56 46 57 60 59 81 60 48 61 32 62 33 63 41 64 34 65 40 66
REMARK SMILES IDX 42 67 39 68 35 69 36 70 37 71 38 72 64 73 65 74 73 75 66 76
REMARK SMILES IDX 72 77 74 78 71 79 67 80 68 81 69 82 70 83 49 84 50 85 58 86
REMARK SMILES IDX 51 87 57 88 59 89 56 90 52 91 53 92 54 93 55 94
REMARK H PARENT 16 6 20 28 79 47 47 58
REMARK Flexibility Score: inf
ROOT
ATOM      1  C   UNL A   1      33.171  27.913  26.717  1.00  0.00     0.042 C 
ENDROOT
BRANCH   1   2
ATOM      2  C   UNL A   1      31.699  28.276  26.922  1.00  0.00     0.118 C 
BRANCH   2   3
ATOM      3  N   UNL A   1      30.851  27.101  27.007  1.00  0.00    -0.352 N 
ATOM      4  C   UNL A   1      30.579  26.082  26.131  1.00  0.00     0.251 C 
ATOM      5  O   UNL A   1      29.917  25.135  26.559  1.00  0.00    -0.269 OA
ATOM      6  H   UNL A   1      30.375  27.021  27.864  1.00  0.00     0.163 HD
BRANCH   4   7
ATOM      7  C   UNL A   1      31.035  26.047  24.710  1.00  0.00     0.041 A 
ATOM      8  C   UNL A   1      32.216  24.793  22.976  1.00  0.00     0.119 A 
ATOM      9  C   UNL A   1      31.838  24.957  24.318  1.00  0.00     0.038 A 
ATOM     10  C   UNL A   1      31.793  25.709  22.025  1.00  0.00     0.143 A 
ATOM     11  C   UNL A   1      31.020  26.801  22.397  1.00  0.00     0.041 A 
ATOM     12  F   UNL A   1      32.115  25.580  20.731  1.00  0.00    -0.206 F 
ATOM     13  C   UNL A   1      30.624  26.956  23.728  1.00  0.00     0.017 A 
BRANCH   8  14
ATOM     14  S   UNL A   1      33.016  23.310  22.455  1.00  0.00     0.246 S 
ATOM     15  O   UNL A   1      33.666  23.560  21.183  1.00  0.00    -0.207 OA
ATOM     16  O   UNL A   1      32.054  22.235  22.568  1.00  0.00    -0.207 OA
BRANCH  14  17
ATOM     17  N   UNL A   1      34.257  22.983  23.619  1.00  0.00    -0.197 NA
ATOM     18  C   UNL A   1      34.917  21.449  25.488  1.00  0.00     0.004 C 
ATOM     19  C   UNL A   1      36.355  21.430  24.949  1.00  0.00     0.006 C 
ATOM     20  C   UNL A   1      33.948  21.694  24.326  1.00  0.00     0.106 C 
ATOM     21  C   UNL A   1      36.674  22.693  24.159  1.00  0.00     0.017 C 
ATOM     22  C   UNL A   1      35.643  22.958  23.063  1.00  0.00     0.102 C 
BRANCH  18  23
ATOM     23  C   UNL A   1      34.766  22.453  26.649  1.00  0.00     0.001 C 
ATOM     24  C   UNL A   1      33.651  22.102  27.623  1.00  0.00     0.004 C 
ENDBRANCH  18  23
ENDBRANCH  14  17
ENDBRANCH   8  14
ENDBRANCH   4   7
ENDBRANCH   2   3
ENDBRANCH   1   2
BRANCH   1  25
ATOM     25  C   UNL A   1      34.021  29.038  26.125  1.00  0.00     0.118 C 
BRANCH  25  26
ATOM     26  N   UNL A   1      33.827  30.295  26.827  1.00  0.00    -0.352 N 
ATOM     27  C   UNL A   1      34.541  30.877  27.843  1.00  0.00     0.251 C 
ATOM     28  H   UNL A   1      33.050  30.816  26.523  1.00  0.00     0.163 HD
ATOM     29  O   UNL A   1      34.032  31.827  28.436  1.00  0.00    -0.269 OA
BRANCH  27  30
ATOM     30  C   UNL A   1      35.888  30.397  28.237  1.00  0.00     0.039 A 
ATOM     31  C   UNL A   1      35.987  29.556  29.352  1.00  0.00     0.014 A 
ATOM     32  C   UNL A   1      37.054  30.828  27.597  1.00  0.00     0.014 A 
ATOM     33  C   UNL A   1      37.238  29.128  29.800  1.00  0.00     0.010 A 
ATOM     34  C   UNL A   1      38.302  30.347  28.006  1.00  0.00     0.010 A 
ATOM     35  C   UNL A   1      38.408  29.504  29.121  1.00  0.00    -0.014 A 
BRANCH  35  36
ATOM     36  C   UNL A   1      39.735  29.024  29.588  1.00  0.00     0.031 A 
ATOM     37  C   UNL A   1      40.436  29.700  30.737  1.00  0.00     0.074 A 
ATOM     38  C   UNL A   1      40.312  27.973  28.971  1.00  0.00     0.049 A 
ATOM     39  N   UNL A   1      41.583  29.403  31.292  1.00  0.00    -0.248 NA
ATOM     40  C   UNL A   1      39.773  30.874  31.323  1.00  0.00     0.031 C 
ATOM     41  C   UNL A   1      39.746  27.258  27.825  1.00  0.00     0.029 A 
ATOM     42  N   UNL A   1      41.487  27.314  29.226  1.00  0.00    -0.354 N 
ATOM     43  C   UNL A   1      41.784  30.354  32.286  1.00  0.00     0.074 A 
ATOM     44  C   UNL A   1      40.665  31.269  32.221  1.00  0.00     0.031 C 
ATOM     45  C   UNL A   1      40.549  26.231  27.510  1.00  0.00     0.029 A 
ATOM     46  C   UNL A   1      41.704  26.233  28.402  1.00  0.00     0.049 A 
ATOM     47  H   UNL A   1      42.117  27.587  29.932  1.00  0.00     0.167 HD
ATOM     48  C   UNL A   1      42.797  30.445  33.182  1.00  0.00     0.034 A 
ATOM     49  C   UNL A   1      42.712  25.340  28.372  1.00  0.00     0.034 A 
ATOM     50  C   UNL A   1      43.892  29.510  33.254  1.00  0.00     0.049 A 
ATOM     51  C   UNL A   1      43.829  25.460  29.370  1.00  0.00     0.074 A 
ATOM     52  C   UNL A   1      44.934  29.474  34.165  1.00  0.00     0.029 A 
ATOM     53  N   UNL A   1      44.091  28.451  32.380  1.00  0.00    -0.354 N 
ATOM     54  N   UNL A   1      43.989  26.353  30.319  1.00  0.00    -0.248 NA
ATOM     55  C   UNL A   1      44.901  24.456  29.299  1.00  0.00     0.031 C 
ATOM     56  C   UNL A   1      45.791  28.429  33.809  1.00  0.00     0.029 A 
ATOM     57  C   UNL A   1      45.252  27.773  32.713  1.00  0.00     0.049 A 
ATOM     58  H   UNL A   1      43.494  28.215  31.633  1.00  0.00     0.167 HD
ATOM     59  C   UNL A   1      45.168  26.008  30.970  1.00  0.00     0.074 A 
ATOM     60  C   UNL A   1      45.682  24.827  30.306  1.00  0.00     0.031 C 
ATOM     61  C   UNL A   1      45.761  26.609  32.031  1.00  0.00     0.034 A 
BRANCH  48  62
ATOM     62  C   UNL A   1      42.776  31.601  34.150  1.00  0.00     0.023 A 
ATOM     63  C   UNL A   1      42.143  31.503  35.400  1.00  0.00     0.031 A 
ATOM     64  C   UNL A   1      43.410  32.812  33.822  1.00  0.00     0.131 A 
ATOM     65  C   UNL A   1      42.110  32.614  36.256  1.00  0.00     0.055 A 
ATOM     66  C   UNL A   1      43.431  33.893  34.705  1.00  0.00     0.041 A 
ATOM     67  F   UNL A   1      44.017  32.966  32.634  1.00  0.00    -0.206 F 
ATOM     68  C   UNL A   1      42.770  33.800  35.927  1.00  0.00     0.022 A 
BRANCH  65  69
ATOM     69  S   UNL A   1      41.111  32.519  37.765  1.00  0.00     0.124 S 
ATOM     70  O   UNL A   1      41.052  33.922  38.167  1.00  0.00    -0.237 OA
ATOM     71  O   UNL A   1      39.863  31.940  37.283  1.00  0.00    -0.237 OA
ATOM     72  O   UNL A   1      41.899  31.658  38.644  1.00  0.00    -0.744 OA
ENDBRANCH  65  69
ENDBRANCH  48  62
BRANCH  49  73
ATOM     73  C   UNL A   1      42.692  24.248  27.361  1.00  0.00     0.023 A 
ATOM     74  C   UNL A   1      42.018  23.045  27.613  1.00  0.00     0.031 A 
ATOM     75  C   UNL A   1      43.307  24.418  26.109  1.00  0.00     0.131 A 
ATOM     76  C   UNL A   1      41.979  22.048  26.625  1.00  0.00     0.055 A 
ATOM     77  C   UNL A   1      43.243  23.436  25.119  1.00  0.00     0.041 A 
ATOM     78  F   UNL A   1      43.949  25.561  25.818  1.00  0.00    -0.206 F 
ATOM     79  C   UNL A   1      42.577  22.241  25.376  1.00  0.00     0.022 A 
BRANCH  76  80
ATOM     80  S   UNL A   1      41.130  20.488  26.991  1.00  0.00     0.124 S 
ATOM     81  O   UNL A   1      40.008  20.536  26.062  1.00  0.00    -0.237 OA
ATOM     82  O   UNL A   1      42.165  19.500  26.702  1.00  0.00    -0.237 OA
ATOM     83  O   UNL A   1      40.778  20.617  28.405  1.00  0.00    -0.744 OA
ENDBRANCH  76  80
ENDBRANCH  49  73
BRANCH  61  84
ATOM     84  C   UNL A   1      47.026  25.994  32.564  1.00  0.00     0.023 A 
ATOM     85  C   UNL A   1      46.997  25.021  33.575  1.00  0.00     0.031 A 
ATOM     86  C   UNL A   1      48.265  26.331  31.991  1.00  0.00     0.131 A 
ATOM     87  C   UNL A   1      48.194  24.422  33.995  1.00  0.00     0.055 A 
ATOM     88  C   UNL A   1      49.446  25.706  32.386  1.00  0.00     0.041 A 
ATOM     89  F   UNL A   1      48.338  27.252  31.016  1.00  0.00    -0.206 F 
ATOM     90  C   UNL A   1      49.416  24.747  33.395  1.00  0.00     0.022 A 
BRANCH  87  91
ATOM     91  S   UNL A   1      48.142  23.204  35.337  1.00  0.00     0.124 S 
ATOM     92  O   UNL A   1      49.028  23.809  36.326  1.00  0.00    -0.237 OA
ATOM     93  O   UNL A   1      46.725  23.173  35.684  1.00  0.00    -0.237 OA
ATOM     94  O   UNL A   1      48.651  21.984  34.712  1.00  0.00    -0.744 OA
ENDBRANCH  87  91
ENDBRANCH  61  84
ENDBRANCH  35  36
ENDBRANCH  27  30
ENDBRANCH  25  26
ENDBRANCH   1  25
TORSDOF 16
ENDMDL
MODEL 3
REMARK VINA RESULT:     -11.8      2.595      7.990
REMARK SMILES CC[C@@H]1CCCN(S(=O)(=O)c2cc(C(=O)NCCCNC(=O)c3ccc(-c4c5nc(c(-c6cc(S(=O)(=O)[O-])ccc6F)c6ccc([nH]6)c(-c6cc(S(=O)(=O)[O-])ccc6F)c6nc(c(-c7cc(S(=O)(=O)[O-])ccc7F)c7ccc4[nH]7)C=C6)C=C5)cc3)ccc2F)C1
REMARK SMILES IDX 18 1 17 2 16 3 14 4 15 5 13 7 11 8 12 9 88 10 87 11 89 12
REMARK SMILES IDX 86 13 8 14 9 15 10 16 7 17 3 18 4 19 90 20 5 21 6 22 2 23
REMARK SMILES IDX 1 24 19 25 20 26 21 27 22 29 23 30 24 31 85 32 25 33 84 34
REMARK SMILES IDX 26 35 27 36 28 37 78 38 29 39 83 40 77 41 79 42 30 43 82 44
REMARK SMILES IDX 76 45 75 46 31 48 63 49 43 50 62 51 44 52 47 53 61 54 80 55
REMARK SMILES IDX 45 56 46 57 60 59 81 60 48 61 32 62 33 63 41 64 34 65 40 66
REMARK SMILES IDX 42 67 39 68 35 69 36 70 37 71 38 72 64 73 65 74 73 75 66 76
REMARK SMILES IDX 72 77 74 78 71 79 67 80 68 81 69 82 70 83 49 84 50 85 58 86
REMARK SMILES IDX 51 87 57 88 59 89 56 90 52 91 53 92 54 93 55 94
REMARK H PARENT 16 6 20 28 79 47 47 58
REMARK Flexibility Score: inf
ROOT
ATOM      1  C   UNL A   1      38.488  19.599  25.020  1.00  0.00     0.042 C 
ENDROOT
BRANCH   1   2
ATOM      2  C   UNL A   1      37.426  20.667  24.751  1.00  0.00     0.118 C 
BRANCH   2   3
ATOM      3  N   UNL A   1      37.872  21.994  25.135  1.00  0.00    -0.352 N 
ATOM      4  C   UNL A   1      37.214  23.095  25.620  1.00  0.00     0.251 C 
ATOM      5  O   UNL A   1      37.904  24.042  25.995  1.00  0.00    -0.269 OA
ATOM      6  H   UNL A   1      38.840  22.132  25.024  1.00  0.00     0.163 HD
BRANCH   4   7
ATOM      7  C   UNL A   1      35.729  23.210  25.726  1.00  0.00     0.041 A 
ATOM      8  C   UNL A   1      33.653  23.903  24.637  1.00  0.00     0.119 A 
ATOM      9  C   UNL A   1      35.056  23.851  24.667  1.00  0.00     0.038 A 
ATOM     10  C   UNL A   1      32.921  23.313  25.658  1.00  0.00     0.143 A 
ATOM     11  C   UNL A   1      33.568  22.696  26.720  1.00  0.00     0.041 A 
ATOM     12  F   UNL A   1      31.582  23.322  25.659  1.00  0.00    -0.206 F 
ATOM     13  C   UNL A   1      34.964  22.624  26.741  1.00  0.00     0.017 A 
BRANCH   8  14
ATOM     14  S   UNL A   1      32.816  24.493  23.202  1.00  0.00     0.246 S 
ATOM     15  O   UNL A   1      32.060  23.398  22.626  1.00  0.00    -0.207 OA
ATOM     16  O   UNL A   1      33.787  25.197  22.391  1.00  0.00    -0.207 OA
BRANCH  14  17
ATOM     17  N   UNL A   1      31.678  25.681  23.748  1.00  0.00    -0.197 NA
ATOM     18  C   UNL A   1      31.123  28.125  23.677  1.00  0.00     0.004 C 
ATOM     19  C   UNL A   1      29.640  27.770  23.492  1.00  0.00     0.006 C 
ATOM     20  C   UNL A   1      31.985  27.000  23.095  1.00  0.00     0.106 C 
ATOM     21  C   UNL A   1      29.314  26.401  24.076  1.00  0.00     0.017 C 
ATOM     22  C   UNL A   1      30.245  25.314  23.543  1.00  0.00     0.102 C 
BRANCH  18  23
ATOM     23  C   UNL A   1      31.440  28.456  25.150  1.00  0.00     0.001 C 
ATOM     24  C   UNL A   1      31.798  29.916  25.387  1.00  0.00     0.004 C 
ENDBRANCH  18  23
ENDBRANCH  14  17
ENDBRANCH   8  14
ENDBRANCH   4   7
ENDBRANCH   2   3
ENDBRANCH   1   2
BRANCH   1  25
ATOM     25  C   UNL A   1      39.450  19.939  26.159  1.00  0.00     0.118 C 
BRANCH  25  26
ATOM     26  N   UNL A   1      40.648  19.118  26.122  1.00  0.00    -0.352 N 
ATOM     27  C   UNL A   1      41.972  19.463  26.021  1.00  0.00     0.251 C 
ATOM     28  H   UNL A   1      40.482  18.150  26.179  1.00  0.00     0.163 HD
ATOM     29  O   UNL A   1      42.782  18.575  25.761  1.00  0.00    -0.269 OA
BRANCH  27  30
ATOM     30  C   UNL A   1      42.441  20.857  26.212  1.00  0.00     0.039 A 
ATOM     31  C   UNL A   1      42.626  21.316  27.522  1.00  0.00     0.014 A 
ATOM     32  C   UNL A   1      42.610  21.744  25.144  1.00  0.00     0.014 A 
ATOM     33  C   UNL A   1      43.006  22.640  27.755  1.00  0.00     0.010 A 
ATOM     34  C   UNL A   1      43.054  23.050  25.375  1.00  0.00     0.010 A 
ATOM     35  C   UNL A   1      43.242  23.515  26.684  1.00  0.00    -0.014 A 
BRANCH  35  36
ATOM     36  C   UNL A   1      43.672  24.916  26.938  1.00  0.00     0.031 A 
ATOM     37  C   UNL A   1      42.711  25.921  27.515  1.00  0.00     0.074 A 
ATOM     38  C   UNL A   1      44.935  25.282  26.646  1.00  0.00     0.049 A 
ATOM     39  N   UNL A   1      42.918  27.176  27.825  1.00  0.00    -0.248 NA
ATOM     40  C   UNL A   1      41.334  25.465  27.755  1.00  0.00     0.031 C 
ATOM     41  C   UNL A   1      45.948  24.406  26.052  1.00  0.00     0.029 A 
ATOM     42  N   UNL A   1      45.590  26.475  26.821  1.00  0.00    -0.354 N 
ATOM     43  C   UNL A   1      41.700  27.661  28.287  1.00  0.00     0.074 A 
ATOM     44  C   UNL A   1      40.746  26.579  28.169  1.00  0.00     0.031 C 
ATOM     45  C   UNL A   1      47.107  25.076  25.959  1.00  0.00     0.029 A 
ATOM     46  C   UNL A   1      46.914  26.437  26.450  1.00  0.00     0.049 A 
ATOM     47  H   UNL A   1      45.154  27.282  27.178  1.00  0.00     0.167 HD
ATOM     48  C   UNL A   1      41.408  28.888  28.785  1.00  0.00     0.034 A 
ATOM     49  C   UNL A   1      47.870  27.385  26.505  1.00  0.00     0.034 A 
ATOM     50  C   UNL A   1      42.375  29.948  28.924  1.00  0.00     0.049 A 
ATOM     51  C   UNL A   1      47.526  28.742  27.055  1.00  0.00     0.074 A 
ATOM     52  C   UNL A   1      42.197  31.206  29.476  1.00  0.00     0.029 A 
ATOM     53  N   UNL A   1      43.696  29.879  28.505  1.00  0.00    -0.354 N 
ATOM     54  N   UNL A   1      46.374  29.174  27.511  1.00  0.00    -0.248 NA
ATOM     55  C   UNL A   1      48.606  29.739  27.100  1.00  0.00     0.031 C 
ATOM     56  C   UNL A   1      43.395  31.916  29.339  1.00  0.00     0.029 A 
ATOM     57  C   UNL A   1      44.337  31.080  28.760  1.00  0.00     0.049 A 
ATOM     58  H   UNL A   1      44.116  29.092  28.088  1.00  0.00     0.167 HD
ATOM     59  C   UNL A   1      46.594  30.486  27.916  1.00  0.00     0.074 A 
ATOM     60  C   UNL A   1      47.988  30.778  27.647  1.00  0.00     0.031 C 
ATOM     61  C   UNL A   1      45.721  31.362  28.471  1.00  0.00     0.034 A 
BRANCH  48  62
ATOM     62  C   UNL A   1      39.984  29.155  29.204  1.00  0.00     0.023 A 
ATOM     63  C   UNL A   1      39.608  29.181  30.556  1.00  0.00     0.031 A 
ATOM     64  C   UNL A   1      38.994  29.400  28.237  1.00  0.00     0.131 A 
ATOM     65  C   UNL A   1      38.265  29.392  30.905  1.00  0.00     0.055 A 
ATOM     66  C   UNL A   1      37.673  29.676  28.591  1.00  0.00     0.041 A 
ATOM     67  F   UNL A   1      39.295  29.373  26.928  1.00  0.00    -0.206 F 
ATOM     68  C   UNL A   1      37.300  29.664  29.932  1.00  0.00     0.022 A 
BRANCH  65  69
ATOM     69  S   UNL A   1      37.780  29.214  32.642  1.00  0.00     0.124 S 
ATOM     70  O   UNL A   1      36.509  29.935  32.667  1.00  0.00    -0.237 OA
ATOM     71  O   UNL A   1      37.696  27.767  32.801  1.00  0.00    -0.237 OA
ATOM     72  O   UNL A   1      38.870  29.859  33.371  1.00  0.00    -0.744 OA
ENDBRANCH  65  69
ENDBRANCH  48  62
BRANCH  49  73
ATOM     73  C   UNL A   1      49.245  27.068  26.034  1.00  0.00     0.023 A 
ATOM     74  C   UNL A   1      49.679  27.463  24.760  1.00  0.00     0.031 A 
ATOM     75  C   UNL A   1      50.158  26.409  26.874  1.00  0.00     0.131 A 
ATOM     76  C   UNL A   1      50.995  27.187  24.357  1.00  0.00     0.055 A 
ATOM     77  C   UNL A   1      51.473  26.162  26.480  1.00  0.00     0.041 A 
ATOM     78  F   UNL A   1      49.790  26.028  28.109  1.00  0.00    -0.206 F 
ATOM     79  C   UNL A   1      51.898  26.551  25.213  1.00  0.00     0.022 A 
BRANCH  76  80
ATOM     80  S   UNL A   1      51.520  27.678  22.691  1.00  0.00     0.124 S 
ATOM     81  O   UNL A   1      52.955  27.427  22.747  1.00  0.00    -0.237 OA
ATOM     82  O   UNL A   1      50.740  26.779  21.846  1.00  0.00    -0.237 OA
ATOM     83  O   UNL A   1      51.133  29.086  22.616  1.00  0.00    -0.744 OA
ENDBRANCH  76  80
ENDBRANCH  49  73
BRANCH  61  84
ATOM     84  C   UNL A   1      46.244  32.720  28.852  1.00  0.00     0.023 A 
ATOM     85  C   UNL A   1      46.183  33.804  27.963  1.00  0.00     0.031 A 
ATOM     86  C   UNL A   1      46.733  32.943  30.152  1.00  0.00     0.131 A 
ATOM     87  C   UNL A   1      46.618  35.070  28.383  1.00  0.00     0.055 A 
ATOM     88  C   UNL A   1      47.130  34.210  30.575  1.00  0.00     0.041 A 
ATOM     89  F   UNL A   1      46.803  31.936  31.036  1.00  0.00    -0.206 F 
ATOM     90  C   UNL A   1      47.075  35.283  29.689  1.00  0.00     0.022 A 
BRANCH  87  91
ATOM     91  S   UNL A   1      46.578  36.448  27.204  1.00  0.00     0.124 S 
ATOM     92  O   UNL A   1      46.580  35.748  25.925  1.00  0.00    -0.237 OA
ATOM     93  O   UNL A   1      45.338  37.132  27.556  1.00  0.00    -0.237 OA
ATOM     94  O   UNL A   1      47.799  37.192  27.506  1.00  0.00    -0.744 OA
ENDBRANCH  87  91
ENDBRANCH  61  84
ENDBRANCH  35  36
ENDBRANCH  27  30
ENDBRANCH  25  26
ENDBRANCH   1  25
TORSDOF 16
ENDMDL
