MODEL 1
REMARK VINA RESULT:     -13.3      0.000      0.000
REMARK SMILES CC(=O)Nc1cc(NC(C)=O)cc(C(=O)Nc2ccc(Br)cc2C(=O)NCCCNC(=O)c2ccc(-c3c4nc(c(-c5cc(S(=O)(=O)[O-])ccc5F)c5ccc([nH]5)c(-c5cc(S(=O)(=O)[O-])ccc5F)c5nc(c(-c6cc(S(=O)(=O)[O-])ccc6F)c6ccc3[nH]6)C=C5)C=C4)cc2)c1
REMARK SMILES IDX 28 1 27 2 26 3 24 4 25 5 23 7 17 8 18 9 19 10 22 11 20 12
REMARK SMILES IDX 21 13 16 14 14 15 15 16 13 18 5 19 6 20 96 21 7 22 12 23
REMARK SMILES IDX 4 24 1 25 2 26 3 27 8 29 9 30 10 32 11 33 29 34 30 35 31 36
REMARK SMILES IDX 32 38 33 39 34 40 95 41 35 42 94 43 36 44 37 45 38 46 88 47
REMARK SMILES IDX 39 48 93 49 87 50 89 51 40 52 92 53 86 54 85 55 41 57 73 58
REMARK SMILES IDX 53 59 72 60 54 61 57 62 71 63 90 64 55 65 56 66 70 68 91 69
REMARK SMILES IDX 58 70 42 71 43 72 51 73 44 74 50 75 52 76 49 77 45 78 46 79
REMARK SMILES IDX 47 80 48 81 74 82 75 83 83 84 76 85 82 86 84 87 81 88 77 89
REMARK SMILES IDX 78 90 79 91 80 92 59 93 60 94 68 95 61 96 67 97 69 98 66 99
REMARK SMILES IDX 62 100 63 101 64 102 65 103
REMARK H PARENT 26 6 16 17 4 28 8 31 30 37 89 56 57 67
REMARK Flexibility Score: inf
ROOT
ATOM      1  C   UNL A   1      32.112  30.918  26.845  1.00  0.00     0.042 C 
ENDROOT
BRANCH   1   2
ATOM      2  C   UNL A   1      32.336  29.473  27.251  1.00  0.00     0.118 C 
BRANCH   2   3
ATOM      3  N   UNL A   1      33.205  28.744  26.343  1.00  0.00    -0.352 N 
ATOM      4  C   UNL A   1      32.894  27.983  25.249  1.00  0.00     0.253 C 
ATOM      5  O   UNL A   1      33.803  27.422  24.641  1.00  0.00    -0.269 OA
ATOM      6  H   UNL A   1      34.166  28.806  26.547  1.00  0.00     0.163 HD
BRANCH   4   7
ATOM      7  C   UNL A   1      31.491  27.753  24.832  1.00  0.00     0.064 A 
ATOM      8  C   UNL A   1      30.658  26.690  25.236  1.00  0.00     0.054 A 
ATOM      9  C   UNL A   1      29.442  26.504  24.559  1.00  0.00     0.028 A 
ATOM     10  C   UNL A   1      28.986  27.435  23.623  1.00  0.00     0.018 A 
ATOM     11  C   UNL A   1      31.010  28.706  23.912  1.00  0.00     0.031 A 
ATOM     12  C   UNL A   1      29.756  28.554  23.332  1.00  0.00     0.018 A 
ATOM     13  Br  UNL A   1      29.101  29.868  22.145  1.00  0.00    -0.051 Br
BRANCH   8  14
ATOM     14  N   UNL A   1      30.876  25.790  26.306  1.00  0.00    -0.321 N 
ATOM     15  C   UNL A   1      31.569  24.596  26.382  1.00  0.00     0.255 C 
ATOM     16  O   UNL A   1      31.413  23.866  27.358  1.00  0.00    -0.269 OA
ATOM     17  H   UNL A   1      30.456  26.063  27.152  1.00  0.00     0.170 HD
BRANCH  15  18
ATOM     18  C   UNL A   1      32.568  24.209  25.361  1.00  0.00     0.044 A 
ATOM     19  C   UNL A   1      34.789  23.441  24.815  1.00  0.00     0.044 A 
ATOM     20  C   UNL A   1      34.503  23.679  23.461  1.00  0.00     0.052 A 
ATOM     21  C   UNL A   1      33.784  23.643  25.748  1.00  0.00     0.040 A 
ATOM     22  C   UNL A   1      33.239  24.115  23.042  1.00  0.00     0.044 A 
ATOM     23  C   UNL A   1      32.273  24.406  24.008  1.00  0.00     0.040 A 
BRANCH  19  24
ATOM     24  N   UNL A   1      36.117  23.106  25.143  1.00  0.00    -0.326 N 
ATOM     25  C   UNL A   1      36.135  20.604  25.053  1.00  0.00     0.114 C 
ATOM     26  C   UNL A   1      36.758  21.928  25.390  1.00  0.00     0.221 C 
ATOM     27  O   UNL A   1      37.895  21.964  25.868  1.00  0.00    -0.275 OA
ATOM     28  H   UNL A   1      36.710  23.889  25.207  1.00  0.00     0.169 HD
ENDBRANCH  19  24
BRANCH  22  29
ATOM     29  N   UNL A   1      32.874  24.294  21.688  1.00  0.00    -0.326 N 
ATOM     30  C   UNL A   1      32.915  25.470  20.961  1.00  0.00     0.221 C 
ATOM     31  H   UNL A   1      32.554  23.495  21.211  1.00  0.00     0.169 HD
ATOM     32  C   UNL A   1      32.479  25.298  19.526  1.00  0.00     0.114 C 
ATOM     33  O   UNL A   1      33.288  26.568  21.363  1.00  0.00    -0.275 OA
ENDBRANCH  22  29
ENDBRANCH  15  18
ENDBRANCH   8  14
ENDBRANCH   4   7
ENDBRANCH   2   3
ENDBRANCH   1   2
BRANCH   1  34
ATOM     34  C   UNL A   1      33.211  31.871  27.296  1.00  0.00     0.118 C 
BRANCH  34  35
ATOM     35  N   UNL A   1      32.760  33.234  27.554  1.00  0.00    -0.352 N 
ATOM     36  C   UNL A   1      33.213  34.199  28.429  1.00  0.00     0.251 C 
ATOM     37  H   UNL A   1      31.992  33.516  27.006  1.00  0.00     0.163 HD
ATOM     38  O   UNL A   1      32.626  35.273  28.495  1.00  0.00    -0.269 OA
BRANCH  36  39
ATOM     39  C   UNL A   1      34.355  33.921  29.328  1.00  0.00     0.039 A 
ATOM     40  C   UNL A   1      34.146  33.152  30.476  1.00  0.00     0.014 A 
ATOM     41  C   UNL A   1      35.636  34.375  29.026  1.00  0.00     0.014 A 
ATOM     42  C   UNL A   1      35.241  32.733  31.240  1.00  0.00     0.010 A 
ATOM     43  C   UNL A   1      36.728  33.845  29.700  1.00  0.00     0.010 A 
ATOM     44  C   UNL A   1      36.548  33.012  30.815  1.00  0.00    -0.014 A 
BRANCH  44  45
ATOM     45  C   UNL A   1      37.748  32.459  31.502  1.00  0.00     0.031 A 
ATOM     46  C   UNL A   1      38.543  31.359  30.847  1.00  0.00     0.074 A 
ATOM     47  C   UNL A   1      38.049  32.851  32.758  1.00  0.00     0.049 A 
ATOM     48  N   UNL A   1      39.480  30.595  31.349  1.00  0.00    -0.248 NA
ATOM     49  C   UNL A   1      38.189  31.032  29.456  1.00  0.00     0.031 C 
ATOM     50  C   UNL A   1      37.322  33.861  33.533  1.00  0.00     0.029 A 
ATOM     51  N   UNL A   1      39.039  32.436  33.613  1.00  0.00    -0.354 N 
ATOM     52  C   UNL A   1      39.777  29.662  30.360  1.00  0.00     0.074 A 
ATOM     53  C   UNL A   1      38.880  29.921  29.255  1.00  0.00     0.031 C 
ATOM     54  C   UNL A   1      37.914  34.012  34.729  1.00  0.00     0.029 A 
ATOM     55  C   UNL A   1      39.026  33.074  34.832  1.00  0.00     0.049 A 
ATOM     56  H   UNL A   1      39.699  31.743  33.377  1.00  0.00     0.167 HD
ATOM     57  C   UNL A   1      40.728  28.694  30.363  1.00  0.00     0.034 A 
ATOM     58  C   UNL A   1      39.813  32.915  35.914  1.00  0.00     0.034 A 
ATOM     59  C   UNL A   1      41.667  28.503  31.440  1.00  0.00     0.049 A 
ATOM     60  C   UNL A   1      40.906  31.879  35.869  1.00  0.00     0.074 A 
ATOM     61  C   UNL A   1      42.735  27.626  31.509  1.00  0.00     0.029 A 
ATOM     62  N   UNL A   1      41.659  29.215  32.632  1.00  0.00    -0.354 N 
ATOM     63  N   UNL A   1      41.202  31.032  34.911  1.00  0.00    -0.248 NA
ATOM     64  C   UNL A   1      41.774  31.782  37.050  1.00  0.00     0.031 C 
ATOM     65  C   UNL A   1      43.346  27.777  32.760  1.00  0.00     0.029 A 
ATOM     66  C   UNL A   1      42.694  28.788  33.448  1.00  0.00     0.049 A 
ATOM     67  H   UNL A   1      41.013  29.921  32.865  1.00  0.00     0.167 HD
ATOM     68  C   UNL A   1      42.311  30.324  35.362  1.00  0.00     0.074 A 
ATOM     69  C   UNL A   1      42.637  30.850  36.671  1.00  0.00     0.031 C 
ATOM     70  C   UNL A   1      43.002  29.329  34.749  1.00  0.00     0.034 A 
BRANCH  57  71
ATOM     71  C   UNL A   1      40.783  27.768  29.170  1.00  0.00     0.023 A 
ATOM     72  C   UNL A   1      41.726  27.941  28.142  1.00  0.00     0.031 A 
ATOM     73  C   UNL A   1      39.849  26.726  29.036  1.00  0.00     0.131 A 
ATOM     74  C   UNL A   1      41.653  27.152  26.984  1.00  0.00     0.055 A 
ATOM     75  C   UNL A   1      39.840  25.884  27.921  1.00  0.00     0.041 A 
ATOM     76  F   UNL A   1      38.913  26.521  29.976  1.00  0.00    -0.206 F 
ATOM     77  C   UNL A   1      40.733  26.107  26.878  1.00  0.00     0.022 A 
BRANCH  74  78
ATOM     78  S   UNL A   1      42.672  27.619  25.559  1.00  0.00     0.124 S 
ATOM     79  O   UNL A   1      41.938  28.772  25.041  1.00  0.00    -0.237 OA
ATOM     80  O   UNL A   1      43.962  27.908  26.173  1.00  0.00    -0.237 OA
ATOM     81  O   UNL A   1      42.635  26.432  24.708  1.00  0.00    -0.744 OA
ENDBRANCH  74  78
ENDBRANCH  57  71
BRANCH  58  82
ATOM     82  C   UNL A   1      39.614  33.754  37.131  1.00  0.00     0.023 A 
ATOM     83  C   UNL A   1      38.898  33.255  38.231  1.00  0.00     0.031 A 
ATOM     84  C   UNL A   1      40.092  35.072  37.197  1.00  0.00     0.131 A 
ATOM     85  C   UNL A   1      38.637  34.085  39.332  1.00  0.00     0.055 A 
ATOM     86  C   UNL A   1      39.871  35.880  38.315  1.00  0.00     0.041 A 
ATOM     87  F   UNL A   1      40.793  35.594  36.177  1.00  0.00    -0.206 F 
ATOM     88  C   UNL A   1      39.128  35.392  39.385  1.00  0.00     0.022 A 
BRANCH  85  89
ATOM     89  S   UNL A   1      37.575  33.456  40.660  1.00  0.00     0.124 S 
ATOM     90  O   UNL A   1      36.454  32.902  39.909  1.00  0.00    -0.237 OA
ATOM     91  O   UNL A   1      38.450  32.488  41.313  1.00  0.00    -0.237 OA
ATOM     92  O   UNL A   1      37.272  34.649  41.447  1.00  0.00    -0.744 OA
ENDBRANCH  85  89
ENDBRANCH  58  82
BRANCH  70  93
ATOM     93  C   UNL A   1      44.209  28.794  35.474  1.00  0.00     0.023 A 
ATOM     94  C   UNL A   1      44.104  27.755  36.414  1.00  0.00     0.031 A 
ATOM     95  C   UNL A   1      45.479  29.343  35.226  1.00  0.00     0.131 A 
ATOM     96  C   UNL A   1      45.244  27.330  37.111  1.00  0.00     0.055 A 
ATOM     97  C   UNL A   1      46.618  28.881  35.884  1.00  0.00     0.041 A 
ATOM     98  F   UNL A   1      45.630  30.338  34.337  1.00  0.00    -0.206 F 
ATOM     99  C   UNL A   1      46.503  27.876  36.841  1.00  0.00     0.022 A 
BRANCH  96 100
ATOM    100  S   UNL A   1      45.049  26.104  38.432  1.00  0.00     0.124 S 
ATOM    101  O   UNL A   1      43.928  26.650  39.190  1.00  0.00    -0.237 OA
ATOM    102  O   UNL A   1      44.776  24.880  37.685  1.00  0.00    -0.237 OA
ATOM    103  O   UNL A   1      46.338  26.134  39.122  1.00  0.00    -0.744 OA
ENDBRANCH  96 100
ENDBRANCH  70  93
ENDBRANCH  44  45
ENDBRANCH  36  39
ENDBRANCH  34  35
ENDBRANCH   1  34
TORSDOF 17
ENDMDL
MODEL 2
REMARK VINA RESULT:     -13.1      2.067      2.544
REMARK SMILES CC(=O)Nc1cc(NC(C)=O)cc(C(=O)Nc2ccc(Br)cc2C(=O)NCCCNC(=O)c2ccc(-c3c4nc(c(-c5cc(S(=O)(=O)[O-])ccc5F)c5ccc([nH]5)c(-c5cc(S(=O)(=O)[O-])ccc5F)c5nc(c(-c6cc(S(=O)(=O)[O-])ccc6F)c6ccc3[nH]6)C=C5)C=C4)cc2)c1
REMARK SMILES IDX 28 1 27 2 26 3 24 4 25 5 23 7 17 8 18 9 19 10 22 11 20 12
REMARK SMILES IDX 21 13 16 14 14 15 15 16 13 18 5 19 6 20 96 21 7 22 12 23
REMARK SMILES IDX 4 24 1 25 2 26 3 27 8 29 9 30 10 32 11 33 29 34 30 35 31 36
REMARK SMILES IDX 32 38 33 39 34 40 95 41 35 42 94 43 36 44 37 45 38 46 88 47
REMARK SMILES IDX 39 48 93 49 87 50 89 51 40 52 92 53 86 54 85 55 41 57 73 58
REMARK SMILES IDX 53 59 72 60 54 61 57 62 71 63 90 64 55 65 56 66 70 68 91 69
REMARK SMILES IDX 58 70 42 71 43 72 51 73 44 74 50 75 52 76 49 77 45 78 46 79
REMARK SMILES IDX 47 80 48 81 74 82 75 83 83 84 76 85 82 86 84 87 81 88 77 89
REMARK SMILES IDX 78 90 79 91 80 92 59 93 60 94 68 95 61 96 67 97 69 98 66 99
REMARK SMILES IDX 62 100 63 101 64 102 65 103
REMARK H PARENT 26 6 16 17 4 28 8 31 30 37 89 56 57 67
REMARK Flexibility Score: inf
ROOT
ATOM      1  C   UNL A   1      31.413  29.588  27.270  1.00  0.00     0.042 C 
ENDROOT
BRANCH   1   2
ATOM      2  C   UNL A   1      32.064  28.261  27.610  1.00  0.00     0.118 C 
BRANCH   2   3
ATOM      3  N   UNL A   1      32.912  27.742  26.550  1.00  0.00    -0.352 N 
ATOM      4  C   UNL A   1      32.587  27.331  25.286  1.00  0.00     0.253 C 
ATOM      5  O   UNL A   1      33.477  26.891  24.562  1.00  0.00    -0.269 OA
ATOM      6  H   UNL A   1      33.868  27.676  26.777  1.00  0.00     0.163 HD
BRANCH   4   7
ATOM      7  C   UNL A   1      31.187  27.328  24.803  1.00  0.00     0.064 A 
ATOM      8  C   UNL A   1      30.188  26.390  25.131  1.00  0.00     0.054 A 
ATOM      9  C   UNL A   1      28.990  26.409  24.397  1.00  0.00     0.028 A 
ATOM     10  C   UNL A   1      28.721  27.427  23.479  1.00  0.00     0.018 A 
ATOM     11  C   UNL A   1      30.896  28.370  23.900  1.00  0.00     0.031 A 
ATOM     12  C   UNL A   1      29.662  28.427  23.263  1.00  0.00     0.018 A 
ATOM     13  Br  UNL A   1      29.265  29.861  22.101  1.00  0.00    -0.051 Br
BRANCH   8  14
ATOM     14  N   UNL A   1      30.219  25.433  26.174  1.00  0.00    -0.321 N 
ATOM     15  C   UNL A   1      30.725  24.149  26.234  1.00  0.00     0.255 C 
ATOM     16  O   UNL A   1      30.416  23.420  27.174  1.00  0.00    -0.269 OA
ATOM     17  H   UNL A   1      29.804  25.739  27.011  1.00  0.00     0.170 HD
BRANCH  15  18
ATOM     18  C   UNL A   1      31.703  23.650  25.242  1.00  0.00     0.044 A 
ATOM     19  C   UNL A   1      33.719  22.417  24.753  1.00  0.00     0.044 A 
ATOM     20  C   UNL A   1      33.644  22.884  23.430  1.00  0.00     0.052 A 
ATOM     21  C   UNL A   1      32.699  22.751  25.630  1.00  0.00     0.040 A 
ATOM     22  C   UNL A   1      32.574  23.674  22.988  1.00  0.00     0.044 A 
ATOM     23  C   UNL A   1      31.610  24.079  23.914  1.00  0.00     0.040 A 
BRANCH  19  24
ATOM     24  N   UNL A   1      34.885  21.719  25.124  1.00  0.00    -0.326 N 
ATOM     25  C   UNL A   1      36.493  23.538  25.735  1.00  0.00     0.114 C 
ATOM     26  C   UNL A   1      36.153  22.105  25.438  1.00  0.00     0.221 C 
ATOM     27  O   UNL A   1      37.032  21.241  25.515  1.00  0.00    -0.275 OA
ATOM     28  H   UNL A   1      34.755  20.744  25.165  1.00  0.00     0.169 HD
ENDBRANCH  19  24
BRANCH  22  29
ATOM     29  N   UNL A   1      32.409  24.104  21.652  1.00  0.00    -0.326 N 
ATOM     30  C   UNL A   1      32.949  25.235  21.067  1.00  0.00     0.221 C 
ATOM     31  H   UNL A   1      31.846  23.539  21.076  1.00  0.00     0.169 HD
ATOM     32  C   UNL A   1      32.591  25.378  19.607  1.00  0.00     0.114 C 
ATOM     33  O   UNL A   1      33.680  26.061  21.604  1.00  0.00    -0.275 OA
ENDBRANCH  22  29
ENDBRANCH  15  18
ENDBRANCH   8  14
ENDBRANCH   4   7
ENDBRANCH   2   3
ENDBRANCH   1   2
BRANCH   1  34
ATOM     34  C   UNL A   1      32.308  30.542  26.490  1.00  0.00     0.118 C 
BRANCH  34  35
ATOM     35  N   UNL A   1      32.185  31.942  26.882  1.00  0.00    -0.352 N 
ATOM     36  C   UNL A   1      33.054  32.791  27.534  1.00  0.00     0.251 C 
ATOM     37  H   UNL A   1      31.327  32.356  26.636  1.00  0.00     0.163 HD
ATOM     38  O   UNL A   1      32.695  33.933  27.795  1.00  0.00    -0.269 OA
BRANCH  36  39
ATOM     39  C   UNL A   1      34.382  32.311  27.977  1.00  0.00     0.039 A 
ATOM     40  C   UNL A   1      35.426  33.231  28.113  1.00  0.00     0.014 A 
ATOM     41  C   UNL A   1      34.595  30.975  28.300  1.00  0.00     0.014 A 
ATOM     42  C   UNL A   1      36.633  32.830  28.695  1.00  0.00     0.010 A 
ATOM     43  C   UNL A   1      35.735  30.612  29.004  1.00  0.00     0.010 A 
ATOM     44  C   UNL A   1      36.771  31.534  29.217  1.00  0.00    -0.014 A 
BRANCH  44  45
ATOM     45  C   UNL A   1      37.973  31.104  29.984  1.00  0.00     0.031 A 
ATOM     46  C   UNL A   1      38.928  30.108  29.378  1.00  0.00     0.074 A 
ATOM     47  C   UNL A   1      38.140  31.506  31.261  1.00  0.00     0.049 A 
ATOM     48  N   UNL A   1      39.905  29.442  29.939  1.00  0.00    -0.248 NA
ATOM     49  C   UNL A   1      38.710  29.767  27.963  1.00  0.00     0.031 C 
ATOM     50  C   UNL A   1      37.253  32.418  31.990  1.00  0.00     0.029 A 
ATOM     51  N   UNL A   1      39.107  31.187  32.182  1.00  0.00    -0.354 N 
ATOM     52  C   UNL A   1      40.372  28.563  28.967  1.00  0.00     0.074 A 
ATOM     53  C   UNL A   1      39.531  28.741  27.803  1.00  0.00     0.031 C 
ATOM     54  C   UNL A   1      37.740  32.614  33.227  1.00  0.00     0.029 A 
ATOM     55  C   UNL A   1      38.937  31.801  33.402  1.00  0.00     0.049 A 
ATOM     56  H   UNL A   1      39.853  30.574  31.988  1.00  0.00     0.167 HD
ATOM     57  C   UNL A   1      41.421  27.704  29.030  1.00  0.00     0.034 A 
ATOM     58  C   UNL A   1      39.659  31.710  34.536  1.00  0.00     0.034 A 
ATOM     59  C   UNL A   1      42.297  27.599  30.171  1.00  0.00     0.049 A 
ATOM     60  C   UNL A   1      40.859  30.800  34.562  1.00  0.00     0.074 A 
ATOM     61  C   UNL A   1      43.447  26.843  30.309  1.00  0.00     0.029 A 
ATOM     62  N   UNL A   1      42.126  28.287  31.365  1.00  0.00    -0.354 N 
ATOM     63  N   UNL A   1      41.313  30.006  33.619  1.00  0.00    -0.248 NA
ATOM     64  C   UNL A   1      41.647  30.779  35.800  1.00  0.00     0.031 C 
ATOM     65  C   UNL A   1      43.948  27.039  31.602  1.00  0.00     0.029 A 
ATOM     66  C   UNL A   1      43.142  27.962  32.249  1.00  0.00     0.049 A 
ATOM     67  H   UNL A   1      41.392  28.914  31.556  1.00  0.00     0.167 HD
ATOM     68  C   UNL A   1      42.459  29.416  34.144  1.00  0.00     0.074 A 
ATOM     69  C   UNL A   1      42.631  29.953  35.477  1.00  0.00     0.031 C 
ATOM     70  C   UNL A   1      43.296  28.512  33.574  1.00  0.00     0.034 A 
BRANCH  57  71
ATOM     71  C   UNL A   1      41.661  26.810  27.837  1.00  0.00     0.023 A 
ATOM     72  C   UNL A   1      41.201  25.481  27.803  1.00  0.00     0.031 A 
ATOM     73  C   UNL A   1      42.400  27.277  26.736  1.00  0.00     0.131 A 
ATOM     74  C   UNL A   1      41.568  24.640  26.742  1.00  0.00     0.055 A 
ATOM     75  C   UNL A   1      42.684  26.459  25.639  1.00  0.00     0.041 A 
ATOM     76  F   UNL A   1      42.881  28.530  26.716  1.00  0.00    -0.206 F 
ATOM     77  C   UNL A   1      42.283  25.127  25.647  1.00  0.00     0.022 A 
BRANCH  74  78
ATOM     78  S   UNL A   1      41.231  22.865  26.895  1.00  0.00     0.124 S 
ATOM     79  O   UNL A   1      39.776  22.832  26.764  1.00  0.00    -0.237 OA
ATOM     80  O   UNL A   1      41.985  22.303  25.781  1.00  0.00    -0.237 OA
ATOM     81  O   UNL A   1      41.738  22.533  28.225  1.00  0.00    -0.744 OA
ENDBRANCH  74  78
ENDBRANCH  57  71
BRANCH  58  82
ATOM     82  C   UNL A   1      39.284  32.502  35.742  1.00  0.00     0.023 A 
ATOM     83  C   UNL A   1      39.746  33.818  35.904  1.00  0.00     0.031 A 
ATOM     84  C   UNL A   1      38.500  31.948  36.768  1.00  0.00     0.131 A 
ATOM     85  C   UNL A   1      39.463  34.521  37.085  1.00  0.00     0.055 A 
ATOM     86  C   UNL A   1      38.181  32.667  37.921  1.00  0.00     0.041 A 
ATOM     87  F   UNL A   1      38.022  30.698  36.658  1.00  0.00    -0.206 F 
ATOM     88  C   UNL A   1      38.675  33.957  38.091  1.00  0.00     0.022 A 
BRANCH  85  89
ATOM     89  S   UNL A   1      40.211  36.156  37.322  1.00  0.00     0.124 S 
ATOM     90  O   UNL A   1      41.517  35.809  37.871  1.00  0.00    -0.237 OA
ATOM     91  O   UNL A   1      40.206  36.689  35.964  1.00  0.00    -0.237 OA
ATOM     92  O   UNL A   1      39.297  36.816  38.252  1.00  0.00    -0.744 OA
ENDBRANCH  85  89
ENDBRANCH  58  82
BRANCH  70  93
ATOM     93  C   UNL A   1      44.500  28.100  34.379  1.00  0.00     0.023 A 
ATOM     94  C   UNL A   1      44.470  26.985  35.233  1.00  0.00     0.031 A 
ATOM     95  C   UNL A   1      45.690  28.844  34.297  1.00  0.00     0.131 A 
ATOM     96  C   UNL A   1      45.594  26.674  36.011  1.00  0.00     0.055 A 
ATOM     97  C   UNL A   1      46.823  28.499  35.033  1.00  0.00     0.041 A 
ATOM     98  F   UNL A   1      45.768  29.919  33.495  1.00  0.00    -0.206 F 
ATOM     99  C   UNL A   1      46.775  27.415  35.906  1.00  0.00     0.022 A 
BRANCH  96 100
ATOM    100  S   UNL A   1      45.469  25.330  37.222  1.00  0.00     0.124 S 
ATOM    101  O   UNL A   1      46.230  25.863  38.346  1.00  0.00    -0.237 OA
ATOM    102  O   UNL A   1      44.027  25.223  37.422  1.00  0.00    -0.237 OA
ATOM    103  O   UNL A   1      46.085  24.194  36.539  1.00  0.00    -0.744 OA
ENDBRANCH  96 100
ENDBRANCH  70  93
ENDBRANCH  44  45
ENDBRANCH  36  39
ENDBRANCH  34  35
ENDBRANCH   1  34
TORSDOF 17
ENDMDL
MODEL 3
REMARK VINA RESULT:     -12.9      1.066      2.237
REMARK SMILES CC(=O)Nc1cc(NC(C)=O)cc(C(=O)Nc2ccc(Br)cc2C(=O)NCCCNC(=O)c2ccc(-c3c4nc(c(-c5cc(S(=O)(=O)[O-])ccc5F)c5ccc([nH]5)c(-c5cc(S(=O)(=O)[O-])ccc5F)c5nc(c(-c6cc(S(=O)(=O)[O-])ccc6F)c6ccc3[nH]6)C=C5)C=C4)cc2)c1
REMARK SMILES IDX 28 1 27 2 26 3 24 4 25 5 23 7 17 8 18 9 19 10 22 11 20 12
REMARK SMILES IDX 21 13 16 14 14 15 15 16 13 18 5 19 6 20 96 21 7 22 12 23
REMARK SMILES IDX 4 24 1 25 2 26 3 27 8 29 9 30 10 32 11 33 29 34 30 35 31 36
REMARK SMILES IDX 32 38 33 39 34 40 95 41 35 42 94 43 36 44 37 45 38 46 88 47
REMARK SMILES IDX 39 48 93 49 87 50 89 51 40 52 92 53 86 54 85 55 41 57 73 58
REMARK SMILES IDX 53 59 72 60 54 61 57 62 71 63 90 64 55 65 56 66 70 68 91 69
REMARK SMILES IDX 58 70 42 71 43 72 51 73 44 74 50 75 52 76 49 77 45 78 46 79
REMARK SMILES IDX 47 80 48 81 74 82 75 83 83 84 76 85 82 86 84 87 81 88 77 89
REMARK SMILES IDX 78 90 79 91 80 92 59 93 60 94 68 95 61 96 67 97 69 98 66 99
REMARK SMILES IDX 62 100 63 101 64 102 65 103
REMARK H PARENT 26 6 16 17 4 28 8 31 30 37 89 56 57 67
REMARK Flexibility Score: inf
ROOT
ATOM      1  C   UNL A   1      32.152  30.898  26.709  1.00  0.00     0.042 C 
ENDROOT
BRANCH   1   2
ATOM      2  C   UNL A   1      32.700  30.049  25.577  1.00  0.00     0.118 C 
BRANCH   2   3
ATOM      3  N   UNL A   1      33.155  28.738  26.004  1.00  0.00    -0.352 N 
ATOM      4  C   UNL A   1      32.579  27.508  25.833  1.00  0.00     0.253 C 
ATOM      5  O   UNL A   1      33.135  26.523  26.315  1.00  0.00    -0.269 OA
ATOM      6  H   UNL A   1      34.010  28.733  26.492  1.00  0.00     0.163 HD
BRANCH   4   7
ATOM      7  C   UNL A   1      31.271  27.347  25.156  1.00  0.00     0.064 A 
ATOM      8  C   UNL A   1      30.358  26.289  25.336  1.00  0.00     0.054 A 
ATOM      9  C   UNL A   1      29.281  26.179  24.441  1.00  0.00     0.028 A 
ATOM     10  C   UNL A   1      29.021  27.177  23.498  1.00  0.00     0.018 A 
ATOM     11  C   UNL A   1      30.985  28.366  24.226  1.00  0.00     0.031 A 
ATOM     12  C   UNL A   1      29.854  28.287  23.421  1.00  0.00     0.018 A 
ATOM     13  Br  UNL A   1      29.451  29.687  22.220  1.00  0.00    -0.051 Br
BRANCH   8  14
ATOM     14  N   UNL A   1      30.360  25.321  26.369  1.00  0.00    -0.321 N 
ATOM     15  C   UNL A   1      30.620  23.964  26.362  1.00  0.00     0.255 C 
ATOM     16  O   UNL A   1      30.319  23.285  27.342  1.00  0.00    -0.269 OA
ATOM     17  H   UNL A   1      30.134  25.681  27.256  1.00  0.00     0.170 HD
BRANCH  15  18
ATOM     18  C   UNL A   1      31.334  23.313  25.242  1.00  0.00     0.044 A 
ATOM     19  C   UNL A   1      32.282  23.447  23.027  1.00  0.00     0.044 A 
ATOM     20  C   UNL A   1      32.486  22.057  23.066  1.00  0.00     0.052 A 
ATOM     21  C   UNL A   1      31.771  24.072  24.153  1.00  0.00     0.040 A 
ATOM     22  C   UNL A   1      32.181  21.301  24.205  1.00  0.00     0.044 A 
ATOM     23  C   UNL A   1      31.576  21.937  25.292  1.00  0.00     0.040 A 
BRANCH  19  24
ATOM     24  N   UNL A   1      32.521  24.098  21.801  1.00  0.00    -0.326 N 
ATOM     25  C   UNL A   1      33.627  26.241  22.475  1.00  0.00     0.114 C 
ATOM     26  C   UNL A   1      32.975  25.339  21.467  1.00  0.00     0.221 C 
ATOM     27  O   UNL A   1      32.876  25.707  20.292  1.00  0.00    -0.275 OA
ATOM     28  H   UNL A   1      32.318  23.536  21.018  1.00  0.00     0.169 HD
ENDBRANCH  19  24
BRANCH  22  29
ATOM     29  N   UNL A   1      32.438  19.917  24.327  1.00  0.00    -0.326 N 
ATOM     30  C   UNL A   1      33.638  19.318  24.665  1.00  0.00     0.221 C 
ATOM     31  H   UNL A   1      31.681  19.314  24.150  1.00  0.00     0.169 HD
ATOM     32  C   UNL A   1      33.553  17.812  24.731  1.00  0.00     0.114 C 
ATOM     33  O   UNL A   1      34.693  19.886  24.930  1.00  0.00    -0.275 OA
ENDBRANCH  22  29
ENDBRANCH  15  18
ENDBRANCH   8  14
ENDBRANCH   4   7
ENDBRANCH   2   3
ENDBRANCH   1   2
BRANCH   1  34
ATOM     34  C   UNL A   1      33.190  31.785  27.383  1.00  0.00     0.118 C 
BRANCH  34  35
ATOM     35  N   UNL A   1      32.752  33.157  27.616  1.00  0.00    -0.352 N 
ATOM     36  C   UNL A   1      33.223  34.138  28.463  1.00  0.00     0.251 C 
ATOM     37  H   UNL A   1      31.981  33.433  27.070  1.00  0.00     0.163 HD
ATOM     38  O   UNL A   1      32.646  35.218  28.512  1.00  0.00    -0.269 OA
BRANCH  36  39
ATOM     39  C   UNL A   1      34.374  33.872  29.355  1.00  0.00     0.039 A 
ATOM     40  C   UNL A   1      34.179  33.103  30.506  1.00  0.00     0.014 A 
ATOM     41  C   UNL A   1      35.648  34.336  29.044  1.00  0.00     0.014 A 
ATOM     42  C   UNL A   1      35.282  32.695  31.264  1.00  0.00     0.010 A 
ATOM     43  C   UNL A   1      36.749  33.816  29.711  1.00  0.00     0.010 A 
ATOM     44  C   UNL A   1      36.584  32.984  30.829  1.00  0.00    -0.014 A 
BRANCH  44  45
ATOM     45  C   UNL A   1      37.794  32.443  31.509  1.00  0.00     0.031 A 
ATOM     46  C   UNL A   1      38.594  31.348  30.850  1.00  0.00     0.074 A 
ATOM     47  C   UNL A   1      38.099  32.839  32.762  1.00  0.00     0.049 A 
ATOM     48  N   UNL A   1      39.540  30.593  31.347  1.00  0.00    -0.248 NA
ATOM     49  C   UNL A   1      38.233  31.017  29.462  1.00  0.00     0.031 C 
ATOM     50  C   UNL A   1      37.368  33.844  33.541  1.00  0.00     0.029 A 
ATOM     51  N   UNL A   1      39.099  32.433  33.612  1.00  0.00    -0.354 N 
ATOM     52  C   UNL A   1      39.839  29.661  30.357  1.00  0.00     0.074 A 
ATOM     53  C   UNL A   1      38.932  29.911  29.258  1.00  0.00     0.031 C 
ATOM     54  C   UNL A   1      37.967  34.002  34.732  1.00  0.00     0.029 A 
ATOM     55  C   UNL A   1      39.087  33.074  34.830  1.00  0.00     0.049 A 
ATOM     56  H   UNL A   1      39.762  31.746  33.372  1.00  0.00     0.167 HD
ATOM     57  C   UNL A   1      40.798  28.702  30.356  1.00  0.00     0.034 A 
ATOM     58  C   UNL A   1      39.883  32.923  35.907  1.00  0.00     0.034 A 
ATOM     59  C   UNL A   1      41.746  28.521  31.427  1.00  0.00     0.049 A 
ATOM     60  C   UNL A   1      40.984  31.896  35.856  1.00  0.00     0.074 A 
ATOM     61  C   UNL A   1      42.822  27.653  31.491  1.00  0.00     0.029 A 
ATOM     62  N   UNL A   1      41.739  29.234  32.618  1.00  0.00    -0.354 N 
ATOM     63  N   UNL A   1      41.281  31.051  34.897  1.00  0.00    -0.248 NA
ATOM     64  C   UNL A   1      41.861  31.809  37.031  1.00  0.00     0.031 C 
ATOM     65  C   UNL A   1      43.440  27.811  32.737  1.00  0.00     0.029 A 
ATOM     66  C   UNL A   1      42.784  28.817  33.428  1.00  0.00     0.049 A 
ATOM     67  H   UNL A   1      41.089  29.935  32.854  1.00  0.00     0.167 HD
ATOM     68  C   UNL A   1      42.400  30.353  35.342  1.00  0.00     0.074 A 
ATOM     69  C   UNL A   1      42.729  30.884  36.648  1.00  0.00     0.031 C 
ATOM     70  C   UNL A   1      43.095  29.363  34.726  1.00  0.00     0.034 A 
BRANCH  57  71
ATOM     71  C   UNL A   1      40.853  27.775  29.164  1.00  0.00     0.023 A 
ATOM     72  C   UNL A   1      41.798  27.946  28.137  1.00  0.00     0.031 A 
ATOM     73  C   UNL A   1      39.918  26.733  29.030  1.00  0.00     0.131 A 
ATOM     74  C   UNL A   1      41.724  27.156  26.980  1.00  0.00     0.055 A 
ATOM     75  C   UNL A   1      39.909  25.890  27.916  1.00  0.00     0.041 A 
ATOM     76  F   UNL A   1      38.981  26.530  29.969  1.00  0.00    -0.206 F 
ATOM     77  C   UNL A   1      40.804  26.111  26.873  1.00  0.00     0.022 A 
BRANCH  74  78
ATOM     78  S   UNL A   1      42.745  27.620  25.554  1.00  0.00     0.124 S 
ATOM     79  O   UNL A   1      42.020  28.781  25.043  1.00  0.00    -0.237 OA
ATOM     80  O   UNL A   1      44.039  27.896  26.168  1.00  0.00    -0.237 OA
ATOM     81  O   UNL A   1      42.697  26.437  24.699  1.00  0.00    -0.744 OA
ENDBRANCH  74  78
ENDBRANCH  57  71
BRANCH  58  82
ATOM     82  C   UNL A   1      39.684  33.762  37.123  1.00  0.00     0.023 A 
ATOM     83  C   UNL A   1      39.028  33.240  38.250  1.00  0.00     0.031 A 
ATOM     84  C   UNL A   1      40.103  35.102  37.165  1.00  0.00     0.131 A 
ATOM     85  C   UNL A   1      38.765  34.066  39.353  1.00  0.00     0.055 A 
ATOM     86  C   UNL A   1      39.881  35.908  38.283  1.00  0.00     0.041 A 
ATOM     87  F   UNL A   1      40.746  35.646  36.119  1.00  0.00    -0.206 F 
ATOM     88  C   UNL A   1      39.196  35.395  39.381  1.00  0.00     0.022 A 
BRANCH  85  89
ATOM     89  S   UNL A   1      37.777  33.400  40.720  1.00  0.00     0.124 S 
ATOM     90  O   UNL A   1      36.528  33.060  40.047  1.00  0.00    -0.237 OA
ATOM     91  O   UNL A   1      38.594  32.275  41.162  1.00  0.00    -0.237 OA
ATOM     92  O   UNL A   1      37.698  34.517  41.658  1.00  0.00    -0.744 OA
ENDBRANCH  85  89
ENDBRANCH  58  82
BRANCH  70  93
ATOM     93  C   UNL A   1      44.311  28.840  35.444  1.00  0.00     0.023 A 
ATOM     94  C   UNL A   1      44.220  27.810  36.395  1.00  0.00     0.031 A 
ATOM     95  C   UNL A   1      45.577  29.390  35.177  1.00  0.00     0.131 A 
ATOM     96  C   UNL A   1      45.368  27.396  37.085  1.00  0.00     0.055 A 
ATOM     97  C   UNL A   1      46.725  28.938  35.828  1.00  0.00     0.041 A 
ATOM     98  F   UNL A   1      45.715  30.377  34.277  1.00  0.00    -0.206 F 
ATOM     99  C   UNL A   1      46.623  27.944  36.797  1.00  0.00     0.022 A 
BRANCH  96 100
ATOM    100  S   UNL A   1      45.191  26.183  38.420  1.00  0.00     0.124 S 
ATOM    101  O   UNL A   1      45.042  24.935  37.679  1.00  0.00    -0.237 OA
ATOM    102  O   UNL A   1      46.443  26.342  39.155  1.00  0.00    -0.237 OA
ATOM    103  O   UNL A   1      43.995  26.628  39.133  1.00  0.00    -0.744 OA
ENDBRANCH  96 100
ENDBRANCH  70  93
ENDBRANCH  44  45
ENDBRANCH  36  39
ENDBRANCH  34  35
ENDBRANCH   1  34
TORSDOF 17
ENDMDL
