MODEL 1
REMARK VINA RESULT:     -13.5      0.000      0.000
REMARK SMILES Cc1ccc(C(=O)NCCCNC(=O)c2ccc(-c3c4nc(c(-c5cc(S(=O)(=O)[O-])ccc5F)c5ccc([nH]5)c(-c5cc(S(=O)(=O)[O-])ccc5F)c5nc(c(-c6cc(S(=O)(=O)[O-])ccc6F)c6ccc3[nH]6)C=C5)C=C4)cc2)cc1CNC(=O)C[N@@H+]1CCC[C@]2(CCOC2)C1
REMARK SMILES IDX 9 1 8 2 6 3 7 4 5 6 1 7 2 8 3 9 79 10 4 11 78 12 80 13 81 14
REMARK SMILES IDX 82 15 83 17 84 18 85 19 86 20 94 21 87 23 89 24 88 25 90 26
REMARK SMILES IDX 93 27 91 28 92 29 10 30 11 31 12 32 13 33 14 35 15 36 16 37
REMARK SMILES IDX 77 38 17 39 76 40 18 41 19 42 20 43 70 44 21 45 75 46 69 47
REMARK SMILES IDX 71 48 22 49 74 50 68 51 67 52 23 54 55 55 35 56 54 57 36 58
REMARK SMILES IDX 39 59 53 60 72 61 37 62 38 63 52 65 73 66 40 67 24 68 25 69
REMARK SMILES IDX 33 70 26 71 32 72 34 73 31 74 27 75 28 76 29 77 30 78 56 79
REMARK SMILES IDX 57 80 65 81 58 82 64 83 66 84 63 85 59 86 60 87 61 88 62 89
REMARK SMILES IDX 41 90 42 91 50 92 43 93 49 94 51 95 48 96 44 97 45 98 46 99
REMARK SMILES IDX 47 100
REMARK H PARENT 8 5 81 16 85 22 12 34 71 53 39 64
REMARK Flexibility Score: inf
ROOT
ATOM      1  C   UNL A   1      38.533  21.454  25.931  1.00  0.00     0.118 C 
ENDROOT
BRANCH   1   2
ATOM      2  N   UNL A   1      38.065  22.547  25.098  1.00  0.00    -0.352 N 
ATOM      3  C   UNL A   1      36.848  22.695  24.468  1.00  0.00     0.251 C 
ATOM      4  O   UNL A   1      36.626  23.696  23.788  1.00  0.00    -0.269 OA
ATOM      5  H   UNL A   1      38.705  23.284  24.967  1.00  0.00     0.163 HD
BRANCH   3   6
ATOM      6  C   UNL A   1      35.830  21.606  24.489  1.00  0.00     0.040 A 
ATOM      7  C   UNL A   1      33.080  18.368  25.276  1.00  0.00     0.044 C 
ATOM      8  C   UNL A   1      33.984  19.526  24.962  1.00  0.00    -0.046 A 
ATOM      9  C   UNL A   1      35.364  19.265  24.875  1.00  0.00     0.004 A 
ATOM     10  C   UNL A   1      33.518  20.830  24.706  1.00  0.00    -0.025 A 
ATOM     11  C   UNL A   1      36.279  20.298  24.671  1.00  0.00     0.014 A 
ATOM     12  C   UNL A   1      34.455  21.833  24.391  1.00  0.00     0.019 A 
BRANCH  10  13
ATOM     13  C   UNL A   1      32.084  21.276  24.876  1.00  0.00     0.152 C 
BRANCH  13  14
ATOM     14  N   UNL A   1      31.919  21.955  26.151  1.00  0.00    -0.347 N 
ATOM     15  C   UNL A   1      31.427  23.207  26.393  1.00  0.00     0.275 C 
ATOM     16  H   UNL A   1      32.199  21.445  26.945  1.00  0.00     0.164 HD
ATOM     17  O   UNL A   1      31.322  23.586  27.563  1.00  0.00    -0.268 OA
BRANCH  15  18
ATOM     18  C   UNL A   1      31.018  24.109  25.215  1.00  0.00     0.363 C 
BRANCH  18  19
ATOM     19  N   UNL A   1      31.558  25.454  25.404  1.00  0.00    -0.327 N 
ATOM     20  C   UNL A   1      30.525  26.467  25.599  1.00  0.00     0.262 C 
ATOM     21  C   UNL A   1      32.569  25.909  24.434  1.00  0.00     0.272 C 
ATOM     22  H   UNL A   1      32.079  25.343  26.275  1.00  0.00     0.348 HD
ATOM     23  C   UNL A   1      29.881  26.948  24.308  1.00  0.00     0.062 C 
ATOM     24  C   UNL A   1      32.055  26.582  23.127  1.00  0.00     0.045 C 
ATOM     25  C   UNL A   1      30.949  27.599  23.440  1.00  0.00     0.021 C 
ATOM     26  C   UNL A   1      31.587  25.557  22.094  1.00  0.00     0.043 C 
ATOM     27  C   UNL A   1      33.218  27.255  22.400  1.00  0.00     0.173 C 
ATOM     28  C   UNL A   1      32.761  25.374  21.153  1.00  0.00     0.161 C 
ATOM     29  O   UNL A   1      33.814  26.234  21.588  1.00  0.00    -0.381 OA
ENDBRANCH  18  19
ENDBRANCH  15  18
ENDBRANCH  13  14
ENDBRANCH  10  13
ENDBRANCH   3   6
ENDBRANCH   1   2
BRANCH   1  30
ATOM     30  C   UNL A   1      40.034  21.377  26.119  1.00  0.00     0.042 C 
BRANCH  30  31
ATOM     31  C   UNL A   1      40.586  22.322  27.176  1.00  0.00     0.118 C 
BRANCH  31  32
ATOM     32  N   UNL A   1      41.779  23.085  26.766  1.00  0.00    -0.352 N 
ATOM     33  C   UNL A   1      41.934  24.393  26.325  1.00  0.00     0.251 C 
ATOM     34  H   UNL A   1      42.619  22.574  26.814  1.00  0.00     0.163 HD
ATOM     35  O   UNL A   1      43.026  24.880  26.048  1.00  0.00    -0.269 OA
BRANCH  33  36
ATOM     36  C   UNL A   1      40.775  25.300  26.389  1.00  0.00     0.039 A 
ATOM     37  C   UNL A   1      41.094  26.616  26.038  1.00  0.00     0.014 A 
ATOM     38  C   UNL A   1      39.759  25.006  27.285  1.00  0.00     0.014 A 
ATOM     39  C   UNL A   1      40.716  27.629  26.899  1.00  0.00     0.010 A 
ATOM     40  C   UNL A   1      39.445  26.004  28.186  1.00  0.00     0.010 A 
ATOM     41  C   UNL A   1      40.027  27.274  28.055  1.00  0.00    -0.014 A 
BRANCH  41  42
ATOM     42  C   UNL A   1      39.970  28.151  29.216  1.00  0.00     0.031 A 
ATOM     43  C   UNL A   1      38.971  29.230  29.204  1.00  0.00     0.074 A 
ATOM     44  C   UNL A   1      40.847  28.063  30.243  1.00  0.00     0.049 A 
ATOM     45  N   UNL A   1      39.181  30.417  29.659  1.00  0.00    -0.248 NA
ATOM     46  C   UNL A   1      37.659  29.060  28.596  1.00  0.00     0.031 C 
ATOM     47  C   UNL A   1      40.807  28.823  31.493  1.00  0.00     0.029 A 
ATOM     48  N   UNL A   1      42.048  27.388  30.338  1.00  0.00    -0.354 N 
ATOM     49  C   UNL A   1      37.973  31.072  29.659  1.00  0.00     0.074 A 
ATOM     50  C   UNL A   1      37.078  30.217  28.916  1.00  0.00     0.031 C 
ATOM     51  C   UNL A   1      42.021  28.784  32.068  1.00  0.00     0.029 A 
ATOM     52  C   UNL A   1      42.921  28.101  31.159  1.00  0.00     0.049 A 
ATOM     53  H   UNL A   1      42.257  26.533  29.895  1.00  0.00     0.167 HD
ATOM     54  C   UNL A   1      37.814  32.194  30.414  1.00  0.00     0.034 A 
ATOM     55  C   UNL A   1      44.124  28.583  30.727  1.00  0.00     0.034 A 
ATOM     56  C   UNL A   1      39.043  32.530  31.133  1.00  0.00     0.049 A 
ATOM     57  C   UNL A   1      44.195  30.098  30.743  1.00  0.00     0.074 A 
ATOM     58  C   UNL A   1      39.457  32.272  32.430  1.00  0.00     0.029 A 
ATOM     59  N   UNL A   1      40.177  32.932  30.433  1.00  0.00    -0.354 N 
ATOM     60  N   UNL A   1      43.165  30.878  30.932  1.00  0.00    -0.248 NA
ATOM     61  C   UNL A   1      45.423  30.847  30.496  1.00  0.00     0.031 C 
ATOM     62  C   UNL A   1      40.862  32.454  32.487  1.00  0.00     0.029 A 
ATOM     63  C   UNL A   1      41.301  32.860  31.237  1.00  0.00     0.049 A 
ATOM     64  H   UNL A   1      40.178  33.227  29.494  1.00  0.00     0.167 HD
ATOM     65  C   UNL A   1      43.539  32.184  30.741  1.00  0.00     0.074 A 
ATOM     66  C   UNL A   1      44.975  32.113  30.536  1.00  0.00     0.031 C 
ATOM     67  C   UNL A   1      42.623  33.202  30.719  1.00  0.00     0.034 A 
BRANCH  54  68
ATOM     68  C   UNL A   1      36.453  32.753  30.765  1.00  0.00     0.023 A 
ATOM     69  C   UNL A   1      35.725  33.451  29.783  1.00  0.00     0.031 A 
ATOM     70  C   UNL A   1      35.846  32.691  32.035  1.00  0.00     0.131 A 
ATOM     71  C   UNL A   1      34.542  34.141  30.101  1.00  0.00     0.055 A 
ATOM     72  C   UNL A   1      34.713  33.441  32.374  1.00  0.00     0.041 A 
ATOM     73  F   UNL A   1      36.289  31.856  32.986  1.00  0.00    -0.206 F 
ATOM     74  C   UNL A   1      34.060  34.186  31.406  1.00  0.00     0.022 A 
BRANCH  71  75
ATOM     75  S   UNL A   1      33.623  34.963  28.773  1.00  0.00     0.124 S 
ATOM     76  O   UNL A   1      33.200  33.838  27.946  1.00  0.00    -0.237 OA
ATOM     77  O   UNL A   1      32.572  35.655  29.510  1.00  0.00    -0.237 OA
ATOM     78  O   UNL A   1      34.623  35.837  28.161  1.00  0.00    -0.744 OA
ENDBRANCH  71  75
ENDBRANCH  54  68
BRANCH  55  79
ATOM     79  C   UNL A   1      44.779  27.719  29.708  1.00  0.00     0.023 A 
ATOM     80  C   UNL A   1      44.697  28.139  28.366  1.00  0.00     0.031 A 
ATOM     81  C   UNL A   1      45.793  26.818  30.061  1.00  0.00     0.131 A 
ATOM     82  C   UNL A   1      45.723  27.814  27.468  1.00  0.00     0.055 A 
ATOM     83  C   UNL A   1      46.781  26.449  29.142  1.00  0.00     0.041 A 
ATOM     84  F   UNL A   1      45.931  26.404  31.328  1.00  0.00    -0.206 F 
ATOM     85  C   UNL A   1      46.781  26.991  27.858  1.00  0.00     0.022 A 
BRANCH  82  86
ATOM     86  S   UNL A   1      45.838  28.727  25.904  1.00  0.00     0.124 S 
ATOM     87  O   UNL A   1      45.245  30.017  26.255  1.00  0.00    -0.237 OA
ATOM     88  O   UNL A   1      47.268  28.727  25.639  1.00  0.00    -0.237 OA
ATOM     89  O   UNL A   1      45.062  27.902  24.980  1.00  0.00    -0.744 OA
ENDBRANCH  82  86
ENDBRANCH  55  79
BRANCH  67  90
ATOM     90  C   UNL A   1      42.917  34.624  30.285  1.00  0.00     0.023 A 
ATOM     91  C   UNL A   1      42.691  35.092  28.982  1.00  0.00     0.031 A 
ATOM     92  C   UNL A   1      43.401  35.590  31.200  1.00  0.00     0.131 A 
ATOM     93  C   UNL A   1      43.058  36.392  28.595  1.00  0.00     0.055 A 
ATOM     94  C   UNL A   1      43.669  36.915  30.839  1.00  0.00     0.041 A 
ATOM     95  F   UNL A   1      43.634  35.291  32.486  1.00  0.00    -0.206 F 
ATOM     96  C   UNL A   1      43.526  37.318  29.520  1.00  0.00     0.022 A 
BRANCH  93  97
ATOM     97  S   UNL A   1      43.018  36.796  26.829  1.00  0.00     0.124 S 
ATOM     98  O   UNL A   1      41.912  37.748  26.765  1.00  0.00    -0.237 OA
ATOM     99  O   UNL A   1      44.347  37.354  26.604  1.00  0.00    -0.237 OA
ATOM    100  O   UNL A   1      42.766  35.508  26.187  1.00  0.00    -0.744 OA
ENDBRANCH  93  97
ENDBRANCH  67  90
ENDBRANCH  41  42
ENDBRANCH  33  36
ENDBRANCH  31  32
ENDBRANCH  30  31
ENDBRANCH   1  30
TORSDOF 17
ENDMDL
MODEL 2
REMARK VINA RESULT:     -13.4      1.897      2.246
REMARK SMILES Cc1ccc(C(=O)NCCCNC(=O)c2ccc(-c3c4nc(c(-c5cc(S(=O)(=O)[O-])ccc5F)c5ccc([nH]5)c(-c5cc(S(=O)(=O)[O-])ccc5F)c5nc(c(-c6cc(S(=O)(=O)[O-])ccc6F)c6ccc3[nH]6)C=C5)C=C4)cc2)cc1CNC(=O)C[N@@H+]1CCC[C@]2(CCOC2)C1
REMARK SMILES IDX 9 1 8 2 6 3 7 4 5 6 1 7 2 8 3 9 79 10 4 11 78 12 80 13 81 14
REMARK SMILES IDX 82 15 83 17 84 18 85 19 86 20 94 21 87 23 89 24 88 25 90 26
REMARK SMILES IDX 93 27 91 28 92 29 10 30 11 31 12 32 13 33 14 35 15 36 16 37
REMARK SMILES IDX 77 38 17 39 76 40 18 41 19 42 20 43 70 44 21 45 75 46 69 47
REMARK SMILES IDX 71 48 22 49 74 50 68 51 67 52 23 54 55 55 35 56 54 57 36 58
REMARK SMILES IDX 39 59 53 60 72 61 37 62 38 63 52 65 73 66 40 67 24 68 25 69
REMARK SMILES IDX 33 70 26 71 32 72 34 73 31 74 27 75 28 76 29 77 30 78 56 79
REMARK SMILES IDX 57 80 65 81 58 82 64 83 66 84 63 85 59 86 60 87 61 88 62 89
REMARK SMILES IDX 41 90 42 91 50 92 43 93 49 94 51 95 48 96 44 97 45 98 46 99
REMARK SMILES IDX 47 100
REMARK H PARENT 8 5 81 16 85 22 12 34 71 53 39 64
REMARK Flexibility Score: inf
ROOT
ATOM      1  C   UNL A   1      38.764  21.715  26.004  1.00  0.00     0.118 C 
ENDROOT
BRANCH   1   2
ATOM      2  N   UNL A   1      38.015  22.959  25.993  1.00  0.00    -0.352 N 
ATOM      3  C   UNL A   1      36.683  23.164  25.702  1.00  0.00     0.251 C 
ATOM      4  O   UNL A   1      36.215  24.302  25.735  1.00  0.00    -0.269 OA
ATOM      5  H   UNL A   1      38.529  23.766  26.226  1.00  0.00     0.163 HD
BRANCH   3   6
ATOM      6  C   UNL A   1      35.816  22.050  25.223  1.00  0.00     0.040 A 
ATOM      7  C   UNL A   1      33.349  18.567  24.552  1.00  0.00     0.044 C 
ATOM      8  C   UNL A   1      34.162  19.815  24.743  1.00  0.00    -0.046 A 
ATOM      9  C   UNL A   1      35.549  19.664  24.928  1.00  0.00     0.004 A 
ATOM     10  C   UNL A   1      33.617  21.113  24.696  1.00  0.00    -0.025 A 
ATOM     11  C   UNL A   1      36.361  20.766  25.195  1.00  0.00     0.014 A 
ATOM     12  C   UNL A   1      34.478  22.215  24.857  1.00  0.00     0.019 A 
BRANCH  10  13
ATOM     13  C   UNL A   1      32.138  21.419  24.619  1.00  0.00     0.152 C 
BRANCH  13  14
ATOM     14  N   UNL A   1      31.640  21.812  25.927  1.00  0.00    -0.347 N 
ATOM     15  C   UNL A   1      31.101  23.009  26.309  1.00  0.00     0.275 C 
ATOM     16  H   UNL A   1      31.700  21.127  26.631  1.00  0.00     0.164 HD
ATOM     17  O   UNL A   1      30.688  23.130  27.466  1.00  0.00    -0.268 OA
BRANCH  15  18
ATOM     18  C   UNL A   1      31.017  24.168  25.300  1.00  0.00     0.363 C 
BRANCH  18  19
ATOM     19  N   UNL A   1      32.113  25.108  25.526  1.00  0.00    -0.327 N 
ATOM     20  C   UNL A   1      31.698  26.317  26.231  1.00  0.00     0.262 C 
ATOM     21  C   UNL A   1      32.960  25.436  24.366  1.00  0.00     0.272 C 
ATOM     22  H   UNL A   1      32.724  24.564  26.137  1.00  0.00     0.348 HD
ATOM     23  C   UNL A   1      31.041  27.357  25.338  1.00  0.00     0.062 C 
ATOM     24  C   UNL A   1      32.495  26.604  23.448  1.00  0.00     0.045 C 
ATOM     25  C   UNL A   1      32.046  27.808  24.287  1.00  0.00     0.021 C 
ATOM     26  C   UNL A   1      31.400  26.172  22.472  1.00  0.00     0.043 C 
ATOM     27  C   UNL A   1      33.626  26.999  22.499  1.00  0.00     0.173 C 
ATOM     28  C   UNL A   1      32.120  25.869  21.173  1.00  0.00     0.161 C 
ATOM     29  O   UNL A   1      33.511  26.122  21.369  1.00  0.00    -0.381 OA
ENDBRANCH  18  19
ENDBRANCH  15  18
ENDBRANCH  13  14
ENDBRANCH  10  13
ENDBRANCH   3   6
ENDBRANCH   1   2
BRANCH   1  30
ATOM     30  C   UNL A   1      40.094  21.764  26.725  1.00  0.00     0.042 C 
BRANCH  30  31
ATOM     31  C   UNL A   1      40.400  23.096  27.395  1.00  0.00     0.118 C 
BRANCH  31  32
ATOM     32  N   UNL A   1      41.659  23.734  26.968  1.00  0.00    -0.352 N 
ATOM     33  C   UNL A   1      41.927  24.989  26.438  1.00  0.00     0.251 C 
ATOM     34  H   UNL A   1      42.455  23.165  27.079  1.00  0.00     0.163 HD
ATOM     35  O   UNL A   1      43.060  25.369  26.160  1.00  0.00    -0.269 OA
BRANCH  33  36
ATOM     36  C   UNL A   1      40.841  25.984  26.400  1.00  0.00     0.039 A 
ATOM     37  C   UNL A   1      41.262  27.231  25.926  1.00  0.00     0.014 A 
ATOM     38  C   UNL A   1      39.802  25.858  27.309  1.00  0.00     0.014 A 
ATOM     39  C   UNL A   1      40.959  28.349  26.680  1.00  0.00     0.010 A 
ATOM     40  C   UNL A   1      39.563  26.961  28.105  1.00  0.00     0.010 A 
ATOM     41  C   UNL A   1      40.242  28.163  27.857  1.00  0.00    -0.014 A 
BRANCH  41  42
ATOM     42  C   UNL A   1      40.248  29.151  28.927  1.00  0.00     0.031 A 
ATOM     43  C   UNL A   1      39.134  30.111  28.972  1.00  0.00     0.074 A 
ATOM     44  C   UNL A   1      41.269  29.270  29.807  1.00  0.00     0.049 A 
ATOM     45  N   UNL A   1      39.263  31.356  29.276  1.00  0.00    -0.248 NA
ATOM     46  C   UNL A   1      37.778  29.738  28.595  1.00  0.00     0.031 C 
ATOM     47  C   UNL A   1      41.319  30.154  30.972  1.00  0.00     0.029 A 
ATOM     48  N   UNL A   1      42.544  28.740  29.775  1.00  0.00    -0.354 N 
ATOM     49  C   UNL A   1      37.997  31.876  29.404  1.00  0.00     0.074 A 
ATOM     50  C   UNL A   1      37.114  30.855  28.894  1.00  0.00     0.031 C 
ATOM     51  C   UNL A   1      42.599  30.308  31.351  1.00  0.00     0.029 A 
ATOM     52  C   UNL A   1      43.433  29.627  30.379  1.00  0.00     0.049 A 
ATOM     53  H   UNL A   1      42.788  27.868  29.385  1.00  0.00     0.167 HD
ATOM     54  C   UNL A   1      37.815  33.051  30.068  1.00  0.00     0.034 A 
ATOM     55  C   UNL A   1      44.494  30.183  29.721  1.00  0.00     0.034 A 
ATOM     56  C   UNL A   1      39.086  33.592  30.551  1.00  0.00     0.049 A 
ATOM     57  C   UNL A   1      44.382  31.689  29.585  1.00  0.00     0.074 A 
ATOM     58  C   UNL A   1      39.712  33.523  31.786  1.00  0.00     0.029 A 
ATOM     59  N   UNL A   1      40.049  34.032  29.648  1.00  0.00    -0.354 N 
ATOM     60  N   UNL A   1      43.305  32.373  29.860  1.00  0.00    -0.248 NA
ATOM     61  C   UNL A   1      45.462  32.532  29.080  1.00  0.00     0.031 C 
ATOM     62  C   UNL A   1      41.078  33.858  31.604  1.00  0.00     0.029 A 
ATOM     63  C   UNL A   1      41.278  34.168  30.269  1.00  0.00     0.049 A 
ATOM     64  H   UNL A   1      39.878  34.221  28.697  1.00  0.00     0.167 HD
ATOM     65  C   UNL A   1      43.486  33.682  29.493  1.00  0.00     0.074 A 
ATOM     66  C   UNL A   1      44.875  33.740  29.073  1.00  0.00     0.031 C 
ATOM     67  C   UNL A   1      42.460  34.589  29.520  1.00  0.00     0.034 A 
BRANCH  54  68
ATOM     68  C   UNL A   1      36.463  33.499  30.575  1.00  0.00     0.023 A 
ATOM     69  C   UNL A   1      35.587  34.164  29.695  1.00  0.00     0.031 A 
ATOM     70  C   UNL A   1      35.997  33.362  31.898  1.00  0.00     0.131 A 
ATOM     71  C   UNL A   1      34.398  34.757  30.155  1.00  0.00     0.055 A 
ATOM     72  C   UNL A   1      34.855  34.016  32.375  1.00  0.00     0.041 A 
ATOM     73  F   UNL A   1      36.596  32.539  32.771  1.00  0.00    -0.206 F 
ATOM     74  C   UNL A   1      34.053  34.734  31.503  1.00  0.00     0.022 A 
BRANCH  71  75
ATOM     75  S   UNL A   1      33.289  35.540  28.955  1.00  0.00     0.124 S 
ATOM     76  O   UNL A   1      32.681  34.389  28.296  1.00  0.00    -0.237 OA
ATOM     77  O   UNL A   1      32.414  36.329  29.816  1.00  0.00    -0.237 OA
ATOM     78  O   UNL A   1      34.196  36.323  28.117  1.00  0.00    -0.744 OA
ENDBRANCH  71  75
ENDBRANCH  54  68
BRANCH  55  79
ATOM     79  C   UNL A   1      45.093  29.286  28.696  1.00  0.00     0.023 A 
ATOM     80  C   UNL A   1      45.878  28.214  29.164  1.00  0.00     0.031 A 
ATOM     81  C   UNL A   1      44.563  29.204  27.401  1.00  0.00     0.131 A 
ATOM     82  C   UNL A   1      45.950  27.026  28.424  1.00  0.00     0.055 A 
ATOM     83  C   UNL A   1      44.691  28.037  26.641  1.00  0.00     0.041 A 
ATOM     84  F   UNL A   1      43.791  30.186  26.915  1.00  0.00    -0.206 F 
ATOM     85  C   UNL A   1      45.337  26.923  27.174  1.00  0.00     0.022 A 
BRANCH  82  86
ATOM     86  S   UNL A   1      46.567  25.525  29.237  1.00  0.00     0.124 S 
ATOM     87  O   UNL A   1      45.908  24.466  28.473  1.00  0.00    -0.237 OA
ATOM     88  O   UNL A   1      48.007  25.640  29.068  1.00  0.00    -0.237 OA
ATOM     89  O   UNL A   1      46.117  25.686  30.618  1.00  0.00    -0.744 OA
ENDBRANCH  82  86
ENDBRANCH  55  79
BRANCH  67  90
ATOM     90  C   UNL A   1      42.514  35.978  28.915  1.00  0.00     0.023 A 
ATOM     91  C   UNL A   1      43.147  37.062  29.539  1.00  0.00     0.031 A 
ATOM     92  C   UNL A   1      41.961  36.249  27.641  1.00  0.00     0.131 A 
ATOM     93  C   UNL A   1      43.101  38.355  28.988  1.00  0.00     0.055 A 
ATOM     94  C   UNL A   1      42.007  37.514  27.044  1.00  0.00     0.041 A 
ATOM     95  F   UNL A   1      41.353  35.299  26.917  1.00  0.00    -0.206 F 
ATOM     96  C   UNL A   1      42.554  38.587  27.731  1.00  0.00     0.022 A 
BRANCH  93  97
ATOM     97  S   UNL A   1      43.669  39.736  30.013  1.00  0.00     0.124 S 
ATOM     98  O   UNL A   1      44.404  40.545  29.044  1.00  0.00    -0.237 OA
ATOM     99  O   UNL A   1      42.415  40.308  30.493  1.00  0.00    -0.237 OA
ATOM    100  O   UNL A   1      44.491  39.092  31.035  1.00  0.00    -0.744 OA
ENDBRANCH  93  97
ENDBRANCH  67  90
ENDBRANCH  41  42
ENDBRANCH  33  36
ENDBRANCH  31  32
ENDBRANCH  30  31
ENDBRANCH   1  30
TORSDOF 17
ENDMDL
MODEL 3
REMARK VINA RESULT:     -13.0      4.314     10.428
REMARK SMILES Cc1ccc(C(=O)NCCCNC(=O)c2ccc(-c3c4nc(c(-c5cc(S(=O)(=O)[O-])ccc5F)c5ccc([nH]5)c(-c5cc(S(=O)(=O)[O-])ccc5F)c5nc(c(-c6cc(S(=O)(=O)[O-])ccc6F)c6ccc3[nH]6)C=C5)C=C4)cc2)cc1CNC(=O)C[N@@H+]1CCC[C@]2(CCOC2)C1
REMARK SMILES IDX 9 1 8 2 6 3 7 4 5 6 1 7 2 8 3 9 79 10 4 11 78 12 80 13 81 14
REMARK SMILES IDX 82 15 83 17 84 18 85 19 86 20 94 21 87 23 89 24 88 25 90 26
REMARK SMILES IDX 93 27 91 28 92 29 10 30 11 31 12 32 13 33 14 35 15 36 16 37
REMARK SMILES IDX 77 38 17 39 76 40 18 41 19 42 20 43 70 44 21 45 75 46 69 47
REMARK SMILES IDX 71 48 22 49 74 50 68 51 67 52 23 54 55 55 35 56 54 57 36 58
REMARK SMILES IDX 39 59 53 60 72 61 37 62 38 63 52 65 73 66 40 67 24 68 25 69
REMARK SMILES IDX 33 70 26 71 32 72 34 73 31 74 27 75 28 76 29 77 30 78 56 79
REMARK SMILES IDX 57 80 65 81 58 82 64 83 66 84 63 85 59 86 60 87 61 88 62 89
REMARK SMILES IDX 41 90 42 91 50 92 43 93 49 94 51 95 48 96 44 97 45 98 46 99
REMARK SMILES IDX 47 100
REMARK H PARENT 8 5 81 16 85 22 12 34 71 53 39 64
REMARK Flexibility Score: inf
ROOT
ATOM      1  C   UNL A   1      34.024  35.558  31.628  1.00  0.00     0.118 C 
ENDROOT
BRANCH   1   2
ATOM      2  N   UNL A   1      33.143  36.077  30.598  1.00  0.00    -0.352 N 
ATOM      3  C   UNL A   1      32.965  35.632  29.306  1.00  0.00     0.251 C 
ATOM      4  O   UNL A   1      32.170  36.205  28.562  1.00  0.00    -0.269 OA
ATOM      5  H   UNL A   1      32.596  36.853  30.860  1.00  0.00     0.163 HD
BRANCH   3   6
ATOM      6  C   UNL A   1      33.808  34.539  28.742  1.00  0.00     0.040 A 
ATOM      7  C   UNL A   1      36.510  31.297  27.818  1.00  0.00     0.044 C 
ATOM      8  C   UNL A   1      35.523  32.394  28.095  1.00  0.00    -0.046 A 
ATOM      9  C   UNL A   1      36.037  33.673  28.378  1.00  0.00     0.004 A 
ATOM     10  C   UNL A   1      34.127  32.217  28.036  1.00  0.00    -0.025 A 
ATOM     11  C   UNL A   1      35.190  34.726  28.727  1.00  0.00     0.014 A 
ATOM     12  C   UNL A   1      33.294  33.325  28.283  1.00  0.00     0.019 A 
BRANCH  10  13
ATOM     13  C   UNL A   1      33.439  30.882  27.858  1.00  0.00     0.152 C 
BRANCH  13  14
ATOM     14  N   UNL A   1      32.304  31.021  26.959  1.00  0.00    -0.347 N 
ATOM     15  C   UNL A   1      32.046  30.341  25.802  1.00  0.00     0.275 C 
ATOM     16  H   UNL A   1      31.634  31.692  27.218  1.00  0.00     0.164 HD
ATOM     17  O   UNL A   1      30.992  30.572  25.202  1.00  0.00    -0.268 OA
BRANCH  15  18
ATOM     18  C   UNL A   1      33.061  29.310  25.276  1.00  0.00     0.363 C 
BRANCH  18  19
ATOM     19  N   UNL A   1      32.678  27.967  25.707  1.00  0.00    -0.327 N 
ATOM     20  C   UNL A   1      33.639  26.940  25.313  1.00  0.00     0.262 C 
ATOM     21  C   UNL A   1      31.299  27.541  25.415  1.00  0.00     0.272 C 
ATOM     22  H   UNL A   1      32.700  28.065  26.723  1.00  0.00     0.348 HD
ATOM     23  C   UNL A   1      33.491  26.479  23.872  1.00  0.00     0.062 C 
ATOM     24  C   UNL A   1      31.029  26.890  24.026  1.00  0.00     0.045 C 
ATOM     25  C   UNL A   1      32.114  25.856  23.693  1.00  0.00     0.021 C 
ATOM     26  C   UNL A   1      30.898  27.930  22.914  1.00  0.00     0.043 C 
ATOM     27  C   UNL A   1      29.645  26.242  24.018  1.00  0.00     0.173 C 
ATOM     28  C   UNL A   1      29.408  28.143  22.740  1.00  0.00     0.161 C 
ATOM     29  O   UNL A   1      28.729  27.285  23.657  1.00  0.00    -0.381 OA
ENDBRANCH  18  19
ENDBRANCH  15  18
ENDBRANCH  13  14
ENDBRANCH  10  13
ENDBRANCH   3   6
ENDBRANCH   1   2
BRANCH   1  30
ATOM     30  C   UNL A   1      33.396  34.564  32.582  1.00  0.00     0.042 C 
BRANCH  30  31
ATOM     31  C   UNL A   1      34.388  33.640  33.274  1.00  0.00     0.118 C 
BRANCH  31  32
ATOM     32  N   UNL A   1      35.631  34.289  33.729  1.00  0.00    -0.352 N 
ATOM     33  C   UNL A   1      36.919  34.289  33.210  1.00  0.00     0.251 C 
ATOM     34  H   UNL A   1      35.529  34.819  34.553  1.00  0.00     0.163 HD
ATOM     35  O   UNL A   1      37.843  34.919  33.715  1.00  0.00    -0.269 OA
BRANCH  33  36
ATOM     36  C   UNL A   1      37.145  33.682  31.886  1.00  0.00     0.039 A 
ATOM     37  C   UNL A   1      37.008  32.289  31.897  1.00  0.00     0.014 A 
ATOM     38  C   UNL A   1      37.994  34.329  31.003  1.00  0.00     0.014 A 
ATOM     39  C   UNL A   1      38.027  31.532  31.350  1.00  0.00     0.010 A 
ATOM     40  C   UNL A   1      39.049  33.578  30.525  1.00  0.00     0.010 A 
ATOM     41  C   UNL A   1      39.119  32.207  30.812  1.00  0.00    -0.014 A 
BRANCH  41  42
ATOM     42  C   UNL A   1      40.408  31.556  30.623  1.00  0.00     0.031 A 
ATOM     43  C   UNL A   1      40.429  30.298  29.861  1.00  0.00     0.074 A 
ATOM     44  C   UNL A   1      41.548  32.013  31.189  1.00  0.00     0.049 A 
ATOM     45  N   UNL A   1      41.169  29.285  30.156  1.00  0.00    -0.248 NA
ATOM     46  C   UNL A   1      39.541  30.064  28.732  1.00  0.00     0.031 C 
ATOM     47  C   UNL A   1      42.900  31.495  30.975  1.00  0.00     0.029 A 
ATOM     48  N   UNL A   1      41.738  32.944  32.193  1.00  0.00    -0.354 N 
ATOM     49  C   UNL A   1      41.064  28.389  29.119  1.00  0.00     0.074 A 
ATOM     50  C   UNL A   1      39.982  28.882  28.300  1.00  0.00     0.031 C 
ATOM     51  C   UNL A   1      43.691  31.900  31.982  1.00  0.00     0.029 A 
ATOM     52  C   UNL A   1      42.858  32.595  32.946  1.00  0.00     0.049 A 
ATOM     53  H   UNL A   1      41.169  33.732  32.352  1.00  0.00     0.167 HD
ATOM     54  C   UNL A   1      41.999  27.410  28.976  1.00  0.00     0.034 A 
ATOM     55  C   UNL A   1      42.803  32.323  34.283  1.00  0.00     0.034 A 
ATOM     56  C   UNL A   1      43.014  27.485  30.028  1.00  0.00     0.049 A 
ATOM     57  C   UNL A   1      43.168  30.888  34.611  1.00  0.00     0.074 A 
ATOM     58  C   UNL A   1      44.278  28.051  30.056  1.00  0.00     0.029 A 
ATOM     59  N   UNL A   1      42.669  27.227  31.352  1.00  0.00    -0.354 N 
ATOM     60  N   UNL A   1      43.308  29.945  33.719  1.00  0.00    -0.248 NA
ATOM     61  C   UNL A   1      43.352  30.398  35.973  1.00  0.00     0.031 C 
ATOM     62  C   UNL A   1      44.663  28.197  31.414  1.00  0.00     0.029 A 
ATOM     63  C   UNL A   1      43.652  27.685  32.212  1.00  0.00     0.049 A 
ATOM     64  H   UNL A   1      41.840  26.780  31.637  1.00  0.00     0.167 HD
ATOM     65  C   UNL A   1      43.493  28.742  34.350  1.00  0.00     0.074 A 
ATOM     66  C   UNL A   1      43.579  29.091  35.757  1.00  0.00     0.031 C 
ATOM     67  C   UNL A   1      43.508  27.558  33.659  1.00  0.00     0.034 A 
BRANCH  54  68
ATOM     68  C   UNL A   1      42.177  26.634  27.690  1.00  0.00     0.023 A 
ATOM     69  C   UNL A   1      41.898  25.254  27.679  1.00  0.00     0.031 A 
ATOM     70  C   UNL A   1      42.660  27.161  26.476  1.00  0.00     0.131 A 
ATOM     71  C   UNL A   1      42.213  24.453  26.566  1.00  0.00     0.055 A 
ATOM     72  C   UNL A   1      43.047  26.357  25.397  1.00  0.00     0.041 A 
ATOM     73  F   UNL A   1      42.724  28.483  26.260  1.00  0.00    -0.206 F 
ATOM     74  C   UNL A   1      42.838  24.988  25.444  1.00  0.00     0.022 A 
BRANCH  71  75
ATOM     75  S   UNL A   1      41.768  22.697  26.598  1.00  0.00     0.124 S 
ATOM     76  O   UNL A   1      42.333  22.256  27.869  1.00  0.00    -0.237 OA
ATOM     77  O   UNL A   1      40.311  22.749  26.522  1.00  0.00    -0.237 OA
ATOM     78  O   UNL A   1      42.427  22.159  25.410  1.00  0.00    -0.744 OA
ENDBRANCH  71  75
ENDBRANCH  54  68
BRANCH  55  79
ATOM     79  C   UNL A   1      41.776  33.118  35.009  1.00  0.00     0.023 A 
ATOM     80  C   UNL A   1      40.452  32.638  34.973  1.00  0.00     0.031 A 
ATOM     81  C   UNL A   1      42.132  34.004  36.035  1.00  0.00     0.131 A 
ATOM     82  C   UNL A   1      39.587  32.889  36.047  1.00  0.00     0.055 A 
ATOM     83  C   UNL A   1      41.243  34.301  37.074  1.00  0.00     0.041 A 
ATOM     84  F   UNL A   1      43.384  34.473  36.130  1.00  0.00    -0.206 F 
ATOM     85  C   UNL A   1      39.987  33.699  37.113  1.00  0.00     0.022 A 
BRANCH  82  86
ATOM     86  S   UNL A   1      38.073  31.901  36.200  1.00  0.00     0.124 S 
ATOM     87  O   UNL A   1      38.075  31.137  34.953  1.00  0.00    -0.237 OA
ATOM     88  O   UNL A   1      38.310  31.143  37.419  1.00  0.00    -0.237 OA
ATOM     89  O   UNL A   1      37.027  32.913  36.324  1.00  0.00    -0.744 OA
ENDBRANCH  82  86
ENDBRANCH  55  79
BRANCH  67  90
ATOM     90  C   UNL A   1      43.470  26.183  34.296  1.00  0.00     0.023 A 
ATOM     91  C   UNL A   1      44.610  25.384  34.466  1.00  0.00     0.031 A 
ATOM     92  C   UNL A   1      42.267  25.639  34.807  1.00  0.00     0.131 A 
ATOM     93  C   UNL A   1      44.521  24.079  34.981  1.00  0.00     0.055 A 
ATOM     94  C   UNL A   1      42.197  24.381  35.415  1.00  0.00     0.041 A 
ATOM     95  F   UNL A   1      41.105  26.305  34.741  1.00  0.00    -0.206 F 
ATOM     96  C   UNL A   1      43.324  23.577  35.479  1.00  0.00     0.022 A 
BRANCH  93  97
ATOM     97  S   UNL A   1      45.987  23.021  34.869  1.00  0.00     0.124 S 
ATOM     98  O   UNL A   1      45.439  21.814  34.256  1.00  0.00    -0.237 OA
ATOM     99  O   UNL A   1      46.880  23.809  34.025  1.00  0.00    -0.237 OA
ATOM    100  O   UNL A   1      46.412  22.873  36.259  1.00  0.00    -0.744 OA
ENDBRANCH  93  97
ENDBRANCH  67  90
ENDBRANCH  41  42
ENDBRANCH  33  36
ENDBRANCH  31  32
ENDBRANCH  30  31
ENDBRANCH   1  30
TORSDOF 17
ENDMDL
