MODEL 1
REMARK VINA RESULT:     -12.5      0.000      0.000
REMARK SMILES O=C(NCCCNC(=O)c1ccnc(Oc2cccc(C(F)(F)F)c2)c1)c1ccc(-c2c3nc(c(-c4cc(S(=O)(=O)[O-])ccc4F)c4ccc([nH]4)c(-c4cc(S(=O)(=O)[O-])ccc4F)c4nc(c(-c5cc(S(=O)(=O)[O-])ccc5F)c5ccc2[nH]5)C=C4)C=C3)cc1
REMARK SMILES IDX 5 1 4 2 3 3 1 4 2 5 27 7 28 8 89 9 29 10 88 11 30 12 31 13
REMARK SMILES IDX 32 14 82 15 33 16 87 17 81 18 83 19 34 20 86 21 80 22 79 23
REMARK SMILES IDX 35 25 67 26 47 27 66 28 48 29 51 30 65 31 84 32 49 33 50 34
REMARK SMILES IDX 64 36 85 37 52 38 36 39 37 40 45 41 38 42 44 43 46 44 43 45
REMARK SMILES IDX 39 46 40 47 41 48 42 49 68 50 69 51 77 52 70 53 76 54 78 55
REMARK SMILES IDX 75 56 71 57 72 58 73 59 74 60 53 61 54 62 62 63 55 64 61 65
REMARK SMILES IDX 63 66 60 67 56 68 57 69 58 70 59 71 6 72 7 73 8 74 9 76
REMARK SMILES IDX 10 77 11 78 26 79 12 80 14 81 13 82 15 83 16 84 17 85 25 86
REMARK SMILES IDX 18 87 20 88 19 89 21 90 22 91 23 92 24 93
REMARK H PARENT 3 6 83 24 51 35 7 75
REMARK Flexibility Score: inf
ROOT
ATOM      1  C   UNL A   1      35.636  21.981  26.208  1.00  0.00     0.042 C 
ENDROOT
BRANCH   1   2
ATOM      2  C   UNL A   1      36.891  22.193  25.371  1.00  0.00     0.118 C 
BRANCH   2   3
ATOM      3  N   UNL A   1      37.932  21.207  25.635  1.00  0.00    -0.352 N 
ATOM      4  O   UNL A   1      39.967  20.382  26.107  1.00  0.00    -0.269 OA
ATOM      5  C   UNL A   1      39.208  21.349  26.128  1.00  0.00     0.251 C 
ATOM      6  H   UNL A   1      37.677  20.279  25.424  1.00  0.00     0.163 HD
BRANCH   5   7
ATOM      7  C   UNL A   1      39.681  22.648  26.657  1.00  0.00     0.039 A 
ATOM      8  C   UNL A   1      39.169  23.853  26.177  1.00  0.00     0.014 A 
ATOM      9  C   UNL A   1      40.643  22.663  27.674  1.00  0.00     0.014 A 
ATOM     10  C   UNL A   1      39.745  25.056  26.566  1.00  0.00     0.010 A 
ATOM     11  C   UNL A   1      41.146  23.881  28.143  1.00  0.00     0.010 A 
ATOM     12  C   UNL A   1      40.740  25.090  27.557  1.00  0.00    -0.014 A 
BRANCH  12  13
ATOM     13  C   UNL A   1      41.321  26.400  27.960  1.00  0.00     0.031 A 
ATOM     14  C   UNL A   1      42.723  26.780  27.564  1.00  0.00     0.074 A 
ATOM     15  C   UNL A   1      40.554  27.273  28.645  1.00  0.00     0.049 A 
ATOM     16  N   UNL A   1      43.374  27.895  27.790  1.00  0.00    -0.248 NA
ATOM     17  C   UNL A   1      43.504  25.773  26.833  1.00  0.00     0.031 C 
ATOM     18  C   UNL A   1      39.182  27.017  29.090  1.00  0.00     0.029 A 
ATOM     19  N   UNL A   1      40.801  28.556  29.061  1.00  0.00    -0.354 N 
ATOM     20  C   UNL A   1      44.644  27.715  27.252  1.00  0.00     0.074 A 
ATOM     21  C   UNL A   1      44.682  26.368  26.723  1.00  0.00     0.031 C 
ATOM     22  C   UNL A   1      38.689  28.128  29.657  1.00  0.00     0.029 A 
ATOM     23  C   UNL A   1      39.727  29.150  29.681  1.00  0.00     0.049 A 
ATOM     24  H   UNL A   1      41.666  29.008  28.928  1.00  0.00     0.167 HD
ATOM     25  C   UNL A   1      45.677  28.594  27.195  1.00  0.00     0.034 A 
ATOM     26  C   UNL A   1      39.592  30.377  30.219  1.00  0.00     0.034 A 
ATOM     27  C   UNL A   1      45.616  29.942  27.716  1.00  0.00     0.049 A 
ATOM     28  C   UNL A   1      40.758  31.327  30.164  1.00  0.00     0.074 A 
ATOM     29  C   UNL A   1      46.589  30.926  27.678  1.00  0.00     0.029 A 
ATOM     30  N   UNL A   1      44.525  30.494  28.375  1.00  0.00    -0.354 N 
ATOM     31  N   UNL A   1      41.947  31.146  29.634  1.00  0.00    -0.248 NA
ATOM     32  C   UNL A   1      40.563  32.646  30.775  1.00  0.00     0.031 C 
ATOM     33  C   UNL A   1      46.114  32.045  28.373  1.00  0.00     0.029 A 
ATOM     34  C   UNL A   1      44.812  31.791  28.776  1.00  0.00     0.049 A 
ATOM     35  H   UNL A   1      43.671  30.031  28.536  1.00  0.00     0.167 HD
ATOM     36  C   UNL A   1      42.630  32.344  29.823  1.00  0.00     0.074 A 
ATOM     37  C   UNL A   1      41.715  33.240  30.500  1.00  0.00     0.031 C 
ATOM     38  C   UNL A   1      43.897  32.673  29.463  1.00  0.00     0.034 A 
BRANCH  25  39
ATOM     39  C   UNL A   1      46.976  28.105  26.596  1.00  0.00     0.023 A 
ATOM     40  C   UNL A   1      47.231  28.170  25.214  1.00  0.00     0.031 A 
ATOM     41  C   UNL A   1      47.964  27.531  27.417  1.00  0.00     0.131 A 
ATOM     42  C   UNL A   1      48.401  27.598  24.688  1.00  0.00     0.055 A 
ATOM     43  C   UNL A   1      49.164  27.041  26.898  1.00  0.00     0.041 A 
ATOM     44  F   UNL A   1      47.773  27.422  28.741  1.00  0.00    -0.206 F 
ATOM     45  C   UNL A   1      49.381  27.056  25.523  1.00  0.00     0.022 A 
BRANCH  42  46
ATOM     46  S   UNL A   1      48.550  27.428  22.887  1.00  0.00     0.124 S 
ATOM     47  O   UNL A   1      47.400  28.200  22.421  1.00  0.00    -0.237 OA
ATOM     48  O   UNL A   1      49.860  28.011  22.623  1.00  0.00    -0.237 OA
ATOM     49  O   UNL A   1      48.451  25.986  22.670  1.00  0.00    -0.744 OA
ENDBRANCH  42  46
ENDBRANCH  25  39
BRANCH  26  50
ATOM     50  C   UNL A   1      38.311  30.777  30.866  1.00  0.00     0.023 A 
ATOM     51  C   UNL A   1      37.327  31.480  30.154  1.00  0.00     0.031 A 
ATOM     52  C   UNL A   1      38.061  30.478  32.218  1.00  0.00     0.131 A 
ATOM     53  C   UNL A   1      36.157  31.897  30.807  1.00  0.00     0.055 A 
ATOM     54  C   UNL A   1      36.873  30.849  32.849  1.00  0.00     0.041 A 
ATOM     55  F   UNL A   1      38.968  29.803  32.943  1.00  0.00    -0.206 F 
ATOM     56  C   UNL A   1      35.917  31.574  32.144  1.00  0.00     0.022 A 
BRANCH  53  57
ATOM     57  S   UNL A   1      34.979  32.935  29.898  1.00  0.00     0.124 S 
ATOM     58  O   UNL A   1      34.363  31.967  28.999  1.00  0.00    -0.237 OA
ATOM     59  O   UNL A   1      34.134  33.445  30.972  1.00  0.00    -0.237 OA
ATOM     60  O   UNL A   1      35.832  33.932  29.254  1.00  0.00    -0.744 OA
ENDBRANCH  53  57
ENDBRANCH  26  50
BRANCH  38  61
ATOM     61  C   UNL A   1      44.339  34.087  29.754  1.00  0.00     0.023 A 
ATOM     62  C   UNL A   1      44.108  35.139  28.849  1.00  0.00     0.031 A 
ATOM     63  C   UNL A   1      45.036  34.377  30.940  1.00  0.00     0.131 A 
ATOM     64  C   UNL A   1      44.628  36.415  29.114  1.00  0.00     0.055 A 
ATOM     65  C   UNL A   1      45.496  35.663  31.228  1.00  0.00     0.041 A 
ATOM     66  F   UNL A   1      45.288  33.411  31.838  1.00  0.00    -0.206 F 
ATOM     67  C   UNL A   1      45.307  36.687  30.304  1.00  0.00     0.022 A 
BRANCH  64  68
ATOM     68  S   UNL A   1      44.502  37.691  27.830  1.00  0.00     0.124 S 
ATOM     69  O   UNL A   1      43.402  37.192  27.011  1.00  0.00    -0.237 OA
ATOM     70  O   UNL A   1      44.223  38.892  28.611  1.00  0.00    -0.237 OA
ATOM     71  O   UNL A   1      45.816  37.661  27.188  1.00  0.00    -0.744 OA
ENDBRANCH  64  68
ENDBRANCH  38  61
ENDBRANCH  12  13
ENDBRANCH   5   7
ENDBRANCH   2   3
ENDBRANCH   1   2
BRANCH   1  72
ATOM     72  C   UNL A   1      34.606  21.059  25.570  1.00  0.00     0.118 C 
BRANCH  72  73
ATOM     73  N   UNL A   1      34.124  21.553  24.287  1.00  0.00    -0.352 N 
ATOM     74  C   UNL A   1      33.013  22.298  23.987  1.00  0.00     0.251 C 
ATOM     75  H   UNL A   1      34.684  21.314  23.514  1.00  0.00     0.163 HD
ATOM     76  O   UNL A   1      32.690  22.489  22.817  1.00  0.00    -0.269 OA
BRANCH  74  77
ATOM     77  C   UNL A   1      32.182  22.863  25.065  1.00  0.00     0.046 A 
ATOM     78  C   UNL A   1      31.120  22.146  25.602  1.00  0.00     0.034 A 
ATOM     79  C   UNL A   1      32.508  24.126  25.559  1.00  0.00     0.082 A 
ATOM     80  C   UNL A   1      30.363  22.771  26.568  1.00  0.00     0.116 A 
ATOM     81  C   UNL A   1      31.678  24.684  26.518  1.00  0.00     0.219 A 
ATOM     82  N   UNL A   1      30.614  24.016  27.024  1.00  0.00    -0.222 NA
BRANCH  81  83
ATOM     83  O   UNL A   1      31.826  25.939  27.068  1.00  0.00    -0.439 OA
BRANCH  83  84
ATOM     84  C   UNL A   1      32.099  27.012  26.261  1.00  0.00     0.130 A 
ATOM     85  C   UNL A   1      33.371  27.575  26.361  1.00  0.00     0.047 A 
ATOM     86  C   UNL A   1      31.131  27.592  25.437  1.00  0.00     0.060 A 
ATOM     87  C   UNL A   1      33.700  28.689  25.591  1.00  0.00     0.004 A 
ATOM     88  C   UNL A   1      31.465  28.689  24.628  1.00  0.00     0.059 A 
ATOM     89  C   UNL A   1      32.757  29.235  24.720  1.00  0.00     0.013 A 
BRANCH  88  90
ATOM     90  C   UNL A   1      30.468  29.277  23.659  1.00  0.00     0.416 C 
ATOM     91  F   UNL A   1      31.003  29.489  22.426  1.00  0.00    -0.166 F 
ATOM     92  F   UNL A   1      29.398  28.454  23.466  1.00  0.00    -0.166 F 
ATOM     93  F   UNL A   1      29.951  30.469  24.064  1.00  0.00    -0.166 F 
ENDBRANCH  88  90
ENDBRANCH  83  84
ENDBRANCH  81  83
ENDBRANCH  74  77
ENDBRANCH  72  73
ENDBRANCH   1  72
TORSDOF 16
ENDMDL
MODEL 2
REMARK VINA RESULT:     -12.3      5.342     10.232
REMARK SMILES O=C(NCCCNC(=O)c1ccnc(Oc2cccc(C(F)(F)F)c2)c1)c1ccc(-c2c3nc(c(-c4cc(S(=O)(=O)[O-])ccc4F)c4ccc([nH]4)c(-c4cc(S(=O)(=O)[O-])ccc4F)c4nc(c(-c5cc(S(=O)(=O)[O-])ccc5F)c5ccc2[nH]5)C=C4)C=C3)cc1
REMARK SMILES IDX 5 1 4 2 3 3 1 4 2 5 27 7 28 8 89 9 29 10 88 11 30 12 31 13
REMARK SMILES IDX 32 14 82 15 33 16 87 17 81 18 83 19 34 20 86 21 80 22 79 23
REMARK SMILES IDX 35 25 67 26 47 27 66 28 48 29 51 30 65 31 84 32 49 33 50 34
REMARK SMILES IDX 64 36 85 37 52 38 36 39 37 40 45 41 38 42 44 43 46 44 43 45
REMARK SMILES IDX 39 46 40 47 41 48 42 49 68 50 69 51 77 52 70 53 76 54 78 55
REMARK SMILES IDX 75 56 71 57 72 58 73 59 74 60 53 61 54 62 62 63 55 64 61 65
REMARK SMILES IDX 63 66 60 67 56 68 57 69 58 70 59 71 6 72 7 73 8 74 9 76
REMARK SMILES IDX 10 77 11 78 26 79 12 80 14 81 13 82 15 83 16 84 17 85 25 86
REMARK SMILES IDX 18 87 20 88 19 89 21 90 22 91 23 92 24 93
REMARK H PARENT 3 6 83 24 51 35 7 75
REMARK Flexibility Score: inf
ROOT
ATOM      1  C   UNL A   1      31.758  28.359  26.911  1.00  0.00     0.042 C 
ENDROOT
BRANCH   1   2
ATOM      2  C   UNL A   1      32.703  29.257  26.122  1.00  0.00     0.118 C 
BRANCH   2   3
ATOM      3  N   UNL A   1      32.504  30.677  26.389  1.00  0.00    -0.352 N 
ATOM      4  O   UNL A   1      32.745  32.677  27.382  1.00  0.00    -0.269 OA
ATOM      5  C   UNL A   1      33.205  31.554  27.183  1.00  0.00     0.251 C 
ATOM      6  H   UNL A   1      31.734  31.075  25.921  1.00  0.00     0.163 HD
BRANCH   5   7
ATOM      7  C   UNL A   1      34.485  31.157  27.812  1.00  0.00     0.039 A 
ATOM      8  C   UNL A   1      34.726  29.837  28.188  1.00  0.00     0.014 A 
ATOM      9  C   UNL A   1      35.478  32.124  28.010  1.00  0.00     0.014 A 
ATOM     10  C   UNL A   1      35.861  29.522  28.926  1.00  0.00     0.010 A 
ATOM     11  C   UNL A   1      36.670  31.782  28.658  1.00  0.00     0.010 A 
ATOM     12  C   UNL A   1      36.851  30.487  29.170  1.00  0.00    -0.014 A 
BRANCH  12  13
ATOM     13  C   UNL A   1      38.061  30.107  29.949  1.00  0.00     0.031 A 
ATOM     14  C   UNL A   1      38.257  30.591  31.362  1.00  0.00     0.074 A 
ATOM     15  C   UNL A   1      38.965  29.275  29.391  1.00  0.00     0.049 A 
ATOM     16  N   UNL A   1      39.226  30.324  32.202  1.00  0.00    -0.248 NA
ATOM     17  C   UNL A   1      37.240  31.507  31.897  1.00  0.00     0.031 C 
ATOM     18  C   UNL A   1      38.888  28.743  28.029  1.00  0.00     0.029 A 
ATOM     19  N   UNL A   1      40.103  28.707  29.903  1.00  0.00    -0.354 N 
ATOM     20  C   UNL A   1      38.951  31.055  33.353  1.00  0.00     0.074 A 
ATOM     21  C   UNL A   1      37.742  31.806  33.086  1.00  0.00     0.031 C 
ATOM     22  C   UNL A   1      39.894  27.878  27.836  1.00  0.00     0.029 A 
ATOM     23  C   UNL A   1      40.728  27.846  29.031  1.00  0.00     0.049 A 
ATOM     24  H   UNL A   1      40.440  28.897  30.809  1.00  0.00     0.167 HD
ATOM     25  C   UNL A   1      39.635  31.088  34.525  1.00  0.00     0.034 A 
ATOM     26  C   UNL A   1      41.853  27.119  29.170  1.00  0.00     0.034 A 
ATOM     27  C   UNL A   1      40.832  30.318  34.779  1.00  0.00     0.049 A 
ATOM     28  C   UNL A   1      42.606  27.189  30.471  1.00  0.00     0.074 A 
ATOM     29  C   UNL A   1      41.582  30.248  35.941  1.00  0.00     0.029 A 
ATOM     30  N   UNL A   1      41.460  29.491  33.857  1.00  0.00    -0.354 N 
ATOM     31  N   UNL A   1      42.321  27.872  31.556  1.00  0.00    -0.248 NA
ATOM     32  C   UNL A   1      43.831  26.386  30.567  1.00  0.00     0.031 C 
ATOM     33  C   UNL A   1      42.697  29.436  35.700  1.00  0.00     0.029 A 
ATOM     34  C   UNL A   1      42.602  28.932  34.412  1.00  0.00     0.049 A 
ATOM     35  H   UNL A   1      41.140  29.324  32.941  1.00  0.00     0.167 HD
ATOM     36  C   UNL A   1      43.317  27.554  32.474  1.00  0.00     0.074 A 
ATOM     37  C   UNL A   1      44.199  26.609  31.819  1.00  0.00     0.031 C 
ATOM     38  C   UNL A   1      43.484  28.001  33.746  1.00  0.00     0.034 A 
BRANCH  25  39
ATOM     39  C   UNL A   1      39.132  32.026  35.599  1.00  0.00     0.023 A 
ATOM     40  C   UNL A   1      39.568  33.360  35.689  1.00  0.00     0.031 A 
ATOM     41  C   UNL A   1      38.226  31.567  36.573  1.00  0.00     0.131 A 
ATOM     42  C   UNL A   1      39.164  34.160  36.772  1.00  0.00     0.055 A 
ATOM     43  C   UNL A   1      37.761  32.393  37.599  1.00  0.00     0.041 A 
ATOM     44  F   UNL A   1      37.787  30.298  36.554  1.00  0.00    -0.206 F 
ATOM     45  C   UNL A   1      38.245  33.693  37.713  1.00  0.00     0.022 A 
BRANCH  42  46
ATOM     46  S   UNL A   1      39.982  35.761  37.020  1.00  0.00     0.124 S 
ATOM     47  O   UNL A   1      39.639  36.463  35.784  1.00  0.00    -0.237 OA
ATOM     48  O   UNL A   1      39.344  36.255  38.233  1.00  0.00    -0.237 OA
ATOM     49  O   UNL A   1      41.393  35.407  37.153  1.00  0.00    -0.744 OA
ENDBRANCH  42  46
ENDBRANCH  25  39
BRANCH  26  50
ATOM     50  C   UNL A   1      42.342  26.270  28.047  1.00  0.00     0.023 A 
ATOM     51  C   UNL A   1      41.831  24.981  27.836  1.00  0.00     0.031 A 
ATOM     52  C   UNL A   1      43.349  26.732  27.180  1.00  0.00     0.131 A 
ATOM     53  C   UNL A   1      42.355  24.182  26.809  1.00  0.00     0.055 A 
ATOM     54  C   UNL A   1      43.829  25.954  26.126  1.00  0.00     0.041 A 
ATOM     55  F   UNL A   1      43.869  27.960  27.335  1.00  0.00    -0.206 F 
ATOM     56  C   UNL A   1      43.339  24.664  25.944  1.00  0.00     0.022 A 
BRANCH  53  57
ATOM     57  S   UNL A   1      41.779  22.468  26.663  1.00  0.00     0.124 S 
ATOM     58  O   UNL A   1      42.361  21.857  27.851  1.00  0.00    -0.237 OA
ATOM     59  O   UNL A   1      40.329  22.633  26.670  1.00  0.00    -0.237 OA
ATOM     60  O   UNL A   1      42.347  22.026  25.391  1.00  0.00    -0.744 OA
ENDBRANCH  53  57
ENDBRANCH  26  50
BRANCH  38  61
ATOM     61  C   UNL A   1      44.641  27.421  34.523  1.00  0.00     0.023 A 
ATOM     62  C   UNL A   1      44.537  26.196  35.207  1.00  0.00     0.031 A 
ATOM     63  C   UNL A   1      45.854  28.126  34.609  1.00  0.00     0.131 A 
ATOM     64  C   UNL A   1      45.605  25.747  36.000  1.00  0.00     0.055 A 
ATOM     65  C   UNL A   1      46.935  27.643  35.348  1.00  0.00     0.041 A 
ATOM     66  F   UNL A   1      46.009  29.302  33.979  1.00  0.00    -0.206 F 
ATOM     67  C   UNL A   1      46.807  26.455  36.063  1.00  0.00     0.022 A 
BRANCH  64  68
ATOM     68  S   UNL A   1      45.359  24.281  37.040  1.00  0.00     0.124 S 
ATOM     69  O   UNL A   1      44.686  24.844  38.206  1.00  0.00    -0.237 OA
ATOM     70  O   UNL A   1      44.545  23.425  36.184  1.00  0.00    -0.237 OA
ATOM     71  O   UNL A   1      46.719  23.801  37.282  1.00  0.00    -0.744 OA
ENDBRANCH  64  68
ENDBRANCH  38  61
ENDBRANCH  12  13
ENDBRANCH   5   7
ENDBRANCH   2   3
ENDBRANCH   1   2
BRANCH   1  72
ATOM     72  C   UNL A   1      31.453  27.027  26.239  1.00  0.00     0.118 C 
BRANCH  72  73
ATOM     73  N   UNL A   1      30.302  27.094  25.348  1.00  0.00    -0.352 N 
ATOM     74  C   UNL A   1      30.241  27.065  23.979  1.00  0.00     0.251 C 
ATOM     75  H   UNL A   1      29.431  27.173  25.800  1.00  0.00     0.163 HD
ATOM     76  O   UNL A   1      29.181  27.290  23.399  1.00  0.00    -0.269 OA
BRANCH  74  77
ATOM     77  C   UNL A   1      31.450  26.784  23.185  1.00  0.00     0.046 A 
ATOM     78  C   UNL A   1      32.286  27.810  22.762  1.00  0.00     0.034 A 
ATOM     79  C   UNL A   1      31.757  25.454  22.896  1.00  0.00     0.082 A 
ATOM     80  C   UNL A   1      33.364  27.462  21.980  1.00  0.00     0.116 A 
ATOM     81  C   UNL A   1      32.851  25.200  22.086  1.00  0.00     0.219 A 
ATOM     82  N   UNL A   1      33.654  26.192  21.630  1.00  0.00    -0.222 NA
BRANCH  81  83
ATOM     83  O   UNL A   1      33.257  23.954  21.661  1.00  0.00    -0.439 OA
BRANCH  83  84
ATOM     84  C   UNL A   1      33.459  22.952  22.575  1.00  0.00     0.130 A 
ATOM     85  C   UNL A   1      32.482  21.961  22.658  1.00  0.00     0.047 A 
ATOM     86  C   UNL A   1      34.541  22.955  23.459  1.00  0.00     0.060 A 
ATOM     87  C   UNL A   1      32.612  20.932  23.589  1.00  0.00     0.004 A 
ATOM     88  C   UNL A   1      34.702  21.903  24.373  1.00  0.00     0.059 A 
ATOM     89  C   UNL A   1      33.723  20.896  24.433  1.00  0.00     0.013 A 
BRANCH  88  90
ATOM     90  C   UNL A   1      35.910  21.830  25.276  1.00  0.00     0.416 C 
ATOM     91  F   UNL A   1      35.610  21.340  26.509  1.00  0.00    -0.166 F 
ATOM     92  F   UNL A   1      36.874  21.009  24.772  1.00  0.00    -0.166 F 
ATOM     93  F   UNL A   1      36.514  23.032  25.476  1.00  0.00    -0.166 F 
ENDBRANCH  88  90
ENDBRANCH  83  84
ENDBRANCH  81  83
ENDBRANCH  74  77
ENDBRANCH  72  73
ENDBRANCH   1  72
TORSDOF 16
ENDMDL
MODEL 3
REMARK VINA RESULT:     -12.3      1.066      1.537
REMARK SMILES O=C(NCCCNC(=O)c1ccnc(Oc2cccc(C(F)(F)F)c2)c1)c1ccc(-c2c3nc(c(-c4cc(S(=O)(=O)[O-])ccc4F)c4ccc([nH]4)c(-c4cc(S(=O)(=O)[O-])ccc4F)c4nc(c(-c5cc(S(=O)(=O)[O-])ccc5F)c5ccc2[nH]5)C=C4)C=C3)cc1
REMARK SMILES IDX 5 1 4 2 3 3 1 4 2 5 27 7 28 8 89 9 29 10 88 11 30 12 31 13
REMARK SMILES IDX 32 14 82 15 33 16 87 17 81 18 83 19 34 20 86 21 80 22 79 23
REMARK SMILES IDX 35 25 67 26 47 27 66 28 48 29 51 30 65 31 84 32 49 33 50 34
REMARK SMILES IDX 64 36 85 37 52 38 36 39 37 40 45 41 38 42 44 43 46 44 43 45
REMARK SMILES IDX 39 46 40 47 41 48 42 49 68 50 69 51 77 52 70 53 76 54 78 55
REMARK SMILES IDX 75 56 71 57 72 58 73 59 74 60 53 61 54 62 62 63 55 64 61 65
REMARK SMILES IDX 63 66 60 67 56 68 57 69 58 70 59 71 6 72 7 73 8 74 9 76
REMARK SMILES IDX 10 77 11 78 26 79 12 80 14 81 13 82 15 83 16 84 17 85 25 86
REMARK SMILES IDX 18 87 20 88 19 89 21 90 22 91 23 92 24 93
REMARK H PARENT 3 6 83 24 51 35 7 75
REMARK Flexibility Score: inf
ROOT
ATOM      1  C   UNL A   1      36.582  22.747  24.074  1.00  0.00     0.042 C 
ENDROOT
BRANCH   1   2
ATOM      2  C   UNL A   1      36.836  22.446  25.546  1.00  0.00     0.118 C 
BRANCH   2   3
ATOM      3  N   UNL A   1      37.907  21.479  25.758  1.00  0.00    -0.352 N 
ATOM      4  O   UNL A   1      39.975  20.694  26.148  1.00  0.00    -0.269 OA
ATOM      5  C   UNL A   1      39.195  21.643  26.210  1.00  0.00     0.251 C 
ATOM      6  H   UNL A   1      37.666  20.550  25.540  1.00  0.00     0.163 HD
BRANCH   5   7
ATOM      7  C   UNL A   1      39.657  22.945  26.744  1.00  0.00     0.039 A 
ATOM      8  C   UNL A   1      39.232  24.147  26.183  1.00  0.00     0.014 A 
ATOM      9  C   UNL A   1      40.516  22.964  27.849  1.00  0.00     0.014 A 
ATOM     10  C   UNL A   1      39.807  25.345  26.590  1.00  0.00     0.010 A 
ATOM     11  C   UNL A   1      41.012  24.181  28.330  1.00  0.00     0.010 A 
ATOM     12  C   UNL A   1      40.702  25.381  27.671  1.00  0.00    -0.014 A 
BRANCH  12  13
ATOM     13  C   UNL A   1      41.283  26.686  28.091  1.00  0.00     0.031 A 
ATOM     14  C   UNL A   1      42.693  27.063  27.716  1.00  0.00     0.074 A 
ATOM     15  C   UNL A   1      40.512  27.558  28.772  1.00  0.00     0.049 A 
ATOM     16  N   UNL A   1      43.345  28.173  27.958  1.00  0.00    -0.248 NA
ATOM     17  C   UNL A   1      43.478  26.057  26.988  1.00  0.00     0.031 C 
ATOM     18  C   UNL A   1      39.133  27.306  29.197  1.00  0.00     0.029 A 
ATOM     19  N   UNL A   1      40.759  28.838  29.199  1.00  0.00    -0.354 N 
ATOM     20  C   UNL A   1      44.621  27.992  27.435  1.00  0.00     0.074 A 
ATOM     21  C   UNL A   1      44.660  26.648  26.898  1.00  0.00     0.031 C 
ATOM     22  C   UNL A   1      38.637  28.415  29.764  1.00  0.00     0.029 A 
ATOM     23  C   UNL A   1      39.679  29.433  29.809  1.00  0.00     0.049 A 
ATOM     24  H   UNL A   1      41.627  29.287  29.081  1.00  0.00     0.167 HD
ATOM     25  C   UNL A   1      45.659  28.867  27.398  1.00  0.00     0.034 A 
ATOM     26  C   UNL A   1      39.542  30.657  30.353  1.00  0.00     0.034 A 
ATOM     27  C   UNL A   1      45.596  30.211  27.926  1.00  0.00     0.049 A 
ATOM     28  C   UNL A   1      40.713  31.601  30.320  1.00  0.00     0.074 A 
ATOM     29  C   UNL A   1      46.574  31.192  27.908  1.00  0.00     0.029 A 
ATOM     30  N   UNL A   1      44.499  30.763  28.575  1.00  0.00    -0.354 N 
ATOM     31  N   UNL A   1      41.908  31.419  29.805  1.00  0.00    -0.248 NA
ATOM     32  C   UNL A   1      40.516  32.917  30.937  1.00  0.00     0.031 C 
ATOM     33  C   UNL A   1      46.095  32.308  28.604  1.00  0.00     0.029 A 
ATOM     34  C   UNL A   1      44.787  32.057  28.988  1.00  0.00     0.049 A 
ATOM     35  H   UNL A   1      43.641  30.304  28.722  1.00  0.00     0.167 HD
ATOM     36  C   UNL A   1      42.593  32.612  30.010  1.00  0.00     0.074 A 
ATOM     37  C   UNL A   1      41.673  33.509  30.681  1.00  0.00     0.031 C 
ATOM     38  C   UNL A   1      43.867  32.939  29.669  1.00  0.00     0.034 A 
BRANCH  25  39
ATOM     39  C   UNL A   1      46.963  28.376  26.812  1.00  0.00     0.023 A 
ATOM     40  C   UNL A   1      47.177  28.302  25.424  1.00  0.00     0.031 A 
ATOM     41  C   UNL A   1      48.000  27.940  27.657  1.00  0.00     0.131 A 
ATOM     42  C   UNL A   1      48.359  27.730  24.924  1.00  0.00     0.055 A 
ATOM     43  C   UNL A   1      49.209  27.453  27.155  1.00  0.00     0.041 A 
ATOM     44  F   UNL A   1      47.851  27.968  28.991  1.00  0.00    -0.206 F 
ATOM     45  C   UNL A   1      49.386  27.328  25.780  1.00  0.00     0.022 A 
BRANCH  42  46
ATOM     46  S   UNL A   1      48.467  27.373  23.148  1.00  0.00     0.124 S 
ATOM     47  O   UNL A   1      48.340  25.917  23.131  1.00  0.00    -0.237 OA
ATOM     48  O   UNL A   1      47.337  28.119  22.608  1.00  0.00    -0.237 OA
ATOM     49  O   UNL A   1      49.787  27.878  22.777  1.00  0.00    -0.744 OA
ENDBRANCH  42  46
ENDBRANCH  25  39
BRANCH  26  50
ATOM     50  C   UNL A   1      38.254  31.057  30.987  1.00  0.00     0.023 A 
ATOM     51  C   UNL A   1      37.242  31.680  30.240  1.00  0.00     0.031 A 
ATOM     52  C   UNL A   1      38.027  30.842  32.358  1.00  0.00     0.131 A 
ATOM     53  C   UNL A   1      36.065  32.102  30.876  1.00  0.00     0.055 A 
ATOM     54  C   UNL A   1      36.832  31.216  32.975  1.00  0.00     0.041 A 
ATOM     55  F   UNL A   1      38.960  30.246  33.116  1.00  0.00    -0.206 F 
ATOM     56  C   UNL A   1      35.847  31.861  32.234  1.00  0.00     0.022 A 
BRANCH  53  57
ATOM     57  S   UNL A   1      34.846  33.039  29.913  1.00  0.00     0.124 S 
ATOM     58  O   UNL A   1      34.001  33.594  30.963  1.00  0.00    -0.237 OA
ATOM     59  O   UNL A   1      35.691  33.989  29.198  1.00  0.00    -0.237 OA
ATOM     60  O   UNL A   1      34.216  32.018  29.078  1.00  0.00    -0.744 OA
ENDBRANCH  53  57
ENDBRANCH  26  50
BRANCH  38  61
ATOM     61  C   UNL A   1      44.311  34.349  29.975  1.00  0.00     0.023 A 
ATOM     62  C   UNL A   1      44.065  35.413  29.090  1.00  0.00     0.031 A 
ATOM     63  C   UNL A   1      45.025  34.621  31.155  1.00  0.00     0.131 A 
ATOM     64  C   UNL A   1      44.587  36.687  29.367  1.00  0.00     0.055 A 
ATOM     65  C   UNL A   1      45.487  35.903  31.456  1.00  0.00     0.041 A 
ATOM     66  F   UNL A   1      45.291  33.642  32.035  1.00  0.00    -0.206 F 
ATOM     67  C   UNL A   1      45.283  36.941  30.551  1.00  0.00     0.022 A 
BRANCH  64  68
ATOM     68  S   UNL A   1      44.441  37.981  28.104  1.00  0.00     0.124 S 
ATOM     69  O   UNL A   1      43.546  38.937  28.749  1.00  0.00    -0.237 OA
ATOM     70  O   UNL A   1      45.825  38.414  27.941  1.00  0.00    -0.237 OA
ATOM     71  O   UNL A   1      43.872  37.277  26.955  1.00  0.00    -0.744 OA
ENDBRANCH  64  68
ENDBRANCH  38  61
ENDBRANCH  12  13
ENDBRANCH   5   7
ENDBRANCH   2   3
ENDBRANCH   1   2
BRANCH   1  72
ATOM     72  C   UNL A   1      35.223  23.370  23.787  1.00  0.00     0.118 C 
BRANCH  72  73
ATOM     73  N   UNL A   1      34.252  22.402  23.292  1.00  0.00    -0.352 N 
ATOM     74  C   UNL A   1      33.126  21.896  23.889  1.00  0.00     0.251 C 
ATOM     75  H   UNL A   1      34.432  22.058  22.388  1.00  0.00     0.163 HD
ATOM     76  O   UNL A   1      32.513  20.966  23.371  1.00  0.00    -0.269 OA
BRANCH  74  77
ATOM     77  C   UNL A   1      32.649  22.447  25.170  1.00  0.00     0.046 A 
ATOM     78  C   UNL A   1      33.074  21.916  26.382  1.00  0.00     0.034 A 
ATOM     79  C   UNL A   1      31.785  23.541  25.138  1.00  0.00     0.082 A 
ATOM     80  C   UNL A   1      32.537  22.457  27.529  1.00  0.00     0.116 A 
ATOM     81  C   UNL A   1      31.280  24.007  26.341  1.00  0.00     0.219 A 
ATOM     82  N   UNL A   1      31.652  23.475  27.531  1.00  0.00    -0.222 NA
BRANCH  81  83
ATOM     83  O   UNL A   1      30.377  25.038  26.482  1.00  0.00    -0.439 OA
BRANCH  83  84
ATOM     84  C   UNL A   1      30.629  26.253  25.899  1.00  0.00     0.130 A 
ATOM     85  C   UNL A   1      30.107  26.466  24.623  1.00  0.00     0.047 A 
ATOM     86  C   UNL A   1      31.450  27.212  26.497  1.00  0.00     0.060 A 
ATOM     87  C   UNL A   1      30.354  27.668  23.963  1.00  0.00     0.004 A 
ATOM     88  C   UNL A   1      31.672  28.441  25.858  1.00  0.00     0.059 A 
ATOM     89  C   UNL A   1      31.122  28.655  24.582  1.00  0.00     0.013 A 
BRANCH  88  90
ATOM     90  C   UNL A   1      32.477  29.533  26.521  1.00  0.00     0.416 C 
ATOM     91  F   UNL A   1      33.525  29.045  27.238  1.00  0.00    -0.166 F 
ATOM     92  F   UNL A   1      33.015  30.394  25.611  1.00  0.00    -0.166 F 
ATOM     93  F   UNL A   1      31.750  30.302  27.376  1.00  0.00    -0.166 F 
ENDBRANCH  88  90
ENDBRANCH  83  84
ENDBRANCH  81  83
ENDBRANCH  74  77
ENDBRANCH  72  73
ENDBRANCH   1  72
TORSDOF 16
ENDMDL
