MODEL 1
REMARK VINA RESULT:     -11.5      0.000      0.000
REMARK SMILES CC[C@@H](C)NC(=O)[C@H](C)[NH+]1CC(n2cc(C(=O)NCCCNC(=O)c3ccc(-c4c5nc(c(-c6cc(S(=O)(=O)[O-])ccc6F)c6ccc([nH]6)c(-c6cc(S(=O)(=O)[O-])ccc6F)c6nc(c(-c7cc(S(=O)(=O)[O-])ccc7F)c7ccc4[nH]7)C=C6)C=C5)cc3)nn2)C1
REMARK SMILES IDX 19 1 18 2 16 3 17 4 15 6 13 7 14 8 89 9 88 10 12 11 10 12
REMARK SMILES IDX 11 13 90 14 8 16 9 17 6 18 5 19 7 21 3 22 4 23 2 24 1 25
REMARK SMILES IDX 20 26 21 27 22 28 23 29 24 31 25 32 26 33 87 34 27 35 86 36
REMARK SMILES IDX 28 37 29 38 30 39 80 40 31 41 85 42 79 43 81 44 32 45 84 46
REMARK SMILES IDX 78 47 77 48 33 50 65 51 45 52 64 53 46 54 49 55 63 56 82 57
REMARK SMILES IDX 47 58 48 59 62 61 83 62 50 63 34 64 35 65 43 66 36 67 42 68
REMARK SMILES IDX 44 69 41 70 37 71 38 72 39 73 40 74 66 75 67 76 75 77 68 78
REMARK SMILES IDX 74 79 76 80 73 81 69 82 70 83 71 84 72 85 51 86 52 87 60 88
REMARK SMILES IDX 53 89 59 90 61 91 58 92 54 93 55 94 56 95 57 96
REMARK H PARENT 18 5 10 15 5 20 22 30 81 49 49 60
REMARK Flexibility Score: inf
ROOT
ATOM      1  C   UNL A   1      45.240  31.865  27.238  1.00  0.00     0.118 C 
ENDROOT
BRANCH   1   2
ATOM      2  N   UNL A   1      46.644  31.485  27.233  1.00  0.00    -0.351 N 
ATOM      3  C   UNL A   1      47.264  30.387  26.672  1.00  0.00     0.273 C 
ATOM      4  O   UNL A   1      48.489  30.389  26.616  1.00  0.00    -0.267 OA
ATOM      5  H   UNL A   1      47.244  32.108  27.703  1.00  0.00     0.163 HD
BRANCH   3   6
ATOM      6  C   UNL A   1      46.468  29.285  26.144  1.00  0.00     0.170 A 
ATOM      7  N   UNL A   1      45.086  27.652  25.785  1.00  0.00    -0.237 N 
ATOM      8  C   UNL A   1      45.573  28.448  26.778  1.00  0.00     0.145 A 
ATOM      9  N   UNL A   1      45.673  27.923  24.611  1.00  0.00    -0.066 NA
ATOM     10  N   UNL A   1      46.548  28.897  24.822  1.00  0.00    -0.125 NA
BRANCH   7  11
ATOM     11  C   UNL A   1      44.070  26.672  25.986  1.00  0.00     0.218 C 
ATOM     12  N   UNL A   1      43.733  24.768  26.785  1.00  0.00    -0.321 N 
ATOM     13  C   UNL A   1      43.956  26.099  27.414  1.00  0.00     0.296 C 
ATOM     14  C   UNL A   1      44.564  25.252  25.634  1.00  0.00     0.296 C 
ATOM     15  H   UNL A   1      42.781  24.407  26.713  1.00  0.00     0.348 HD
BRANCH  12  16
ATOM     16  C   UNL A   1      44.404  23.612  27.427  1.00  0.00     0.271 C 
ATOM     17  C   UNL A   1      44.669  23.714  28.927  1.00  0.00     0.086 C 
BRANCH  16  18
ATOM     18  C   UNL A   1      43.658  22.342  26.915  1.00  0.00     0.278 C 
ATOM     19  N   UNL A   1      44.192  21.422  26.066  1.00  0.00    -0.349 N 
ATOM     20  H   UNL A   1      43.684  20.581  26.014  1.00  0.00     0.163 HD
ATOM     21  O   UNL A   1      42.528  22.079  27.355  1.00  0.00    -0.268 OA
BRANCH  19  22
ATOM     22  C   UNL A   1      45.376  21.456  25.222  1.00  0.00     0.078 C 
ATOM     23  C   UNL A   1      45.014  22.113  23.889  1.00  0.00     0.031 C 
BRANCH  22  24
ATOM     24  C   UNL A   1      45.970  20.054  25.039  1.00  0.00     0.021 C 
ATOM     25  C   UNL A   1      44.880  18.995  24.922  1.00  0.00     0.006 C 
ENDBRANCH  22  24
ENDBRANCH  19  22
ENDBRANCH  16  18
ENDBRANCH  12  16
ENDBRANCH   7  11
ENDBRANCH   3   6
ENDBRANCH   1   2
BRANCH   1  26
ATOM     26  C   UNL A   1      44.751  32.338  25.866  1.00  0.00     0.042 C 
BRANCH  26  27
ATOM     27  C   UNL A   1      44.225  33.762  25.897  1.00  0.00     0.118 C 
BRANCH  27  28
ATOM     28  N   UNL A   1      45.225  34.712  26.387  1.00  0.00    -0.352 N 
ATOM     29  C   UNL A   1      45.125  35.592  27.451  1.00  0.00     0.251 C 
ATOM     30  H   UNL A   1      46.079  34.725  25.898  1.00  0.00     0.163 HD
ATOM     31  O   UNL A   1      45.866  36.559  27.517  1.00  0.00    -0.269 OA
BRANCH  29  32
ATOM     32  C   UNL A   1      44.100  35.340  28.483  1.00  0.00     0.039 A 
ATOM     33  C   UNL A   1      42.867  35.995  28.454  1.00  0.00     0.014 A 
ATOM     34  C   UNL A   1      44.377  34.391  29.464  1.00  0.00     0.014 A 
ATOM     35  C   UNL A   1      41.886  35.610  29.365  1.00  0.00     0.010 A 
ATOM     36  C   UNL A   1      43.364  33.900  30.247  1.00  0.00     0.010 A 
ATOM     37  C   UNL A   1      42.130  34.536  30.239  1.00  0.00    -0.014 A 
BRANCH  37  38
ATOM     38  C   UNL A   1      41.062  33.977  31.061  1.00  0.00     0.031 A 
ATOM     39  C   UNL A   1      41.393  33.892  32.507  1.00  0.00     0.074 A 
ATOM     40  C   UNL A   1      39.807  33.741  30.619  1.00  0.00     0.049 A 
ATOM     41  N   UNL A   1      41.732  32.835  33.164  1.00  0.00    -0.248 NA
ATOM     42  C   UNL A   1      41.546  35.138  33.275  1.00  0.00     0.031 C 
ATOM     43  C   UNL A   1      39.225  34.055  29.310  1.00  0.00     0.029 A 
ATOM     44  N   UNL A   1      38.742  33.241  31.305  1.00  0.00    -0.354 N 
ATOM     45  C   UNL A   1      41.874  33.235  34.487  1.00  0.00     0.074 A 
ATOM     46  C   UNL A   1      41.981  34.669  34.448  1.00  0.00     0.031 C 
ATOM     47  C   UNL A   1      37.877  33.945  29.373  1.00  0.00     0.029 A 
ATOM     48  C   UNL A   1      37.515  33.383  30.662  1.00  0.00     0.049 A 
ATOM     49  H   UNL A   1      38.833  32.812  32.185  1.00  0.00     0.167 HD
ATOM     50  C   UNL A   1      41.630  32.364  35.507  1.00  0.00     0.034 A 
ATOM     51  C   UNL A   1      36.286  33.064  31.150  1.00  0.00     0.034 A 
ATOM     52  C   UNL A   1      41.529  31.008  35.007  1.00  0.00     0.049 A 
ATOM     53  C   UNL A   1      36.510  32.046  32.207  1.00  0.00     0.074 A 
ATOM     54  C   UNL A   1      42.370  30.166  34.305  1.00  0.00     0.029 A 
ATOM     55  N   UNL A   1      40.266  30.477  34.852  1.00  0.00    -0.354 N 
ATOM     56  N   UNL A   1      36.997  30.860  31.962  1.00  0.00    -0.248 NA
ATOM     57  C   UNL A   1      36.672  32.506  33.578  1.00  0.00     0.031 C 
ATOM     58  C   UNL A   1      41.523  29.505  33.365  1.00  0.00     0.029 A 
ATOM     59  C   UNL A   1      40.205  29.901  33.607  1.00  0.00     0.049 A 
ATOM     60  H   UNL A   1      39.538  30.505  35.515  1.00  0.00     0.167 HD
ATOM     61  C   UNL A   1      37.903  30.626  32.985  1.00  0.00     0.074 A 
ATOM     62  C   UNL A   1      37.585  31.628  34.002  1.00  0.00     0.031 C 
ATOM     63  C   UNL A   1      39.002  29.835  32.794  1.00  0.00     0.034 A 
BRANCH  50  64
ATOM     64  C   UNL A   1      41.100  32.737  36.876  1.00  0.00     0.023 A 
ATOM     65  C   UNL A   1      39.795  32.309  37.191  1.00  0.00     0.031 A 
ATOM     66  C   UNL A   1      41.654  33.702  37.745  1.00  0.00     0.131 A 
ATOM     67  C   UNL A   1      39.065  32.912  38.229  1.00  0.00     0.055 A 
ATOM     68  C   UNL A   1      40.948  34.247  38.823  1.00  0.00     0.041 A 
ATOM     69  F   UNL A   1      42.861  34.243  37.557  1.00  0.00    -0.206 F 
ATOM     70  C   UNL A   1      39.633  33.880  39.049  1.00  0.00     0.022 A 
BRANCH  67  71
ATOM     71  S   UNL A   1      37.300  32.533  38.363  1.00  0.00     0.124 S 
ATOM     72  O   UNL A   1      36.747  33.334  37.276  1.00  0.00    -0.237 OA
ATOM     73  O   UNL A   1      37.286  31.087  38.170  1.00  0.00    -0.237 OA
ATOM     74  O   UNL A   1      36.958  32.986  39.710  1.00  0.00    -0.744 OA
ENDBRANCH  67  71
ENDBRANCH  50  64
BRANCH  51  75
ATOM     75  C   UNL A   1      35.018  33.834  30.995  1.00  0.00     0.023 A 
ATOM     76  C   UNL A   1      34.595  34.818  31.916  1.00  0.00     0.031 A 
ATOM     77  C   UNL A   1      34.320  33.778  29.767  1.00  0.00     0.131 A 
ATOM     78  C   UNL A   1      33.531  35.695  31.588  1.00  0.00     0.055 A 
ATOM     79  C   UNL A   1      33.273  34.647  29.448  1.00  0.00     0.041 A 
ATOM     80  F   UNL A   1      34.694  32.932  28.794  1.00  0.00    -0.206 F 
ATOM     81  C   UNL A   1      32.880  35.618  30.356  1.00  0.00     0.022 A 
BRANCH  78  82
ATOM     82  S   UNL A   1      33.028  37.023  32.736  1.00  0.00     0.124 S 
ATOM     83  O   UNL A   1      33.961  36.849  33.842  1.00  0.00    -0.237 OA
ATOM     84  O   UNL A   1      33.198  38.222  31.924  1.00  0.00    -0.237 OA
ATOM     85  O   UNL A   1      31.636  36.693  33.051  1.00  0.00    -0.744 OA
ENDBRANCH  78  82
ENDBRANCH  51  75
BRANCH  63  86
ATOM     86  C   UNL A   1      39.061  28.959  31.555  1.00  0.00     0.023 A 
ATOM     87  C   UNL A   1      39.636  29.326  30.316  1.00  0.00     0.031 A 
ATOM     88  C   UNL A   1      38.605  27.635  31.693  1.00  0.00     0.131 A 
ATOM     89  C   UNL A   1      39.728  28.378  29.273  1.00  0.00     0.055 A 
ATOM     90  C   UNL A   1      38.720  26.696  30.669  1.00  0.00     0.041 A 
ATOM     91  F   UNL A   1      38.068  27.218  32.851  1.00  0.00    -0.206 F 
ATOM     92  C   UNL A   1      39.276  27.066  29.452  1.00  0.00     0.022 A 
BRANCH  89  93
ATOM     93  S   UNL A   1      40.419  28.836  27.648  1.00  0.00     0.124 S 
ATOM     94  O   UNL A   1      41.571  29.662  27.985  1.00  0.00    -0.237 OA
ATOM     95  O   UNL A   1      40.717  27.536  27.053  1.00  0.00    -0.237 OA
ATOM     96  O   UNL A   1      39.320  29.559  27.003  1.00  0.00    -0.744 OA
ENDBRANCH  89  93
ENDBRANCH  63  86
ENDBRANCH  37  38
ENDBRANCH  29  32
ENDBRANCH  27  28
ENDBRANCH  26  27
ENDBRANCH   1  26
TORSDOF 18
ENDMDL
MODEL 2
REMARK VINA RESULT:     -11.4      5.723     10.947
REMARK SMILES CC[C@@H](C)NC(=O)[C@H](C)[NH+]1CC(n2cc(C(=O)NCCCNC(=O)c3ccc(-c4c5nc(c(-c6cc(S(=O)(=O)[O-])ccc6F)c6ccc([nH]6)c(-c6cc(S(=O)(=O)[O-])ccc6F)c6nc(c(-c7cc(S(=O)(=O)[O-])ccc7F)c7ccc4[nH]7)C=C6)C=C5)cc3)nn2)C1
REMARK SMILES IDX 19 1 18 2 16 3 17 4 15 6 13 7 14 8 89 9 88 10 12 11 10 12
REMARK SMILES IDX 11 13 90 14 8 16 9 17 6 18 5 19 7 21 3 22 4 23 2 24 1 25
REMARK SMILES IDX 20 26 21 27 22 28 23 29 24 31 25 32 26 33 87 34 27 35 86 36
REMARK SMILES IDX 28 37 29 38 30 39 80 40 31 41 85 42 79 43 81 44 32 45 84 46
REMARK SMILES IDX 78 47 77 48 33 50 65 51 45 52 64 53 46 54 49 55 63 56 82 57
REMARK SMILES IDX 47 58 48 59 62 61 83 62 50 63 34 64 35 65 43 66 36 67 42 68
REMARK SMILES IDX 44 69 41 70 37 71 38 72 39 73 40 74 66 75 67 76 75 77 68 78
REMARK SMILES IDX 74 79 76 80 73 81 69 82 70 83 71 84 72 85 51 86 52 87 60 88
REMARK SMILES IDX 53 89 59 90 61 91 58 92 54 93 55 94 56 95 57 96
REMARK H PARENT 18 5 10 15 5 20 22 30 81 49 49 60
REMARK Flexibility Score: inf
ROOT
ATOM      1  C   UNL A   1      32.812  30.095  26.959  1.00  0.00     0.118 C 
ENDROOT
BRANCH   1   2
ATOM      2  N   UNL A   1      32.038  30.123  25.728  1.00  0.00    -0.351 N 
ATOM      3  C   UNL A   1      31.451  29.092  25.025  1.00  0.00     0.273 C 
ATOM      4  O   UNL A   1      30.667  29.383  24.127  1.00  0.00    -0.267 OA
ATOM      5  H   UNL A   1      31.913  31.018  25.336  1.00  0.00     0.163 HD
BRANCH   3   6
ATOM      6  C   UNL A   1      31.744  27.706  25.374  1.00  0.00     0.170 A 
ATOM      7  N   UNL A   1      32.626  25.772  25.805  1.00  0.00    -0.237 N 
ATOM      8  C   UNL A   1      32.924  26.996  25.285  1.00  0.00     0.145 A 
ATOM      9  N   UNL A   1      31.333  25.688  26.146  1.00  0.00    -0.066 NA
ATOM     10  N   UNL A   1      30.771  26.854  25.855  1.00  0.00    -0.125 NA
BRANCH   7  11
ATOM     11  C   UNL A   1      33.586  24.730  25.971  1.00  0.00     0.218 C 
ATOM     12  N   UNL A   1      33.987  22.742  25.456  1.00  0.00    -0.321 N 
ATOM     13  C   UNL A   1      34.035  24.013  24.681  1.00  0.00     0.296 C 
ATOM     14  C   UNL A   1      32.914  23.376  26.292  1.00  0.00     0.296 C 
ATOM     15  H   UNL A   1      34.856  22.347  25.815  1.00  0.00     0.348 HD
BRANCH  12  16
ATOM     16  C   UNL A   1      33.430  21.560  24.754  1.00  0.00     0.271 C 
ATOM     17  C   UNL A   1      32.916  21.780  23.333  1.00  0.00     0.086 C 
BRANCH  16  18
ATOM     18  C   UNL A   1      34.455  20.407  24.974  1.00  0.00     0.278 C 
ATOM     19  N   UNL A   1      34.196  19.089  24.747  1.00  0.00    -0.349 N 
ATOM     20  H   UNL A   1      34.998  18.520  24.723  1.00  0.00     0.163 HD
ATOM     21  O   UNL A   1      35.620  20.678  25.301  1.00  0.00    -0.268 OA
BRANCH  19  22
ATOM     22  C   UNL A   1      32.949  18.370  24.533  1.00  0.00     0.078 C 
ATOM     23  C   UNL A   1      32.683  17.474  25.743  1.00  0.00     0.031 C 
BRANCH  22  24
ATOM     24  C   UNL A   1      32.979  17.582  23.218  1.00  0.00     0.021 C 
ATOM     25  C   UNL A   1      34.241  16.734  23.102  1.00  0.00     0.006 C 
ENDBRANCH  22  24
ENDBRANCH  19  22
ENDBRANCH  16  18
ENDBRANCH  12  16
ENDBRANCH   7  11
ENDBRANCH   3   6
ENDBRANCH   1   2
BRANCH   1  26
ATOM     26  C   UNL A   1      33.269  31.489  27.401  1.00  0.00     0.042 C 
BRANCH  26  27
ATOM     27  C   UNL A   1      34.555  31.448  28.209  1.00  0.00     0.118 C 
BRANCH  27  28
ATOM     28  N   UNL A   1      35.339  32.674  28.066  1.00  0.00    -0.352 N 
ATOM     29  C   UNL A   1      36.590  32.959  28.585  1.00  0.00     0.251 C 
ATOM     30  H   UNL A   1      34.924  33.388  27.530  1.00  0.00     0.163 HD
ATOM     31  O   UNL A   1      36.955  34.118  28.701  1.00  0.00    -0.269 OA
BRANCH  29  32
ATOM     32  C   UNL A   1      37.453  31.838  29.005  1.00  0.00     0.039 A 
ATOM     33  C   UNL A   1      37.397  30.600  28.360  1.00  0.00     0.014 A 
ATOM     34  C   UNL A   1      38.364  32.061  30.034  1.00  0.00     0.014 A 
ATOM     35  C   UNL A   1      38.335  29.628  28.699  1.00  0.00     0.010 A 
ATOM     36  C   UNL A   1      39.384  31.170  30.251  1.00  0.00     0.010 A 
ATOM     37  C   UNL A   1      39.349  29.932  29.625  1.00  0.00    -0.014 A 
BRANCH  37  38
ATOM     38  C   UNL A   1      40.460  29.013  29.851  1.00  0.00     0.031 A 
ATOM     39  C   UNL A   1      40.707  28.704  31.283  1.00  0.00     0.074 A 
ATOM     40  C   UNL A   1      41.093  28.331  28.873  1.00  0.00     0.049 A 
ATOM     41  N   UNL A   1      41.642  29.184  32.031  1.00  0.00    -0.248 NA
ATOM     42  C   UNL A   1      39.703  27.922  32.023  1.00  0.00     0.031 C 
ATOM     43  C   UNL A   1      40.779  28.281  27.441  1.00  0.00     0.029 A 
ATOM     44  N   UNL A   1      42.122  27.445  28.980  1.00  0.00    -0.354 N 
ATOM     45  C   UNL A   1      41.510  28.553  33.262  1.00  0.00     0.074 A 
ATOM     46  C   UNL A   1      40.188  27.986  33.267  1.00  0.00     0.031 C 
ATOM     47  C   UNL A   1      41.445  27.255  26.863  1.00  0.00     0.029 A 
ATOM     48  C   UNL A   1      42.367  26.693  27.834  1.00  0.00     0.049 A 
ATOM     49  H   UNL A   1      42.652  27.345  29.803  1.00  0.00     0.167 HD
ATOM     50  C   UNL A   1      42.599  28.338  34.053  1.00  0.00     0.034 A 
ATOM     51  C   UNL A   1      43.262  25.678  27.689  1.00  0.00     0.034 A 
ATOM     52  C   UNL A   1      43.735  29.100  33.576  1.00  0.00     0.049 A 
ATOM     53  C   UNL A   1      44.295  25.881  28.735  1.00  0.00     0.074 A 
ATOM     54  C   UNL A   1      43.984  30.441  33.359  1.00  0.00     0.029 A 
ATOM     55  N   UNL A   1      44.694  28.427  32.849  1.00  0.00    -0.354 N 
ATOM     56  N   UNL A   1      45.091  26.915  28.757  1.00  0.00    -0.248 NA
ATOM     57  C   UNL A   1      44.112  25.218  30.017  1.00  0.00     0.031 C 
ATOM     58  C   UNL A   1      44.719  30.484  32.136  1.00  0.00     0.029 A 
ATOM     59  C   UNL A   1      44.964  29.170  31.726  1.00  0.00     0.049 A 
ATOM     60  H   UNL A   1      45.111  27.568  33.091  1.00  0.00     0.167 HD
ATOM     61  C   UNL A   1      45.142  27.301  30.088  1.00  0.00     0.074 A 
ATOM     62  C   UNL A   1      44.602  26.160  30.828  1.00  0.00     0.031 C 
ATOM     63  C   UNL A   1      45.347  28.605  30.444  1.00  0.00     0.034 A 
BRANCH  50  64
ATOM     64  C   UNL A   1      42.778  27.178  35.009  1.00  0.00     0.023 A 
ATOM     65  C   UNL A   1      43.573  26.103  34.562  1.00  0.00     0.031 A 
ATOM     66  C   UNL A   1      42.009  26.928  36.167  1.00  0.00     0.131 A 
ATOM     67  C   UNL A   1      43.490  24.838  35.168  1.00  0.00     0.055 A 
ATOM     68  C   UNL A   1      41.985  25.687  36.810  1.00  0.00     0.041 A 
ATOM     69  F   UNL A   1      41.170  27.828  36.689  1.00  0.00    -0.206 F 
ATOM     70  C   UNL A   1      42.699  24.621  36.290  1.00  0.00     0.022 A 
BRANCH  67  71
ATOM     71  S   UNL A   1      44.293  23.442  34.343  1.00  0.00     0.124 S 
ATOM     72  O   UNL A   1      43.425  23.248  33.186  1.00  0.00    -0.237 OA
ATOM     73  O   UNL A   1      45.623  23.978  34.068  1.00  0.00    -0.237 OA
ATOM     74  O   UNL A   1      44.244  22.381  35.347  1.00  0.00    -0.744 OA
ENDBRANCH  67  71
ENDBRANCH  50  64
BRANCH  51  75
ATOM     75  C   UNL A   1      43.071  24.397  26.950  1.00  0.00     0.023 A 
ATOM     76  C   UNL A   1      44.005  23.899  26.014  1.00  0.00     0.031 A 
ATOM     77  C   UNL A   1      42.055  23.504  27.362  1.00  0.00     0.131 A 
ATOM     78  C   UNL A   1      43.905  22.566  25.542  1.00  0.00     0.055 A 
ATOM     79  C   UNL A   1      41.962  22.191  26.894  1.00  0.00     0.041 A 
ATOM     80  F   UNL A   1      41.165  23.853  28.305  1.00  0.00    -0.206 F 
ATOM     81  C   UNL A   1      42.895  21.712  25.989  1.00  0.00     0.022 A 
BRANCH  78  82
ATOM     82  S   UNL A   1      45.151  21.886  24.394  1.00  0.00     0.124 S 
ATOM     83  O   UNL A   1      45.368  22.997  23.477  1.00  0.00    -0.237 OA
ATOM     84  O   UNL A   1      46.254  21.555  25.288  1.00  0.00    -0.237 OA
ATOM     85  O   UNL A   1      44.476  20.727  23.805  1.00  0.00    -0.744 OA
ENDBRANCH  78  82
ENDBRANCH  51  75
BRANCH  63  86
ATOM     86  C   UNL A   1      45.836  29.578  29.385  1.00  0.00     0.023 A 
ATOM     87  C   UNL A   1      45.010  30.317  28.505  1.00  0.00     0.031 A 
ATOM     88  C   UNL A   1      47.216  29.847  29.359  1.00  0.00     0.131 A 
ATOM     89  C   UNL A   1      45.582  31.275  27.640  1.00  0.00     0.055 A 
ATOM     90  C   UNL A   1      47.773  30.811  28.521  1.00  0.00     0.041 A 
ATOM     91  F   UNL A   1      48.051  29.195  30.185  1.00  0.00    -0.206 F 
ATOM     92  C   UNL A   1      46.958  31.525  27.653  1.00  0.00     0.022 A 
BRANCH  89  93
ATOM     93  S   UNL A   1      44.550  32.207  26.459  1.00  0.00     0.124 S 
ATOM     94  O   UNL A   1      45.492  32.607  25.422  1.00  0.00    -0.237 OA
ATOM     95  O   UNL A   1      43.548  31.220  26.066  1.00  0.00    -0.237 OA
ATOM     96  O   UNL A   1      44.026  33.313  27.264  1.00  0.00    -0.744 OA
ENDBRANCH  89  93
ENDBRANCH  63  86
ENDBRANCH  37  38
ENDBRANCH  29  32
ENDBRANCH  27  28
ENDBRANCH  26  27
ENDBRANCH   1  26
TORSDOF 18
ENDMDL
MODEL 3
REMARK VINA RESULT:     -11.3      6.019     12.322
REMARK SMILES CC[C@@H](C)NC(=O)[C@H](C)[NH+]1CC(n2cc(C(=O)NCCCNC(=O)c3ccc(-c4c5nc(c(-c6cc(S(=O)(=O)[O-])ccc6F)c6ccc([nH]6)c(-c6cc(S(=O)(=O)[O-])ccc6F)c6nc(c(-c7cc(S(=O)(=O)[O-])ccc7F)c7ccc4[nH]7)C=C6)C=C5)cc3)nn2)C1
REMARK SMILES IDX 19 1 18 2 16 3 17 4 15 6 13 7 14 8 89 9 88 10 12 11 10 12
REMARK SMILES IDX 11 13 90 14 8 16 9 17 6 18 5 19 7 21 3 22 4 23 2 24 1 25
REMARK SMILES IDX 20 26 21 27 22 28 23 29 24 31 25 32 26 33 87 34 27 35 86 36
REMARK SMILES IDX 28 37 29 38 30 39 80 40 31 41 85 42 79 43 81 44 32 45 84 46
REMARK SMILES IDX 78 47 77 48 33 50 65 51 45 52 64 53 46 54 49 55 63 56 82 57
REMARK SMILES IDX 47 58 48 59 62 61 83 62 50 63 34 64 35 65 43 66 36 67 42 68
REMARK SMILES IDX 44 69 41 70 37 71 38 72 39 73 40 74 66 75 67 76 75 77 68 78
REMARK SMILES IDX 74 79 76 80 73 81 69 82 70 83 71 84 72 85 51 86 52 87 60 88
REMARK SMILES IDX 53 89 59 90 61 91 58 92 54 93 55 94 56 95 57 96
REMARK H PARENT 18 5 10 15 5 20 22 30 81 49 49 60
REMARK Flexibility Score: inf
ROOT
ATOM      1  C   UNL A   1      35.969  20.254  24.680  1.00  0.00     0.118 C 
ENDROOT
BRANCH   1   2
ATOM      2  N   UNL A   1      34.677  19.824  25.188  1.00  0.00    -0.351 N 
ATOM      3  C   UNL A   1      33.424  20.373  25.006  1.00  0.00     0.273 C 
ATOM      4  O   UNL A   1      32.452  19.713  25.360  1.00  0.00    -0.267 OA
ATOM      5  H   UNL A   1      34.700  19.016  25.750  1.00  0.00     0.163 HD
BRANCH   3   6
ATOM      6  C   UNL A   1      33.281  21.685  24.384  1.00  0.00     0.170 A 
ATOM      7  N   UNL A   1      33.298  23.785  23.842  1.00  0.00    -0.237 N 
ATOM      8  C   UNL A   1      33.575  22.941  24.875  1.00  0.00     0.145 A 
ATOM      9  N   UNL A   1      32.807  23.121  22.787  1.00  0.00    -0.066 NA
ATOM     10  N   UNL A   1      32.757  21.837  23.116  1.00  0.00    -0.125 NA
BRANCH   7  11
ATOM     11  C   UNL A   1      33.525  25.192  23.891  1.00  0.00     0.218 C 
ATOM     12  N   UNL A   1      32.681  26.989  24.550  1.00  0.00    -0.321 N 
ATOM     13  C   UNL A   1      33.334  25.860  25.268  1.00  0.00     0.296 C 
ATOM     14  C   UNL A   1      32.259  25.991  23.512  1.00  0.00     0.296 C 
ATOM     15  H   UNL A   1      33.218  27.837  24.367  1.00  0.00     0.348 HD
BRANCH  12  16
ATOM     16  C   UNL A   1      31.477  27.573  25.191  1.00  0.00     0.271 C 
ATOM     17  C   UNL A   1      31.240  27.226  26.659  1.00  0.00     0.086 C 
BRANCH  16  18
ATOM     18  C   UNL A   1      31.472  29.082  24.802  1.00  0.00     0.278 C 
ATOM     19  N   UNL A   1      30.703  29.623  23.817  1.00  0.00    -0.349 N 
ATOM     20  H   UNL A   1      30.651  30.606  23.841  1.00  0.00     0.163 HD
ATOM     21  O   UNL A   1      32.141  29.888  25.466  1.00  0.00    -0.268 OA
BRANCH  19  22
ATOM     22  C   UNL A   1      29.943  29.014  22.736  1.00  0.00     0.078 C 
ATOM     23  C   UNL A   1      29.782  30.035  21.610  1.00  0.00     0.031 C 
BRANCH  22  24
ATOM     24  C   UNL A   1      28.596  28.477  23.236  1.00  0.00     0.021 C 
ATOM     25  C   UNL A   1      27.473  29.481  23.005  1.00  0.00     0.006 C 
ENDBRANCH  22  24
ENDBRANCH  19  22
ENDBRANCH  16  18
ENDBRANCH  12  16
ENDBRANCH   7  11
ENDBRANCH   3   6
ENDBRANCH   1   2
BRANCH   1  26
ATOM     26  C   UNL A   1      36.755  21.090  25.695  1.00  0.00     0.042 C 
BRANCH  26  27
ATOM     27  C   UNL A   1      38.208  21.274  25.293  1.00  0.00     0.118 C 
BRANCH  27  28
ATOM     28  N   UNL A   1      38.996  20.057  25.486  1.00  0.00    -0.352 N 
ATOM     29  C   UNL A   1      40.325  19.943  25.857  1.00  0.00     0.251 C 
ATOM     30  H   UNL A   1      38.519  19.209  25.335  1.00  0.00     0.163 HD
ATOM     31  O   UNL A   1      40.939  18.915  25.625  1.00  0.00    -0.269 OA
BRANCH  29  32
ATOM     32  C   UNL A   1      40.974  21.091  26.519  1.00  0.00     0.039 A 
ATOM     33  C   UNL A   1      41.574  22.111  25.776  1.00  0.00     0.014 A 
ATOM     34  C   UNL A   1      40.932  21.157  27.909  1.00  0.00     0.014 A 
ATOM     35  C   UNL A   1      42.039  23.239  26.447  1.00  0.00     0.010 A 
ATOM     36  C   UNL A   1      41.239  22.331  28.548  1.00  0.00     0.010 A 
ATOM     37  C   UNL A   1      41.838  23.358  27.834  1.00  0.00    -0.014 A 
BRANCH  37  38
ATOM     38  C   UNL A   1      42.129  24.605  28.532  1.00  0.00     0.031 A 
ATOM     39  C   UNL A   1      41.115  25.669  28.318  1.00  0.00     0.074 A 
ATOM     40  C   UNL A   1      43.106  24.750  29.454  1.00  0.00     0.049 A 
ATOM     41  N   UNL A   1      41.218  26.694  27.542  1.00  0.00    -0.248 NA
ATOM     42  C   UNL A   1      39.767  25.487  28.879  1.00  0.00     0.031 C 
ATOM     43  C   UNL A   1      43.998  23.727  30.010  1.00  0.00     0.029 A 
ATOM     44  N   UNL A   1      43.446  25.858  30.168  1.00  0.00    -0.354 N 
ATOM     45  C   UNL A   1      40.056  27.433  27.727  1.00  0.00     0.074 A 
ATOM     46  C   UNL A   1      39.125  26.538  28.360  1.00  0.00     0.031 C 
ATOM     47  C   UNL A   1      44.611  24.209  31.116  1.00  0.00     0.029 A 
ATOM     48  C   UNL A   1      44.300  25.621  31.243  1.00  0.00     0.049 A 
ATOM     49  H   UNL A   1      43.116  26.756  29.942  1.00  0.00     0.167 HD
ATOM     50  C   UNL A   1      40.061  28.788  27.576  1.00  0.00     0.034 A 
ATOM     51  C   UNL A   1      44.723  26.519  32.174  1.00  0.00     0.034 A 
ATOM     52  C   UNL A   1      41.285  29.225  26.935  1.00  0.00     0.049 A 
ATOM     53  C   UNL A   1      44.595  27.859  31.548  1.00  0.00     0.074 A 
ATOM     54  C   UNL A   1      41.904  28.948  25.731  1.00  0.00     0.029 A 
ATOM     55  N   UNL A   1      42.268  29.763  27.737  1.00  0.00    -0.354 N 
ATOM     56  N   UNL A   1      45.292  28.229  30.509  1.00  0.00    -0.248 NA
ATOM     57  C   UNL A   1      43.355  28.593  31.750  1.00  0.00     0.031 C 
ATOM     58  C   UNL A   1      43.292  28.848  26.048  1.00  0.00     0.029 A 
ATOM     59  C   UNL A   1      43.457  29.164  27.399  1.00  0.00     0.049 A 
ATOM     60  H   UNL A   1      42.142  30.453  28.428  1.00  0.00     0.167 HD
ATOM     61  C   UNL A   1      44.394  28.899  29.693  1.00  0.00     0.074 A 
ATOM     62  C   UNL A   1      43.245  29.179  30.555  1.00  0.00     0.031 C 
ATOM     63  C   UNL A   1      44.541  28.912  28.334  1.00  0.00     0.034 A 
BRANCH  50  64
ATOM     64  C   UNL A   1      39.178  29.762  28.326  1.00  0.00     0.023 A 
ATOM     65  C   UNL A   1      39.597  30.133  29.620  1.00  0.00     0.031 A 
ATOM     66  C   UNL A   1      37.850  30.108  27.991  1.00  0.00     0.131 A 
ATOM     67  C   UNL A   1      38.695  30.691  30.541  1.00  0.00     0.055 A 
ATOM     68  C   UNL A   1      36.977  30.731  28.889  1.00  0.00     0.041 A 
ATOM     69  F   UNL A   1      37.289  29.786  26.822  1.00  0.00    -0.206 F 
ATOM     70  C   UNL A   1      37.386  30.993  30.185  1.00  0.00     0.022 A 
BRANCH  67  71
ATOM     71  S   UNL A   1      39.221  30.841  32.267  1.00  0.00     0.124 S 
ATOM     72  O   UNL A   1      40.659  31.047  32.116  1.00  0.00    -0.237 OA
ATOM     73  O   UNL A   1      38.449  31.994  32.719  1.00  0.00    -0.237 OA
ATOM     74  O   UNL A   1      38.831  29.561  32.853  1.00  0.00    -0.744 OA
ENDBRANCH  67  71
ENDBRANCH  50  64
BRANCH  51  75
ATOM     75  C   UNL A   1      44.883  26.300  33.640  1.00  0.00     0.023 A 
ATOM     76  C   UNL A   1      43.854  26.551  34.576  1.00  0.00     0.031 A 
ATOM     77  C   UNL A   1      46.004  25.580  34.114  1.00  0.00     0.131 A 
ATOM     78  C   UNL A   1      43.968  26.082  35.908  1.00  0.00     0.055 A 
ATOM     79  C   UNL A   1      46.110  25.118  35.429  1.00  0.00     0.041 A 
ATOM     80  F   UNL A   1      46.999  25.222  33.287  1.00  0.00    -0.206 F 
ATOM     81  C   UNL A   1      45.085  25.359  36.330  1.00  0.00     0.022 A 
BRANCH  78  82
ATOM     82  S   UNL A   1      42.612  26.330  37.105  1.00  0.00     0.124 S 
ATOM     83  O   UNL A   1      43.319  26.339  38.380  1.00  0.00    -0.237 OA
ATOM     84  O   UNL A   1      42.038  27.598  36.671  1.00  0.00    -0.237 OA
ATOM     85  O   UNL A   1      41.750  25.166  36.891  1.00  0.00    -0.744 OA
ENDBRANCH  78  82
ENDBRANCH  51  75
BRANCH  63  86
ATOM     86  C   UNL A   1      45.864  28.460  27.742  1.00  0.00     0.023 A 
ATOM     87  C   UNL A   1      46.166  27.146  27.313  1.00  0.00     0.031 A 
ATOM     88  C   UNL A   1      46.824  29.460  27.498  1.00  0.00     0.131 A 
ATOM     89  C   UNL A   1      47.397  26.879  26.674  1.00  0.00     0.055 A 
ATOM     90  C   UNL A   1      48.027  29.195  26.846  1.00  0.00     0.041 A 
ATOM     91  F   UNL A   1      46.589  30.731  27.862  1.00  0.00    -0.206 F 
ATOM     92  C   UNL A   1      48.321  27.902  26.437  1.00  0.00     0.022 A 
BRANCH  89  93
ATOM     93  S   UNL A   1      47.836  25.186  26.156  1.00  0.00     0.124 S 
ATOM     94  O   UNL A   1      47.871  24.441  27.409  1.00  0.00    -0.237 OA
ATOM     95  O   UNL A   1      46.751  24.844  25.240  1.00  0.00    -0.237 OA
ATOM     96  O   UNL A   1      49.141  25.355  25.512  1.00  0.00    -0.744 OA
ENDBRANCH  89  93
ENDBRANCH  63  86
ENDBRANCH  37  38
ENDBRANCH  29  32
ENDBRANCH  27  28
ENDBRANCH  26  27
ENDBRANCH   1  26
TORSDOF 18
ENDMDL
