MODEL 1
REMARK VINA RESULT:     -11.9      0.000      0.000
REMARK SMILES O=C(Cc1ccccc1-c1ccn(C(F)F)c(=O)c1)NCCCNC(=O)c1ccc(-c2c3nc(c(-c4cc(S(=O)(=O)[O-])ccc4F)c4ccc([nH]4)c(-c4cc(S(=O)(=O)[O-])ccc4F)c4nc(c(-c5cc(S(=O)(=O)[O-])ccc5F)c5ccc2[nH]5)C=C4)C=C3)cc1
REMARK SMILES IDX 22 1 21 2 20 3 1 4 2 5 3 7 4 8 5 9 9 10 6 11 8 12 7 13 10 14
REMARK SMILES IDX 11 15 19 16 12 17 17 18 13 19 18 20 14 21 15 22 16 23 23 24
REMARK SMILES IDX 24 25 25 26 26 28 27 29 28 30 89 31 29 32 88 33 30 34 31 35
REMARK SMILES IDX 32 36 82 37 33 38 87 39 81 40 83 41 34 42 86 43 80 44 79 45
REMARK SMILES IDX 35 47 67 48 47 49 66 50 48 51 51 52 65 53 84 54 49 55 50 56
REMARK SMILES IDX 64 58 85 59 52 60 36 61 37 62 45 63 38 64 44 65 46 66 43 67
REMARK SMILES IDX 39 68 40 69 41 70 42 71 68 72 69 73 77 74 70 75 76 76 78 77
REMARK SMILES IDX 75 78 71 79 72 80 73 81 74 82 53 83 54 84 62 85 55 86 61 87
REMARK SMILES IDX 63 88 60 89 56 90 57 91 58 92 59 93
REMARK H PARENT 20 6 24 27 83 46 51 57
REMARK Flexibility Score: inf
ROOT
ATOM      1  C   UNL A   1      32.518  27.785  25.493  1.00  0.00     0.042 C 
ENDROOT
BRANCH   1   2
ATOM      2  C   UNL A   1      32.160  26.773  24.390  1.00  0.00     0.117 C 
BRANCH   2   3
ATOM      3  N   UNL A   1      33.018  25.592  24.285  1.00  0.00    -0.356 N 
ATOM      4  O   UNL A   1      32.754  25.370  22.007  1.00  0.00    -0.275 OA
ATOM      5  C   UNL A   1      33.312  25.024  23.047  1.00  0.00     0.224 C 
ATOM      6  H   UNL A   1      33.394  25.193  25.102  1.00  0.00     0.163 HD
BRANCH   5   7
ATOM      7  C   UNL A   1      34.372  23.919  23.039  1.00  0.00     0.136 C 
BRANCH   7   8
ATOM      8  C   UNL A   1      33.879  22.574  23.564  1.00  0.00    -0.031 A 
ATOM      9  C   UNL A   1      32.625  22.074  23.172  1.00  0.00     0.005 A 
ATOM     10  C   UNL A   1      34.632  21.800  24.468  1.00  0.00    -0.014 A 
ATOM     11  C   UNL A   1      32.156  20.840  23.648  1.00  0.00     0.000 A 
ATOM     12  C   UNL A   1      34.168  20.551  24.918  1.00  0.00     0.009 A 
ATOM     13  C   UNL A   1      32.933  20.071  24.506  1.00  0.00     0.001 A 
BRANCH  10  14
ATOM     14  C   UNL A   1      35.861  22.314  25.072  1.00  0.00    -0.011 A 
ATOM     15  C   UNL A   1      35.936  23.664  25.579  1.00  0.00     0.027 A 
ATOM     16  C   UNL A   1      36.926  21.501  25.148  1.00  0.00     0.080 A 
ATOM     17  C   UNL A   1      37.061  24.101  26.140  1.00  0.00     0.095 A 
ATOM     18  C   UNL A   1      38.190  21.987  25.752  1.00  0.00     0.255 A 
ATOM     19  N   UNL A   1      38.162  23.275  26.259  1.00  0.00    -0.258 N 
ATOM     20  O   UNL A   1      39.148  21.219  25.735  1.00  0.00    -0.269 OA
BRANCH  19  21
ATOM     21  C   UNL A   1      39.336  23.852  26.858  1.00  0.00     0.451 C 
ATOM     22  F   UNL A   1      39.903  24.828  26.124  1.00  0.00    -0.185 F 
ATOM     23  F   UNL A   1      38.968  24.387  28.053  1.00  0.00    -0.185 F 
ENDBRANCH  19  21
ENDBRANCH  10  14
ENDBRANCH   7   8
ENDBRANCH   5   7
ENDBRANCH   2   3
ENDBRANCH   1   2
BRANCH   1  24
ATOM     24  C   UNL A   1      33.324  29.034  25.093  1.00  0.00     0.118 C 
BRANCH  24  25
ATOM     25  N   UNL A   1      32.885  30.255  25.756  1.00  0.00    -0.352 N 
ATOM     26  C   UNL A   1      33.339  30.944  26.863  1.00  0.00     0.251 C 
ATOM     27  H   UNL A   1      32.105  30.674  25.326  1.00  0.00     0.163 HD
ATOM     28  O   UNL A   1      32.655  31.893  27.257  1.00  0.00    -0.269 OA
BRANCH  26  29
ATOM     29  C   UNL A   1      34.597  30.628  27.603  1.00  0.00     0.039 A 
ATOM     30  C   UNL A   1      35.512  31.655  27.869  1.00  0.00     0.014 A 
ATOM     31  C   UNL A   1      34.971  29.328  27.933  1.00  0.00     0.014 A 
ATOM     32  C   UNL A   1      36.757  31.376  28.463  1.00  0.00     0.010 A 
ATOM     33  C   UNL A   1      36.208  29.037  28.521  1.00  0.00     0.010 A 
ATOM     34  C   UNL A   1      37.111  30.060  28.815  1.00  0.00    -0.014 A 
BRANCH  34  35
ATOM     35  C   UNL A   1      38.304  29.776  29.665  1.00  0.00     0.031 A 
ATOM     36  C   UNL A   1      38.475  30.336  31.054  1.00  0.00     0.074 A 
ATOM     37  C   UNL A   1      39.310  29.088  29.089  1.00  0.00     0.049 A 
ATOM     38  N   UNL A   1      39.450  30.144  31.910  1.00  0.00    -0.248 NA
ATOM     39  C   UNL A   1      37.447  31.273  31.528  1.00  0.00     0.031 C 
ATOM     40  C   UNL A   1      39.314  28.635  27.694  1.00  0.00     0.029 A 
ATOM     41  N   UNL A   1      40.511  28.646  29.580  1.00  0.00    -0.354 N 
ATOM     42  C   UNL A   1      39.159  30.936  33.020  1.00  0.00     0.074 A 
ATOM     43  C   UNL A   1      37.949  31.663  32.694  1.00  0.00     0.031 C 
ATOM     44  C   UNL A   1      40.422  27.920  27.463  1.00  0.00     0.029 A 
ATOM     45  C   UNL A   1      41.228  27.895  28.675  1.00  0.00     0.049 A 
ATOM     46  H   UNL A   1      40.830  28.845  30.489  1.00  0.00     0.167 HD
ATOM     47  C   UNL A   1      39.829  31.024  34.201  1.00  0.00     0.034 A 
ATOM     48  C   UNL A   1      42.395  27.236  28.812  1.00  0.00     0.034 A 
ATOM     49  C   UNL A   1      41.039  30.277  34.482  1.00  0.00     0.049 A 
ATOM     50  C   UNL A   1      43.068  27.267  30.156  1.00  0.00     0.074 A 
ATOM     51  C   UNL A   1      41.766  30.209  35.660  1.00  0.00     0.029 A 
ATOM     52  N   UNL A   1      41.706  29.471  33.565  1.00  0.00    -0.354 N 
ATOM     53  N   UNL A   1      42.719  27.927  31.239  1.00  0.00    -0.248 NA
ATOM     54  C   UNL A   1      44.268  26.441  30.309  1.00  0.00     0.031 C 
ATOM     55  C   UNL A   1      42.901  29.421  35.435  1.00  0.00     0.029 A 
ATOM     56  C   UNL A   1      42.841  28.920  34.143  1.00  0.00     0.049 A 
ATOM     57  H   UNL A   1      41.415  29.313  32.637  1.00  0.00     0.167 HD
ATOM     58  C   UNL A   1      43.641  27.566  32.213  1.00  0.00     0.074 A 
ATOM     59  C   UNL A   1      44.541  26.611  31.594  1.00  0.00     0.031 C 
ATOM     60  C   UNL A   1      43.738  27.984  33.503  1.00  0.00     0.034 A 
BRANCH  47  61
ATOM     61  C   UNL A   1      39.279  31.951  35.272  1.00  0.00     0.023 A 
ATOM     62  C   UNL A   1      39.697  33.291  35.376  1.00  0.00     0.031 A 
ATOM     63  C   UNL A   1      38.319  31.502  36.199  1.00  0.00     0.131 A 
ATOM     64  C   UNL A   1      39.229  34.101  36.424  1.00  0.00     0.055 A 
ATOM     65  C   UNL A   1      37.788  32.341  37.185  1.00  0.00     0.041 A 
ATOM     66  F   UNL A   1      37.881  30.233  36.173  1.00  0.00    -0.206 F 
ATOM     67  C   UNL A   1      38.255  33.645  37.313  1.00  0.00     0.022 A 
BRANCH  64  68
ATOM     68  S   UNL A   1      40.024  35.709  36.698  1.00  0.00     0.124 S 
ATOM     69  O   UNL A   1      41.431  35.326  36.804  1.00  0.00    -0.237 OA
ATOM     70  O   UNL A   1      39.652  36.455  35.502  1.00  0.00    -0.237 OA
ATOM     71  O   UNL A   1      39.422  36.182  37.943  1.00  0.00    -0.744 OA
ENDBRANCH  64  68
ENDBRANCH  47  61
BRANCH  48  72
ATOM     72  C   UNL A   1      42.947  26.446  27.674  1.00  0.00     0.023 A 
ATOM     73  C   UNL A   1      42.723  25.063  27.578  1.00  0.00     0.031 A 
ATOM     74  C   UNL A   1      43.699  27.061  26.657  1.00  0.00     0.131 A 
ATOM     75  C   UNL A   1      43.281  24.333  26.519  1.00  0.00     0.055 A 
ATOM     76  C   UNL A   1      44.200  26.342  25.571  1.00  0.00     0.041 A 
ATOM     77  F   UNL A   1      43.932  28.383  26.689  1.00  0.00    -0.206 F 
ATOM     78  C   UNL A   1      44.004  24.965  25.505  1.00  0.00     0.022 A 
BRANCH  75  79
ATOM     79  S   UNL A   1      43.127  22.526  26.533  1.00  0.00     0.124 S 
ATOM     80  O   UNL A   1      42.269  22.291  25.378  1.00  0.00    -0.237 OA
ATOM     81  O   UNL A   1      44.516  22.103  26.398  1.00  0.00    -0.237 OA
ATOM     82  O   UNL A   1      42.516  22.248  27.832  1.00  0.00    -0.744 OA
ENDBRANCH  75  79
ENDBRANCH  48  72
BRANCH  60  83
ATOM     83  C   UNL A   1      44.840  27.365  34.328  1.00  0.00     0.023 A 
ATOM     84  C   UNL A   1      44.641  26.179  35.057  1.00  0.00     0.031 A 
ATOM     85  C   UNL A   1      46.088  28.004  34.435  1.00  0.00     0.131 A 
ATOM     86  C   UNL A   1      45.635  25.723  35.933  1.00  0.00     0.055 A 
ATOM     87  C   UNL A   1      47.106  27.497  35.244  1.00  0.00     0.041 A 
ATOM     88  F   UNL A   1      46.335  29.141  33.765  1.00  0.00    -0.206 F 
ATOM     89  C   UNL A   1      46.874  26.362  36.017  1.00  0.00     0.022 A 
BRANCH  86  90
ATOM     90  S   UNL A   1      45.228  24.373  37.075  1.00  0.00     0.124 S 
ATOM     91  O   UNL A   1      46.509  24.140  37.734  1.00  0.00    -0.237 OA
ATOM     92  O   UNL A   1      44.185  24.971  37.903  1.00  0.00    -0.237 OA
ATOM     93  O   UNL A   1      44.779  23.301  36.191  1.00  0.00    -0.744 OA
ENDBRANCH  86  90
ENDBRANCH  60  83
ENDBRANCH  34  35
ENDBRANCH  26  29
ENDBRANCH  24  25
ENDBRANCH   1  24
TORSDOF 16
ENDMDL
MODEL 2
REMARK VINA RESULT:     -11.8      4.957     10.239
REMARK SMILES O=C(Cc1ccccc1-c1ccn(C(F)F)c(=O)c1)NCCCNC(=O)c1ccc(-c2c3nc(c(-c4cc(S(=O)(=O)[O-])ccc4F)c4ccc([nH]4)c(-c4cc(S(=O)(=O)[O-])ccc4F)c4nc(c(-c5cc(S(=O)(=O)[O-])ccc5F)c5ccc2[nH]5)C=C4)C=C3)cc1
REMARK SMILES IDX 22 1 21 2 20 3 1 4 2 5 3 7 4 8 5 9 9 10 6 11 8 12 7 13 10 14
REMARK SMILES IDX 11 15 19 16 12 17 17 18 13 19 18 20 14 21 15 22 16 23 23 24
REMARK SMILES IDX 24 25 25 26 26 28 27 29 28 30 89 31 29 32 88 33 30 34 31 35
REMARK SMILES IDX 32 36 82 37 33 38 87 39 81 40 83 41 34 42 86 43 80 44 79 45
REMARK SMILES IDX 35 47 67 48 47 49 66 50 48 51 51 52 65 53 84 54 49 55 50 56
REMARK SMILES IDX 64 58 85 59 52 60 36 61 37 62 45 63 38 64 44 65 46 66 43 67
REMARK SMILES IDX 39 68 40 69 41 70 42 71 68 72 69 73 77 74 70 75 76 76 78 77
REMARK SMILES IDX 75 78 71 79 72 80 73 81 74 82 53 83 54 84 62 85 55 86 61 87
REMARK SMILES IDX 63 88 60 89 56 90 57 91 58 92 59 93
REMARK H PARENT 20 6 24 27 83 46 51 57
REMARK Flexibility Score: inf
ROOT
ATOM      1  C   UNL A   1      35.693  22.180  24.255  1.00  0.00     0.042 C 
ENDROOT
BRANCH   1   2
ATOM      2  C   UNL A   1      35.461  23.615  23.751  1.00  0.00     0.117 C 
BRANCH   2   3
ATOM      3  N   UNL A   1      34.076  24.086  23.739  1.00  0.00    -0.356 N 
ATOM      4  O   UNL A   1      33.659  23.387  21.583  1.00  0.00    -0.275 OA
ATOM      5  C   UNL A   1      33.246  23.851  22.645  1.00  0.00     0.224 C 
ATOM      6  H   UNL A   1      33.725  24.577  24.516  1.00  0.00     0.163 HD
BRANCH   5   7
ATOM      7  C   UNL A   1      31.768  24.212  22.821  1.00  0.00     0.136 C 
BRANCH   7   8
ATOM      8  C   UNL A   1      31.215  23.925  24.215  1.00  0.00    -0.031 A 
ATOM      9  C   UNL A   1      31.257  22.624  24.743  1.00  0.00     0.005 A 
ATOM     10  C   UNL A   1      30.625  24.929  25.008  1.00  0.00    -0.014 A 
ATOM     11  C   UNL A   1      30.750  22.343  26.020  1.00  0.00     0.000 A 
ATOM     12  C   UNL A   1      30.146  24.646  26.299  1.00  0.00     0.009 A 
ATOM     13  C   UNL A   1      30.210  23.356  26.806  1.00  0.00     0.001 A 
BRANCH  10  14
ATOM     14  C   UNL A   1      30.374  26.269  24.480  1.00  0.00    -0.011 A 
ATOM     15  C   UNL A   1      29.137  26.585  23.803  1.00  0.00     0.027 A 
ATOM     16  C   UNL A   1      31.319  27.208  24.638  1.00  0.00     0.080 A 
ATOM     17  C   UNL A   1      28.927  27.817  23.347  1.00  0.00     0.095 A 
ATOM     18  C   UNL A   1      31.100  28.578  24.114  1.00  0.00     0.255 A 
ATOM     19  N   UNL A   1      29.870  28.811  23.524  1.00  0.00    -0.258 N 
ATOM     20  O   UNL A   1      32.027  29.375  24.232  1.00  0.00    -0.269 OA
BRANCH  19  21
ATOM     21  C   UNL A   1      29.554  30.102  22.973  1.00  0.00     0.451 C 
ATOM     22  F   UNL A   1      28.629  30.069  21.995  1.00  0.00    -0.185 F 
ATOM     23  F   UNL A   1      29.070  30.874  23.981  1.00  0.00    -0.185 F 
ENDBRANCH  19  21
ENDBRANCH  10  14
ENDBRANCH   7   8
ENDBRANCH   5   7
ENDBRANCH   2   3
ENDBRANCH   1   2
BRANCH   1  24
ATOM     24  C   UNL A   1      36.276  21.996  25.668  1.00  0.00     0.118 C 
BRANCH  24  25
ATOM     25  N   UNL A   1      37.391  21.059  25.728  1.00  0.00    -0.352 N 
ATOM     26  C   UNL A   1      38.742  21.213  25.968  1.00  0.00     0.251 C 
ATOM     27  H   UNL A   1      37.126  20.125  25.562  1.00  0.00     0.163 HD
ATOM     28  O   UNL A   1      39.459  20.220  25.814  1.00  0.00    -0.269 OA
BRANCH  26  29
ATOM     29  C   UNL A   1      39.386  22.487  26.408  1.00  0.00     0.039 A 
ATOM     30  C   UNL A   1      40.382  22.446  27.393  1.00  0.00     0.014 A 
ATOM     31  C   UNL A   1      38.954  23.738  25.978  1.00  0.00     0.014 A 
ATOM     32  C   UNL A   1      40.932  23.632  27.912  1.00  0.00     0.010 A 
ATOM     33  C   UNL A   1      39.490  24.926  26.489  1.00  0.00     0.010 A 
ATOM     34  C   UNL A   1      40.503  24.891  27.449  1.00  0.00    -0.014 A 
BRANCH  34  35
ATOM     35  C   UNL A   1      41.239  26.140  27.798  1.00  0.00     0.031 A 
ATOM     36  C   UNL A   1      42.653  26.413  27.350  1.00  0.00     0.074 A 
ATOM     37  C   UNL A   1      40.631  26.985  28.655  1.00  0.00     0.049 A 
ATOM     38  N   UNL A   1      43.399  27.472  27.560  1.00  0.00    -0.248 NA
ATOM     39  C   UNL A   1      43.340  25.341  26.617  1.00  0.00     0.031 C 
ATOM     40  C   UNL A   1      39.325  26.740  29.274  1.00  0.00     0.029 A 
ATOM     41  N   UNL A   1      41.006  28.205  29.154  1.00  0.00    -0.354 N 
ATOM     42  C   UNL A   1      44.641  27.195  26.991  1.00  0.00     0.074 A 
ATOM     43  C   UNL A   1      44.564  25.839  26.488  1.00  0.00     0.031 C 
ATOM     44  C   UNL A   1      38.976  27.803  30.009  1.00  0.00     0.029 A 
ATOM     45  C   UNL A   1      40.046  28.789  29.949  1.00  0.00     0.049 A 
ATOM     46  H   UNL A   1      41.877  28.622  28.964  1.00  0.00     0.167 HD
ATOM     47  C   UNL A   1      45.726  28.009  26.882  1.00  0.00     0.034 A 
ATOM     48  C   UNL A   1      40.017  29.996  30.546  1.00  0.00     0.034 A 
ATOM     49  C   UNL A   1      45.757  29.361  27.402  1.00  0.00     0.049 A 
ATOM     50  C   UNL A   1      41.185  30.917  30.330  1.00  0.00     0.074 A 
ATOM     51  C   UNL A   1      46.755  30.317  27.286  1.00  0.00     0.029 A 
ATOM     52  N   UNL A   1      44.740  29.949  28.148  1.00  0.00    -0.354 N 
ATOM     53  N   UNL A   1      42.309  30.687  29.688  1.00  0.00    -0.248 NA
ATOM     54  C   UNL A   1      41.070  32.267  30.887  1.00  0.00     0.031 C 
ATOM     55  C   UNL A   1      46.371  31.449  28.015  1.00  0.00     0.029 A 
ATOM     56  C   UNL A   1      45.093  31.240  28.513  1.00  0.00     0.049 A 
ATOM     57  H   UNL A   1      43.889  29.511  28.384  1.00  0.00     0.167 HD
ATOM     58  C   UNL A   1      43.021  31.880  29.735  1.00  0.00     0.074 A 
ATOM     59  C   UNL A   1      42.185  32.829  30.444  1.00  0.00     0.031 C 
ATOM     60  C   UNL A   1      44.253  32.167  29.239  1.00  0.00     0.034 A 
BRANCH  47  61
ATOM     61  C   UNL A   1      46.962  27.469  26.181  1.00  0.00     0.023 A 
ATOM     62  C   UNL A   1      47.279  27.831  24.858  1.00  0.00     0.031 A 
ATOM     63  C   UNL A   1      47.843  26.588  26.836  1.00  0.00     0.131 A 
ATOM     64  C   UNL A   1      48.385  27.256  24.211  1.00  0.00     0.055 A 
ATOM     65  C   UNL A   1      48.994  26.089  26.217  1.00  0.00     0.041 A 
ATOM     66  F   UNL A   1      47.600  26.185  28.094  1.00  0.00    -0.206 F 
ATOM     67  C   UNL A   1      49.262  26.409  24.890  1.00  0.00     0.022 A 
BRANCH  64  68
ATOM     68  S   UNL A   1      48.573  27.512  22.424  1.00  0.00     0.124 S 
ATOM     69  O   UNL A   1      49.824  28.266  22.367  1.00  0.00    -0.237 OA
ATOM     70  O   UNL A   1      48.624  26.149  21.912  1.00  0.00    -0.237 OA
ATOM     71  O   UNL A   1      47.380  28.274  22.060  1.00  0.00    -0.744 OA
ENDBRANCH  64  68
ENDBRANCH  47  61
BRANCH  48  72
ATOM     72  C   UNL A   1      38.820  30.415  31.331  1.00  0.00     0.023 A 
ATOM     73  C   UNL A   1      37.738  31.060  30.710  1.00  0.00     0.031 A 
ATOM     74  C   UNL A   1      38.732  30.169  32.713  1.00  0.00     0.131 A 
ATOM     75  C   UNL A   1      36.638  31.477  31.473  1.00  0.00     0.055 A 
ATOM     76  C   UNL A   1      37.608  30.530  33.458  1.00  0.00     0.041 A 
ATOM     77  F   UNL A   1      39.730  29.542  33.356  1.00  0.00    -0.206 F 
ATOM     78  C   UNL A   1      36.557  31.202  32.840  1.00  0.00     0.022 A 
BRANCH  75  79
ATOM     79  S   UNL A   1      35.350  32.470  30.669  1.00  0.00     0.124 S 
ATOM     80  O   UNL A   1      35.152  31.746  29.419  1.00  0.00    -0.237 OA
ATOM     81  O   UNL A   1      34.260  32.393  31.636  1.00  0.00    -0.237 OA
ATOM     82  O   UNL A   1      35.971  33.787  30.537  1.00  0.00    -0.744 OA
ENDBRANCH  75  79
ENDBRANCH  48  72
BRANCH  60  83
ATOM     83  C   UNL A   1      44.736  33.586  29.419  1.00  0.00     0.023 A 
ATOM     84  C   UNL A   1      44.642  34.535  28.387  1.00  0.00     0.031 A 
ATOM     85  C   UNL A   1      45.355  33.974  30.620  1.00  0.00     0.131 A 
ATOM     86  C   UNL A   1      45.242  35.793  28.539  1.00  0.00     0.055 A 
ATOM     87  C   UNL A   1      45.875  35.257  30.797  1.00  0.00     0.041 A 
ATOM     88  F   UNL A   1      45.477  33.109  31.640  1.00  0.00    -0.206 F 
ATOM     89  C   UNL A   1      45.840  36.168  29.744  1.00  0.00     0.022 A 
BRANCH  86  90
ATOM     90  S   UNL A   1      45.365  36.873  27.087  1.00  0.00     0.124 S 
ATOM     91  O   UNL A   1      45.712  35.923  26.034  1.00  0.00    -0.237 OA
ATOM     92  O   UNL A   1      44.025  37.446  27.011  1.00  0.00    -0.237 OA
ATOM     93  O   UNL A   1      46.422  37.814  27.449  1.00  0.00    -0.744 OA
ENDBRANCH  86  90
ENDBRANCH  60  83
ENDBRANCH  34  35
ENDBRANCH  26  29
ENDBRANCH  24  25
ENDBRANCH   1  24
TORSDOF 16
ENDMDL
MODEL 3
REMARK VINA RESULT:     -11.6      2.000      2.800
REMARK SMILES O=C(Cc1ccccc1-c1ccn(C(F)F)c(=O)c1)NCCCNC(=O)c1ccc(-c2c3nc(c(-c4cc(S(=O)(=O)[O-])ccc4F)c4ccc([nH]4)c(-c4cc(S(=O)(=O)[O-])ccc4F)c4nc(c(-c5cc(S(=O)(=O)[O-])ccc5F)c5ccc2[nH]5)C=C4)C=C3)cc1
REMARK SMILES IDX 22 1 21 2 20 3 1 4 2 5 3 7 4 8 5 9 9 10 6 11 8 12 7 13 10 14
REMARK SMILES IDX 11 15 19 16 12 17 17 18 13 19 18 20 14 21 15 22 16 23 23 24
REMARK SMILES IDX 24 25 25 26 26 28 27 29 28 30 89 31 29 32 88 33 30 34 31 35
REMARK SMILES IDX 32 36 82 37 33 38 87 39 81 40 83 41 34 42 86 43 80 44 79 45
REMARK SMILES IDX 35 47 67 48 47 49 66 50 48 51 51 52 65 53 84 54 49 55 50 56
REMARK SMILES IDX 64 58 85 59 52 60 36 61 37 62 45 63 38 64 44 65 46 66 43 67
REMARK SMILES IDX 39 68 40 69 41 70 42 71 68 72 69 73 77 74 70 75 76 76 78 77
REMARK SMILES IDX 75 78 71 79 72 80 73 81 74 82 53 83 54 84 62 85 55 86 61 87
REMARK SMILES IDX 63 88 60 89 56 90 57 91 58 92 59 93
REMARK H PARENT 20 6 24 27 83 46 51 57
REMARK Flexibility Score: inf
ROOT
ATOM      1  C   UNL A   1      31.488  28.321  26.150  1.00  0.00     0.042 C 
ENDROOT
BRANCH   1   2
ATOM      2  C   UNL A   1      31.864  26.974  26.792  1.00  0.00     0.117 C 
BRANCH   2   3
ATOM      3  N   UNL A   1      31.870  25.809  25.906  1.00  0.00    -0.356 N 
ATOM      4  O   UNL A   1      29.927  24.913  26.762  1.00  0.00    -0.275 OA
ATOM      5  C   UNL A   1      30.821  24.892  25.917  1.00  0.00     0.224 C 
ATOM      6  H   UNL A   1      32.626  25.671  25.293  1.00  0.00     0.163 HD
BRANCH   5   7
ATOM      7  C   UNL A   1      30.836  23.827  24.817  1.00  0.00     0.136 C 
BRANCH   7   8
ATOM      8  C   UNL A   1      31.499  24.277  23.518  1.00  0.00    -0.031 A 
ATOM      9  C   UNL A   1      31.096  25.468  22.890  1.00  0.00     0.005 A 
ATOM     10  C   UNL A   1      32.506  23.520  22.889  1.00  0.00    -0.014 A 
ATOM     11  C   UNL A   1      31.693  25.894  21.694  1.00  0.00     0.000 A 
ATOM     12  C   UNL A   1      33.120  23.968  21.706  1.00  0.00     0.009 A 
ATOM     13  C   UNL A   1      32.716  25.155  21.111  1.00  0.00     0.001 A 
BRANCH  10  14
ATOM     14  C   UNL A   1      32.867  22.185  23.365  1.00  0.00    -0.011 A 
ATOM     15  C   UNL A   1      33.866  22.003  24.393  1.00  0.00     0.027 A 
ATOM     16  C   UNL A   1      32.247  21.124  22.828  1.00  0.00     0.080 A 
ATOM     17  C   UNL A   1      34.163  20.779  24.820  1.00  0.00     0.095 A 
ATOM     18  C   UNL A   1      32.588  19.754  23.284  1.00  0.00     0.255 A 
ATOM     19  N   UNL A   1      33.517  19.671  24.306  1.00  0.00    -0.258 N 
ATOM     20  O   UNL A   1      32.034  18.820  22.709  1.00  0.00    -0.269 OA
BRANCH  19  21
ATOM     21  C   UNL A   1      33.930  18.392  24.820  1.00  0.00     0.451 C 
ATOM     22  F   UNL A   1      32.941  17.691  25.405  1.00  0.00    -0.185 F 
ATOM     23  F   UNL A   1      34.402  17.661  23.776  1.00  0.00    -0.185 F 
ENDBRANCH  19  21
ENDBRANCH  10  14
ENDBRANCH   7   8
ENDBRANCH   5   7
ENDBRANCH   2   3
ENDBRANCH   1   2
BRANCH   1  24
ATOM     24  C   UNL A   1      32.630  29.263  25.728  1.00  0.00     0.118 C 
BRANCH  24  25
ATOM     25  N   UNL A   1      32.446  30.643  26.160  1.00  0.00    -0.352 N 
ATOM     26  C   UNL A   1      33.109  31.445  27.068  1.00  0.00     0.251 C 
ATOM     27  H   UNL A   1      31.695  31.095  25.712  1.00  0.00     0.163 HD
ATOM     28  O   UNL A   1      32.615  32.550  27.309  1.00  0.00    -0.269 OA
BRANCH  26  29
ATOM     29  C   UNL A   1      34.377  31.072  27.762  1.00  0.00     0.039 A 
ATOM     30  C   UNL A   1      35.337  32.061  28.014  1.00  0.00     0.014 A 
ATOM     31  C   UNL A   1      34.714  29.755  28.061  1.00  0.00     0.014 A 
ATOM     32  C   UNL A   1      36.588  31.729  28.564  1.00  0.00     0.010 A 
ATOM     33  C   UNL A   1      35.957  29.410  28.605  1.00  0.00     0.010 A 
ATOM     34  C   UNL A   1      36.906  30.395  28.885  1.00  0.00    -0.014 A 
BRANCH  34  35
ATOM     35  C   UNL A   1      38.113  30.056  29.692  1.00  0.00     0.031 A 
ATOM     36  C   UNL A   1      38.333  30.562  31.096  1.00  0.00     0.074 A 
ATOM     37  C   UNL A   1      39.089  29.367  29.066  1.00  0.00     0.049 A 
ATOM     38  N   UNL A   1      39.326  30.318  31.918  1.00  0.00    -0.248 NA
ATOM     39  C   UNL A   1      37.339  31.503  31.629  1.00  0.00     0.031 C 
ATOM     40  C   UNL A   1      39.046  28.964  27.656  1.00  0.00     0.029 A 
ATOM     41  N   UNL A   1      40.291  28.882  29.509  1.00  0.00    -0.354 N 
ATOM     42  C   UNL A   1      39.081  31.075  33.063  1.00  0.00     0.074 A 
ATOM     43  C   UNL A   1      37.879  31.839  32.795  1.00  0.00     0.031 C 
ATOM     44  C   UNL A   1      40.132  28.235  27.371  1.00  0.00     0.029 A 
ATOM     45  C   UNL A   1      40.968  28.149  28.559  1.00  0.00     0.049 A 
ATOM     46  H   UNL A   1      40.638  29.042  30.416  1.00  0.00     0.167 HD
ATOM     47  C   UNL A   1      39.783  31.106  34.227  1.00  0.00     0.034 A 
ATOM     48  C   UNL A   1      42.123  27.460  28.642  1.00  0.00     0.034 A 
ATOM     49  C   UNL A   1      40.983  30.324  34.450  1.00  0.00     0.049 A 
ATOM     50  C   UNL A   1      42.831  27.429  29.967  1.00  0.00     0.074 A 
ATOM     51  C   UNL A   1      41.739  30.198  35.605  1.00  0.00     0.029 A 
ATOM     52  N   UNL A   1      41.608  29.537  33.487  1.00  0.00    -0.354 N 
ATOM     53  N   UNL A   1      42.525  28.056  31.081  1.00  0.00    -0.248 NA
ATOM     54  C   UNL A   1      44.016  26.572  30.059  1.00  0.00     0.031 C 
ATOM     55  C   UNL A   1      42.850  29.395  35.321  1.00  0.00     0.029 A 
ATOM     56  C   UNL A   1      42.745  28.942  34.015  1.00  0.00     0.049 A 
ATOM     57  H   UNL A   1      41.289  29.419  32.563  1.00  0.00     0.167 HD
ATOM     58  C   UNL A   1      43.464  27.641  32.018  1.00  0.00     0.074 A 
ATOM     59  C   UNL A   1      44.325  26.690  31.342  1.00  0.00     0.031 C 
ATOM     60  C   UNL A   1      43.604  28.010  33.318  1.00  0.00     0.034 A 
BRANCH  47  61
ATOM     61  C   UNL A   1      39.282  32.006  35.345  1.00  0.00     0.023 A 
ATOM     62  C   UNL A   1      39.702  33.345  35.461  1.00  0.00     0.031 A 
ATOM     63  C   UNL A   1      38.368  31.533  36.305  1.00  0.00     0.131 A 
ATOM     64  C   UNL A   1      39.281  34.128  36.549  1.00  0.00     0.055 A 
ATOM     65  C   UNL A   1      37.882  32.345  37.335  1.00  0.00     0.041 A 
ATOM     66  F   UNL A   1      37.933  30.262  36.270  1.00  0.00    -0.206 F 
ATOM     67  C   UNL A   1      38.352  33.648  37.471  1.00  0.00     0.022 A 
BRANCH  64  68
ATOM     68  S   UNL A   1      40.085  35.732  36.823  1.00  0.00     0.124 S 
ATOM     69  O   UNL A   1      41.495  35.352  36.850  1.00  0.00    -0.237 OA
ATOM     70  O   UNL A   1      39.652  36.506  35.666  1.00  0.00    -0.237 OA
ATOM     71  O   UNL A   1      39.543  36.172  38.108  1.00  0.00    -0.744 OA
ENDBRANCH  64  68
ENDBRANCH  47  61
BRANCH  48  72
ATOM     72  C   UNL A   1      42.627  26.700  27.462  1.00  0.00     0.023 A 
ATOM     73  C   UNL A   1      42.313  25.342  27.289  1.00  0.00     0.031 A 
ATOM     74  C   UNL A   1      43.424  27.320  26.482  1.00  0.00     0.131 A 
ATOM     75  C   UNL A   1      42.828  24.637  26.191  1.00  0.00     0.055 A 
ATOM     76  C   UNL A   1      43.882  26.630  25.358  1.00  0.00     0.041 A 
ATOM     77  F   UNL A   1      43.743  28.620  26.587  1.00  0.00    -0.206 F 
ATOM     78  C   UNL A   1      43.596  25.275  25.215  1.00  0.00     0.022 A 
BRANCH  75  79
ATOM     79  S   UNL A   1      42.555  22.846  26.104  1.00  0.00     0.124 S 
ATOM     80  O   UNL A   1      43.328  22.371  27.245  1.00  0.00    -0.237 OA
ATOM     81  O   UNL A   1      41.104  22.755  26.228  1.00  0.00    -0.237 OA
ATOM     82  O   UNL A   1      43.090  22.484  24.793  1.00  0.00    -0.744 OA
ENDBRANCH  75  79
ENDBRANCH  48  72
BRANCH  60  83
ATOM     83  C   UNL A   1      44.713  27.338  34.092  1.00  0.00     0.023 A 
ATOM     84  C   UNL A   1      44.545  26.069  34.672  1.00  0.00     0.031 A 
ATOM     85  C   UNL A   1      45.933  28.005  34.302  1.00  0.00     0.131 A 
ATOM     86  C   UNL A   1      45.539  25.549  35.512  1.00  0.00     0.055 A 
ATOM     87  C   UNL A   1      46.953  27.443  35.070  1.00  0.00     0.041 A 
ATOM     88  F   UNL A   1      46.149  29.221  33.775  1.00  0.00    -0.206 F 
ATOM     89  C   UNL A   1      46.751  26.218  35.699  1.00  0.00     0.022 A 
BRANCH  86  90
ATOM     90  S   UNL A   1      45.162  24.061  36.479  1.00  0.00     0.124 S 
ATOM     91  O   UNL A   1      46.409  23.311  36.374  1.00  0.00    -0.237 OA
ATOM     92  O   UNL A   1      44.860  24.614  37.795  1.00  0.00    -0.237 OA
ATOM     93  O   UNL A   1      44.023  23.475  35.775  1.00  0.00    -0.744 OA
ENDBRANCH  86  90
ENDBRANCH  60  83
ENDBRANCH  34  35
ENDBRANCH  26  29
ENDBRANCH  24  25
ENDBRANCH   1  24
TORSDOF 16
ENDMDL
