MODEL 1
REMARK VINA RESULT:     -10.8      0.000      0.000
REMARK SMILES Cc1oc2c(C)c3oc(=O)c(CCC(=O)N[C@H](Cc4ccc(Cl)cc4)C(=O)NCCCNC(=O)c4ccc(-c5c6nc(c(-c7cc(S(=O)(=O)[O-])ccc7F)c7ccc([nH]7)c(-c7cc(S(=O)(=O)[O-])ccc7F)c7nc(c(-c8cc(S(=O)(=O)[O-])ccc8F)c8ccc5[nH]8)C=C7)C=C6)cc4)c(C)c3cc2c1C
REMARK SMILES IDX 29 1 28 2 26 3 27 4 17 6 16 7 14 8 15 9 13 11 12 12 11 13
REMARK SMILES IDX 1 14 2 15 3 16 103 17 4 18 102 19 104 20 5 21 101 22 6 23
REMARK SMILES IDX 7 24 100 25 8 26 98 27 9 28 99 29 10 30 18 31 19 32 20 33
REMARK SMILES IDX 25 34 21 35 24 36 22 37 23 38 30 39 31 40 32 41 33 42 34 44
REMARK SMILES IDX 35 45 36 46 97 47 37 48 96 49 38 50 39 51 40 52 90 53 41 54
REMARK SMILES IDX 95 55 89 56 91 57 42 58 94 59 88 60 87 61 43 63 75 64 55 65
REMARK SMILES IDX 74 66 56 67 59 68 73 69 92 70 57 71 58 72 72 74 93 75 60 76
REMARK SMILES IDX 44 77 45 78 53 79 46 80 52 81 54 82 51 83 47 84 48 85 49 86
REMARK SMILES IDX 50 87 76 88 77 89 85 90 78 91 84 92 86 93 83 94 79 95 80 96
REMARK SMILES IDX 81 97 82 98 61 99 62 100 70 101 63 102 69 103 71 104 68 105
REMARK SMILES IDX 64 106 65 107 66 108 67 109
REMARK H PARENT 28 5 16 10 32 43 91 62 59 73
REMARK Flexibility Score: inf
ROOT
ATOM      1  C   UNL A   1      43.211  32.012  29.917  1.00  0.00     0.117 C 
ENDROOT
BRANCH   1   2
ATOM      2  N   UNL A   1      42.961  31.274  31.141  1.00  0.00    -0.354 N 
ATOM      3  C   UNL A   1      41.847  31.398  31.919  1.00  0.00     0.242 C 
ATOM      4  O   UNL A   1      42.015  31.715  33.098  1.00  0.00    -0.273 OA
ATOM      5  H   UNL A   1      43.650  30.634  31.432  1.00  0.00     0.163 HD
BRANCH   3   6
ATOM      6  C   UNL A   1      40.424  31.309  31.330  1.00  0.00     0.175 C 
BRANCH   6   7
ATOM      7  N   UNL A   1      39.541  32.416  31.734  1.00  0.00    -0.344 N 
ATOM      8  C   UNL A   1      38.380  32.871  31.173  1.00  0.00     0.220 C 
ATOM      9  O   UNL A   1      37.875  33.895  31.641  1.00  0.00    -0.275 OA
ATOM     10  H   UNL A   1      39.833  32.905  32.537  1.00  0.00     0.164 HD
BRANCH   8  11
ATOM     11  C   UNL A   1      37.722  32.155  30.000  1.00  0.00     0.105 C 
BRANCH  11  12
ATOM     12  C   UNL A   1      36.470  31.322  30.298  1.00  0.00     0.053 C 
BRANCH  12  13
ATOM     13  C   UNL A   1      35.559  31.213  29.098  1.00  0.00     0.042 A 
ATOM     14  C   UNL A   1      30.890  27.338  23.246  1.00  0.00     0.088 C 
ATOM     15  C   UNL A   1      31.704  27.902  24.342  1.00  0.00     0.105 A 
ATOM     16  O   UNL A   1      31.352  29.146  24.784  1.00  0.00    -0.461 OA
ATOM     17  C   UNL A   1      32.810  27.439  25.027  1.00  0.00    -0.002 A 
ATOM     18  C   UNL A   1      32.292  29.536  25.696  1.00  0.00     0.141 A 
ATOM     19  C   UNL A   1      33.249  28.540  25.811  1.00  0.00     0.025 A 
ATOM     20  C   UNL A   1      33.456  26.106  24.970  1.00  0.00     0.049 C 
ATOM     21  C   UNL A   1      32.308  30.734  26.422  1.00  0.00     0.036 A 
ATOM     22  C   UNL A   1      34.361  28.758  26.630  1.00  0.00     0.024 A 
ATOM     23  C   UNL A   1      31.151  31.684  26.412  1.00  0.00     0.052 C 
ATOM     24  C   UNL A   1      33.464  30.911  27.221  1.00  0.00     0.145 A 
ATOM     25  C   UNL A   1      34.494  29.968  27.318  1.00  0.00     0.022 A 
ATOM     26  O   UNL A   1      33.538  32.085  28.007  1.00  0.00    -0.422 OA
ATOM     27  C   UNL A   1      35.623  30.182  28.234  1.00  0.00    -0.030 A 
ATOM     28  C   UNL A   1      34.516  32.273  28.971  1.00  0.00     0.339 A 
ATOM     29  C   UNL A   1      36.720  29.143  28.235  1.00  0.00     0.046 C 
ATOM     30  O   UNL A   1      34.516  33.267  29.690  1.00  0.00    -0.246 OA
ENDBRANCH  12  13
ENDBRANCH  11  12
ENDBRANCH   8  11
ENDBRANCH   6   7
BRANCH   6  31
ATOM     31  C   UNL A   1      39.838  29.905  31.576  1.00  0.00     0.070 C 
BRANCH  31  32
ATOM     32  C   UNL A   1      39.797  29.107  30.288  1.00  0.00    -0.045 A 
ATOM     33  C   UNL A   1      39.451  27.745  30.326  1.00  0.00     0.005 A 
ATOM     34  C   UNL A   1      40.256  29.664  29.087  1.00  0.00     0.005 A 
ATOM     35  C   UNL A   1      39.631  26.938  29.200  1.00  0.00     0.021 A 
ATOM     36  C   UNL A   1      40.445  28.851  27.965  1.00  0.00     0.021 A 
ATOM     37  C   UNL A   1      40.147  27.490  28.032  1.00  0.00     0.041 A 
ATOM     38  Cl  UNL A   1      40.457  26.483  26.671  1.00  0.00    -0.084 Cl
ENDBRANCH  31  32
ENDBRANCH   6  31
ENDBRANCH   3   6
ENDBRANCH   1   2
BRANCH   1  39
ATOM     39  C   UNL A   1      42.910  33.513  30.086  1.00  0.00     0.042 C 
BRANCH  39  40
ATOM     40  C   UNL A   1      44.068  34.466  29.724  1.00  0.00     0.118 C 
BRANCH  40  41
ATOM     41  N   UNL A   1      43.975  34.882  28.337  1.00  0.00    -0.352 N 
ATOM     42  C   UNL A   1      44.588  34.381  27.219  1.00  0.00     0.251 C 
ATOM     43  H   UNL A   1      43.376  35.647  28.173  1.00  0.00     0.163 HD
ATOM     44  O   UNL A   1      44.875  35.182  26.329  1.00  0.00    -0.269 OA
BRANCH  42  45
ATOM     45  C   UNL A   1      44.843  32.932  27.008  1.00  0.00     0.039 A 
ATOM     46  C   UNL A   1      43.778  32.151  26.534  1.00  0.00     0.014 A 
ATOM     47  C   UNL A   1      46.009  32.298  27.446  1.00  0.00     0.014 A 
ATOM     48  C   UNL A   1      43.875  30.758  26.490  1.00  0.00     0.010 A 
ATOM     49  C   UNL A   1      46.105  30.898  27.402  1.00  0.00     0.010 A 
ATOM     50  C   UNL A   1      45.042  30.116  26.921  1.00  0.00    -0.014 A 
BRANCH  50  51
ATOM     51  C   UNL A   1      45.143  28.649  26.721  1.00  0.00     0.031 A 
ATOM     52  C   UNL A   1      46.446  28.180  26.159  1.00  0.00     0.074 A 
ATOM     53  C   UNL A   1      44.374  27.757  27.389  1.00  0.00     0.049 A 
ATOM     54  N   UNL A   1      47.509  28.047  26.896  1.00  0.00    -0.248 NA
ATOM     55  C   UNL A   1      46.712  28.092  24.724  1.00  0.00     0.031 C 
ATOM     56  C   UNL A   1      43.871  27.984  28.750  1.00  0.00     0.029 A 
ATOM     57  N   UNL A   1      44.084  26.431  27.143  1.00  0.00    -0.354 N 
ATOM     58  C   UNL A   1      48.587  27.872  26.048  1.00  0.00     0.074 A 
ATOM     59  C   UNL A   1      48.043  27.906  24.707  1.00  0.00     0.031 C 
ATOM     60  C   UNL A   1      43.503  26.798  29.279  1.00  0.00     0.029 A 
ATOM     61  C   UNL A   1      43.592  25.750  28.261  1.00  0.00     0.049 A 
ATOM     62  H   UNL A   1      44.212  26.004  26.264  1.00  0.00     0.167 HD
ATOM     63  C   UNL A   1      49.857  27.715  26.505  1.00  0.00     0.034 A 
ATOM     64  C   UNL A   1      43.854  24.444  28.553  1.00  0.00     0.034 A 
ATOM     65  C   UNL A   1      50.002  27.735  27.931  1.00  0.00     0.049 A 
ATOM     66  C   UNL A   1      45.334  24.491  28.836  1.00  0.00     0.074 A 
ATOM     67  C   UNL A   1      50.280  28.672  28.904  1.00  0.00     0.029 A 
ATOM     68  N   UNL A   1      49.727  26.583  28.630  1.00  0.00    -0.354 N 
ATOM     69  N   UNL A   1      45.897  24.939  29.926  1.00  0.00    -0.248 NA
ATOM     70  C   UNL A   1      46.238  24.358  27.691  1.00  0.00     0.031 C 
ATOM     71  C   UNL A   1      49.680  28.163  30.099  1.00  0.00     0.029 A 
ATOM     72  C   UNL A   1      49.049  26.967  29.761  1.00  0.00     0.049 A 
ATOM     73  H   UNL A   1      49.970  25.664  28.372  1.00  0.00     0.167 HD
ATOM     74  C   UNL A   1      47.158  25.391  29.537  1.00  0.00     0.074 A 
ATOM     75  C   UNL A   1      47.310  24.989  28.152  1.00  0.00     0.031 C 
ATOM     76  C   UNL A   1      47.934  26.218  30.295  1.00  0.00     0.034 A 
BRANCH  63  77
ATOM     77  C   UNL A   1      51.031  27.396  25.669  1.00  0.00     0.023 A 
ATOM     78  C   UNL A   1      51.460  28.367  24.753  1.00  0.00     0.031 A 
ATOM     79  C   UNL A   1      51.573  26.108  25.583  1.00  0.00     0.131 A 
ATOM     80  C   UNL A   1      52.369  28.028  23.747  1.00  0.00     0.055 A 
ATOM     81  C   UNL A   1      52.498  25.778  24.587  1.00  0.00     0.041 A 
ATOM     82  F   UNL A   1      51.174  25.141  26.426  1.00  0.00    -0.206 F 
ATOM     83  C   UNL A   1      52.889  26.738  23.651  1.00  0.00     0.022 A 
BRANCH  80  84
ATOM     84  S   UNL A   1      52.781  29.297  22.521  1.00  0.00     0.124 S 
ATOM     85  O   UNL A   1      54.162  29.611  22.862  1.00  0.00    -0.237 OA
ATOM     86  O   UNL A   1      52.576  28.576  21.270  1.00  0.00    -0.237 OA
ATOM     87  O   UNL A   1      51.811  30.358  22.797  1.00  0.00    -0.744 OA
ENDBRANCH  80  84
ENDBRANCH  63  77
BRANCH  64  88
ATOM     88  C   UNL A   1      43.236  23.391  27.678  1.00  0.00     0.023 A 
ATOM     89  C   UNL A   1      44.049  22.736  26.728  1.00  0.00     0.031 A 
ATOM     90  C   UNL A   1      41.877  23.025  27.690  1.00  0.00     0.131 A 
ATOM     91  C   UNL A   1      43.539  21.700  25.928  1.00  0.00     0.055 A 
ATOM     92  C   UNL A   1      41.377  21.967  26.920  1.00  0.00     0.041 A 
ATOM     93  F   UNL A   1      40.989  23.674  28.455  1.00  0.00    -0.206 F 
ATOM     94  C   UNL A   1      42.214  21.284  26.045  1.00  0.00     0.022 A 
BRANCH  91  95
ATOM     95  S   UNL A   1      44.649  20.863  24.762  1.00  0.00     0.124 S 
ATOM     96  O   UNL A   1      44.004  19.562  24.607  1.00  0.00    -0.237 OA
ATOM     97  O   UNL A   1      44.601  21.741  23.596  1.00  0.00    -0.237 OA
ATOM     98  O   UNL A   1      45.931  20.844  25.463  1.00  0.00    -0.744 OA
ENDBRANCH  91  95
ENDBRANCH  64  88
BRANCH  76  99
ATOM     99  C   UNL A   1      47.436  26.520  31.672  1.00  0.00     0.023 A 
ATOM    100  C   UNL A   1      46.441  27.490  31.859  1.00  0.00     0.031 A 
ATOM    101  C   UNL A   1      47.892  25.804  32.791  1.00  0.00     0.131 A 
ATOM    102  C   UNL A   1      45.901  27.698  33.135  1.00  0.00     0.055 A 
ATOM    103  C   UNL A   1      47.337  25.997  34.057  1.00  0.00     0.041 A 
ATOM    104  F   UNL A   1      48.859  24.878  32.677  1.00  0.00    -0.206 F 
ATOM    105  C   UNL A   1      46.329  26.943  34.232  1.00  0.00     0.022 A 
BRANCH 102 106
ATOM    106  S   UNL A   1      44.577  28.918  33.341  1.00  0.00     0.124 S 
ATOM    107  O   UNL A   1      45.239  30.166  32.975  1.00  0.00    -0.237 OA
ATOM    108  O   UNL A   1      43.553  28.440  32.416  1.00  0.00    -0.237 OA
ATOM    109  O   UNL A   1      44.223  28.798  34.755  1.00  0.00    -0.744 OA
ENDBRANCH 102 106
ENDBRANCH  76  99
ENDBRANCH  50  51
ENDBRANCH  42  45
ENDBRANCH  40  41
ENDBRANCH  39  40
ENDBRANCH   1  39
TORSDOF 19
ENDMDL
MODEL 2
REMARK VINA RESULT:     -10.4      5.157     12.037
REMARK SMILES Cc1oc2c(C)c3oc(=O)c(CCC(=O)N[C@H](Cc4ccc(Cl)cc4)C(=O)NCCCNC(=O)c4ccc(-c5c6nc(c(-c7cc(S(=O)(=O)[O-])ccc7F)c7ccc([nH]7)c(-c7cc(S(=O)(=O)[O-])ccc7F)c7nc(c(-c8cc(S(=O)(=O)[O-])ccc8F)c8ccc5[nH]8)C=C7)C=C6)cc4)c(C)c3cc2c1C
REMARK SMILES IDX 29 1 28 2 26 3 27 4 17 6 16 7 14 8 15 9 13 11 12 12 11 13
REMARK SMILES IDX 1 14 2 15 3 16 103 17 4 18 102 19 104 20 5 21 101 22 6 23
REMARK SMILES IDX 7 24 100 25 8 26 98 27 9 28 99 29 10 30 18 31 19 32 20 33
REMARK SMILES IDX 25 34 21 35 24 36 22 37 23 38 30 39 31 40 32 41 33 42 34 44
REMARK SMILES IDX 35 45 36 46 97 47 37 48 96 49 38 50 39 51 40 52 90 53 41 54
REMARK SMILES IDX 95 55 89 56 91 57 42 58 94 59 88 60 87 61 43 63 75 64 55 65
REMARK SMILES IDX 74 66 56 67 59 68 73 69 92 70 57 71 58 72 72 74 93 75 60 76
REMARK SMILES IDX 44 77 45 78 53 79 46 80 52 81 54 82 51 83 47 84 48 85 49 86
REMARK SMILES IDX 50 87 76 88 77 89 85 90 78 91 84 92 86 93 83 94 79 95 80 96
REMARK SMILES IDX 81 97 82 98 61 99 62 100 70 101 63 102 69 103 71 104 68 105
REMARK SMILES IDX 64 106 65 107 66 108 67 109
REMARK H PARENT 28 5 16 10 32 43 91 62 59 73
REMARK Flexibility Score: inf
ROOT
ATOM      1  C   UNL A   1      32.221  26.047  26.509  1.00  0.00     0.117 C 
ENDROOT
BRANCH   1   2
ATOM      2  N   UNL A   1      31.073  25.618  25.732  1.00  0.00    -0.354 N 
ATOM      3  C   UNL A   1      31.134  24.989  24.522  1.00  0.00     0.242 C 
ATOM      4  O   UNL A   1      30.556  25.529  23.576  1.00  0.00    -0.273 OA
ATOM      5  H   UNL A   1      30.181  25.796  26.108  1.00  0.00     0.163 HD
BRANCH   3   6
ATOM      6  C   UNL A   1      32.015  23.745  24.292  1.00  0.00     0.175 C 
BRANCH   6   7
ATOM      7  N   UNL A   1      32.385  23.529  22.882  1.00  0.00    -0.344 N 
ATOM      8  C   UNL A   1      33.615  23.500  22.286  1.00  0.00     0.220 C 
ATOM      9  O   UNL A   1      33.658  23.407  21.056  1.00  0.00    -0.275 OA
ATOM     10  H   UNL A   1      31.625  23.382  22.274  1.00  0.00     0.164 HD
BRANCH   8  11
ATOM     11  C   UNL A   1      34.902  23.588  23.096  1.00  0.00     0.105 C 
BRANCH  11  12
ATOM     12  C   UNL A   1      35.334  22.334  23.867  1.00  0.00     0.053 C 
BRANCH  12  13
ATOM     13  C   UNL A   1      36.332  22.650  24.955  1.00  0.00     0.042 A 
ATOM     14  C   UNL A   1      43.840  22.750  28.786  1.00  0.00     0.088 C 
ATOM     15  C   UNL A   1      42.591  22.701  28.000  1.00  0.00     0.105 A 
ATOM     16  O   UNL A   1      41.714  23.732  28.187  1.00  0.00    -0.461 OA
ATOM     17  C   UNL A   1      42.078  21.786  27.102  1.00  0.00    -0.002 A 
ATOM     18  C   UNL A   1      40.583  23.439  27.479  1.00  0.00     0.141 A 
ATOM     19  C   UNL A   1      40.743  22.209  26.863  1.00  0.00     0.025 A 
ATOM     20  C   UNL A   1      42.726  20.590  26.512  1.00  0.00     0.049 C 
ATOM     21  C   UNL A   1      39.436  24.237  27.365  1.00  0.00     0.036 A 
ATOM     22  C   UNL A   1      39.672  21.663  26.148  1.00  0.00     0.024 A 
ATOM     23  C   UNL A   1      39.390  25.641  27.882  1.00  0.00     0.052 C 
ATOM     24  C   UNL A   1      38.378  23.628  26.647  1.00  0.00     0.145 A 
ATOM     25  C   UNL A   1      38.462  22.359  26.065  1.00  0.00     0.022 A 
ATOM     26  O   UNL A   1      37.196  24.385  26.464  1.00  0.00    -0.422 OA
ATOM     27  C   UNL A   1      37.353  21.826  25.260  1.00  0.00    -0.030 A 
ATOM     28  C   UNL A   1      36.178  23.979  25.617  1.00  0.00     0.339 A 
ATOM     29  C   UNL A   1      37.502  20.425  24.716  1.00  0.00     0.046 C 
ATOM     30  O   UNL A   1      35.196  24.687  25.419  1.00  0.00    -0.246 OA
ENDBRANCH  12  13
ENDBRANCH  11  12
ENDBRANCH   8  11
ENDBRANCH   6   7
BRANCH   6  31
ATOM     31  C   UNL A   1      31.385  22.517  24.979  1.00  0.00     0.070 C 
BRANCH  31  32
ATOM     32  C   UNL A   1      32.183  21.265  24.675  1.00  0.00    -0.045 A 
ATOM     33  C   UNL A   1      32.001  20.607  23.446  1.00  0.00     0.005 A 
ATOM     34  C   UNL A   1      32.975  20.664  25.664  1.00  0.00     0.005 A 
ATOM     35  C   UNL A   1      32.542  19.337  23.237  1.00  0.00     0.021 A 
ATOM     36  C   UNL A   1      33.506  19.387  25.454  1.00  0.00     0.021 A 
ATOM     37  C   UNL A   1      33.274  18.724  24.250  1.00  0.00     0.041 A 
ATOM     38  Cl  UNL A   1      33.865  17.122  24.032  1.00  0.00    -0.084 Cl
ENDBRANCH  31  32
ENDBRANCH   6  31
ENDBRANCH   3   6
ENDBRANCH   1   2
BRANCH   1  39
ATOM     39  C   UNL A   1      33.045  27.114  25.765  1.00  0.00     0.042 C 
BRANCH  39  40
ATOM     40  C   UNL A   1      34.060  27.889  26.630  1.00  0.00     0.118 C 
BRANCH  40  41
ATOM     41  N   UNL A   1      34.148  29.273  26.202  1.00  0.00    -0.352 N 
ATOM     42  C   UNL A   1      34.301  30.419  26.937  1.00  0.00     0.251 C 
ATOM     43  H   UNL A   1      34.087  29.411  25.229  1.00  0.00     0.163 HD
ATOM     44  O   UNL A   1      33.752  31.436  26.513  1.00  0.00    -0.269 OA
BRANCH  42  45
ATOM     45  C   UNL A   1      35.147  30.500  28.156  1.00  0.00     0.039 A 
ATOM     46  C   UNL A   1      34.786  31.442  29.132  1.00  0.00     0.014 A 
ATOM     47  C   UNL A   1      36.373  29.837  28.272  1.00  0.00     0.014 A 
ATOM     48  C   UNL A   1      35.630  31.714  30.212  1.00  0.00     0.010 A 
ATOM     49  C   UNL A   1      37.219  30.113  29.357  1.00  0.00     0.010 A 
ATOM     50  C   UNL A   1      36.856  31.050  30.338  1.00  0.00    -0.014 A 
BRANCH  50  51
ATOM     51  C   UNL A   1      37.644  31.275  31.574  1.00  0.00     0.031 A 
ATOM     52  C   UNL A   1      38.715  30.264  31.829  1.00  0.00     0.074 A 
ATOM     53  C   UNL A   1      37.746  32.483  32.177  1.00  0.00     0.049 A 
ATOM     54  N   UNL A   1      39.861  30.301  31.216  1.00  0.00    -0.248 NA
ATOM     55  C   UNL A   1      38.482  29.021  32.562  1.00  0.00     0.031 C 
ATOM     56  C   UNL A   1      37.697  33.756  31.447  1.00  0.00     0.029 A 
ATOM     57  N   UNL A   1      38.142  32.843  33.449  1.00  0.00    -0.354 N 
ATOM     58  C   UNL A   1      40.504  29.101  31.457  1.00  0.00     0.074 A 
ATOM     59  C   UNL A   1      39.609  28.337  32.299  1.00  0.00     0.031 C 
ATOM     60  C   UNL A   1      38.219  34.725  32.228  1.00  0.00     0.029 A 
ATOM     61  C   UNL A   1      38.499  34.190  33.562  1.00  0.00     0.049 A 
ATOM     62  H   UNL A   1      38.170  32.212  34.204  1.00  0.00     0.167 HD
ATOM     63  C   UNL A   1      41.730  28.814  30.943  1.00  0.00     0.034 A 
ATOM     64  C   UNL A   1      39.495  34.665  34.364  1.00  0.00     0.034 A 
ATOM     65  C   UNL A   1      42.314  29.846  30.139  1.00  0.00     0.049 A 
ATOM     66  C   UNL A   1      40.716  34.066  33.713  1.00  0.00     0.074 A 
ATOM     67  C   UNL A   1      42.363  30.179  28.801  1.00  0.00     0.029 A 
ATOM     68  N   UNL A   1      42.949  30.887  30.776  1.00  0.00    -0.354 N 
ATOM     69  N   UNL A   1      41.285  34.480  32.613  1.00  0.00    -0.248 NA
ATOM     70  C   UNL A   1      41.101  32.716  34.130  1.00  0.00     0.031 C 
ATOM     71  C   UNL A   1      42.572  31.594  28.772  1.00  0.00     0.029 A 
ATOM     72  C   UNL A   1      42.602  32.028  30.096  1.00  0.00     0.049 A 
ATOM     73  H   UNL A   1      43.538  30.826  31.563  1.00  0.00     0.167 HD
ATOM     74  C   UNL A   1      41.893  33.354  32.059  1.00  0.00     0.074 A 
ATOM     75  C   UNL A   1      41.755  32.305  33.051  1.00  0.00     0.031 C 
ATOM     76  C   UNL A   1      42.314  33.278  30.763  1.00  0.00     0.034 A 
BRANCH  63  77
ATOM     77  C   UNL A   1      42.528  27.614  31.262  1.00  0.00     0.023 A 
ATOM     78  C   UNL A   1      43.039  27.500  32.563  1.00  0.00     0.031 A 
ATOM     79  C   UNL A   1      42.986  26.725  30.282  1.00  0.00     0.131 A 
ATOM     80  C   UNL A   1      44.024  26.551  32.849  1.00  0.00     0.055 A 
ATOM     81  C   UNL A   1      43.959  25.764  30.576  1.00  0.00     0.041 A 
ATOM     82  F   UNL A   1      42.541  26.812  29.018  1.00  0.00    -0.206 F 
ATOM     83  C   UNL A   1      44.495  25.684  31.864  1.00  0.00     0.022 A 
BRANCH  80  84
ATOM     84  S   UNL A   1      44.731  26.546  34.516  1.00  0.00     0.124 S 
ATOM     85  O   UNL A   1      43.944  25.513  35.176  1.00  0.00    -0.237 OA
ATOM     86  O   UNL A   1      46.125  26.217  34.245  1.00  0.00    -0.237 OA
ATOM     87  O   UNL A   1      44.492  27.912  34.987  1.00  0.00    -0.744 OA
ENDBRANCH  80  84
ENDBRANCH  63  77
BRANCH  64  88
ATOM     88  C   UNL A   1      39.277  34.630  35.850  1.00  0.00     0.023 A 
ATOM     89  C   UNL A   1      38.515  33.576  36.397  1.00  0.00     0.031 A 
ATOM     90  C   UNL A   1      39.737  35.601  36.757  1.00  0.00     0.131 A 
ATOM     91  C   UNL A   1      38.332  33.458  37.786  1.00  0.00     0.055 A 
ATOM     92  C   UNL A   1      39.588  35.465  38.144  1.00  0.00     0.041 A 
ATOM     93  F   UNL A   1      40.355  36.713  36.334  1.00  0.00    -0.206 F 
ATOM     94  C   UNL A   1      38.898  34.377  38.667  1.00  0.00     0.022 A 
BRANCH  91  95
ATOM     95  S   UNL A   1      37.383  32.053  38.432  1.00  0.00     0.124 S 
ATOM     96  O   UNL A   1      37.582  31.048  37.392  1.00  0.00    -0.237 OA
ATOM     97  O   UNL A   1      38.040  31.789  39.708  1.00  0.00    -0.237 OA
ATOM     98  O   UNL A   1      36.024  32.580  38.539  1.00  0.00    -0.744 OA
ENDBRANCH  91  95
ENDBRANCH  64  88
BRANCH  76  99
ATOM     99  C   UNL A   1      42.233  34.539  29.964  1.00  0.00     0.023 A 
ATOM    100  C   UNL A   1      43.356  35.370  29.853  1.00  0.00     0.031 A 
ATOM    101  C   UNL A   1      41.070  34.886  29.255  1.00  0.00     0.131 A 
ATOM    102  C   UNL A   1      43.310  36.496  29.019  1.00  0.00     0.055 A 
ATOM    103  C   UNL A   1      41.035  35.995  28.409  1.00  0.00     0.041 A 
ATOM    104  F   UNL A   1      39.955  34.139  29.341  1.00  0.00    -0.206 F 
ATOM    105  C   UNL A   1      42.162  36.801  28.281  1.00  0.00     0.022 A 
BRANCH 102 106
ATOM    106  S   UNL A   1      44.793  37.523  28.849  1.00  0.00     0.124 S 
ATOM    107  O   UNL A   1      45.451  37.342  30.140  1.00  0.00    -0.237 OA
ATOM    108  O   UNL A   1      45.466  36.929  27.698  1.00  0.00    -0.237 OA
ATOM    109  O   UNL A   1      44.252  38.861  28.614  1.00  0.00    -0.744 OA
ENDBRANCH 102 106
ENDBRANCH  76  99
ENDBRANCH  50  51
ENDBRANCH  42  45
ENDBRANCH  40  41
ENDBRANCH  39  40
ENDBRANCH   1  39
TORSDOF 19
ENDMDL
MODEL 3
REMARK VINA RESULT:     -10.3      4.241     10.274
REMARK SMILES Cc1oc2c(C)c3oc(=O)c(CCC(=O)N[C@H](Cc4ccc(Cl)cc4)C(=O)NCCCNC(=O)c4ccc(-c5c6nc(c(-c7cc(S(=O)(=O)[O-])ccc7F)c7ccc([nH]7)c(-c7cc(S(=O)(=O)[O-])ccc7F)c7nc(c(-c8cc(S(=O)(=O)[O-])ccc8F)c8ccc5[nH]8)C=C7)C=C6)cc4)c(C)c3cc2c1C
REMARK SMILES IDX 29 1 28 2 26 3 27 4 17 6 16 7 14 8 15 9 13 11 12 12 11 13
REMARK SMILES IDX 1 14 2 15 3 16 103 17 4 18 102 19 104 20 5 21 101 22 6 23
REMARK SMILES IDX 7 24 100 25 8 26 98 27 9 28 99 29 10 30 18 31 19 32 20 33
REMARK SMILES IDX 25 34 21 35 24 36 22 37 23 38 30 39 31 40 32 41 33 42 34 44
REMARK SMILES IDX 35 45 36 46 97 47 37 48 96 49 38 50 39 51 40 52 90 53 41 54
REMARK SMILES IDX 95 55 89 56 91 57 42 58 94 59 88 60 87 61 43 63 75 64 55 65
REMARK SMILES IDX 74 66 56 67 59 68 73 69 92 70 57 71 58 72 72 74 93 75 60 76
REMARK SMILES IDX 44 77 45 78 53 79 46 80 52 81 54 82 51 83 47 84 48 85 49 86
REMARK SMILES IDX 50 87 76 88 77 89 85 90 78 91 84 92 86 93 83 94 79 95 80 96
REMARK SMILES IDX 81 97 82 98 61 99 62 100 70 101 63 102 69 103 71 104 68 105
REMARK SMILES IDX 64 106 65 107 66 108 67 109
REMARK H PARENT 28 5 16 10 32 43 91 62 59 73
REMARK Flexibility Score: inf
ROOT
ATOM      1  C   UNL A   1      46.778  38.412  27.446  1.00  0.00     0.117 C 
ENDROOT
BRANCH   1   2
ATOM      2  N   UNL A   1      46.062  39.632  27.122  1.00  0.00    -0.354 N 
ATOM      3  C   UNL A   1      44.819  39.689  26.562  1.00  0.00     0.242 C 
ATOM      4  O   UNL A   1      44.707  40.297  25.495  1.00  0.00    -0.273 OA
ATOM      5  H   UNL A   1      46.509  40.486  27.323  1.00  0.00     0.163 HD
BRANCH   3   6
ATOM      6  C   UNL A   1      43.627  38.896  27.137  1.00  0.00     0.175 C 
BRANCH   6   7
ATOM      7  N   UNL A   1      43.293  37.683  26.371  1.00  0.00    -0.344 N 
ATOM      8  C   UNL A   1      42.717  36.511  26.778  1.00  0.00     0.220 C 
ATOM      9  O   UNL A   1      42.638  35.592  25.959  1.00  0.00    -0.275 OA
ATOM     10  H   UNL A   1      43.521  37.722  25.414  1.00  0.00     0.164 HD
BRANCH   8  11
ATOM     11  C   UNL A   1      42.192  36.327  28.196  1.00  0.00     0.105 C 
BRANCH  11  12
ATOM     12  C   UNL A   1      42.339  34.935  28.824  1.00  0.00     0.053 C 
BRANCH  12  13
ATOM     13  C   UNL A   1      41.943  34.924  30.281  1.00  0.00     0.042 A 
ATOM     14  C   UNL A   1      37.748  32.407  37.147  1.00  0.00     0.088 C 
ATOM     15  C   UNL A   1      38.444  32.732  35.885  1.00  0.00     0.105 A 
ATOM     16  O   UNL A   1      39.721  33.203  35.998  1.00  0.00    -0.461 OA
ATOM     17  C   UNL A   1      38.058  32.691  34.560  1.00  0.00    -0.002 A 
ATOM     18  C   UNL A   1      40.137  33.561  34.747  1.00  0.00     0.141 A 
ATOM     19  C   UNL A   1      39.107  33.333  33.848  1.00  0.00     0.025 A 
ATOM     20  C   UNL A   1      36.819  32.139  33.962  1.00  0.00     0.049 C 
ATOM     21  C   UNL A   1      41.396  34.068  34.396  1.00  0.00     0.036 A 
ATOM     22  C   UNL A   1      39.278  33.708  32.512  1.00  0.00     0.024 A 
ATOM     23  C   UNL A   1      42.535  34.107  35.365  1.00  0.00     0.052 C 
ATOM     24  C   UNL A   1      41.506  34.448  33.036  1.00  0.00     0.145 A 
ATOM     25  C   UNL A   1      40.474  34.304  32.102  1.00  0.00     0.022 A 
ATOM     26  O   UNL A   1      42.758  34.941  32.599  1.00  0.00    -0.422 OA
ATOM     27  C   UNL A   1      40.690  34.641  30.687  1.00  0.00    -0.030 A 
ATOM     28  C   UNL A   1      43.046  35.155  31.260  1.00  0.00     0.339 A 
ATOM     29  C   UNL A   1      39.507  34.512  29.756  1.00  0.00     0.046 C 
ATOM     30  O   UNL A   1      44.162  35.514  30.900  1.00  0.00    -0.246 OA
ENDBRANCH  12  13
ENDBRANCH  11  12
ENDBRANCH   8  11
ENDBRANCH   6   7
BRANCH   6  31
ATOM     31  C   UNL A   1      42.434  39.841  27.382  1.00  0.00     0.070 C 
BRANCH  31  32
ATOM     32  C   UNL A   1      42.300  40.164  28.857  1.00  0.00    -0.045 A 
ATOM     33  C   UNL A   1      41.195  40.906  29.307  1.00  0.00     0.005 A 
ATOM     34  C   UNL A   1      43.341  39.875  29.750  1.00  0.00     0.005 A 
ATOM     35  C   UNL A   1      41.166  41.413  30.608  1.00  0.00     0.021 A 
ATOM     36  C   UNL A   1      43.314  40.393  31.048  1.00  0.00     0.021 A 
ATOM     37  C   UNL A   1      42.235  41.172  31.466  1.00  0.00     0.041 A 
ATOM     38  Cl  UNL A   1      42.248  41.871  33.038  1.00  0.00    -0.084 Cl
ENDBRANCH  31  32
ENDBRANCH   6  31
ENDBRANCH   3   6
ENDBRANCH   1   2
BRANCH   1  39
ATOM     39  C   UNL A   1      47.428  37.786  26.198  1.00  0.00     0.042 C 
BRANCH  39  40
ATOM     40  C   UNL A   1      47.385  36.246  26.132  1.00  0.00     0.118 C 
BRANCH  40  41
ATOM     41  N   UNL A   1      46.244  35.797  25.354  1.00  0.00    -0.352 N 
ATOM     42  C   UNL A   1      45.671  34.556  25.258  1.00  0.00     0.251 C 
ATOM     43  H   UNL A   1      45.814  36.495  24.809  1.00  0.00     0.163 HD
ATOM     44  O   UNL A   1      45.183  34.246  24.172  1.00  0.00    -0.269 OA
BRANCH  42  45
ATOM     45  C   UNL A   1      45.549  33.622  26.408  1.00  0.00     0.039 A 
ATOM     46  C   UNL A   1      44.901  32.399  26.180  1.00  0.00     0.014 A 
ATOM     47  C   UNL A   1      45.864  33.991  27.719  1.00  0.00     0.014 A 
ATOM     48  C   UNL A   1      44.576  31.551  27.242  1.00  0.00     0.010 A 
ATOM     49  C   UNL A   1      45.538  33.138  28.785  1.00  0.00     0.010 A 
ATOM     50  C   UNL A   1      44.894  31.911  28.557  1.00  0.00    -0.014 A 
BRANCH  50  51
ATOM     51  C   UNL A   1      44.654  30.912  29.628  1.00  0.00     0.031 A 
ATOM     52  C   UNL A   1      43.214  30.662  29.941  1.00  0.00     0.074 A 
ATOM     53  C   UNL A   1      45.559  29.967  29.975  1.00  0.00     0.049 A 
ATOM     54  N   UNL A   1      42.468  29.896  29.203  1.00  0.00    -0.248 NA
ATOM     55  C   UNL A   1      42.462  31.447  30.919  1.00  0.00     0.031 C 
ATOM     56  C   UNL A   1      46.515  29.378  29.028  1.00  0.00     0.029 A 
ATOM     57  N   UNL A   1      45.675  29.177  31.100  1.00  0.00    -0.354 N 
ATOM     58  C   UNL A   1      41.155  30.091  29.589  1.00  0.00     0.074 A 
ATOM     59  C   UNL A   1      41.200  31.064  30.659  1.00  0.00     0.031 C 
ATOM     60  C   UNL A   1      46.981  28.222  29.546  1.00  0.00     0.029 A 
ATOM     61  C   UNL A   1      46.489  28.055  30.914  1.00  0.00     0.049 A 
ATOM     62  H   UNL A   1      45.228  29.384  31.953  1.00  0.00     0.167 HD
ATOM     63  C   UNL A   1      40.116  29.442  28.999  1.00  0.00     0.034 A 
ATOM     64  C   UNL A   1      46.276  26.837  31.489  1.00  0.00     0.034 A 
ATOM     65  C   UNL A   1      40.477  28.533  27.951  1.00  0.00     0.049 A 
ATOM     66  C   UNL A   1      44.992  26.412  30.825  1.00  0.00     0.074 A 
ATOM     67  C   UNL A   1      40.605  28.573  26.579  1.00  0.00     0.029 A 
ATOM     68  N   UNL A   1      40.917  27.277  28.301  1.00  0.00    -0.354 N 
ATOM     69  N   UNL A   1      44.867  25.956  29.607  1.00  0.00    -0.248 NA
ATOM     70  C   UNL A   1      43.740  26.858  31.441  1.00  0.00     0.031 C 
ATOM     71  C   UNL A   1      41.555  27.554  26.258  1.00  0.00     0.029 A 
ATOM     72  C   UNL A   1      41.965  26.986  27.463  1.00  0.00     0.049 A 
ATOM     73  H   UNL A   1      40.552  26.701  29.011  1.00  0.00     0.167 HD
ATOM     74  C   UNL A   1      43.576  26.300  29.209  1.00  0.00     0.074 A 
ATOM     75  C   UNL A   1      42.931  26.838  30.391  1.00  0.00     0.031 C 
ATOM     76  C   UNL A   1      43.156  26.298  27.911  1.00  0.00     0.034 A 
BRANCH  63  77
ATOM     77  C   UNL A   1      38.710  29.502  29.443  1.00  0.00     0.023 A 
ATOM     78  C   UNL A   1      37.879  30.458  28.842  1.00  0.00     0.031 A 
ATOM     79  C   UNL A   1      38.244  28.827  30.577  1.00  0.00     0.131 A 
ATOM     80  C   UNL A   1      36.636  30.761  29.406  1.00  0.00     0.055 A 
ATOM     81  C   UNL A   1      36.991  29.118  31.128  1.00  0.00     0.041 A 
ATOM     82  F   UNL A   1      39.015  27.920  31.198  1.00  0.00    -0.206 F 
ATOM     83  C   UNL A   1      36.186  30.103  30.549  1.00  0.00     0.022 A 
BRANCH  80  84
ATOM     84  S   UNL A   1      35.672  32.096  28.653  1.00  0.00     0.124 S 
ATOM     85  O   UNL A   1      36.715  33.019  28.226  1.00  0.00    -0.237 OA
ATOM     86  O   UNL A   1      34.966  31.388  27.591  1.00  0.00    -0.237 OA
ATOM     87  O   UNL A   1      34.831  32.567  29.755  1.00  0.00    -0.744 OA
ENDBRANCH  80  84
ENDBRANCH  63  77
BRANCH  64  88
ATOM     88  C   UNL A   1      46.496  26.712  32.970  1.00  0.00     0.023 A 
ATOM     89  C   UNL A   1      45.382  26.465  33.801  1.00  0.00     0.031 A 
ATOM     90  C   UNL A   1      47.733  26.869  33.620  1.00  0.00     0.131 A 
ATOM     91  C   UNL A   1      45.537  26.276  35.185  1.00  0.00     0.055 A 
ATOM     92  C   UNL A   1      47.895  26.643  34.993  1.00  0.00     0.041 A 
ATOM     93  F   UNL A   1      48.832  27.237  32.946  1.00  0.00    -0.206 F 
ATOM     94  C   UNL A   1      46.795  26.326  35.782  1.00  0.00     0.022 A 
BRANCH  91  95
ATOM     95  S   UNL A   1      44.073  25.913  36.192  1.00  0.00     0.124 S 
ATOM     96  O   UNL A   1      43.023  26.631  35.475  1.00  0.00    -0.237 OA
ATOM     97  O   UNL A   1      44.003  24.456  36.134  1.00  0.00    -0.237 OA
ATOM     98  O   UNL A   1      44.417  26.458  37.504  1.00  0.00    -0.744 OA
ENDBRANCH  91  95
ENDBRANCH  64  88
BRANCH  76  99
ATOM     99  C   UNL A   1      44.117  25.756  26.903  1.00  0.00     0.023 A 
ATOM    100  C   UNL A   1      44.092  24.393  26.575  1.00  0.00     0.031 A 
ATOM    101  C   UNL A   1      45.010  26.594  26.214  1.00  0.00     0.131 A 
ATOM    102  C   UNL A   1      44.921  23.905  25.556  1.00  0.00     0.055 A 
ATOM    103  C   UNL A   1      45.818  26.110  25.184  1.00  0.00     0.041 A 
ATOM    104  F   UNL A   1      45.094  27.904  26.500  1.00  0.00    -0.206 F 
ATOM    105  C   UNL A   1      45.769  24.760  24.845  1.00  0.00     0.022 A 
BRANCH 102 106
ATOM    106  S   UNL A   1      44.830  22.150  25.113  1.00  0.00     0.124 S 
ATOM    107  O   UNL A   1      43.776  21.658  25.995  1.00  0.00    -0.237 OA
ATOM    108  O   UNL A   1      44.507  22.194  23.691  1.00  0.00    -0.237 OA
ATOM    109  O   UNL A   1      46.171  21.655  25.419  1.00  0.00    -0.744 OA
ENDBRANCH 102 106
ENDBRANCH  76  99
ENDBRANCH  50  51
ENDBRANCH  42  45
ENDBRANCH  40  41
ENDBRANCH  39  40
ENDBRANCH   1  39
TORSDOF 19
ENDMDL
