MODEL 1
REMARK VINA RESULT:     -12.7      0.000      0.000
REMARK SMILES O=C(NCCCNC(=O)c1cc(NC(=O)c2ccccc2Cl)ccc1N1CCC[C@H](C[NH+]2CCCC2)C1)c1ccc(-c2c3nc(c(-c4cc(S(=O)(=O)[O-])ccc4F)c4ccc([nH]4)c(-c4cc(S(=O)(=O)[O-])ccc4F)c4nc(c(-c5cc(S(=O)(=O)[O-])ccc5F)c5ccc2[nH]5)C=C4)C=C3)cc1
REMARK SMILES IDX 5 1 4 2 3 3 1 4 2 5 38 7 39 8 100 9 40 10 99 11 41 12 42 13
REMARK SMILES IDX 43 14 93 15 44 16 98 17 92 18 94 19 45 20 97 21 91 22 90 23
REMARK SMILES IDX 46 25 78 26 58 27 77 28 59 29 62 30 76 31 95 32 60 33 61 34
REMARK SMILES IDX 75 36 96 37 63 38 47 39 48 40 56 41 49 42 55 43 57 44 54 45
REMARK SMILES IDX 50 46 51 47 52 48 53 49 79 50 80 51 88 52 81 53 87 54 89 55
REMARK SMILES IDX 86 56 82 57 83 58 84 59 85 60 64 61 65 62 73 63 66 64 72 65
REMARK SMILES IDX 74 66 71 67 67 68 68 69 69 70 70 71 6 72 7 73 8 74 9 76
REMARK SMILES IDX 10 77 11 78 25 79 12 80 24 81 23 82 26 83 27 84 37 85 28 86
REMARK SMILES IDX 30 87 29 88 31 89 32 90 33 91 36 92 34 94 35 95 13 96 14 97
REMARK SMILES IDX 15 99 16 100 17 101 21 102 18 103 20 104 22 105 19 106
REMARK H PARENT 3 6 94 24 62 35 7 75 32 93 13 98
REMARK Flexibility Score: inf
ROOT
ATOM      1  C   UNL A   1      31.755  29.319  27.037  1.00  0.00     0.042 C 
ENDROOT
BRANCH   1   2
ATOM      2  C   UNL A   1      32.485  30.344  26.178  1.00  0.00     0.118 C 
BRANCH   2   3
ATOM      3  N   UNL A   1      32.302  31.728  26.611  1.00  0.00    -0.352 N 
ATOM      4  O   UNL A   1      32.640  33.640  27.739  1.00  0.00    -0.269 OA
ATOM      5  C   UNL A   1      33.059  32.533  27.432  1.00  0.00     0.251 C 
ATOM      6  H   UNL A   1      31.496  32.162  26.251  1.00  0.00     0.163 HD
BRANCH   5   7
ATOM      7  C   UNL A   1      34.353  32.052  27.974  1.00  0.00     0.039 A 
ATOM      8  C   UNL A   1      34.503  30.745  28.434  1.00  0.00     0.014 A 
ATOM      9  C   UNL A   1      35.439  32.932  28.019  1.00  0.00     0.014 A 
ATOM     10  C   UNL A   1      35.650  30.383  29.129  1.00  0.00     0.010 A 
ATOM     11  C   UNL A   1      36.637  32.525  28.614  1.00  0.00     0.010 A 
ATOM     12  C   UNL A   1      36.737  31.264  29.220  1.00  0.00    -0.014 A 
BRANCH  12  13
ATOM     13  C   UNL A   1      37.974  30.841  29.927  1.00  0.00     0.031 A 
ATOM     14  C   UNL A   1      38.959  29.916  29.266  1.00  0.00     0.074 A 
ATOM     15  C   UNL A   1      38.207  31.298  31.172  1.00  0.00     0.049 A 
ATOM     16  N   UNL A   1      40.041  29.369  29.759  1.00  0.00    -0.248 NA
ATOM     17  C   UNL A   1      38.679  29.545  27.871  1.00  0.00     0.031 C 
ATOM     18  C   UNL A   1      37.327  32.207  31.912  1.00  0.00     0.029 A 
ATOM     19  N   UNL A   1      39.244  31.065  32.037  1.00  0.00    -0.354 N 
ATOM     20  C   UNL A   1      40.556  28.563  28.748  1.00  0.00     0.074 A 
ATOM     21  C   UNL A   1      39.646  28.672  27.627  1.00  0.00     0.031 C 
ATOM     22  C   UNL A   1      37.871  32.469  33.108  1.00  0.00     0.029 A 
ATOM     23  C   UNL A   1      39.089  31.682  33.255  1.00  0.00     0.049 A 
ATOM     24  H   UNL A   1      40.024  30.508  31.809  1.00  0.00     0.167 HD
ATOM     25  C   UNL A   1      41.685  27.809  28.759  1.00  0.00     0.034 A 
ATOM     26  C   UNL A   1      39.812  31.591  34.387  1.00  0.00     0.034 A 
ATOM     27  C   UNL A   1      42.581  27.726  29.889  1.00  0.00     0.049 A 
ATOM     28  C   UNL A   1      41.030  30.713  34.399  1.00  0.00     0.074 A 
ATOM     29  C   UNL A   1      43.772  27.029  29.999  1.00  0.00     0.029 A 
ATOM     30  N   UNL A   1      42.374  28.350  31.115  1.00  0.00    -0.354 N 
ATOM     31  N   UNL A   1      41.508  29.959  33.436  1.00  0.00    -0.248 NA
ATOM     32  C   UNL A   1      41.805  30.670  35.644  1.00  0.00     0.031 C 
ATOM     33  C   UNL A   1      44.248  27.175  31.308  1.00  0.00     0.029 A 
ATOM     34  C   UNL A   1      43.397  28.025  31.996  1.00  0.00     0.049 A 
ATOM     35  H   UNL A   1      41.614  28.937  31.328  1.00  0.00     0.167 HD
ATOM     36  C   UNL A   1      42.654  29.366  33.953  1.00  0.00     0.074 A 
ATOM     37  C   UNL A   1      42.795  29.853  35.312  1.00  0.00     0.031 C 
ATOM     38  C   UNL A   1      43.515  28.505  33.353  1.00  0.00     0.034 A 
BRANCH  25  39
ATOM     39  C   UNL A   1      41.973  26.973  27.531  1.00  0.00     0.023 A 
ATOM     40  C   UNL A   1      41.697  25.595  27.487  1.00  0.00     0.031 A 
ATOM     41  C   UNL A   1      42.583  27.554  26.405  1.00  0.00     0.131 A 
ATOM     42  C   UNL A   1      42.118  24.829  26.387  1.00  0.00     0.055 A 
ATOM     43  C   UNL A   1      42.917  26.803  25.275  1.00  0.00     0.041 A 
ATOM     44  F   UNL A   1      42.889  28.861  26.391  1.00  0.00    -0.206 F 
ATOM     45  C   UNL A   1      42.705  25.429  25.271  1.00  0.00     0.022 A 
BRANCH  42  46
ATOM     46  S   UNL A   1      42.057  23.021  26.519  1.00  0.00     0.124 S 
ATOM     47  O   UNL A   1      42.395  22.611  25.156  1.00  0.00    -0.237 OA
ATOM     48  O   UNL A   1      43.064  22.746  27.536  1.00  0.00    -0.237 OA
ATOM     49  O   UNL A   1      40.677  22.752  26.915  1.00  0.00    -0.744 OA
ENDBRANCH  42  46
ENDBRANCH  25  39
BRANCH  26  50
ATOM     50  C   UNL A   1      39.348  32.307  35.606  1.00  0.00     0.023 A 
ATOM     51  C   UNL A   1      38.566  31.668  36.576  1.00  0.00     0.031 A 
ATOM     52  C   UNL A   1      39.731  33.642  35.833  1.00  0.00     0.131 A 
ATOM     53  C   UNL A   1      38.182  32.370  37.730  1.00  0.00     0.055 A 
ATOM     54  C   UNL A   1      39.383  34.321  37.000  1.00  0.00     0.041 A 
ATOM     55  F   UNL A   1      40.493  34.291  34.937  1.00  0.00    -0.206 F 
ATOM     56  C   UNL A   1      38.598  33.685  37.956  1.00  0.00     0.022 A 
BRANCH  53  57
ATOM     57  S   UNL A   1      37.103  31.544  38.931  1.00  0.00     0.124 S 
ATOM     58  O   UNL A   1      36.927  30.232  38.322  1.00  0.00    -0.237 OA
ATOM     59  O   UNL A   1      37.912  31.585  40.145  1.00  0.00    -0.237 OA
ATOM     60  O   UNL A   1      35.910  32.388  38.954  1.00  0.00    -0.744 OA
ENDBRANCH  53  57
ENDBRANCH  26  50
BRANCH  38  61
ATOM     61  C   UNL A   1      44.718  28.074  34.152  1.00  0.00     0.023 A 
ATOM     62  C   UNL A   1      44.711  26.904  34.929  1.00  0.00     0.031 A 
ATOM     63  C   UNL A   1      45.892  28.845  34.119  1.00  0.00     0.131 A 
ATOM     64  C   UNL A   1      45.851  26.554  35.669  1.00  0.00     0.055 A 
ATOM     65  C   UNL A   1      47.038  28.468  34.819  1.00  0.00     0.041 A 
ATOM     66  F   UNL A   1      45.947  29.975  33.395  1.00  0.00    -0.206 F 
ATOM     67  C   UNL A   1      47.019  27.319  35.605  1.00  0.00     0.022 A 
BRANCH  64  68
ATOM     68  S   UNL A   1      45.775  25.108  36.761  1.00  0.00     0.124 S 
ATOM     69  O   UNL A   1      46.807  25.417  37.744  1.00  0.00    -0.237 OA
ATOM     70  O   UNL A   1      44.399  25.149  37.244  1.00  0.00    -0.237 OA
ATOM     71  O   UNL A   1      46.084  23.989  35.870  1.00  0.00    -0.744 OA
ENDBRANCH  64  68
ENDBRANCH  38  61
ENDBRANCH  12  13
ENDBRANCH   5   7
ENDBRANCH   2   3
ENDBRANCH   1   2
BRANCH   1  72
ATOM     72  C   UNL A   1      32.260  27.897  26.884  1.00  0.00     0.118 C 
BRANCH  72  73
ATOM     73  N   UNL A   1      31.237  26.873  26.947  1.00  0.00    -0.352 N 
ATOM     74  C   UNL A   1      30.900  25.957  25.981  1.00  0.00     0.253 C 
ATOM     75  H   UNL A   1      30.719  26.830  27.783  1.00  0.00     0.163 HD
ATOM     76  O   UNL A   1      30.105  25.060  26.254  1.00  0.00    -0.269 OA
BRANCH  74  77
ATOM     77  C   UNL A   1      31.390  26.098  24.586  1.00  0.00     0.065 A 
ATOM     78  C   UNL A   1      32.610  25.432  24.366  1.00  0.00     0.042 A 
ATOM     79  C   UNL A   1      30.745  26.790  23.544  1.00  0.00     0.050 A 
ATOM     80  C   UNL A   1      33.166  25.322  23.098  1.00  0.00     0.042 A 
ATOM     81  C   UNL A   1      31.349  26.705  22.275  1.00  0.00     0.029 A 
ATOM     82  C   UNL A   1      32.532  25.985  22.051  1.00  0.00     0.028 A 
BRANCH  79  83
ATOM     83  N   UNL A   1      29.632  27.610  23.686  1.00  0.00    -0.370 N 
ATOM     84  C   UNL A   1      28.289  27.017  23.751  1.00  0.00     0.116 C 
ATOM     85  C   UNL A   1      29.814  28.998  24.117  1.00  0.00     0.126 C 
ATOM     86  C   UNL A   1      27.232  27.953  23.176  1.00  0.00     0.022 C 
ATOM     87  C   UNL A   1      28.826  29.916  23.385  1.00  0.00     0.064 C 
ATOM     88  C   UNL A   1      27.411  29.389  23.664  1.00  0.00     0.013 C 
BRANCH  87  89
ATOM     89  C   UNL A   1      29.237  30.016  21.891  1.00  0.00     0.267 C 
BRANCH  89  90
ATOM     90  N   UNL A   1      29.383  31.330  21.256  1.00  0.00    -0.335 N 
ATOM     91  C   UNL A   1      29.336  32.464  22.174  1.00  0.00     0.262 C 
ATOM     92  C   UNL A   1      28.478  31.610  20.146  1.00  0.00     0.262 C 
ATOM     93  H   UNL A   1      30.326  31.237  20.877  1.00  0.00     0.348 HD
ATOM     94  C   UNL A   1      27.943  33.040  22.026  1.00  0.00     0.067 C 
ATOM     95  C   UNL A   1      27.589  32.771  20.575  1.00  0.00     0.067 C 
ENDBRANCH  89  90
ENDBRANCH  87  89
ENDBRANCH  79  83
BRANCH  80  96
ATOM     96  N   UNL A   1      34.335  24.592  22.801  1.00  0.00    -0.322 N 
ATOM     97  C   UNL A   1      34.782  23.360  23.235  1.00  0.00     0.257 C 
ATOM     98  H   UNL A   1      34.941  25.042  22.169  1.00  0.00     0.170 HD
ATOM     99  O   UNL A   1      35.928  22.991  22.985  1.00  0.00    -0.269 OA
BRANCH  97 100
ATOM    100  C   UNL A   1      33.905  22.455  23.997  1.00  0.00     0.058 A 
ATOM    101  C   UNL A   1      32.935  21.745  23.275  1.00  0.00     0.015 A 
ATOM    102  C   UNL A   1      34.069  22.231  25.370  1.00  0.00     0.053 A 
ATOM    103  C   UNL A   1      32.190  20.750  23.908  1.00  0.00     0.001 A 
ATOM    104  C   UNL A   1      33.323  21.228  25.994  1.00  0.00     0.021 A 
ATOM    105  Cl  UNL A   1      35.186  23.127  26.334  1.00  0.00    -0.083 Cl
ATOM    106  C   UNL A   1      32.399  20.479  25.260  1.00  0.00     0.002 A 
ENDBRANCH  97 100
ENDBRANCH  80  96
ENDBRANCH  74  77
ENDBRANCH  72  73
ENDBRANCH   1  72
TORSDOF 18
ENDMDL
MODEL 2
REMARK VINA RESULT:     -11.9      1.614      2.291
REMARK SMILES O=C(NCCCNC(=O)c1cc(NC(=O)c2ccccc2Cl)ccc1N1CCC[C@H](C[NH+]2CCCC2)C1)c1ccc(-c2c3nc(c(-c4cc(S(=O)(=O)[O-])ccc4F)c4ccc([nH]4)c(-c4cc(S(=O)(=O)[O-])ccc4F)c4nc(c(-c5cc(S(=O)(=O)[O-])ccc5F)c5ccc2[nH]5)C=C4)C=C3)cc1
REMARK SMILES IDX 5 1 4 2 3 3 1 4 2 5 38 7 39 8 100 9 40 10 99 11 41 12 42 13
REMARK SMILES IDX 43 14 93 15 44 16 98 17 92 18 94 19 45 20 97 21 91 22 90 23
REMARK SMILES IDX 46 25 78 26 58 27 77 28 59 29 62 30 76 31 95 32 60 33 61 34
REMARK SMILES IDX 75 36 96 37 63 38 47 39 48 40 56 41 49 42 55 43 57 44 54 45
REMARK SMILES IDX 50 46 51 47 52 48 53 49 79 50 80 51 88 52 81 53 87 54 89 55
REMARK SMILES IDX 86 56 82 57 83 58 84 59 85 60 64 61 65 62 73 63 66 64 72 65
REMARK SMILES IDX 74 66 71 67 67 68 68 69 69 70 70 71 6 72 7 73 8 74 9 76
REMARK SMILES IDX 10 77 11 78 25 79 12 80 24 81 23 82 26 83 27 84 37 85 28 86
REMARK SMILES IDX 30 87 29 88 31 89 32 90 33 91 36 92 34 94 35 95 13 96 14 97
REMARK SMILES IDX 15 99 16 100 17 101 21 102 18 103 20 104 22 105 19 106
REMARK H PARENT 3 6 94 24 62 35 7 75 32 93 13 98
REMARK Flexibility Score: inf
ROOT
ATOM      1  C   UNL A   1      31.530  30.980  26.869  1.00  0.00     0.042 C 
ENDROOT
BRANCH   1   2
ATOM      2  C   UNL A   1      32.760  31.877  26.852  1.00  0.00     0.118 C 
BRANCH   2   3
ATOM      3  N   UNL A   1      32.498  33.261  27.244  1.00  0.00    -0.352 N 
ATOM      4  O   UNL A   1      32.629  35.178  28.405  1.00  0.00    -0.269 OA
ATOM      5  C   UNL A   1      33.101  34.073  28.177  1.00  0.00     0.251 C 
ATOM      6  H   UNL A   1      31.760  33.688  26.752  1.00  0.00     0.163 HD
BRANCH   5   7
ATOM      7  C   UNL A   1      34.290  33.603  28.928  1.00  0.00     0.039 A 
ATOM      8  C   UNL A   1      35.569  34.062  28.619  1.00  0.00     0.014 A 
ATOM      9  C   UNL A   1      34.117  32.682  29.966  1.00  0.00     0.014 A 
ATOM     10  C   UNL A   1      36.680  33.452  29.186  1.00  0.00     0.010 A 
ATOM     11  C   UNL A   1      35.234  32.156  30.621  1.00  0.00     0.010 A 
ATOM     12  C   UNL A   1      36.529  32.498  30.202  1.00  0.00    -0.014 A 
BRANCH  12  13
ATOM     13  C   UNL A   1      37.731  31.892  30.830  1.00  0.00     0.031 A 
ATOM     14  C   UNL A   1      38.559  30.878  30.088  1.00  0.00     0.074 A 
ATOM     15  C   UNL A   1      38.077  32.262  32.079  1.00  0.00     0.049 A 
ATOM     16  N   UNL A   1      39.582  30.179  30.506  1.00  0.00    -0.248 NA
ATOM     17  C   UNL A   1      38.171  30.605  28.696  1.00  0.00     0.031 C 
ATOM     18  C   UNL A   1      37.356  33.243  32.895  1.00  0.00     0.029 A 
ATOM     19  N   UNL A   1      39.114  31.862  32.881  1.00  0.00    -0.354 N 
ATOM     20  C   UNL A   1      39.944  29.358  29.442  1.00  0.00     0.074 A 
ATOM     21  C   UNL A   1      39.006  29.629  28.372  1.00  0.00     0.031 C 
ATOM     22  C   UNL A   1      37.981  33.382  34.071  1.00  0.00     0.029 A 
ATOM     23  C   UNL A   1      39.094  32.442  34.127  1.00  0.00     0.049 A 
ATOM     24  H   UNL A   1      39.804  31.222  32.595  1.00  0.00     0.167 HD
ATOM     25  C   UNL A   1      40.966  28.467  29.368  1.00  0.00     0.034 A 
ATOM     26  C   UNL A   1      39.850  32.211  35.218  1.00  0.00     0.034 A 
ATOM     27  C   UNL A   1      41.894  28.223  30.449  1.00  0.00     0.049 A 
ATOM     28  C   UNL A   1      40.944  31.187  35.136  1.00  0.00     0.074 A 
ATOM     29  C   UNL A   1      42.989  27.377  30.474  1.00  0.00     0.029 A 
ATOM     30  N   UNL A   1      41.824  28.815  31.705  1.00  0.00    -0.354 N 
ATOM     31  N   UNL A   1      41.277  30.420  34.124  1.00  0.00    -0.248 NA
ATOM     32  C   UNL A   1      41.762  30.993  36.339  1.00  0.00     0.031 C 
ATOM     33  C   UNL A   1      43.538  27.405  31.761  1.00  0.00     0.029 A 
ATOM     34  C   UNL A   1      42.835  28.326  32.521  1.00  0.00     0.049 A 
ATOM     35  H   UNL A   1      41.156  29.484  31.977  1.00  0.00     0.167 HD
ATOM     36  C   UNL A   1      42.359  29.665  34.561  1.00  0.00     0.074 A 
ATOM     37  C   UNL A   1      42.623  30.072  35.928  1.00  0.00     0.031 C 
ATOM     38  C   UNL A   1      43.075  28.729  33.887  1.00  0.00     0.034 A 
BRANCH  25  39
ATOM     39  C   UNL A   1      41.088  27.654  28.097  1.00  0.00     0.023 A 
ATOM     40  C   UNL A   1      40.719  26.298  28.042  1.00  0.00     0.031 A 
ATOM     41  C   UNL A   1      41.634  28.231  26.937  1.00  0.00     0.131 A 
ATOM     42  C   UNL A   1      40.990  25.544  26.889  1.00  0.00     0.055 A 
ATOM     43  C   UNL A   1      41.817  27.498  25.763  1.00  0.00     0.041 A 
ATOM     44  F   UNL A   1      42.024  29.516  26.930  1.00  0.00    -0.206 F 
ATOM     45  C   UNL A   1      41.514  26.140  25.741  1.00  0.00     0.022 A 
BRANCH  42  46
ATOM     46  S   UNL A   1      40.821  23.739  26.978  1.00  0.00     0.124 S 
ATOM     47  O   UNL A   1      41.740  23.302  25.928  1.00  0.00    -0.237 OA
ATOM     48  O   UNL A   1      41.233  23.452  28.346  1.00  0.00    -0.237 OA
ATOM     49  O   UNL A   1      39.407  23.513  26.688  1.00  0.00    -0.744 OA
ENDBRANCH  42  46
ENDBRANCH  25  39
BRANCH  26  50
ATOM     50  C   UNL A   1      39.537  32.928  36.484  1.00  0.00     0.023 A 
ATOM     51  C   UNL A   1      38.725  32.351  37.469  1.00  0.00     0.031 A 
ATOM     52  C   UNL A   1      40.096  34.194  36.739  1.00  0.00     0.131 A 
ATOM     53  C   UNL A   1      38.486  33.047  38.665  1.00  0.00     0.055 A 
ATOM     54  C   UNL A   1      39.891  34.861  37.946  1.00  0.00     0.041 A 
ATOM     55  F   UNL A   1      40.892  34.780  35.830  1.00  0.00    -0.206 F 
ATOM     56  C   UNL A   1      39.076  34.289  38.917  1.00  0.00     0.022 A 
BRANCH  53  57
ATOM     57  S   UNL A   1      37.367  32.313  39.889  1.00  0.00     0.124 S 
ATOM     58  O   UNL A   1      38.280  31.490  40.672  1.00  0.00    -0.237 OA
ATOM     59  O   UNL A   1      36.833  33.494  40.559  1.00  0.00    -0.237 OA
ATOM     60  O   UNL A   1      36.405  31.576  39.072  1.00  0.00    -0.744 OA
ENDBRANCH  53  57
ENDBRANCH  26  50
BRANCH  38  61
ATOM     61  C   UNL A   1      44.247  28.115  34.609  1.00  0.00     0.023 A 
ATOM     62  C   UNL A   1      44.110  26.961  35.398  1.00  0.00     0.031 A 
ATOM     63  C   UNL A   1      45.522  28.693  34.489  1.00  0.00     0.131 A 
ATOM     64  C   UNL A   1      45.229  26.437  36.063  1.00  0.00     0.055 A 
ATOM     65  C   UNL A   1      46.640  28.141  35.115  1.00  0.00     0.041 A 
ATOM     66  F   UNL A   1      45.704  29.799  33.750  1.00  0.00    -0.206 F 
ATOM     67  C   UNL A   1      46.495  27.010  35.913  1.00  0.00     0.022 A 
BRANCH  64  68
ATOM     68  S   UNL A   1      45.002  25.021  37.174  1.00  0.00     0.124 S 
ATOM     69  O   UNL A   1      43.773  24.428  36.660  1.00  0.00    -0.237 OA
ATOM     70  O   UNL A   1      46.223  24.252  36.957  1.00  0.00    -0.237 OA
ATOM     71  O   UNL A   1      44.888  25.637  38.496  1.00  0.00    -0.744 OA
ENDBRANCH  64  68
ENDBRANCH  38  61
ENDBRANCH  12  13
ENDBRANCH   5   7
ENDBRANCH   2   3
ENDBRANCH   1   2
BRANCH   1  72
ATOM     72  C   UNL A   1      31.834  29.495  26.829  1.00  0.00     0.118 C 
BRANCH  72  73
ATOM     73  N   UNL A   1      33.004  29.129  26.058  1.00  0.00    -0.352 N 
ATOM     74  C   UNL A   1      33.165  28.040  25.235  1.00  0.00     0.253 C 
ATOM     75  H   UNL A   1      33.778  29.732  26.133  1.00  0.00     0.163 HD
ATOM     76  O   UNL A   1      34.174  27.959  24.538  1.00  0.00    -0.269 OA
BRANCH  74  77
ATOM     77  C   UNL A   1      32.200  26.911  25.260  1.00  0.00     0.065 A 
ATOM     78  C   UNL A   1      32.555  25.911  26.183  1.00  0.00     0.042 A 
ATOM     79  C   UNL A   1      31.028  26.801  24.487  1.00  0.00     0.050 A 
ATOM     80  C   UNL A   1      31.715  24.841  26.463  1.00  0.00     0.042 A 
ATOM     81  C   UNL A   1      30.213  25.684  24.753  1.00  0.00     0.029 A 
ATOM     82  C   UNL A   1      30.543  24.724  25.721  1.00  0.00     0.028 A 
BRANCH  79  83
ATOM     83  N   UNL A   1      30.668  27.641  23.440  1.00  0.00    -0.370 N 
ATOM     84  C   UNL A   1      31.644  27.961  22.390  1.00  0.00     0.116 C 
ATOM     85  C   UNL A   1      29.250  27.915  23.196  1.00  0.00     0.126 C 
ATOM     86  C   UNL A   1      31.407  29.350  21.806  1.00  0.00     0.022 C 
ATOM     87  C   UNL A   1      29.058  29.374  22.763  1.00  0.00     0.064 C 
ATOM     88  C   UNL A   1      29.929  29.607  21.520  1.00  0.00     0.013 C 
BRANCH  87  89
ATOM     89  C   UNL A   1      29.332  30.304  23.976  1.00  0.00     0.267 C 
BRANCH  89  90
ATOM     90  N   UNL A   1      28.641  31.593  24.085  1.00  0.00    -0.335 N 
ATOM     91  C   UNL A   1      27.590  31.811  23.096  1.00  0.00     0.262 C 
ATOM     92  C   UNL A   1      29.492  32.778  24.108  1.00  0.00     0.262 C 
ATOM     93  H   UNL A   1      28.222  31.488  25.010  1.00  0.00     0.348 HD
ATOM     94  C   UNL A   1      28.202  32.729  22.059  1.00  0.00     0.067 C 
ATOM     95  C   UNL A   1      29.172  33.584  22.854  1.00  0.00     0.067 C 
ENDBRANCH  89  90
ENDBRANCH  87  89
ENDBRANCH  79  83
BRANCH  80  96
ATOM     96  N   UNL A   1      31.974  23.859  27.440  1.00  0.00    -0.322 N 
ATOM     97  C   UNL A   1      32.805  22.756  27.435  1.00  0.00     0.257 C 
ATOM     98  H   UNL A   1      31.473  23.982  28.279  1.00  0.00     0.170 HD
ATOM     99  O   UNL A   1      32.740  21.924  28.339  1.00  0.00    -0.269 OA
BRANCH  97 100
ATOM    100  C   UNL A   1      33.789  22.549  26.360  1.00  0.00     0.058 A 
ATOM    101  C   UNL A   1      35.054  23.132  26.529  1.00  0.00     0.015 A 
ATOM    102  C   UNL A   1      33.528  21.736  25.249  1.00  0.00     0.053 A 
ATOM    103  C   UNL A   1      36.080  22.832  25.633  1.00  0.00     0.001 A 
ATOM    104  C   UNL A   1      34.564  21.437  24.360  1.00  0.00     0.021 A 
ATOM    105  Cl  UNL A   1      31.973  21.055  24.938  1.00  0.00    -0.083 Cl
ATOM    106  C   UNL A   1      35.840  21.971  24.563  1.00  0.00     0.002 A 
ENDBRANCH  97 100
ENDBRANCH  80  96
ENDBRANCH  74  77
ENDBRANCH  72  73
ENDBRANCH   1  72
TORSDOF 18
ENDMDL
MODEL 3
REMARK VINA RESULT:     -11.2      2.327      7.440
REMARK SMILES O=C(NCCCNC(=O)c1cc(NC(=O)c2ccccc2Cl)ccc1N1CCC[C@H](C[NH+]2CCCC2)C1)c1ccc(-c2c3nc(c(-c4cc(S(=O)(=O)[O-])ccc4F)c4ccc([nH]4)c(-c4cc(S(=O)(=O)[O-])ccc4F)c4nc(c(-c5cc(S(=O)(=O)[O-])ccc5F)c5ccc2[nH]5)C=C4)C=C3)cc1
REMARK SMILES IDX 5 1 4 2 3 3 1 4 2 5 38 7 39 8 100 9 40 10 99 11 41 12 42 13
REMARK SMILES IDX 43 14 93 15 44 16 98 17 92 18 94 19 45 20 97 21 91 22 90 23
REMARK SMILES IDX 46 25 78 26 58 27 77 28 59 29 62 30 76 31 95 32 60 33 61 34
REMARK SMILES IDX 75 36 96 37 63 38 47 39 48 40 56 41 49 42 55 43 57 44 54 45
REMARK SMILES IDX 50 46 51 47 52 48 53 49 79 50 80 51 88 52 81 53 87 54 89 55
REMARK SMILES IDX 86 56 82 57 83 58 84 59 85 60 64 61 65 62 73 63 66 64 72 65
REMARK SMILES IDX 74 66 71 67 67 68 68 69 69 70 70 71 6 72 7 73 8 74 9 76
REMARK SMILES IDX 10 77 11 78 25 79 12 80 24 81 23 82 26 83 27 84 37 85 28 86
REMARK SMILES IDX 30 87 29 88 31 89 32 90 33 91 36 92 34 94 35 95 13 96 14 97
REMARK SMILES IDX 15 99 16 100 17 101 21 102 18 103 20 104 22 105 19 106
REMARK H PARENT 3 6 94 24 62 35 7 75 32 93 13 98
REMARK Flexibility Score: inf
ROOT
ATOM      1  C   UNL A   1      33.408  29.025  27.251  1.00  0.00     0.042 C 
ENDROOT
BRANCH   1   2
ATOM      2  C   UNL A   1      34.167  30.311  26.952  1.00  0.00     0.118 C 
BRANCH   2   3
ATOM      3  N   UNL A   1      34.001  31.354  27.964  1.00  0.00    -0.352 N 
ATOM      4  O   UNL A   1      34.365  32.549  29.829  1.00  0.00    -0.269 OA
ATOM      5  C   UNL A   1      34.770  31.695  29.053  1.00  0.00     0.251 C 
ATOM      6  H   UNL A   1      33.199  31.911  27.844  1.00  0.00     0.163 HD
BRANCH   5   7
ATOM      7  C   UNL A   1      36.060  31.010  29.309  1.00  0.00     0.039 A 
ATOM      8  C   UNL A   1      36.118  29.831  30.050  1.00  0.00     0.014 A 
ATOM      9  C   UNL A   1      37.237  31.563  28.794  1.00  0.00     0.014 A 
ATOM     10  C   UNL A   1      37.347  29.328  30.456  1.00  0.00     0.010 A 
ATOM     11  C   UNL A   1      38.471  30.984  29.106  1.00  0.00     0.010 A 
ATOM     12  C   UNL A   1      38.540  29.891  29.982  1.00  0.00    -0.014 A 
BRANCH  12  13
ATOM     13  C   UNL A   1      39.845  29.308  30.390  1.00  0.00     0.031 A 
ATOM     14  C   UNL A   1      40.629  29.901  31.529  1.00  0.00     0.074 A 
ATOM     15  C   UNL A   1      40.321  28.236  29.728  1.00  0.00     0.049 A 
ATOM     16  N   UNL A   1      41.822  29.586  31.966  1.00  0.00    -0.248 NA
ATOM     17  C   UNL A   1      39.993  31.005  32.262  1.00  0.00     0.031 C 
ATOM     18  C   UNL A   1      39.645  27.569  28.612  1.00  0.00     0.029 A 
ATOM     19  N   UNL A   1      41.478  27.519  29.890  1.00  0.00    -0.354 N 
ATOM     20  C   UNL A   1      42.095  30.471  33.004  1.00  0.00     0.074 A 
ATOM     21  C   UNL A   1      40.952  31.356  33.105  1.00  0.00     0.031 C 
ATOM     22  C   UNL A   1      40.388  26.532  28.204  1.00  0.00     0.029 A 
ATOM     23  C   UNL A   1      41.629  26.511  28.968  1.00  0.00     0.049 A 
ATOM     24  H   UNL A   1      42.137  27.708  30.596  1.00  0.00     0.167 HD
ATOM     25  C   UNL A   1      43.196  30.535  33.796  1.00  0.00     0.034 A 
ATOM     26  C   UNL A   1      42.668  25.690  28.723  1.00  0.00     0.034 A 
ATOM     27  C   UNL A   1      44.319  29.633  33.679  1.00  0.00     0.049 A 
ATOM     28  C   UNL A   1      43.898  25.806  29.576  1.00  0.00     0.074 A 
ATOM     29  C   UNL A   1      45.466  29.576  34.451  1.00  0.00     0.029 A 
ATOM     30  N   UNL A   1      44.442  28.639  32.714  1.00  0.00    -0.354 N 
ATOM     31  N   UNL A   1      44.142  26.645  30.555  1.00  0.00    -0.248 NA
ATOM     32  C   UNL A   1      44.992  24.869  29.293  1.00  0.00     0.031 C 
ATOM     33  C   UNL A   1      46.311  28.598  33.913  1.00  0.00     0.029 A 
ATOM     34  C   UNL A   1      45.661  27.989  32.851  1.00  0.00     0.049 A 
ATOM     35  H   UNL A   1      43.765  28.426  32.033  1.00  0.00     0.167 HD
ATOM     36  C   UNL A   1      45.413  26.325  31.021  1.00  0.00     0.074 A 
ATOM     37  C   UNL A   1      45.880  25.213  30.215  1.00  0.00     0.031 C 
ATOM     38  C   UNL A   1      46.120  26.893  32.030  1.00  0.00     0.034 A 
BRANCH  25  39
ATOM     39  C   UNL A   1      43.255  31.653  34.815  1.00  0.00     0.023 A 
ATOM     40  C   UNL A   1      42.568  31.581  36.039  1.00  0.00     0.031 A 
ATOM     41  C   UNL A   1      43.966  32.832  34.532  1.00  0.00     0.131 A 
ATOM     42  C   UNL A   1      42.527  32.700  36.887  1.00  0.00     0.055 A 
ATOM     43  C   UNL A   1      43.997  33.908  35.421  1.00  0.00     0.041 A 
ATOM     44  F   UNL A   1      44.628  32.970  33.372  1.00  0.00    -0.206 F 
ATOM     45  C   UNL A   1      43.256  33.855  36.597  1.00  0.00     0.022 A 
BRANCH  42  46
ATOM     46  S   UNL A   1      41.358  32.690  38.275  1.00  0.00     0.124 S 
ATOM     47  O   UNL A   1      42.082  31.897  39.268  1.00  0.00    -0.237 OA
ATOM     48  O   UNL A   1      41.212  34.108  38.575  1.00  0.00    -0.237 OA
ATOM     49  O   UNL A   1      40.173  32.040  37.721  1.00  0.00    -0.744 OA
ENDBRANCH  42  46
ENDBRANCH  25  39
BRANCH  26  50
ATOM     50  C   UNL A   1      42.592  24.743  27.578  1.00  0.00     0.023 A 
ATOM     51  C   UNL A   1      41.835  23.567  27.651  1.00  0.00     0.031 A 
ATOM     52  C   UNL A   1      43.248  25.038  26.368  1.00  0.00     0.131 A 
ATOM     53  C   UNL A   1      41.760  22.720  26.534  1.00  0.00     0.055 A 
ATOM     54  C   UNL A   1      43.135  24.216  25.248  1.00  0.00     0.041 A 
ATOM     55  F   UNL A   1      43.973  26.162  26.246  1.00  0.00    -0.206 F 
ATOM     56  C   UNL A   1      42.390  23.044  25.329  1.00  0.00     0.022 A 
BRANCH  53  57
ATOM     57  S   UNL A   1      40.840  21.164  26.682  1.00  0.00     0.124 S 
ATOM     58  O   UNL A   1      40.787  20.986  28.128  1.00  0.00    -0.237 OA
ATOM     59  O   UNL A   1      39.577  21.495  26.030  1.00  0.00    -0.237 OA
ATOM     60  O   UNL A   1      41.676  20.204  25.963  1.00  0.00    -0.744 OA
ENDBRANCH  53  57
ENDBRANCH  26  50
BRANCH  38  61
ATOM     61  C   UNL A   1      47.461  26.284  32.350  1.00  0.00     0.023 A 
ATOM     62  C   UNL A   1      47.595  25.220  33.257  1.00  0.00     0.031 A 
ATOM     63  C   UNL A   1      48.619  26.774  31.722  1.00  0.00     0.131 A 
ATOM     64  C   UNL A   1      48.868  24.699  33.535  1.00  0.00     0.055 A 
ATOM     65  C   UNL A   1      49.876  26.221  31.967  1.00  0.00     0.041 A 
ATOM     66  F   UNL A   1      48.544  27.793  30.851  1.00  0.00    -0.206 F 
ATOM     67  C   UNL A   1      50.006  25.181  32.883  1.00  0.00     0.022 A 
BRANCH  64  68
ATOM     68  S   UNL A   1      49.028  23.410  34.801  1.00  0.00     0.124 S 
ATOM     69  O   UNL A   1      49.714  22.351  34.069  1.00  0.00    -0.237 OA
ATOM     70  O   UNL A   1      49.809  24.080  35.836  1.00  0.00    -0.237 OA
ATOM     71  O   UNL A   1      47.643  23.114  35.166  1.00  0.00    -0.744 OA
ENDBRANCH  64  68
ENDBRANCH  38  61
ENDBRANCH  12  13
ENDBRANCH   5   7
ENDBRANCH   2   3
ENDBRANCH   1   2
BRANCH   1  72
ATOM     72  C   UNL A   1      32.925  28.279  26.022  1.00  0.00     0.118 C 
BRANCH  72  73
ATOM     73  N   UNL A   1      33.023  29.018  24.779  1.00  0.00    -0.352 N 
ATOM     74  C   UNL A   1      32.566  28.644  23.539  1.00  0.00     0.253 C 
ATOM     75  H   UNL A   1      33.473  29.891  24.830  1.00  0.00     0.163 HD
ATOM     76  O   UNL A   1      32.601  29.457  22.616  1.00  0.00    -0.269 OA
BRANCH  74  77
ATOM     77  C   UNL A   1      32.139  27.248  23.267  1.00  0.00     0.065 A 
ATOM     78  C   UNL A   1      33.205  26.419  22.874  1.00  0.00     0.042 A 
ATOM     79  C   UNL A   1      30.833  26.739  23.390  1.00  0.00     0.050 A 
ATOM     80  C   UNL A   1      33.046  25.048  22.711  1.00  0.00     0.042 A 
ATOM     81  C   UNL A   1      30.683  25.355  23.175  1.00  0.00     0.029 A 
ATOM     82  C   UNL A   1      31.764  24.523  22.846  1.00  0.00     0.028 A 
BRANCH  79  83
ATOM     83  N   UNL A   1      29.687  27.495  23.611  1.00  0.00    -0.370 N 
ATOM     84  C   UNL A   1      28.389  26.826  23.774  1.00  0.00     0.116 C 
ATOM     85  C   UNL A   1      29.821  28.893  24.027  1.00  0.00     0.126 C 
ATOM     86  C   UNL A   1      27.242  27.698  23.276  1.00  0.00     0.022 C 
ATOM     87  C   UNL A   1      28.731  29.749  23.368  1.00  0.00     0.064 C 
ATOM     88  C   UNL A   1      27.373  29.144  23.749  1.00  0.00     0.013 C 
BRANCH  87  89
ATOM     89  C   UNL A   1      29.028  29.865  21.848  1.00  0.00     0.267 C 
BRANCH  89  90
ATOM     90  N   UNL A   1      29.282  31.178  21.247  1.00  0.00    -0.335 N 
ATOM     91  C   UNL A   1      29.318  32.290  22.193  1.00  0.00     0.262 C 
ATOM     92  C   UNL A   1      28.409  31.558  20.140  1.00  0.00     0.262 C 
ATOM     93  H   UNL A   1      30.217  31.020  20.871  1.00  0.00     0.348 HD
ATOM     94  C   UNL A   1      27.976  32.978  22.053  1.00  0.00     0.067 C 
ATOM     95  C   UNL A   1      27.612  32.775  20.594  1.00  0.00     0.067 C 
ENDBRANCH  89  90
ENDBRANCH  87  89
ENDBRANCH  79  83
BRANCH  80  96
ATOM     96  N   UNL A   1      34.093  24.155  22.408  1.00  0.00    -0.322 N 
ATOM     97  C   UNL A   1      34.763  23.230  23.183  1.00  0.00     0.257 C 
ATOM     98  H   UNL A   1      34.402  24.198  21.474  1.00  0.00     0.170 HD
ATOM     99  O   UNL A   1      35.775  22.677  22.756  1.00  0.00    -0.269 OA
BRANCH  97 100
ATOM    100  C   UNL A   1      34.284  22.873  24.529  1.00  0.00     0.058 A 
ATOM    101  C   UNL A   1      34.841  23.570  25.612  1.00  0.00     0.015 A 
ATOM    102  C   UNL A   1      33.257  21.944  24.739  1.00  0.00     0.053 A 
ATOM    103  C   UNL A   1      34.310  23.401  26.890  1.00  0.00     0.001 A 
ATOM    104  C   UNL A   1      32.729  21.785  26.023  1.00  0.00     0.021 A 
ATOM    105  Cl  UNL A   1      32.586  20.993  23.465  1.00  0.00    -0.083 Cl
ATOM    106  C   UNL A   1      33.244  22.525  27.092  1.00  0.00     0.002 A 
ENDBRANCH  97 100
ENDBRANCH  80  96
ENDBRANCH  74  77
ENDBRANCH  72  73
ENDBRANCH   1  72
TORSDOF 18
ENDMDL
