MODEL 1
REMARK VINA RESULT:     -11.9      0.000      0.000
REMARK SMILES CCOc1ccc(C(=O)NC(=S)Nc2cccc(C(=O)NCCCNC(=O)c3ccc(-c4c5nc(c(-c6cc(S(=O)(=O)[O-])ccc6F)c6ccc([nH]6)c(-c6cc(S(=O)(=O)[O-])ccc6F)c6nc(c(-c7cc(S(=O)(=O)[O-])ccc7F)c7ccc4[nH]7)C=C6)C=C5)cc3)c2C)cc1Br
REMARK SMILES IDX 19 1 20 2 21 3 18 5 14 6 15 7 91 8 16 9 92 10 17 11 13 12
REMARK SMILES IDX 11 14 12 15 10 16 8 17 9 18 7 20 4 21 5 22 94 23 6 24 93 25
REMARK SMILES IDX 95 26 3 27 2 28 1 29 22 30 23 31 24 32 25 33 26 34 27 36
REMARK SMILES IDX 28 37 29 38 90 39 30 40 89 41 31 42 32 43 33 44 83 45 34 46
REMARK SMILES IDX 88 47 82 48 84 49 35 50 87 51 81 52 80 53 36 55 68 56 48 57
REMARK SMILES IDX 67 58 49 59 52 60 66 61 85 62 50 63 51 64 65 66 86 67 53 68
REMARK SMILES IDX 37 69 38 70 46 71 39 72 45 73 47 74 44 75 40 76 41 77 42 78
REMARK SMILES IDX 43 79 69 80 70 81 78 82 71 83 77 84 79 85 76 86 72 87 73 88
REMARK SMILES IDX 74 89 75 90 54 91 55 92 63 93 56 94 62 95 64 96 61 97 57 98
REMARK SMILES IDX 58 99 59 100 60 101
REMARK H PARENT 21 4 13 13 10 19 25 35 84 54 52 65
REMARK Flexibility Score: inf
ROOT
ATOM      1  C   UNL A   1      37.404  23.410  26.071  1.00  0.00     0.251 C 
ATOM      2  O   UNL A   1      37.612  24.635  26.127  1.00  0.00    -0.269 OA
ATOM      3  N   UNL A   1      38.606  22.688  25.918  1.00  0.00    -0.352 N 
ATOM      4  H   UNL A   1      39.267  23.333  25.578  1.00  0.00     0.163 HD
ENDROOT
BRANCH   1   5
ATOM      5  C   UNL A   1      35.782  23.019  26.082  1.00  0.00     0.044 A 
ATOM      6  C   UNL A   1      33.573  22.221  23.967  1.00  0.00     0.044 A 
ATOM      7  C   UNL A   1      32.366  21.955  25.256  1.00  0.00     0.026 A 
ATOM      8  C   UNL A   1      35.306  22.635  24.338  1.00  0.00    -0.015 A 
ATOM      9  C   UNL A   1      32.673  22.188  26.948  1.00  0.00     0.003 A 
ATOM     10  C   UNL A   1      36.194  22.848  23.147  1.00  0.00     0.047 C 
ATOM     11  C   UNL A   1      34.292  22.744  27.448  1.00  0.00     0.014 A 
BRANCH   6  12
ATOM     12  N   UNL A   1      32.954  23.277  23.093  1.00  0.00    -0.332 N 
ATOM     13  H   UNL A   1      32.715  22.992  22.182  1.00  0.00     0.169 HD
BRANCH  12  14
ATOM     14  C   UNL A   1      32.671  24.633  23.413  1.00  0.00     0.177 C 
ATOM     15  S   UNL A   1      33.440  25.809  22.490  1.00  0.00    -0.040 S 
BRANCH  14  16
ATOM     16  N   UNL A   1      31.817  25.110  24.537  1.00  0.00    -0.299 N 
ATOM     17  C   UNL A   1      31.459  26.123  25.687  1.00  0.00     0.257 C 
ATOM     18  O   UNL A   1      30.385  25.984  26.266  1.00  0.00    -0.269 OA
ATOM     19  H   UNL A   1      31.099  24.440  24.585  1.00  0.00     0.172 HD
BRANCH  17  20
ATOM     20  C   UNL A   1      32.492  27.145  26.165  1.00  0.00     0.041 A 
ATOM     21  C   UNL A   1      33.912  30.532  27.051  1.00  0.00     0.133 A 
ATOM     22  C   UNL A   1      34.901  29.020  26.865  1.00  0.00     0.048 A 
ATOM     23  C   UNL A   1      32.157  30.376  26.693  1.00  0.00     0.060 A 
ATOM     24  C   UNL A   1      34.185  27.388  26.469  1.00  0.00     0.018 A 
ATOM     25  C   UNL A   1      31.562  28.512  26.256  1.00  0.00     0.033 A 
ATOM     26  Br  UNL A   1      31.321  32.191  26.567  1.00  0.00    -0.047 Br
BRANCH  21  27
ATOM     27  O   UNL A   1      34.327  31.689  27.659  1.00  0.00    -0.493 OA
BRANCH  27  28
ATOM     28  C   UNL A   1      35.705  31.671  28.133  1.00  0.00     0.226 C 
ATOM     29  C   UNL A   1      36.505  32.955  28.299  1.00  0.00     0.049 C 
ENDBRANCH  27  28
ENDBRANCH  21  27
ENDBRANCH  17  20
ENDBRANCH  14  16
ENDBRANCH  12  14
ENDBRANCH   6  12
ENDBRANCH   1   5
BRANCH   3  30
ATOM     30  C   UNL A   1      39.345  21.356  26.041  1.00  0.00     0.118 C 
BRANCH  30  31
ATOM     31  C   UNL A   1      40.494  21.143  27.039  1.00  0.00     0.042 C 
BRANCH  31  32
ATOM     32  C   UNL A   1      41.232  22.405  27.485  1.00  0.00     0.118 C 
BRANCH  32  33
ATOM     33  N   UNL A   1      42.060  23.117  26.516  1.00  0.00    -0.352 N 
ATOM     34  C   UNL A   1      41.951  24.435  26.065  1.00  0.00     0.251 C 
ATOM     35  H   UNL A   1      42.798  22.596  26.125  1.00  0.00     0.163 HD
ATOM     36  O   UNL A   1      42.729  24.898  25.235  1.00  0.00    -0.269 OA
BRANCH  34  37
ATOM     37  C   UNL A   1      40.993  25.369  26.725  1.00  0.00     0.039 A 
ATOM     38  C   UNL A   1      40.865  26.617  26.093  1.00  0.00     0.014 A 
ATOM     39  C   UNL A   1      40.804  25.255  28.088  1.00  0.00     0.014 A 
ATOM     40  C   UNL A   1      41.011  27.763  26.854  1.00  0.00     0.010 A 
ATOM     41  C   UNL A   1      41.167  26.349  28.825  1.00  0.00     0.010 A 
ATOM     42  C   UNL A   1      41.331  27.583  28.189  1.00  0.00    -0.014 A 
BRANCH  42  43
ATOM     43  C   UNL A   1      41.720  28.639  29.089  1.00  0.00     0.031 A 
ATOM     44  C   UNL A   1      40.602  29.469  29.552  1.00  0.00     0.074 A 
ATOM     45  C   UNL A   1      42.991  28.688  29.544  1.00  0.00     0.049 A 
ATOM     46  N   UNL A   1      40.715  30.680  29.936  1.00  0.00    -0.248 NA
ATOM     47  C   UNL A   1      39.209  29.011  29.530  1.00  0.00     0.031 C 
ATOM     48  C   UNL A   1      43.550  29.472  30.639  1.00  0.00     0.029 A 
ATOM     49  N   UNL A   1      44.112  28.140  28.916  1.00  0.00    -0.354 N 
ATOM     50  C   UNL A   1      39.529  31.009  30.554  1.00  0.00     0.074 A 
ATOM     51  C   UNL A   1      38.580  30.023  30.127  1.00  0.00     0.031 C 
ATOM     52  C   UNL A   1      44.876  29.611  30.438  1.00  0.00     0.029 A 
ATOM     53  C   UNL A   1      45.179  29.041  29.136  1.00  0.00     0.049 A 
ATOM     54  H   UNL A   1      44.153  27.291  28.418  1.00  0.00     0.167 HD
ATOM     55  C   UNL A   1      39.563  31.973  31.509  1.00  0.00     0.034 A 
ATOM     56  C   UNL A   1      45.686  29.728  28.065  1.00  0.00     0.034 A 
ATOM     57  C   UNL A   1      40.928  32.492  31.625  1.00  0.00     0.049 A 
ATOM     58  C   UNL A   1      45.315  31.207  28.098  1.00  0.00     0.074 A 
ATOM     59  C   UNL A   1      41.994  32.252  32.473  1.00  0.00     0.029 A 
ATOM     60  N   UNL A   1      41.461  33.107  30.515  1.00  0.00    -0.354 N 
ATOM     61  N   UNL A   1      44.495  31.739  28.969  1.00  0.00    -0.248 NA
ATOM     62  C   UNL A   1      45.806  32.196  27.143  1.00  0.00     0.031 C 
ATOM     63  C   UNL A   1      43.182  32.714  31.817  1.00  0.00     0.029 A 
ATOM     64  C   UNL A   1      42.823  33.254  30.595  1.00  0.00     0.049 A 
ATOM     65  H   UNL A   1      40.923  33.407  29.747  1.00  0.00     0.167 HD
ATOM     66  C   UNL A   1      44.316  33.073  28.707  1.00  0.00     0.074 A 
ATOM     67  C   UNL A   1      45.143  33.303  27.530  1.00  0.00     0.031 C 
ATOM     68  C   UNL A   1      43.489  33.871  29.458  1.00  0.00     0.034 A 
BRANCH  55  69
ATOM     69  C   UNL A   1      38.477  32.308  32.490  1.00  0.00     0.023 A 
ATOM     70  C   UNL A   1      37.232  32.678  31.953  1.00  0.00     0.031 A 
ATOM     71  C   UNL A   1      38.548  32.297  33.897  1.00  0.00     0.131 A 
ATOM     72  C   UNL A   1      36.157  33.057  32.768  1.00  0.00     0.055 A 
ATOM     73  C   UNL A   1      37.483  32.699  34.715  1.00  0.00     0.041 A 
ATOM     74  F   UNL A   1      39.623  31.862  34.562  1.00  0.00    -0.206 F 
ATOM     75  C   UNL A   1      36.277  33.084  34.152  1.00  0.00     0.022 A 
BRANCH  72  76
ATOM     76  S   UNL A   1      34.600  33.502  31.966  1.00  0.00     0.124 S 
ATOM     77  O   UNL A   1      34.444  32.427  30.990  1.00  0.00    -0.237 OA
ATOM     78  O   UNL A   1      33.666  33.499  33.085  1.00  0.00    -0.237 OA
ATOM     79  O   UNL A   1      34.881  34.818  31.396  1.00  0.00    -0.744 OA
ENDBRANCH  72  76
ENDBRANCH  55  69
BRANCH  56  80
ATOM     80  C   UNL A   1      45.770  28.830  26.858  1.00  0.00     0.023 A 
ATOM     81  C   UNL A   1      46.866  27.931  26.822  1.00  0.00     0.031 A 
ATOM     82  C   UNL A   1      44.626  28.479  26.130  1.00  0.00     0.131 A 
ATOM     83  C   UNL A   1      46.705  26.636  26.298  1.00  0.00     0.055 A 
ATOM     84  C   UNL A   1      44.506  27.216  25.530  1.00  0.00     0.041 A 
ATOM     85  F   UNL A   1      43.548  29.279  26.121  1.00  0.00    -0.206 F 
ATOM     86  C   UNL A   1      45.515  26.263  25.675  1.00  0.00     0.022 A 
BRANCH  83  87
ATOM     87  S   UNL A   1      47.924  25.361  26.739  1.00  0.00     0.124 S 
ATOM     88  O   UNL A   1      48.918  25.495  25.683  1.00  0.00    -0.237 OA
ATOM     89  O   UNL A   1      48.351  25.778  28.074  1.00  0.00    -0.237 OA
ATOM     90  O   UNL A   1      47.146  24.120  26.728  1.00  0.00    -0.744 OA
ENDBRANCH  83  87
ENDBRANCH  56  80
BRANCH  68  91
ATOM     91  C   UNL A   1      43.181  35.324  29.151  1.00  0.00     0.023 A 
ATOM     92  C   UNL A   1      43.548  36.343  30.030  1.00  0.00     0.031 A 
ATOM     93  C   UNL A   1      42.468  35.747  27.994  1.00  0.00     0.131 A 
ATOM     94  C   UNL A   1      43.345  37.692  29.692  1.00  0.00     0.055 A 
ATOM     95  C   UNL A   1      42.169  37.079  27.716  1.00  0.00     0.041 A 
ATOM     96  F   UNL A   1      42.066  34.904  27.035  1.00  0.00    -0.206 F 
ATOM     97  C   UNL A   1      42.637  38.069  28.553  1.00  0.00     0.022 A 
BRANCH  94  98
ATOM     98  S   UNL A   1      44.130  38.944  30.726  1.00  0.00     0.124 S 
ATOM     99  O   UNL A   1      45.549  38.721  30.472  1.00  0.00    -0.237 OA
ATOM    100  O   UNL A   1      43.572  40.174  30.168  1.00  0.00    -0.237 OA
ATOM    101  O   UNL A   1      43.676  38.611  32.075  1.00  0.00    -0.744 OA
ENDBRANCH  94  98
ENDBRANCH  68  91
ENDBRANCH  42  43
ENDBRANCH  34  37
ENDBRANCH  32  33
ENDBRANCH  31  32
ENDBRANCH  30  31
ENDBRANCH   3  30
TORSDOF 19
ENDMDL
MODEL 2
REMARK VINA RESULT:     -11.5      7.426     12.787
REMARK SMILES CCOc1ccc(C(=O)NC(=S)Nc2cccc(C(=O)NCCCNC(=O)c3ccc(-c4c5nc(c(-c6cc(S(=O)(=O)[O-])ccc6F)c6ccc([nH]6)c(-c6cc(S(=O)(=O)[O-])ccc6F)c6nc(c(-c7cc(S(=O)(=O)[O-])ccc7F)c7ccc4[nH]7)C=C6)C=C5)cc3)c2C)cc1Br
REMARK SMILES IDX 19 1 20 2 21 3 18 5 14 6 15 7 91 8 16 9 92 10 17 11 13 12
REMARK SMILES IDX 11 14 12 15 10 16 8 17 9 18 7 20 4 21 5 22 94 23 6 24 93 25
REMARK SMILES IDX 95 26 3 27 2 28 1 29 22 30 23 31 24 32 25 33 26 34 27 36
REMARK SMILES IDX 28 37 29 38 90 39 30 40 89 41 31 42 32 43 33 44 83 45 34 46
REMARK SMILES IDX 88 47 82 48 84 49 35 50 87 51 81 52 80 53 36 55 68 56 48 57
REMARK SMILES IDX 67 58 49 59 52 60 66 61 85 62 50 63 51 64 65 66 86 67 53 68
REMARK SMILES IDX 37 69 38 70 46 71 39 72 45 73 47 74 44 75 40 76 41 77 42 78
REMARK SMILES IDX 43 79 69 80 70 81 78 82 71 83 77 84 79 85 76 86 72 87 73 88
REMARK SMILES IDX 74 89 75 90 54 91 55 92 63 93 56 94 62 95 64 96 61 97 57 98
REMARK SMILES IDX 58 99 59 100 60 101
REMARK H PARENT 21 4 13 13 10 19 25 35 84 54 52 65
REMARK Flexibility Score: inf
ROOT
ATOM      1  C   UNL A   1      46.268  24.526  26.233  1.00  0.00     0.251 C 
ATOM      2  O   UNL A   1      47.263  23.786  26.312  1.00  0.00    -0.269 OA
ATOM      3  N   UNL A   1      46.538  25.676  25.462  1.00  0.00    -0.352 N 
ATOM      4  H   UNL A   1      47.518  25.764  25.443  1.00  0.00     0.163 HD
ENDROOT
BRANCH   1   5
ATOM      5  C   UNL A   1      44.978  23.990  27.146  1.00  0.00     0.044 A 
ATOM      6  C   UNL A   1      42.137  22.707  26.621  1.00  0.00     0.044 A 
ATOM      7  C   UNL A   1      41.851  22.507  28.372  1.00  0.00     0.026 A 
ATOM      8  C   UNL A   1      43.718  23.328  25.967  1.00  0.00    -0.015 A 
ATOM      9  C   UNL A   1      42.965  22.996  29.609  1.00  0.00     0.003 A 
ATOM     10  C   UNL A   1      43.798  23.460  24.474  1.00  0.00     0.047 C 
ATOM     11  C   UNL A   1      44.497  23.765  29.115  1.00  0.00     0.014 A 
BRANCH   6  12
ATOM     12  N   UNL A   1      40.998  23.571  26.156  1.00  0.00    -0.332 N 
ATOM     13  H   UNL A   1      41.251  24.382  25.660  1.00  0.00     0.169 HD
BRANCH  12  14
ATOM     14  C   UNL A   1      39.603  23.368  26.342  1.00  0.00     0.177 C 
ATOM     15  S   UNL A   1      38.785  24.508  27.267  1.00  0.00    -0.040 S 
BRANCH  14  16
ATOM     16  N   UNL A   1      38.814  22.200  25.858  1.00  0.00    -0.299 N 
ATOM     17  C   UNL A   1      37.483  21.524  25.361  1.00  0.00     0.257 C 
ATOM     18  O   UNL A   1      37.542  20.370  24.943  1.00  0.00    -0.269 OA
ATOM     19  H   UNL A   1      39.469  21.467  25.839  1.00  0.00     0.172 HD
BRANCH  17  20
ATOM     20  C   UNL A   1      36.141  22.233  25.544  1.00  0.00     0.041 A 
ATOM     21  C   UNL A   1      32.552  23.172  24.824  1.00  0.00     0.133 A 
ATOM     22  C   UNL A   1      33.640  24.070  25.968  1.00  0.00     0.048 A 
ATOM     23  C   UNL A   1      33.304  21.805  23.931  1.00  0.00     0.060 A 
ATOM     24  C   UNL A   1      35.361  23.576  26.324  1.00  0.00     0.018 A 
ATOM     25  C   UNL A   1      35.205  21.427  24.440  1.00  0.00     0.033 A 
ATOM     26  Br  UNL A   1      32.091  21.202  22.457  1.00  0.00    -0.047 Br
BRANCH  21  27
ATOM     27  O   UNL A   1      31.187  23.283  24.765  1.00  0.00    -0.493 OA
BRANCH  27  28
ATOM     28  C   UNL A   1      30.698  24.447  24.036  1.00  0.00     0.226 C 
ATOM     29  C   UNL A   1      31.448  25.004  22.835  1.00  0.00     0.049 C 
ENDBRANCH  27  28
ENDBRANCH  21  27
ENDBRANCH  17  20
ENDBRANCH  14  16
ENDBRANCH  12  14
ENDBRANCH   6  12
ENDBRANCH   1   5
BRANCH   3  30
ATOM     30  C   UNL A   1      45.996  26.845  24.641  1.00  0.00     0.118 C 
BRANCH  30  31
ATOM     31  C   UNL A   1      46.709  28.206  24.579  1.00  0.00     0.042 C 
BRANCH  31  32
ATOM     32  C   UNL A   1      47.338  28.688  25.886  1.00  0.00     0.118 C 
BRANCH  32  33
ATOM     33  N   UNL A   1      48.524  28.002  26.392  1.00  0.00    -0.352 N 
ATOM     34  C   UNL A   1      48.840  27.643  27.706  1.00  0.00     0.251 C 
ATOM     35  H   UNL A   1      49.194  27.757  25.714  1.00  0.00     0.163 HD
ATOM     36  O   UNL A   1      49.888  27.066  27.981  1.00  0.00    -0.269 OA
BRANCH  34  37
ATOM     37  C   UNL A   1      47.818  27.792  28.783  1.00  0.00     0.039 A 
ATOM     38  C   UNL A   1      48.099  28.800  29.719  1.00  0.00     0.014 A 
ATOM     39  C   UNL A   1      47.093  26.677  29.154  1.00  0.00     0.014 A 
ATOM     40  C   UNL A   1      48.068  28.481  31.065  1.00  0.00     0.010 A 
ATOM     41  C   UNL A   1      47.263  26.271  30.449  1.00  0.00     0.010 A 
ATOM     42  C   UNL A   1      47.811  27.157  31.382  1.00  0.00    -0.014 A 
BRANCH  42  43
ATOM     43  C   UNL A   1      47.936  26.590  32.700  1.00  0.00     0.031 A 
ATOM     44  C   UNL A   1      48.957  25.542  32.804  1.00  0.00     0.074 A 
ATOM     45  C   UNL A   1      47.255  27.143  33.728  1.00  0.00     0.049 A 
ATOM     46  N   UNL A   1      48.941  24.602  33.667  1.00  0.00    -0.248 NA
ATOM     47  C   UNL A   1      50.065  25.415  31.852  1.00  0.00     0.031 C 
ATOM     48  C   UNL A   1      47.413  26.932  35.161  1.00  0.00     0.029 A 
ATOM     49  N   UNL A   1      46.084  27.900  33.627  1.00  0.00    -0.354 N 
ATOM     50  C   UNL A   1      50.185  24.013  33.631  1.00  0.00     0.074 A 
ATOM     51  C   UNL A   1      50.775  24.424  32.390  1.00  0.00     0.031 C 
ATOM     52  C   UNL A   1      46.261  27.261  35.777  1.00  0.00     0.029 A 
ATOM     53  C   UNL A   1      45.285  27.558  34.741  1.00  0.00     0.049 A 
ATOM     54  H   UNL A   1      45.860  28.546  32.918  1.00  0.00     0.167 HD
ATOM     55  C   UNL A   1      50.626  23.406  34.762  1.00  0.00     0.034 A 
ATOM     56  C   UNL A   1      44.120  26.871  34.524  1.00  0.00     0.034 A 
ATOM     57  C   UNL A   1      49.591  23.492  35.794  1.00  0.00     0.049 A 
ATOM     58  C   UNL A   1      44.209  25.421  34.989  1.00  0.00     0.074 A 
ATOM     59  C   UNL A   1      49.356  24.323  36.875  1.00  0.00     0.029 A 
ATOM     60  N   UNL A   1      48.391  22.870  35.531  1.00  0.00    -0.354 N 
ATOM     61  N   UNL A   1      45.307  24.854  35.420  1.00  0.00    -0.248 NA
ATOM     62  C   UNL A   1      43.086  24.488  34.980  1.00  0.00     0.031 C 
ATOM     63  C   UNL A   1      47.972  24.200  37.224  1.00  0.00     0.029 A 
ATOM     64  C   UNL A   1      47.389  23.276  36.375  1.00  0.00     0.049 A 
ATOM     65  H   UNL A   1      48.268  22.206  34.815  1.00  0.00     0.167 HD
ATOM     66  C   UNL A   1      45.083  23.532  35.709  1.00  0.00     0.074 A 
ATOM     67  C   UNL A   1      43.674  23.347  35.388  1.00  0.00     0.031 C 
ATOM     68  C   UNL A   1      46.072  22.695  36.163  1.00  0.00     0.034 A 
BRANCH  55  69
ATOM     69  C   UNL A   1      52.026  22.942  35.047  1.00  0.00     0.023 A 
ATOM     70  C   UNL A   1      52.275  21.565  34.910  1.00  0.00     0.031 A 
ATOM     71  C   UNL A   1      53.133  23.720  35.439  1.00  0.00     0.131 A 
ATOM     72  C   UNL A   1      53.528  21.008  35.194  1.00  0.00     0.055 A 
ATOM     73  C   UNL A   1      54.382  23.162  35.748  1.00  0.00     0.041 A 
ATOM     74  F   UNL A   1      53.091  25.054  35.504  1.00  0.00    -0.206 F 
ATOM     75  C   UNL A   1      54.587  21.797  35.628  1.00  0.00     0.022 A 
BRANCH  72  76
ATOM     76  S   UNL A   1      53.734  19.226  34.971  1.00  0.00     0.124 S 
ATOM     77  O   UNL A   1      55.168  19.057  35.188  1.00  0.00    -0.237 OA
ATOM     78  O   UNL A   1      52.856  18.684  36.001  1.00  0.00    -0.237 OA
ATOM     79  O   UNL A   1      53.287  19.006  33.597  1.00  0.00    -0.744 OA
ENDBRANCH  72  76
ENDBRANCH  55  69
BRANCH  56  80
ATOM     80  C   UNL A   1      43.420  27.401  33.301  1.00  0.00     0.023 A 
ATOM     81  C   UNL A   1      42.876  28.706  33.406  1.00  0.00     0.031 A 
ATOM     82  C   UNL A   1      43.745  26.942  32.018  1.00  0.00     0.131 A 
ATOM     83  C   UNL A   1      42.915  29.582  32.308  1.00  0.00     0.055 A 
ATOM     84  C   UNL A   1      43.697  27.798  30.907  1.00  0.00     0.041 A 
ATOM     85  F   UNL A   1      44.269  25.719  31.841  1.00  0.00    -0.206 F 
ATOM     86  C   UNL A   1      43.352  29.141  31.060  1.00  0.00     0.022 A 
BRANCH  83  87
ATOM     87  S   UNL A   1      42.717  31.365  32.609  1.00  0.00     0.124 S 
ATOM     88  O   UNL A   1      43.928  31.698  33.345  1.00  0.00    -0.237 OA
ATOM     89  O   UNL A   1      42.624  31.907  31.254  1.00  0.00    -0.237 OA
ATOM     90  O   UNL A   1      41.467  31.450  33.367  1.00  0.00    -0.744 OA
ENDBRANCH  83  87
ENDBRANCH  56  80
BRANCH  68  91
ATOM     91  C   UNL A   1      45.900  21.207  36.403  1.00  0.00     0.023 A 
ATOM     92  C   UNL A   1      46.237  20.627  37.626  1.00  0.00     0.031 A 
ATOM     93  C   UNL A   1      45.437  20.302  35.408  1.00  0.00     0.131 A 
ATOM     94  C   UNL A   1      45.984  19.267  37.870  1.00  0.00     0.055 A 
ATOM     95  C   UNL A   1      45.293  18.932  35.618  1.00  0.00     0.041 A 
ATOM     96  F   UNL A   1      45.045  20.693  34.189  1.00  0.00    -0.206 F 
ATOM     97  C   UNL A   1      45.537  18.408  36.870  1.00  0.00     0.022 A 
BRANCH  94  98
ATOM     98  S   UNL A   1      46.148  18.674  39.566  1.00  0.00     0.124 S 
ATOM     99  O   UNL A   1      47.536  18.230  39.614  1.00  0.00    -0.237 OA
ATOM    100  O   UNL A   1      45.842  19.882  40.328  1.00  0.00    -0.237 OA
ATOM    101  O   UNL A   1      45.148  17.612  39.657  1.00  0.00    -0.744 OA
ENDBRANCH  94  98
ENDBRANCH  68  91
ENDBRANCH  42  43
ENDBRANCH  34  37
ENDBRANCH  32  33
ENDBRANCH  31  32
ENDBRANCH  30  31
ENDBRANCH   3  30
TORSDOF 19
ENDMDL
MODEL 3
REMARK VINA RESULT:     -11.3      3.593      5.445
REMARK SMILES CCOc1ccc(C(=O)NC(=S)Nc2cccc(C(=O)NCCCNC(=O)c3ccc(-c4c5nc(c(-c6cc(S(=O)(=O)[O-])ccc6F)c6ccc([nH]6)c(-c6cc(S(=O)(=O)[O-])ccc6F)c6nc(c(-c7cc(S(=O)(=O)[O-])ccc7F)c7ccc4[nH]7)C=C6)C=C5)cc3)c2C)cc1Br
REMARK SMILES IDX 19 1 20 2 21 3 18 5 14 6 15 7 91 8 16 9 92 10 17 11 13 12
REMARK SMILES IDX 11 14 12 15 10 16 8 17 9 18 7 20 4 21 5 22 94 23 6 24 93 25
REMARK SMILES IDX 95 26 3 27 2 28 1 29 22 30 23 31 24 32 25 33 26 34 27 36
REMARK SMILES IDX 28 37 29 38 90 39 30 40 89 41 31 42 32 43 33 44 83 45 34 46
REMARK SMILES IDX 88 47 82 48 84 49 35 50 87 51 81 52 80 53 36 55 68 56 48 57
REMARK SMILES IDX 67 58 49 59 52 60 66 61 85 62 50 63 51 64 65 66 86 67 53 68
REMARK SMILES IDX 37 69 38 70 46 71 39 72 45 73 47 74 44 75 40 76 41 77 42 78
REMARK SMILES IDX 43 79 69 80 70 81 78 82 71 83 77 84 79 85 76 86 72 87 73 88
REMARK SMILES IDX 74 89 75 90 54 91 55 92 63 93 56 94 62 95 64 96 61 97 57 98
REMARK SMILES IDX 58 99 59 100 60 101
REMARK H PARENT 21 4 13 13 10 19 25 35 84 54 52 65
REMARK Flexibility Score: inf
ROOT
ATOM      1  C   UNL A   1      34.653  24.382  25.628  1.00  0.00     0.251 C 
ATOM      2  O   UNL A   1      35.403  25.300  25.999  1.00  0.00    -0.269 OA
ATOM      3  N   UNL A   1      35.367  23.186  25.408  1.00  0.00    -0.352 N 
ATOM      4  H   UNL A   1      36.309  23.451  25.296  1.00  0.00     0.163 HD
ENDROOT
BRANCH   1   5
ATOM      5  C   UNL A   1      33.075  24.876  25.400  1.00  0.00     0.044 A 
ATOM      6  C   UNL A   1      31.276  25.862  22.994  1.00  0.00     0.044 A 
ATOM      7  C   UNL A   1      29.830  25.929  24.040  1.00  0.00     0.026 A 
ATOM      8  C   UNL A   1      32.875  25.235  23.598  1.00  0.00    -0.015 A 
ATOM      9  C   UNL A   1      29.826  25.542  25.732  1.00  0.00     0.003 A 
ATOM     10  C   UNL A   1      34.001  25.262  22.605  1.00  0.00     0.047 C 
ATOM     11  C   UNL A   1      31.364  25.059  26.495  1.00  0.00     0.014 A 
BRANCH   6  12
ATOM     12  N   UNL A   1      31.422  27.266  22.475  1.00  0.00    -0.332 N 
ATOM     13  H   UNL A   1      30.974  27.454  21.619  1.00  0.00     0.169 HD
BRANCH  12  14
ATOM     14  C   UNL A   1      32.123  28.355  23.060  1.00  0.00     0.177 C 
ATOM     15  S   UNL A   1      33.696  28.622  22.527  1.00  0.00    -0.040 S 
BRANCH  14  16
ATOM     16  N   UNL A   1      31.624  29.235  24.154  1.00  0.00    -0.299 N 
ATOM     17  C   UNL A   1      31.818  30.068  25.475  1.00  0.00     0.257 C 
ATOM     18  O   UNL A   1      30.885  30.768  25.859  1.00  0.00    -0.269 OA
ATOM     19  H   UNL A   1      30.674  29.363  23.935  1.00  0.00     0.172 HD
BRANCH  17  20
ATOM     20  C   UNL A   1      33.073  29.882  26.328  1.00  0.00     0.041 A 
ATOM     21  C   UNL A   1      35.851  30.810  28.716  1.00  0.00     0.133 A 
ATOM     22  C   UNL A   1      35.826  29.302  27.704  1.00  0.00     0.048 A 
ATOM     23  C   UNL A   1      34.483  31.951  28.465  1.00  0.00     0.060 A 
ATOM     24  C   UNL A   1      34.455  28.860  26.582  1.00  0.00     0.018 A 
ATOM     25  C   UNL A   1      33.087  31.302  27.181  1.00  0.00     0.033 A 
ATOM     26  Br  UNL A   1      34.880  33.699  29.354  1.00  0.00    -0.047 Br
BRANCH  21  27
ATOM     27  O   UNL A   1      36.663  31.034  29.797  1.00  0.00    -0.493 OA
BRANCH  27  28
ATOM     28  C   UNL A   1      36.124  30.580  31.073  1.00  0.00     0.226 C 
ATOM     29  C   UNL A   1      36.959  30.612  32.345  1.00  0.00     0.049 C 
ENDBRANCH  27  28
ENDBRANCH  21  27
ENDBRANCH  17  20
ENDBRANCH  14  16
ENDBRANCH  12  14
ENDBRANCH   6  12
ENDBRANCH   1   5
BRANCH   3  30
ATOM     30  C   UNL A   1      35.341  21.665  25.265  1.00  0.00     0.118 C 
BRANCH  30  31
ATOM     31  C   UNL A   1      36.625  20.828  25.146  1.00  0.00     0.042 C 
BRANCH  31  32
ATOM     32  C   UNL A   1      37.921  21.618  24.972  1.00  0.00     0.118 C 
BRANCH  32  33
ATOM     33  N   UNL A   1      39.190  20.972  25.296  1.00  0.00    -0.352 N 
ATOM     34  C   UNL A   1      40.267  21.469  26.036  1.00  0.00     0.251 C 
ATOM     35  H   UNL A   1      39.302  20.059  24.946  1.00  0.00     0.163 HD
ATOM     36  O   UNL A   1      41.280  20.801  26.224  1.00  0.00    -0.269 OA
BRANCH  34  37
ATOM     37  C   UNL A   1      40.130  22.759  26.773  1.00  0.00     0.039 A 
ATOM     38  C   UNL A   1      40.455  23.898  26.019  1.00  0.00     0.014 A 
ATOM     39  C   UNL A   1      40.312  22.752  28.142  1.00  0.00     0.014 A 
ATOM     40  C   UNL A   1      41.359  24.805  26.545  1.00  0.00     0.010 A 
ATOM     41  C   UNL A   1      41.361  23.503  28.597  1.00  0.00     0.010 A 
ATOM     42  C   UNL A   1      41.919  24.481  27.769  1.00  0.00    -0.014 A 
BRANCH  42  43
ATOM     43  C   UNL A   1      43.018  25.185  28.380  1.00  0.00     0.031 A 
ATOM     44  C   UNL A   1      42.627  26.427  29.055  1.00  0.00     0.074 A 
ATOM     45  C   UNL A   1      44.236  24.602  28.426  1.00  0.00     0.049 A 
ATOM     46  N   UNL A   1      43.405  27.421  29.243  1.00  0.00    -0.248 NA
ATOM     47  C   UNL A   1      41.257  26.691  29.505  1.00  0.00     0.031 C 
ATOM     48  C   UNL A   1      45.411  24.978  29.202  1.00  0.00     0.029 A 
ATOM     49  N   UNL A   1      44.708  23.612  27.560  1.00  0.00    -0.354 N 
ATOM     50  C   UNL A   1      42.775  28.250  30.144  1.00  0.00     0.074 A 
ATOM     51  C   UNL A   1      41.397  27.854  30.139  1.00  0.00     0.031 C 
ATOM     52  C   UNL A   1      46.506  24.475  28.599  1.00  0.00     0.029 A 
ATOM     53  C   UNL A   1      46.077  23.885  27.342  1.00  0.00     0.049 A 
ATOM     54  H   UNL A   1      44.188  22.869  27.176  1.00  0.00     0.167 HD
ATOM     55  C   UNL A   1      43.555  29.040  30.924  1.00  0.00     0.034 A 
ATOM     56  C   UNL A   1      46.474  24.290  26.096  1.00  0.00     0.034 A 
ATOM     57  C   UNL A   1      44.961  28.840  30.564  1.00  0.00     0.049 A 
ATOM     58  C   UNL A   1      46.864  25.764  26.064  1.00  0.00     0.074 A 
ATOM     59  C   UNL A   1      46.001  28.085  31.077  1.00  0.00     0.029 A 
ATOM     60  N   UNL A   1      45.333  29.171  29.281  1.00  0.00    -0.354 N 
ATOM     61  N   UNL A   1      46.711  26.587  27.071  1.00  0.00    -0.248 NA
ATOM     62  C   UNL A   1      47.425  26.438  24.896  1.00  0.00     0.031 C 
ATOM     63  C   UNL A   1      46.988  27.950  30.046  1.00  0.00     0.029 A 
ATOM     64  C   UNL A   1      46.552  28.647  28.932  1.00  0.00     0.049 A 
ATOM     65  H   UNL A   1      44.783  29.723  28.680  1.00  0.00     0.167 HD
ATOM     66  C   UNL A   1      47.099  27.854  26.719  1.00  0.00     0.074 A 
ATOM     67  C   UNL A   1      47.514  27.710  25.330  1.00  0.00     0.031 C 
ATOM     68  C   UNL A   1      47.026  28.918  27.584  1.00  0.00     0.034 A 
BRANCH  55  69
ATOM     69  C   UNL A   1      43.126  29.811  32.139  1.00  0.00     0.023 A 
ATOM     70  C   UNL A   1      42.632  29.062  33.221  1.00  0.00     0.031 A 
ATOM     71  C   UNL A   1      43.155  31.206  32.334  1.00  0.00     0.131 A 
ATOM     72  C   UNL A   1      42.158  29.673  34.389  1.00  0.00     0.055 A 
ATOM     73  C   UNL A   1      42.658  31.822  33.491  1.00  0.00     0.041 A 
ATOM     74  F   UNL A   1      43.698  32.048  31.448  1.00  0.00    -0.206 F 
ATOM     75  C   UNL A   1      42.153  31.055  34.529  1.00  0.00     0.022 A 
BRANCH  72  76
ATOM     76  S   UNL A   1      41.557  28.607  35.719  1.00  0.00     0.124 S 
ATOM     77  O   UNL A   1      40.385  29.341  36.190  1.00  0.00    -0.237 OA
ATOM     78  O   UNL A   1      41.295  27.356  35.016  1.00  0.00    -0.237 OA
ATOM     79  O   UNL A   1      42.680  28.569  36.653  1.00  0.00    -0.744 OA
ENDBRANCH  72  76
ENDBRANCH  55  69
BRANCH  56  80
ATOM     80  C   UNL A   1      45.741  23.512  25.034  1.00  0.00     0.023 A 
ATOM     81  C   UNL A   1      46.148  22.165  24.852  1.00  0.00     0.031 A 
ATOM     82  C   UNL A   1      44.434  23.846  24.657  1.00  0.00     0.131 A 
ATOM     83  C   UNL A   1      45.198  21.172  24.559  1.00  0.00     0.055 A 
ATOM     84  C   UNL A   1      43.514  22.857  24.276  1.00  0.00     0.041 A 
ATOM     85  F   UNL A   1      43.979  25.100  24.804  1.00  0.00    -0.206 F 
ATOM     86  C   UNL A   1      43.871  21.509  24.297  1.00  0.00     0.022 A 
BRANCH  83  87
ATOM     87  S   UNL A   1      45.639  19.432  24.856  1.00  0.00     0.124 S 
ATOM     88  O   UNL A   1      45.846  18.924  23.507  1.00  0.00    -0.237 OA
ATOM     89  O   UNL A   1      46.837  19.546  25.686  1.00  0.00    -0.237 OA
ATOM     90  O   UNL A   1      44.475  18.897  25.566  1.00  0.00    -0.744 OA
ENDBRANCH  83  87
ENDBRANCH  56  80
BRANCH  68  91
ATOM     91  C   UNL A   1      47.349  30.353  27.214  1.00  0.00     0.023 A 
ATOM     92  C   UNL A   1      46.385  31.191  26.654  1.00  0.00     0.031 A 
ATOM     93  C   UNL A   1      48.641  30.929  27.364  1.00  0.00     0.131 A 
ATOM     94  C   UNL A   1      46.666  32.544  26.405  1.00  0.00     0.055 A 
ATOM     95  C   UNL A   1      48.947  32.242  27.012  1.00  0.00     0.041 A 
ATOM     96  F   UNL A   1      49.674  30.276  27.911  1.00  0.00    -0.206 F 
ATOM     97  C   UNL A   1      47.945  33.073  26.557  1.00  0.00     0.022 A 
BRANCH  94  98
ATOM     98  S   UNL A   1      45.284  33.625  25.984  1.00  0.00     0.124 S 
ATOM     99  O   UNL A   1      45.166  34.465  27.170  1.00  0.00    -0.237 OA
ATOM    100  O   UNL A   1      45.789  34.289  24.785  1.00  0.00    -0.237 OA
ATOM    101  O   UNL A   1      44.177  32.697  25.761  1.00  0.00    -0.744 OA
ENDBRANCH  94  98
ENDBRANCH  68  91
ENDBRANCH  42  43
ENDBRANCH  34  37
ENDBRANCH  32  33
ENDBRANCH  31  32
ENDBRANCH  30  31
ENDBRANCH   3  30
TORSDOF 19
ENDMDL
