MODEL 1
REMARK VINA RESULT:     -11.7      0.000      0.000
REMARK SMILES O=C(NCCCNC(=O)[C@H](F)[C@H](O)C1CCOCC1)c1ccc(-c2c3nc(c(-c4cc(S(=O)(=O)[O-])ccc4F)c4ccc([nH]4)c(-c4cc(S(=O)(=O)[O-])ccc4F)c4nc(c(-c5cc(S(=O)(=O)[O-])ccc5F)c5ccc2[nH]5)C=C4)C=C3)cc1
REMARK SMILES IDX 4 1 3 2 1 3 2 4 20 6 21 7 82 8 22 9 81 10 23 11 24 12 25 13
REMARK SMILES IDX 75 14 26 15 80 16 74 17 76 18 27 19 79 20 73 21 72 22 28 24
REMARK SMILES IDX 60 25 40 26 59 27 41 28 44 29 58 30 77 31 42 32 43 33 57 35
REMARK SMILES IDX 78 36 45 37 29 38 30 39 38 40 31 41 37 42 39 43 36 44 32 45
REMARK SMILES IDX 33 46 34 47 35 48 61 49 62 50 70 51 63 52 69 53 71 54 68 55
REMARK SMILES IDX 64 56 65 57 66 58 67 59 46 60 47 61 55 62 48 63 54 64 56 65
REMARK SMILES IDX 53 66 49 67 50 68 51 69 52 70 5 71 6 72 7 73 8 74 9 76 10 77
REMARK SMILES IDX 11 78 12 79 14 80 15 81 19 82 16 83 18 84 17 85 13 86
REMARK H PARENT 3 5 76 23 44 34 7 75 13 87
REMARK Flexibility Score: inf
ROOT
ATOM      1  C   UNL A   1      32.768  32.713  27.165  1.00  0.00     0.118 C 
ENDROOT
BRANCH   1   2
ATOM      2  N   UNL A   1      32.500  34.058  27.629  1.00  0.00    -0.352 N 
ATOM      3  O   UNL A   1      32.632  35.874  28.939  1.00  0.00    -0.269 OA
ATOM      4  C   UNL A   1      33.089  34.768  28.646  1.00  0.00     0.251 C 
ATOM      5  H   UNL A   1      31.789  34.535  27.143  1.00  0.00     0.163 HD
BRANCH   4   6
ATOM      6  C   UNL A   1      34.243  34.227  29.408  1.00  0.00     0.039 A 
ATOM      7  C   UNL A   1      34.078  33.421  30.539  1.00  0.00     0.014 A 
ATOM      8  C   UNL A   1      35.532  34.470  28.919  1.00  0.00     0.014 A 
ATOM      9  C   UNL A   1      35.197  32.932  31.221  1.00  0.00     0.010 A 
ATOM     10  C   UNL A   1      36.647  33.929  29.569  1.00  0.00     0.010 A 
ATOM     11  C   UNL A   1      36.494  33.161  30.733  1.00  0.00    -0.014 A 
BRANCH  11  12
ATOM     12  C   UNL A   1      37.675  32.528  31.387  1.00  0.00     0.031 A 
ATOM     13  C   UNL A   1      38.401  31.376  30.742  1.00  0.00     0.074 A 
ATOM     14  C   UNL A   1      38.079  32.982  32.592  1.00  0.00     0.049 A 
ATOM     15  N   UNL A   1      39.413  30.680  31.195  1.00  0.00    -0.248 NA
ATOM     16  C   UNL A   1      37.921  30.946  29.422  1.00  0.00     0.031 C 
ATOM     17  C   UNL A   1      37.451  34.080  33.330  1.00  0.00     0.029 A 
ATOM     18  N   UNL A   1      39.105  32.578  33.413  1.00  0.00    -0.354 N 
ATOM     19  C   UNL A   1      39.687  29.722  30.224  1.00  0.00     0.074 A 
ATOM     20  C   UNL A   1      38.710  29.908  29.171  1.00  0.00     0.031 C 
ATOM     21  C   UNL A   1      38.115  34.277  34.479  1.00  0.00     0.029 A 
ATOM     22  C   UNL A   1      39.177  33.283  34.594  1.00  0.00     0.049 A 
ATOM     23  H   UNL A   1      39.729  31.854  33.178  1.00  0.00     0.167 HD
ATOM     24  C   UNL A   1      40.666  28.781  30.210  1.00  0.00     0.034 A 
ATOM     25  C   UNL A   1      39.984  33.132  35.663  1.00  0.00     0.034 A 
ATOM     26  C   UNL A   1      41.635  28.603  31.268  1.00  0.00     0.049 A 
ATOM     27  C   UNL A   1      41.031  32.047  35.640  1.00  0.00     0.074 A 
ATOM     28  C   UNL A   1      42.691  27.709  31.327  1.00  0.00     0.029 A 
ATOM     29  N   UNL A   1      41.661  29.320  32.458  1.00  0.00    -0.354 N 
ATOM     30  N   UNL A   1      41.297  31.175  34.696  1.00  0.00    -0.248 NA
ATOM     31  C   UNL A   1      41.889  31.930  36.827  1.00  0.00     0.031 C 
ATOM     32  C   UNL A   1      43.307  27.833  32.577  1.00  0.00     0.029 A 
ATOM     33  C   UNL A   1      42.691  28.862  33.269  1.00  0.00     0.049 A 
ATOM     34  H   UNL A   1      41.039  30.046  32.692  1.00  0.00     0.167 HD
ATOM     35  C   UNL A   1      42.374  30.428  35.164  1.00  0.00     0.074 A 
ATOM     36  C   UNL A   1      42.718  30.963  36.464  1.00  0.00     0.031 C 
ATOM     37  C   UNL A   1      43.022  29.393  34.570  1.00  0.00     0.034 A 
BRANCH  24  38
ATOM     38  C   UNL A   1      40.721  27.840  29.029  1.00  0.00     0.023 A 
ATOM     39  C   UNL A   1      41.648  28.010  27.986  1.00  0.00     0.031 A 
ATOM     40  C   UNL A   1      39.841  26.744  28.954  1.00  0.00     0.131 A 
ATOM     41  C   UNL A   1      41.641  27.132  26.891  1.00  0.00     0.055 A 
ATOM     42  C   UNL A   1      39.886  25.833  27.897  1.00  0.00     0.041 A 
ATOM     43  F   UNL A   1      38.922  26.540  29.910  1.00  0.00    -0.206 F 
ATOM     44  C   UNL A   1      40.783  26.030  26.851  1.00  0.00     0.022 A 
BRANCH  41  45
ATOM     45  S   UNL A   1      42.689  27.516  25.462  1.00  0.00     0.124 S 
ATOM     46  O   UNL A   1      43.953  27.866  26.107  1.00  0.00    -0.237 OA
ATOM     47  O   UNL A   1      42.679  26.265  24.715  1.00  0.00    -0.237 OA
ATOM     48  O   UNL A   1      41.998  28.632  24.818  1.00  0.00    -0.744 OA
ENDBRANCH  41  45
ENDBRANCH  24  38
BRANCH  25  49
ATOM     49  C   UNL A   1      39.820  34.002  36.864  1.00  0.00     0.023 A 
ATOM     50  C   UNL A   1      39.236  33.511  38.041  1.00  0.00     0.031 A 
ATOM     51  C   UNL A   1      40.194  35.358  36.830  1.00  0.00     0.131 A 
ATOM     52  C   UNL A   1      38.992  34.378  39.117  1.00  0.00     0.055 A 
ATOM     53  C   UNL A   1      40.007  36.203  37.926  1.00  0.00     0.041 A 
ATOM     54  F   UNL A   1      40.756  35.882  35.730  1.00  0.00    -0.206 F 
ATOM     55  C   UNL A   1      39.388  35.717  39.073  1.00  0.00     0.022 A 
BRANCH  52  56
ATOM     56  S   UNL A   1      38.050  33.757  40.536  1.00  0.00     0.124 S 
ATOM     57  O   UNL A   1      36.884  33.172  39.884  1.00  0.00    -0.237 OA
ATOM     58  O   UNL A   1      38.990  32.815  41.134  1.00  0.00    -0.237 OA
ATOM     59  O   UNL A   1      37.788  34.960  41.324  1.00  0.00    -0.744 OA
ENDBRANCH  52  56
ENDBRANCH  25  49
BRANCH  37  60
ATOM     60  C   UNL A   1      44.203  28.809  35.309  1.00  0.00     0.023 A 
ATOM     61  C   UNL A   1      44.042  27.862  36.337  1.00  0.00     0.031 A 
ATOM     62  C   UNL A   1      45.509  29.227  34.994  1.00  0.00     0.131 A 
ATOM     63  C   UNL A   1      45.161  27.410  37.052  1.00  0.00     0.055 A 
ATOM     64  C   UNL A   1      46.624  28.725  35.668  1.00  0.00     0.041 A 
ATOM     65  F   UNL A   1      45.722  30.130  34.025  1.00  0.00    -0.206 F 
ATOM     66  C   UNL A   1      46.452  27.822  36.712  1.00  0.00     0.022 A 
BRANCH  63  67
ATOM     67  S   UNL A   1      44.901  26.346  38.498  1.00  0.00     0.124 S 
ATOM     68  O   UNL A   1      45.366  25.051  38.009  1.00  0.00    -0.237 OA
ATOM     69  O   UNL A   1      45.738  26.983  39.510  1.00  0.00    -0.237 OA
ATOM     70  O   UNL A   1      43.462  26.438  38.738  1.00  0.00    -0.744 OA
ENDBRANCH  63  67
ENDBRANCH  37  60
ENDBRANCH  11  12
ENDBRANCH   4   6
ENDBRANCH   1   2
BRANCH   1  71
ATOM     71  C   UNL A   1      31.534  31.984  26.631  1.00  0.00     0.042 C 
BRANCH  71  72
ATOM     72  C   UNL A   1      31.627  30.458  26.542  1.00  0.00     0.117 C 
BRANCH  72  73
ATOM     73  N   UNL A   1      32.317  29.959  25.365  1.00  0.00    -0.353 N 
ATOM     74  C   UNL A   1      31.872  29.302  24.259  1.00  0.00     0.257 C 
ATOM     75  H   UNL A   1      33.287  30.128  25.366  1.00  0.00     0.163 HD
ATOM     76  O   UNL A   1      32.710  29.090  23.373  1.00  0.00    -0.272 OA
BRANCH  74  77
ATOM     77  C   UNL A   1      30.430  28.833  24.064  1.00  0.00     0.283 C 
ATOM     78  F   UNL A   1      30.321  27.477  24.293  1.00  0.00    -0.234 F 
BRANCH  77  79
ATOM     79  C   UNL A   1      29.670  29.129  22.758  1.00  0.00     0.161 C 
BRANCH  79  80
ATOM     80  C   UNL A   1      29.308  30.560  22.282  1.00  0.00     0.026 C 
ATOM     81  C   UNL A   1      28.940  31.573  23.363  1.00  0.00     0.035 C 
ATOM     82  C   UNL A   1      28.200  30.608  21.217  1.00  0.00     0.035 C 
ATOM     83  C   UNL A   1      28.766  32.961  22.769  1.00  0.00     0.160 C 
ATOM     84  C   UNL A   1      28.021  32.048  20.721  1.00  0.00     0.160 C 
ATOM     85  O   UNL A   1      27.721  32.931  21.802  1.00  0.00    -0.381 OA
ENDBRANCH  79  80
BRANCH  79  86
ATOM     86  O   UNL A   1      30.356  28.475  21.671  1.00  0.00    -0.389 OA
ATOM     87  H   UNL A   1      31.018  27.861  22.029  1.00  0.00     0.211 HD
ENDBRANCH  79  86
ENDBRANCH  77  79
ENDBRANCH  74  77
ENDBRANCH  72  73
ENDBRANCH  71  72
ENDBRANCH   1  71
TORSDOF 16
ENDMDL
MODEL 2
REMARK VINA RESULT:     -11.3      7.105     12.672
REMARK SMILES O=C(NCCCNC(=O)[C@H](F)[C@H](O)C1CCOCC1)c1ccc(-c2c3nc(c(-c4cc(S(=O)(=O)[O-])ccc4F)c4ccc([nH]4)c(-c4cc(S(=O)(=O)[O-])ccc4F)c4nc(c(-c5cc(S(=O)(=O)[O-])ccc5F)c5ccc2[nH]5)C=C4)C=C3)cc1
REMARK SMILES IDX 4 1 3 2 1 3 2 4 20 6 21 7 82 8 22 9 81 10 23 11 24 12 25 13
REMARK SMILES IDX 75 14 26 15 80 16 74 17 76 18 27 19 79 20 73 21 72 22 28 24
REMARK SMILES IDX 60 25 40 26 59 27 41 28 44 29 58 30 77 31 42 32 43 33 57 35
REMARK SMILES IDX 78 36 45 37 29 38 30 39 38 40 31 41 37 42 39 43 36 44 32 45
REMARK SMILES IDX 33 46 34 47 35 48 61 49 62 50 70 51 63 52 69 53 71 54 68 55
REMARK SMILES IDX 64 56 65 57 66 58 67 59 46 60 47 61 55 62 48 63 54 64 56 65
REMARK SMILES IDX 53 66 49 67 50 68 51 69 52 70 5 71 6 72 7 73 8 74 9 76 10 77
REMARK SMILES IDX 11 78 12 79 14 80 15 81 19 82 16 83 18 84 17 85 13 86
REMARK H PARENT 3 5 76 23 44 34 7 75 13 87
REMARK Flexibility Score: inf
ROOT
ATOM      1  C   UNL A   1      39.093  20.407  26.054  1.00  0.00     0.118 C 
ENDROOT
BRANCH   1   2
ATOM      2  N   UNL A   1      40.161  19.431  26.007  1.00  0.00    -0.352 N 
ATOM      3  O   UNL A   1      42.260  18.642  25.915  1.00  0.00    -0.269 OA
ATOM      4  C   UNL A   1      41.520  19.614  26.080  1.00  0.00     0.251 C 
ATOM      5  H   UNL A   1      39.871  18.496  25.908  1.00  0.00     0.163 HD
BRANCH   4   6
ATOM      6  C   UNL A   1      42.114  20.952  26.330  1.00  0.00     0.039 A 
ATOM      7  C   UNL A   1      42.325  21.878  25.303  1.00  0.00     0.014 A 
ATOM      8  C   UNL A   1      42.388  21.318  27.652  1.00  0.00     0.014 A 
ATOM      9  C   UNL A   1      42.884  23.128  25.590  1.00  0.00     0.010 A 
ATOM     10  C   UNL A   1      42.891  22.591  27.944  1.00  0.00     0.010 A 
ATOM     11  C   UNL A   1      43.154  23.509  26.915  1.00  0.00    -0.014 A 
BRANCH  11  12
ATOM     12  C   UNL A   1      43.625  24.888  27.229  1.00  0.00     0.031 A 
ATOM     13  C   UNL A   1      42.686  25.925  27.789  1.00  0.00     0.074 A 
ATOM     14  C   UNL A   1      44.910  25.216  26.978  1.00  0.00     0.049 A 
ATOM     15  N   UNL A   1      42.918  27.183  28.071  1.00  0.00    -0.248 NA
ATOM     16  C   UNL A   1      41.307  25.496  28.056  1.00  0.00     0.031 C 
ATOM     17  C   UNL A   1      45.915  24.307  26.420  1.00  0.00     0.029 A 
ATOM     18  N   UNL A   1      45.592  26.396  27.149  1.00  0.00    -0.354 N 
ATOM     19  C   UNL A   1      41.715  27.700  28.541  1.00  0.00     0.074 A 
ATOM     20  C   UNL A   1      40.747  26.625  28.472  1.00  0.00     0.031 C 
ATOM     21  C   UNL A   1      47.085  24.955  26.318  1.00  0.00     0.029 A 
ATOM     22  C   UNL A   1      46.905  26.339  26.740  1.00  0.00     0.049 A 
ATOM     23  H   UNL A   1      45.180  27.206  27.529  1.00  0.00     0.167 HD
ATOM     24  C   UNL A   1      41.447  28.952  28.993  1.00  0.00     0.034 A 
ATOM     25  C   UNL A   1      47.854  27.296  26.683  1.00  0.00     0.034 A 
ATOM     26  C   UNL A   1      42.421  30.018  29.055  1.00  0.00     0.049 A 
ATOM     27  C   UNL A   1      47.513  28.690  27.145  1.00  0.00     0.074 A 
ATOM     28  C   UNL A   1      42.258  31.306  29.537  1.00  0.00     0.029 A 
ATOM     29  N   UNL A   1      43.734  29.929  28.610  1.00  0.00    -0.354 N 
ATOM     30  N   UNL A   1      46.379  29.150  27.621  1.00  0.00    -0.248 NA
ATOM     31  C   UNL A   1      48.584  29.693  27.069  1.00  0.00     0.031 C 
ATOM     32  C   UNL A   1      43.444  32.015  29.317  1.00  0.00     0.029 A 
ATOM     33  C   UNL A   1      44.378  31.148  28.774  1.00  0.00     0.049 A 
ATOM     34  H   UNL A   1      44.148  29.119  28.233  1.00  0.00     0.167 HD
ATOM     35  C   UNL A   1      46.612  30.487  27.927  1.00  0.00     0.074 A 
ATOM     36  C   UNL A   1      47.997  30.754  27.601  1.00  0.00     0.031 C 
ATOM     37  C   UNL A   1      45.757  31.411  28.436  1.00  0.00     0.034 A 
BRANCH  24  38
ATOM     38  C   UNL A   1      40.030  29.256  29.423  1.00  0.00     0.023 A 
ATOM     39  C   UNL A   1      39.676  29.379  30.778  1.00  0.00     0.031 A 
ATOM     40  C   UNL A   1      39.021  29.444  28.461  1.00  0.00     0.131 A 
ATOM     41  C   UNL A   1      38.341  29.627  31.134  1.00  0.00     0.055 A 
ATOM     42  C   UNL A   1      37.710  29.762  28.819  1.00  0.00     0.041 A 
ATOM     43  F   UNL A   1      39.294  29.322  27.152  1.00  0.00    -0.206 F 
ATOM     44  C   UNL A   1      37.360  29.845  30.163  1.00  0.00     0.022 A 
BRANCH  41  45
ATOM     45  S   UNL A   1      37.880  29.549  32.886  1.00  0.00     0.124 S 
ATOM     46  O   UNL A   1      36.800  30.531  32.953  1.00  0.00    -0.237 OA
ATOM     47  O   UNL A   1      37.487  28.155  33.049  1.00  0.00    -0.237 OA
ATOM     48  O   UNL A   1      39.106  29.936  33.582  1.00  0.00    -0.744 OA
ENDBRANCH  41  45
ENDBRANCH  24  38
BRANCH  25  49
ATOM     49  C   UNL A   1      49.208  26.988  26.136  1.00  0.00     0.023 A 
ATOM     50  C   UNL A   1      49.581  27.402  24.849  1.00  0.00     0.031 A 
ATOM     51  C   UNL A   1      50.128  26.223  26.875  1.00  0.00     0.131 A 
ATOM     52  C   UNL A   1      50.817  27.005  24.317  1.00  0.00     0.055 A 
ATOM     53  C   UNL A   1      51.383  25.883  26.366  1.00  0.00     0.041 A 
ATOM     54  F   UNL A   1      49.823  25.798  28.111  1.00  0.00    -0.206 F 
ATOM     55  C   UNL A   1      51.726  26.261  25.072  1.00  0.00     0.022 A 
BRANCH  52  56
ATOM     56  S   UNL A   1      51.175  27.382  22.580  1.00  0.00     0.124 S 
ATOM     57  O   UNL A   1      50.037  26.771  21.903  1.00  0.00    -0.237 OA
ATOM     58  O   UNL A   1      51.210  28.841  22.588  1.00  0.00    -0.237 OA
ATOM     59  O   UNL A   1      52.463  26.730  22.348  1.00  0.00    -0.744 OA
ENDBRANCH  52  56
ENDBRANCH  25  49
BRANCH  37  60
ATOM     60  C   UNL A   1      46.319  32.785  28.716  1.00  0.00     0.023 A 
ATOM     61  C   UNL A   1      46.271  33.816  27.760  1.00  0.00     0.031 A 
ATOM     62  C   UNL A   1      46.936  33.056  29.950  1.00  0.00     0.131 A 
ATOM     63  C   UNL A   1      46.880  35.050  28.033  1.00  0.00     0.055 A 
ATOM     64  C   UNL A   1      47.485  34.307  30.239  1.00  0.00     0.041 A 
ATOM     65  F   UNL A   1      47.014  32.109  30.898  1.00  0.00    -0.206 F 
ATOM     66  C   UNL A   1      47.471  35.308  29.273  1.00  0.00     0.022 A 
BRANCH  63  67
ATOM     67  S   UNL A   1      46.975  36.288  26.710  1.00  0.00     0.124 S 
ATOM     68  O   UNL A   1      47.161  35.453  25.526  1.00  0.00    -0.237 OA
ATOM     69  O   UNL A   1      45.685  36.961  26.819  1.00  0.00    -0.237 OA
ATOM     70  O   UNL A   1      48.131  37.102  27.083  1.00  0.00    -0.744 OA
ENDBRANCH  63  67
ENDBRANCH  37  60
ENDBRANCH  11  12
ENDBRANCH   4   6
ENDBRANCH   1   2
BRANCH   1  71
ATOM     71  C   UNL A   1      37.996  20.175  25.014  1.00  0.00     0.042 C 
BRANCH  71  72
ATOM     72  C   UNL A   1      37.017  21.331  24.784  1.00  0.00     0.117 C 
BRANCH  72  73
ATOM     73  N   UNL A   1      36.278  21.744  25.964  1.00  0.00    -0.353 N 
ATOM     74  C   UNL A   1      34.947  21.743  26.251  1.00  0.00     0.257 C 
ATOM     75  H   UNL A   1      36.844  22.088  26.693  1.00  0.00     0.163 HD
ATOM     76  O   UNL A   1      34.634  22.079  27.401  1.00  0.00    -0.272 OA
BRANCH  74  77
ATOM     77  C   UNL A   1      33.856  21.355  25.254  1.00  0.00     0.283 C 
ATOM     78  F   UNL A   1      33.006  22.415  25.021  1.00  0.00    -0.234 F 
BRANCH  77  79
ATOM     79  C   UNL A   1      32.972  20.116  25.490  1.00  0.00     0.161 C 
BRANCH  79  80
ATOM     80  C   UNL A   1      32.933  18.896  24.533  1.00  0.00     0.026 C 
ATOM     81  C   UNL A   1      34.219  18.085  24.396  1.00  0.00     0.035 C 
ATOM     82  C   UNL A   1      32.451  19.227  23.110  1.00  0.00     0.035 C 
ATOM     83  C   UNL A   1      33.989  16.839  23.557  1.00  0.00     0.160 C 
ATOM     84  C   UNL A   1      32.319  17.935  22.295  1.00  0.00     0.160 C 
ATOM     85  O   UNL A   1      33.556  17.222  22.256  1.00  0.00    -0.381 OA
ENDBRANCH  79  80
BRANCH  79  86
ATOM     86  O   UNL A   1      33.231  19.614  26.816  1.00  0.00    -0.389 OA
ATOM     87  H   UNL A   1      33.872  20.191  27.260  1.00  0.00     0.211 HD
ENDBRANCH  79  86
ENDBRANCH  77  79
ENDBRANCH  74  77
ENDBRANCH  72  73
ENDBRANCH  71  72
ENDBRANCH   1  71
TORSDOF 16
ENDMDL
MODEL 3
REMARK VINA RESULT:     -11.2      7.224     11.248
REMARK SMILES O=C(NCCCNC(=O)[C@H](F)[C@H](O)C1CCOCC1)c1ccc(-c2c3nc(c(-c4cc(S(=O)(=O)[O-])ccc4F)c4ccc([nH]4)c(-c4cc(S(=O)(=O)[O-])ccc4F)c4nc(c(-c5cc(S(=O)(=O)[O-])ccc5F)c5ccc2[nH]5)C=C4)C=C3)cc1
REMARK SMILES IDX 4 1 3 2 1 3 2 4 20 6 21 7 82 8 22 9 81 10 23 11 24 12 25 13
REMARK SMILES IDX 75 14 26 15 80 16 74 17 76 18 27 19 79 20 73 21 72 22 28 24
REMARK SMILES IDX 60 25 40 26 59 27 41 28 44 29 58 30 77 31 42 32 43 33 57 35
REMARK SMILES IDX 78 36 45 37 29 38 30 39 38 40 31 41 37 42 39 43 36 44 32 45
REMARK SMILES IDX 33 46 34 47 35 48 61 49 62 50 70 51 63 52 69 53 71 54 68 55
REMARK SMILES IDX 64 56 65 57 66 58 67 59 46 60 47 61 55 62 48 63 54 64 56 65
REMARK SMILES IDX 53 66 49 67 50 68 51 69 52 70 5 71 6 72 7 73 8 74 9 76 10 77
REMARK SMILES IDX 11 78 12 79 14 80 15 81 19 82 16 83 18 84 17 85 13 86
REMARK H PARENT 3 5 76 23 44 34 7 75 13 87
REMARK Flexibility Score: inf
ROOT
ATOM      1  C   UNL A   1      39.210  20.114  25.979  1.00  0.00     0.118 C 
ENDROOT
BRANCH   1   2
ATOM      2  N   UNL A   1      40.297  19.158  25.972  1.00  0.00    -0.352 N 
ATOM      3  O   UNL A   1      42.410  18.407  25.917  1.00  0.00    -0.269 OA
ATOM      4  C   UNL A   1      41.652  19.370  26.043  1.00  0.00     0.251 C 
ATOM      5  H   UNL A   1      40.024  18.214  25.908  1.00  0.00     0.163 HD
BRANCH   4   6
ATOM      6  C   UNL A   1      42.218  20.728  26.244  1.00  0.00     0.039 A 
ATOM      7  C   UNL A   1      42.449  21.605  25.180  1.00  0.00     0.014 A 
ATOM      8  C   UNL A   1      42.446  21.162  27.555  1.00  0.00     0.014 A 
ATOM      9  C   UNL A   1      42.981  22.876  25.421  1.00  0.00     0.010 A 
ATOM     10  C   UNL A   1      42.923  22.455  27.798  1.00  0.00     0.010 A 
ATOM     11  C   UNL A   1      43.205  23.325  26.733  1.00  0.00    -0.014 A 
BRANCH  11  12
ATOM     12  C   UNL A   1      43.646  24.726  26.993  1.00  0.00     0.031 A 
ATOM     13  C   UNL A   1      45.076  25.148  26.771  1.00  0.00     0.074 A 
ATOM     14  C   UNL A   1      42.751  25.620  27.462  1.00  0.00     0.049 A 
ATOM     15  N   UNL A   1      45.638  26.309  26.993  1.00  0.00    -0.248 NA
ATOM     16  C   UNL A   1      45.993  24.130  26.241  1.00  0.00     0.031 C 
ATOM     17  C   UNL A   1      41.340  25.332  27.734  1.00  0.00     0.029 A 
ATOM     18  N   UNL A   1      42.887  26.944  27.798  1.00  0.00    -0.354 N 
ATOM     19  C   UNL A   1      46.976  26.163  26.641  1.00  0.00     0.074 A 
ATOM     20  C   UNL A   1      47.146  24.787  26.222  1.00  0.00     0.031 C 
ATOM     21  C   UNL A   1      40.739  26.448  28.172  1.00  0.00     0.029 A 
ATOM     22  C   UNL A   1      41.728  27.516  28.274  1.00  0.00     0.049 A 
ATOM     23  H   UNL A   1      43.734  27.438  27.708  1.00  0.00     0.167 HD
ATOM     24  C   UNL A   1      47.966  27.092  26.659  1.00  0.00     0.034 A 
ATOM     25  C   UNL A   1      41.489  28.749  28.765  1.00  0.00     0.034 A 
ATOM     26  C   UNL A   1      47.785  28.462  27.082  1.00  0.00     0.049 A 
ATOM     27  C   UNL A   1      42.619  29.744  28.819  1.00  0.00     0.074 A 
ATOM     28  C   UNL A   1      48.714  29.489  27.095  1.00  0.00     0.029 A 
ATOM     29  N   UNL A   1      46.602  28.997  27.579  1.00  0.00    -0.354 N 
ATOM     30  N   UNL A   1      43.870  29.598  28.447  1.00  0.00    -0.248 NA
ATOM     31  C   UNL A   1      42.304  31.076  29.356  1.00  0.00     0.031 C 
ATOM     32  C   UNL A   1      48.118  30.619  27.666  1.00  0.00     0.029 A 
ATOM     33  C   UNL A   1      46.792  30.326  27.934  1.00  0.00     0.049 A 
ATOM     34  H   UNL A   1      45.755  28.505  27.668  1.00  0.00     0.167 HD
ATOM     35  C   UNL A   1      44.480  30.827  28.676  1.00  0.00     0.074 A 
ATOM     36  C   UNL A   1      43.458  31.707  29.201  1.00  0.00     0.031 C 
ATOM     37  C   UNL A   1      45.770  31.196  28.468  1.00  0.00     0.034 A 
BRANCH  24  38
ATOM     38  C   UNL A   1      49.351  26.652  26.245  1.00  0.00     0.023 A 
ATOM     39  C   UNL A   1      49.952  27.109  25.059  1.00  0.00     0.031 A 
ATOM     40  C   UNL A   1      50.090  25.774  27.060  1.00  0.00     0.131 A 
ATOM     41  C   UNL A   1      51.227  26.646  24.695  1.00  0.00     0.055 A 
ATOM     42  C   UNL A   1      51.386  25.374  26.728  1.00  0.00     0.041 A 
ATOM     43  F   UNL A   1      49.563  25.290  28.196  1.00  0.00    -0.206 F 
ATOM     44  C   UNL A   1      51.958  25.802  25.534  1.00  0.00     0.022 A 
BRANCH  41  45
ATOM     45  S   UNL A   1      51.870  27.073  23.054  1.00  0.00     0.124 S 
ATOM     46  O   UNL A   1      52.243  28.474  23.236  1.00  0.00    -0.237 OA
ATOM     47  O   UNL A   1      52.973  26.134  22.892  1.00  0.00    -0.237 OA
ATOM     48  O   UNL A   1      50.728  26.852  22.169  1.00  0.00    -0.744 OA
ENDBRANCH  41  45
ENDBRANCH  24  38
BRANCH  25  49
ATOM     49  C   UNL A   1      40.136  29.109  29.280  1.00  0.00     0.023 A 
ATOM     50  C   UNL A   1      39.817  28.973  30.640  1.00  0.00     0.031 A 
ATOM     51  C   UNL A   1      39.122  29.541  28.406  1.00  0.00     0.131 A 
ATOM     52  C   UNL A   1      38.506  29.213  31.079  1.00  0.00     0.055 A 
ATOM     53  C   UNL A   1      37.835  29.840  28.858  1.00  0.00     0.041 A 
ATOM     54  F   UNL A   1      39.370  29.687  27.095  1.00  0.00    -0.206 F 
ATOM     55  C   UNL A   1      37.517  29.660  30.200  1.00  0.00     0.022 A 
BRANCH  52  56
ATOM     56  S   UNL A   1      38.084  28.827  32.799  1.00  0.00     0.124 S 
ATOM     57  O   UNL A   1      39.108  29.565  33.529  1.00  0.00    -0.237 OA
ATOM     58  O   UNL A   1      36.724  29.345  32.901  1.00  0.00    -0.237 OA
ATOM     59  O   UNL A   1      38.200  27.371  32.860  1.00  0.00    -0.744 OA
ENDBRANCH  52  56
ENDBRANCH  25  49
BRANCH  37  60
ATOM     60  C   UNL A   1      46.129  32.633  28.765  1.00  0.00     0.023 A 
ATOM     61  C   UNL A   1      46.050  33.636  27.782  1.00  0.00     0.031 A 
ATOM     62  C   UNL A   1      46.580  32.997  30.046  1.00  0.00     0.131 A 
ATOM     63  C   UNL A   1      46.472  34.941  28.080  1.00  0.00     0.055 A 
ATOM     64  C   UNL A   1      46.940  34.310  30.354  1.00  0.00     0.041 A 
ATOM     65  F   UNL A   1      46.679  32.081  31.022  1.00  0.00    -0.206 F 
ATOM     66  C   UNL A   1      46.900  35.288  29.364  1.00  0.00     0.022 A 
BRANCH  63  67
ATOM     67  S   UNL A   1      46.546  36.161  26.740  1.00  0.00     0.124 S 
ATOM     68  O   UNL A   1      47.910  36.667  26.865  1.00  0.00    -0.237 OA
ATOM     69  O   UNL A   1      46.274  35.347  25.560  1.00  0.00    -0.237 OA
ATOM     70  O   UNL A   1      45.496  37.117  27.088  1.00  0.00    -0.744 OA
ENDBRANCH  63  67
ENDBRANCH  37  60
ENDBRANCH  11  12
ENDBRANCH   4   6
ENDBRANCH   1   2
BRANCH   1  71
ATOM     71  C   UNL A   1      38.098  19.796  24.978  1.00  0.00     0.042 C 
BRANCH  71  72
ATOM     72  C   UNL A   1      37.069  20.902  24.724  1.00  0.00     0.117 C 
BRANCH  72  73
ATOM     73  N   UNL A   1      36.084  21.068  25.778  1.00  0.00    -0.353 N 
ATOM     74  C   UNL A   1      34.723  21.036  25.766  1.00  0.00     0.257 C 
ATOM     75  H   UNL A   1      36.471  21.233  26.668  1.00  0.00     0.163 HD
ATOM     76  O   UNL A   1      34.162  21.123  26.866  1.00  0.00    -0.272 OA
BRANCH  74  77
ATOM     77  C   UNL A   1      33.881  20.898  24.497  1.00  0.00     0.283 C 
ATOM     78  F   UNL A   1      33.447  22.131  24.060  1.00  0.00    -0.234 F 
BRANCH  77  79
ATOM     79  C   UNL A   1      32.665  19.953  24.452  1.00  0.00     0.161 C 
BRANCH  79  80
ATOM     80  C   UNL A   1      32.782  18.407  24.414  1.00  0.00     0.026 C 
ATOM     81  C   UNL A   1      32.674  17.674  25.748  1.00  0.00     0.035 C 
ATOM     82  C   UNL A   1      34.048  17.889  23.711  1.00  0.00     0.035 C 
ATOM     83  C   UNL A   1      32.646  16.169  25.540  1.00  0.00     0.160 C 
ATOM     84  C   UNL A   1      33.993  16.360  23.608  1.00  0.00     0.160 C 
ATOM     85  O   UNL A   1      33.849  15.762  24.896  1.00  0.00    -0.381 OA
ENDBRANCH  79  80
BRANCH  79  86
ATOM     86  O   UNL A   1      31.783  20.292  25.540  1.00  0.00    -0.389 OA
ATOM     87  H   UNL A   1      31.868  21.237  25.744  1.00  0.00     0.211 HD
ENDBRANCH  79  86
ENDBRANCH  77  79
ENDBRANCH  74  77
ENDBRANCH  72  73
ENDBRANCH  71  72
ENDBRANCH   1  71
TORSDOF 16
ENDMDL
