MODEL 1
REMARK VINA RESULT:     -14.3      0.000      0.000
REMARK SMILES O=C(NCCCNC(=O)[C@@H]1CC(=O)N(c2ccc(Cl)cc2C(=O)c2ccccc2)C1)c1ccc(-c2c3nc(c(-c4cc(S(=O)(=O)[O-])ccc4F)c4ccc([nH]4)c(-c4cc(S(=O)(=O)[O-])ccc4F)c4nc(c(-c5cc(S(=O)(=O)[O-])ccc5F)c5ccc2[nH]5)C=C4)C=C3)cc1
REMARK SMILES IDX 5 1 4 2 3 3 1 4 2 5 31 7 32 8 93 9 33 10 92 11 34 12 35 13
REMARK SMILES IDX 36 14 86 15 37 16 91 17 85 18 87 19 38 20 90 21 84 22 83 23
REMARK SMILES IDX 39 25 71 26 51 27 70 28 52 29 55 30 69 31 88 32 53 33 54 34
REMARK SMILES IDX 68 36 89 37 56 38 40 39 41 40 49 41 42 42 48 43 50 44 47 45
REMARK SMILES IDX 43 46 44 47 45 48 46 49 72 50 73 51 81 52 74 53 80 54 82 55
REMARK SMILES IDX 79 56 75 57 76 58 77 59 78 60 57 61 58 62 66 63 59 64 65 65
REMARK SMILES IDX 67 66 64 67 60 68 61 69 62 70 63 71 6 72 7 73 8 74 9 76
REMARK SMILES IDX 10 77 11 78 30 79 12 80 14 81 13 82 15 83 16 84 21 85 17 86
REMARK SMILES IDX 20 87 18 88 19 89 22 90 23 91 24 92 25 93 29 94 26 95 28 96
REMARK SMILES IDX 27 97
REMARK H PARENT 3 6 87 24 55 35 7 75
REMARK Flexibility Score: inf
ROOT
ATOM      1  C   UNL A   1      31.313  30.747  25.516  1.00  0.00     0.042 C 
ENDROOT
BRANCH   1   2
ATOM      2  C   UNL A   1      31.939  31.050  26.862  1.00  0.00     0.118 C 
BRANCH   2   3
ATOM      3  N   UNL A   1      32.118  32.486  27.042  1.00  0.00    -0.352 N 
ATOM      4  O   UNL A   1      32.880  34.360  28.017  1.00  0.00    -0.269 OA
ATOM      5  C   UNL A   1      33.092  33.184  27.728  1.00  0.00     0.251 C 
ATOM      6  H   UNL A   1      31.436  33.048  26.607  1.00  0.00     0.163 HD
BRANCH   5   7
ATOM      7  C   UNL A   1      34.367  32.535  28.135  1.00  0.00     0.039 A 
ATOM      8  C   UNL A   1      35.488  33.300  28.428  1.00  0.00     0.014 A 
ATOM      9  C   UNL A   1      34.440  31.147  28.312  1.00  0.00     0.014 A 
ATOM     10  C   UNL A   1      36.702  32.709  28.714  1.00  0.00     0.010 A 
ATOM     11  C   UNL A   1      35.613  30.564  28.821  1.00  0.00     0.010 A 
ATOM     12  C   UNL A   1      36.751  31.352  29.047  1.00  0.00    -0.014 A 
BRANCH  12  13
ATOM     13  C   UNL A   1      37.955  30.895  29.794  1.00  0.00     0.031 A 
ATOM     14  C   UNL A   1      38.197  31.286  31.218  1.00  0.00     0.074 A 
ATOM     15  C   UNL A   1      38.786  30.030  29.168  1.00  0.00     0.049 A 
ATOM     16  N   UNL A   1      39.176  30.924  32.007  1.00  0.00    -0.248 NA
ATOM     17  C   UNL A   1      37.237  32.211  31.833  1.00  0.00     0.031 C 
ATOM     18  C   UNL A   1      38.650  29.599  27.767  1.00  0.00     0.029 A 
ATOM     19  N   UNL A   1      39.859  29.305  29.617  1.00  0.00    -0.354 N 
ATOM     20  C   UNL A   1      38.961  31.587  33.209  1.00  0.00     0.074 A 
ATOM     21  C   UNL A   1      37.778  32.404  33.028  1.00  0.00     0.031 C 
ATOM     22  C   UNL A   1      39.511  28.607  27.517  1.00  0.00     0.029 A 
ATOM     23  C   UNL A   1      40.364  28.428  28.681  1.00  0.00     0.049 A 
ATOM     24  H   UNL A   1      40.233  29.401  30.523  1.00  0.00     0.167 HD
ATOM     25  C   UNL A   1      39.686  31.509  34.353  1.00  0.00     0.034 A 
ATOM     26  C   UNL A   1      41.422  27.596  28.728  1.00  0.00     0.034 A 
ATOM     27  C   UNL A   1      40.865  30.684  34.498  1.00  0.00     0.049 A 
ATOM     28  C   UNL A   1      42.223  27.562  29.998  1.00  0.00     0.074 A 
ATOM     29  C   UNL A   1      41.690  30.545  35.601  1.00  0.00     0.029 A 
ATOM     30  N   UNL A   1      41.387  29.856  33.510  1.00  0.00    -0.354 N 
ATOM     31  N   UNL A   1      42.018  28.219  31.117  1.00  0.00    -0.248 NA
ATOM     32  C   UNL A   1      43.396  26.684  30.014  1.00  0.00     0.031 C 
ATOM     33  C   UNL A   1      42.741  29.686  35.262  1.00  0.00     0.029 A 
ATOM     34  C   UNL A   1      42.532  29.220  33.974  1.00  0.00     0.049 A 
ATOM     35  H   UNL A   1      41.002  29.737  32.612  1.00  0.00     0.167 HD
ATOM     36  C   UNL A   1      43.039  27.829  31.974  1.00  0.00     0.074 A 
ATOM     37  C   UNL A   1      43.825  26.844  31.256  1.00  0.00     0.031 C 
ATOM     38  C   UNL A   1      43.314  28.256  33.233  1.00  0.00     0.034 A 
BRANCH  25  39
ATOM     39  C   UNL A   1      39.247  32.372  35.512  1.00  0.00     0.023 A 
ATOM     40  C   UNL A   1      39.668  33.707  35.645  1.00  0.00     0.031 A 
ATOM     41  C   UNL A   1      38.409  31.847  36.512  1.00  0.00     0.131 A 
ATOM     42  C   UNL A   1      39.304  34.449  36.779  1.00  0.00     0.055 A 
ATOM     43  C   UNL A   1      37.986  32.614  37.599  1.00  0.00     0.041 A 
ATOM     44  F   UNL A   1      37.992  30.571  36.455  1.00  0.00    -0.206 F 
ATOM     45  C   UNL A   1      38.444  33.919  37.744  1.00  0.00     0.022 A 
BRANCH  42  46
ATOM     46  S   UNL A   1      40.072  36.072  37.041  1.00  0.00     0.124 S 
ATOM     47  O   UNL A   1      41.453  35.701  37.343  1.00  0.00    -0.237 OA
ATOM     48  O   UNL A   1      39.855  36.735  35.760  1.00  0.00    -0.237 OA
ATOM     49  O   UNL A   1      39.323  36.629  38.167  1.00  0.00    -0.744 OA
ENDBRANCH  42  46
ENDBRANCH  25  39
BRANCH  26  50
ATOM     50  C   UNL A   1      41.827  26.805  27.527  1.00  0.00     0.023 A 
ATOM     51  C   UNL A   1      41.571  25.429  27.430  1.00  0.00     0.031 A 
ATOM     52  C   UNL A   1      42.527  27.415  26.466  1.00  0.00     0.131 A 
ATOM     53  C   UNL A   1      42.055  24.702  26.330  1.00  0.00     0.055 A 
ATOM     54  C   UNL A   1      42.938  26.704  25.340  1.00  0.00     0.041 A 
ATOM     55  F   UNL A   1      42.808  28.728  26.502  1.00  0.00    -0.206 F 
ATOM     56  C   UNL A   1      42.718  25.333  25.276  1.00  0.00     0.022 A 
BRANCH  53  57
ATOM     57  S   UNL A   1      41.914  22.893  26.352  1.00  0.00     0.124 S 
ATOM     58  O   UNL A   1      42.479  22.536  25.056  1.00  0.00    -0.237 OA
ATOM     59  O   UNL A   1      42.716  22.542  27.520  1.00  0.00    -0.237 OA
ATOM     60  O   UNL A   1      40.478  22.666  26.492  1.00  0.00    -0.744 OA
ENDBRANCH  53  57
ENDBRANCH  26  50
BRANCH  38  61
ATOM     61  C   UNL A   1      44.502  27.616  33.908  1.00  0.00     0.023 A 
ATOM     62  C   UNL A   1      44.374  26.429  34.651  1.00  0.00     0.031 A 
ATOM     63  C   UNL A   1      45.764  28.230  33.854  1.00  0.00     0.131 A 
ATOM     64  C   UNL A   1      45.467  25.941  35.381  1.00  0.00     0.055 A 
ATOM     65  C   UNL A   1      46.868  27.697  34.519  1.00  0.00     0.041 A 
ATOM     66  F   UNL A   1      45.942  29.368  33.165  1.00  0.00    -0.206 F 
ATOM     67  C   UNL A   1      46.718  26.556  35.304  1.00  0.00     0.022 A 
BRANCH  64  68
ATOM     68  S   UNL A   1      45.196  24.571  36.538  1.00  0.00     0.124 S 
ATOM     69  O   UNL A   1      44.439  23.629  35.720  1.00  0.00    -0.237 OA
ATOM     70  O   UNL A   1      46.559  24.172  36.874  1.00  0.00    -0.237 OA
ATOM     71  O   UNL A   1      44.445  25.189  37.629  1.00  0.00    -0.744 OA
ENDBRANCH  64  68
ENDBRANCH  38  61
ENDBRANCH  12  13
ENDBRANCH   5   7
ENDBRANCH   2   3
ENDBRANCH   1   2
BRANCH   1  72
ATOM     72  C   UNL A   1      32.155  29.706  24.800  1.00  0.00     0.117 C 
BRANCH  72  73
ATOM     73  N   UNL A   1      31.379  29.153  23.660  1.00  0.00    -0.356 N 
ATOM     74  C   UNL A   1      30.651  28.000  23.199  1.00  0.00     0.225 C 
ATOM     75  H   UNL A   1      31.353  29.835  22.950  1.00  0.00     0.163 HD
ATOM     76  O   UNL A   1      30.579  28.475  22.001  1.00  0.00    -0.275 OA
BRANCH  74  77
ATOM     77  C   UNL A   1      29.838  26.174  24.085  1.00  0.00     0.107 C 
ATOM     78  C   UNL A   1      29.664  25.642  25.766  1.00  0.00     0.116 C 
ATOM     79  C   UNL A   1      30.172  24.508  23.779  1.00  0.00     0.139 C 
ATOM     80  C   UNL A   1      30.785  24.640  26.019  1.00  0.00     0.227 C 
ATOM     81  N   UNL A   1      31.146  24.104  24.778  1.00  0.00    -0.311 N 
ATOM     82  O   UNL A   1      31.323  24.484  27.105  1.00  0.00    -0.274 OA
BRANCH  81  83
ATOM     83  C   UNL A   1      32.505  23.762  24.479  1.00  0.00     0.055 A 
ATOM     84  C   UNL A   1      33.368  24.731  23.953  1.00  0.00     0.028 A 
ATOM     85  C   UNL A   1      33.019  22.453  24.635  1.00  0.00     0.048 A 
ATOM     86  C   UNL A   1      34.704  24.423  23.654  1.00  0.00     0.023 A 
ATOM     87  C   UNL A   1      34.363  22.150  24.368  1.00  0.00     0.035 A 
ATOM     88  C   UNL A   1      35.198  23.139  23.875  1.00  0.00     0.041 A 
ATOM     89  Cl  UNL A   1      36.829  22.765  23.481  1.00  0.00    -0.084 Cl
BRANCH  85  90
ATOM     90  C   UNL A   1      32.162  21.306  24.972  1.00  0.00     0.195 C 
ATOM     91  O   UNL A   1      31.078  21.451  25.520  1.00  0.00    -0.289 OA
BRANCH  90  92
ATOM     92  C   UNL A   1      32.571  19.955  24.551  1.00  0.00     0.023 A 
ATOM     93  C   UNL A   1      33.041  18.846  25.886  1.00  0.00     0.012 A 
ATOM     94  C   UNL A   1      32.377  19.298  22.857  1.00  0.00     0.012 A 
ATOM     95  C   UNL A   1      33.290  17.111  25.582  1.00  0.00     0.001 A 
ATOM     96  C   UNL A   1      32.768  17.564  22.535  1.00  0.00     0.001 A 
ATOM     97  C   UNL A   1      33.136  16.466  23.901  1.00  0.00     0.000 A 
ENDBRANCH  90  92
ENDBRANCH  85  90
ENDBRANCH  81  83
ENDBRANCH  74  77
ENDBRANCH  72  73
ENDBRANCH   1  72
TORSDOF 16
ENDMDL
MODEL 2
REMARK VINA RESULT:     -14.0      4.911     10.308
REMARK SMILES O=C(NCCCNC(=O)[C@@H]1CC(=O)N(c2ccc(Cl)cc2C(=O)c2ccccc2)C1)c1ccc(-c2c3nc(c(-c4cc(S(=O)(=O)[O-])ccc4F)c4ccc([nH]4)c(-c4cc(S(=O)(=O)[O-])ccc4F)c4nc(c(-c5cc(S(=O)(=O)[O-])ccc5F)c5ccc2[nH]5)C=C4)C=C3)cc1
REMARK SMILES IDX 5 1 4 2 3 3 1 4 2 5 31 7 32 8 93 9 33 10 92 11 34 12 35 13
REMARK SMILES IDX 36 14 86 15 37 16 91 17 85 18 87 19 38 20 90 21 84 22 83 23
REMARK SMILES IDX 39 25 71 26 51 27 70 28 52 29 55 30 69 31 88 32 53 33 54 34
REMARK SMILES IDX 68 36 89 37 56 38 40 39 41 40 49 41 42 42 48 43 50 44 47 45
REMARK SMILES IDX 43 46 44 47 45 48 46 49 72 50 73 51 81 52 74 53 80 54 82 55
REMARK SMILES IDX 79 56 75 57 76 58 77 59 78 60 57 61 58 62 66 63 59 64 65 65
REMARK SMILES IDX 67 66 64 67 60 68 61 69 62 70 63 71 6 72 7 73 8 74 9 76
REMARK SMILES IDX 10 77 11 78 30 79 12 80 14 81 13 82 15 83 16 84 21 85 17 86
REMARK SMILES IDX 20 87 18 88 19 89 22 90 23 91 24 92 25 93 29 94 26 95 28 96
REMARK SMILES IDX 27 97
REMARK H PARENT 3 6 87 24 55 35 7 75
REMARK Flexibility Score: inf
ROOT
ATOM      1  C   UNL A   1      35.924  21.442  24.727  1.00  0.00     0.042 C 
ENDROOT
BRANCH   1   2
ATOM      2  C   UNL A   1      37.303  22.057  24.852  1.00  0.00     0.118 C 
BRANCH   2   3
ATOM      3  N   UNL A   1      38.252  21.102  25.410  1.00  0.00    -0.352 N 
ATOM      4  O   UNL A   1      40.227  20.384  26.201  1.00  0.00    -0.269 OA
ATOM      5  C   UNL A   1      39.429  21.313  26.100  1.00  0.00     0.251 C 
ATOM      6  H   UNL A   1      38.017  20.155  25.274  1.00  0.00     0.163 HD
BRANCH   5   7
ATOM      7  C   UNL A   1      39.750  22.638  26.695  1.00  0.00     0.039 A 
ATOM      8  C   UNL A   1      40.779  22.768  27.618  1.00  0.00     0.014 A 
ATOM      9  C   UNL A   1      39.078  23.794  26.275  1.00  0.00     0.014 A 
ATOM     10  C   UNL A   1      41.026  23.972  28.248  1.00  0.00     0.010 A 
ATOM     11  C   UNL A   1      39.481  25.054  26.750  1.00  0.00     0.010 A 
ATOM     12  C   UNL A   1      40.480  25.150  27.731  1.00  0.00    -0.014 A 
BRANCH  12  13
ATOM     13  C   UNL A   1      41.144  26.420  28.133  1.00  0.00     0.031 A 
ATOM     14  C   UNL A   1      42.554  26.733  27.743  1.00  0.00     0.074 A 
ATOM     15  C   UNL A   1      40.393  27.336  28.789  1.00  0.00     0.049 A 
ATOM     16  N   UNL A   1      43.243  27.820  27.981  1.00  0.00    -0.248 NA
ATOM     17  C   UNL A   1      43.294  25.697  27.012  1.00  0.00     0.031 C 
ATOM     18  C   UNL A   1      39.007  27.120  29.236  1.00  0.00     0.029 A 
ATOM     19  N   UNL A   1      40.639  28.636  29.142  1.00  0.00    -0.354 N 
ATOM     20  C   UNL A   1      44.505  27.596  27.444  1.00  0.00     0.074 A 
ATOM     21  C   UNL A   1      44.494  26.251  26.902  1.00  0.00     0.031 C 
ATOM     22  C   UNL A   1      38.495  28.273  29.680  1.00  0.00     0.029 A 
ATOM     23  C   UNL A   1      39.549  29.274  29.696  1.00  0.00     0.049 A 
ATOM     24  H   UNL A   1      41.511  29.075  29.012  1.00  0.00     0.167 HD
ATOM     25  C   UNL A   1      45.564  28.441  27.406  1.00  0.00     0.034 A 
ATOM     26  C   UNL A   1      39.412  30.515  30.202  1.00  0.00     0.034 A 
ATOM     27  C   UNL A   1      45.542  29.777  27.959  1.00  0.00     0.049 A 
ATOM     28  C   UNL A   1      40.616  31.413  30.175  1.00  0.00     0.074 A 
ATOM     29  C   UNL A   1      46.561  30.712  27.998  1.00  0.00     0.029 A 
ATOM     30  N   UNL A   1      44.441  30.371  28.570  1.00  0.00    -0.354 N 
ATOM     31  N   UNL A   1      41.811  31.171  29.685  1.00  0.00    -0.248 NA
ATOM     32  C   UNL A   1      40.460  32.741  30.771  1.00  0.00     0.031 C 
ATOM     33  C   UNL A   1      46.101  31.841  28.684  1.00  0.00     0.029 A 
ATOM     34  C   UNL A   1      44.766  31.649  29.004  1.00  0.00     0.049 A 
ATOM     35  H   UNL A   1      43.560  29.946  28.679  1.00  0.00     0.167 HD
ATOM     36  C   UNL A   1      42.551  32.324  29.912  1.00  0.00     0.074 A 
ATOM     37  C   UNL A   1      41.649  33.274  30.537  1.00  0.00     0.031 C 
ATOM     38  C   UNL A   1      43.858  32.573  29.644  1.00  0.00     0.034 A 
BRANCH  25  39
ATOM     39  C   UNL A   1      46.842  27.926  26.786  1.00  0.00     0.023 A 
ATOM     40  C   UNL A   1      47.094  28.035  25.407  1.00  0.00     0.031 A 
ATOM     41  C   UNL A   1      47.816  27.298  27.584  1.00  0.00     0.131 A 
ATOM     42  C   UNL A   1      48.256  27.470  24.860  1.00  0.00     0.055 A 
ATOM     43  C   UNL A   1      49.006  26.807  27.044  1.00  0.00     0.041 A 
ATOM     44  F   UNL A   1      47.623  27.142  28.903  1.00  0.00    -0.206 F 
ATOM     45  C   UNL A   1      49.227  26.880  25.673  1.00  0.00     0.022 A 
BRANCH  42  46
ATOM     46  S   UNL A   1      48.424  27.404  23.054  1.00  0.00     0.124 S 
ATOM     47  O   UNL A   1      49.725  28.038  22.854  1.00  0.00    -0.237 OA
ATOM     48  O   UNL A   1      48.365  25.972  22.783  1.00  0.00    -0.237 OA
ATOM     49  O   UNL A   1      47.281  28.177  22.573  1.00  0.00    -0.744 OA
ENDBRANCH  42  46
ENDBRANCH  25  39
BRANCH  26  50
ATOM     50  C   UNL A   1      38.132  30.943  30.842  1.00  0.00     0.023 A 
ATOM     51  C   UNL A   1      37.154  31.655  30.131  1.00  0.00     0.031 A 
ATOM     52  C   UNL A   1      37.887  30.682  32.206  1.00  0.00     0.131 A 
ATOM     53  C   UNL A   1      36.009  32.125  30.793  1.00  0.00     0.055 A 
ATOM     54  C   UNL A   1      36.713  31.085  32.841  1.00  0.00     0.041 A 
ATOM     55  F   UNL A   1      38.787  30.011  32.943  1.00  0.00    -0.206 F 
ATOM     56  C   UNL A   1      35.773  31.828  32.137  1.00  0.00     0.022 A 
BRANCH  53  57
ATOM     57  S   UNL A   1      34.886  33.240  29.906  1.00  0.00     0.124 S 
ATOM     58  O   UNL A   1      34.115  33.818  31.001  1.00  0.00    -0.237 OA
ATOM     59  O   UNL A   1      35.820  34.137  29.234  1.00  0.00    -0.237 OA
ATOM     60  O   UNL A   1      34.142  32.342  29.025  1.00  0.00    -0.744 OA
ENDBRANCH  53  57
ENDBRANCH  26  50
BRANCH  38  61
ATOM     61  C   UNL A   1      44.360  33.950  30.004  1.00  0.00     0.023 A 
ATOM     62  C   UNL A   1      44.304  35.015  29.088  1.00  0.00     0.031 A 
ATOM     63  C   UNL A   1      44.952  34.184  31.256  1.00  0.00     0.131 A 
ATOM     64  C   UNL A   1      44.908  36.241  29.405  1.00  0.00     0.055 A 
ATOM     65  C   UNL A   1      45.482  35.429  31.595  1.00  0.00     0.041 A 
ATOM     66  F   UNL A   1      45.038  33.201  32.167  1.00  0.00    -0.206 F 
ATOM     67  C   UNL A   1      45.479  36.460  30.660  1.00  0.00     0.022 A 
BRANCH  64  68
ATOM     68  S   UNL A   1      45.057  37.496  28.104  1.00  0.00     0.124 S 
ATOM     69  O   UNL A   1      43.660  37.746  27.764  1.00  0.00    -0.237 OA
ATOM     70  O   UNL A   1      45.749  38.580  28.795  1.00  0.00    -0.237 OA
ATOM     71  O   UNL A   1      45.838  36.824  27.068  1.00  0.00    -0.744 OA
ENDBRANCH  64  68
ENDBRANCH  38  61
ENDBRANCH  12  13
ENDBRANCH   5   7
ENDBRANCH   2   3
ENDBRANCH   1   2
BRANCH   1  72
ATOM     72  C   UNL A   1      34.979  22.139  25.689  1.00  0.00     0.117 C 
BRANCH  72  73
ATOM     73  N   UNL A   1      33.597  21.649  25.455  1.00  0.00    -0.356 N 
ATOM     74  C   UNL A   1      32.344  21.961  24.818  1.00  0.00     0.225 C 
ATOM     75  H   UNL A   1      33.501  20.779  25.907  1.00  0.00     0.163 HD
ATOM     76  O   UNL A   1      31.749  20.987  25.421  1.00  0.00    -0.275 OA
BRANCH  74  77
ATOM     77  C   UNL A   1      31.630  23.398  23.332  1.00  0.00     0.107 C 
ATOM     78  C   UNL A   1      32.358  24.037  21.849  1.00  0.00     0.116 C 
ATOM     79  C   UNL A   1      30.997  24.995  23.498  1.00  0.00     0.139 C 
ATOM     80  C   UNL A   1      32.868  25.434  22.186  1.00  0.00     0.227 C 
ATOM     81  N   UNL A   1      32.115  25.895  23.272  1.00  0.00    -0.311 N 
ATOM     82  O   UNL A   1      33.847  25.943  21.663  1.00  0.00    -0.274 OA
BRANCH  81  83
ATOM     83  C   UNL A   1      32.699  26.718  24.289  1.00  0.00     0.055 A 
ATOM     84  C   UNL A   1      33.242  26.128  25.437  1.00  0.00     0.028 A 
ATOM     85  C   UNL A   1      32.706  28.131  24.222  1.00  0.00     0.048 A 
ATOM     86  C   UNL A   1      33.821  26.911  26.447  1.00  0.00     0.023 A 
ATOM     87  C   UNL A   1      33.314  28.915  25.215  1.00  0.00     0.035 A 
ATOM     88  C   UNL A   1      33.867  28.298  26.326  1.00  0.00     0.041 A 
ATOM     89  Cl  UNL A   1      34.556  29.250  27.579  1.00  0.00    -0.084 Cl
BRANCH  85  90
ATOM     90  C   UNL A   1      31.981  28.873  23.180  1.00  0.00     0.195 C 
ATOM     91  O   UNL A   1      32.504  29.164  22.114  1.00  0.00    -0.289 OA
BRANCH  90  92
ATOM     92  C   UNL A   1      30.557  29.191  23.382  1.00  0.00     0.023 A 
ATOM     93  C   UNL A   1      30.217  30.862  23.952  1.00  0.00     0.012 A 
ATOM     94  C   UNL A   1      29.174  28.119  22.853  1.00  0.00     0.012 A 
ATOM     95  C   UNL A   1      28.554  31.493  23.979  1.00  0.00     0.001 A 
ATOM     96  C   UNL A   1      27.480  28.722  23.016  1.00  0.00     0.001 A 
ATOM     97  C   UNL A   1      27.183  30.422  23.493  1.00  0.00     0.000 A 
ENDBRANCH  90  92
ENDBRANCH  85  90
ENDBRANCH  81  83
ENDBRANCH  74  77
ENDBRANCH  72  73
ENDBRANCH   1  72
TORSDOF 16
ENDMDL
MODEL 3
REMARK VINA RESULT:     -13.9      1.642      2.076
REMARK SMILES O=C(NCCCNC(=O)[C@@H]1CC(=O)N(c2ccc(Cl)cc2C(=O)c2ccccc2)C1)c1ccc(-c2c3nc(c(-c4cc(S(=O)(=O)[O-])ccc4F)c4ccc([nH]4)c(-c4cc(S(=O)(=O)[O-])ccc4F)c4nc(c(-c5cc(S(=O)(=O)[O-])ccc5F)c5ccc2[nH]5)C=C4)C=C3)cc1
REMARK SMILES IDX 5 1 4 2 3 3 1 4 2 5 31 7 32 8 93 9 33 10 92 11 34 12 35 13
REMARK SMILES IDX 36 14 86 15 37 16 91 17 85 18 87 19 38 20 90 21 84 22 83 23
REMARK SMILES IDX 39 25 71 26 51 27 70 28 52 29 55 30 69 31 88 32 53 33 54 34
REMARK SMILES IDX 68 36 89 37 56 38 40 39 41 40 49 41 42 42 48 43 50 44 47 45
REMARK SMILES IDX 43 46 44 47 45 48 46 49 72 50 73 51 81 52 74 53 80 54 82 55
REMARK SMILES IDX 79 56 75 57 76 58 77 59 78 60 57 61 58 62 66 63 59 64 65 65
REMARK SMILES IDX 67 66 64 67 60 68 61 69 62 70 63 71 6 72 7 73 8 74 9 76
REMARK SMILES IDX 10 77 11 78 30 79 12 80 14 81 13 82 15 83 16 84 21 85 17 86
REMARK SMILES IDX 20 87 18 88 19 89 22 90 23 91 24 92 25 93 29 94 26 95 28 96
REMARK SMILES IDX 27 97
REMARK H PARENT 3 6 87 24 55 35 7 75
REMARK Flexibility Score: inf
ROOT
ATOM      1  C   UNL A   1      31.578  29.293  26.516  1.00  0.00     0.042 C 
ENDROOT
BRANCH   1   2
ATOM      2  C   UNL A   1      32.841  29.683  27.257  1.00  0.00     0.118 C 
BRANCH   2   3
ATOM      3  N   UNL A   1      33.034  31.128  27.236  1.00  0.00    -0.352 N 
ATOM      4  O   UNL A   1      33.884  33.102  27.886  1.00  0.00    -0.269 OA
ATOM      5  C   UNL A   1      34.069  31.898  27.728  1.00  0.00     0.251 C 
ATOM      6  H   UNL A   1      32.311  31.637  26.802  1.00  0.00     0.163 HD
BRANCH   5   7
ATOM      7  C   UNL A   1      35.379  31.292  28.087  1.00  0.00     0.039 A 
ATOM      8  C   UNL A   1      36.478  32.096  28.359  1.00  0.00     0.014 A 
ATOM      9  C   UNL A   1      35.511  29.905  28.238  1.00  0.00     0.014 A 
ATOM     10  C   UNL A   1      37.723  31.548  28.600  1.00  0.00     0.010 A 
ATOM     11  C   UNL A   1      36.720  29.360  28.703  1.00  0.00     0.010 A 
ATOM     12  C   UNL A   1      37.834  30.188  28.908  1.00  0.00    -0.014 A 
BRANCH  12  13
ATOM     13  C   UNL A   1      39.076  29.768  29.612  1.00  0.00     0.031 A 
ATOM     14  C   UNL A   1      39.409  30.253  30.988  1.00  0.00     0.074 A 
ATOM     15  C   UNL A   1      39.858  28.848  28.999  1.00  0.00     0.049 A 
ATOM     16  N   UNL A   1      40.430  29.932  31.740  1.00  0.00    -0.248 NA
ATOM     17  C   UNL A   1      38.497  31.232  31.593  1.00  0.00     0.031 C 
ATOM     18  C   UNL A   1      39.633  28.324  27.643  1.00  0.00     0.029 A 
ATOM     19  N   UNL A   1      40.949  28.142  29.433  1.00  0.00    -0.354 N 
ATOM     20  C   UNL A   1      40.296  30.681  32.903  1.00  0.00     0.074 A 
ATOM     21  C   UNL A   1      39.112  31.500  32.736  1.00  0.00     0.031 C 
ATOM     22  C   UNL A   1      40.467  27.304  27.412  1.00  0.00     0.029 A 
ATOM     23  C   UNL A   1      41.387  27.194  28.532  1.00  0.00     0.049 A 
ATOM     24  H   UNL A   1      41.379  28.295  30.305  1.00  0.00     0.167 HD
ATOM     25  C   UNL A   1      41.088  30.672  34.004  1.00  0.00     0.034 A 
ATOM     26  C   UNL A   1      42.437  26.352  28.574  1.00  0.00     0.034 A 
ATOM     27  C   UNL A   1      42.265  29.842  34.135  1.00  0.00     0.049 A 
ATOM     28  C   UNL A   1      43.314  26.395  29.793  1.00  0.00     0.074 A 
ATOM     29  C   UNL A   1      43.154  29.768  35.194  1.00  0.00     0.029 A 
ATOM     30  N   UNL A   1      42.718  28.939  33.179  1.00  0.00    -0.354 N 
ATOM     31  N   UNL A   1      43.185  27.131  30.873  1.00  0.00    -0.248 NA
ATOM     32  C   UNL A   1      44.477  25.504  29.799  1.00  0.00     0.031 C 
ATOM     33  C   UNL A   1      44.174  28.872  34.854  1.00  0.00     0.029 A 
ATOM     34  C   UNL A   1      43.882  28.321  33.616  1.00  0.00     0.049 A 
ATOM     35  H   UNL A   1      42.277  28.764  32.316  1.00  0.00     0.167 HD
ATOM     36  C   UNL A   1      44.252  26.787  31.692  1.00  0.00     0.074 A 
ATOM     37  C   UNL A   1      44.982  25.743  30.999  1.00  0.00     0.031 C 
ATOM     38  C   UNL A   1      44.607  27.296  32.900  1.00  0.00     0.034 A 
BRANCH  25  39
ATOM     39  C   UNL A   1      40.730  31.620  35.124  1.00  0.00     0.023 A 
ATOM     40  C   UNL A   1      39.679  31.349  36.017  1.00  0.00     0.031 A 
ATOM     41  C   UNL A   1      41.438  32.824  35.291  1.00  0.00     0.131 A 
ATOM     42  C   UNL A   1      39.326  32.293  36.993  1.00  0.00     0.055 A 
ATOM     43  C   UNL A   1      41.132  33.724  36.312  1.00  0.00     0.041 A 
ATOM     44  F   UNL A   1      42.437  33.151  34.455  1.00  0.00    -0.206 F 
ATOM     45  C   UNL A   1      40.063  33.468  37.164  1.00  0.00     0.022 A 
BRANCH  42  46
ATOM     46  S   UNL A   1      37.811  32.026  37.956  1.00  0.00     0.124 S 
ATOM     47  O   UNL A   1      36.958  33.109  37.471  1.00  0.00    -0.237 OA
ATOM     48  O   UNL A   1      37.418  30.678  37.560  1.00  0.00    -0.237 OA
ATOM     49  O   UNL A   1      38.255  32.165  39.342  1.00  0.00    -0.744 OA
ENDBRANCH  42  46
ENDBRANCH  25  39
BRANCH  26  50
ATOM     50  C   UNL A   1      42.761  25.474  27.409  1.00  0.00     0.023 A 
ATOM     51  C   UNL A   1      42.247  24.172  27.303  1.00  0.00     0.031 A 
ATOM     52  C   UNL A   1      43.637  25.915  26.397  1.00  0.00     0.131 A 
ATOM     53  C   UNL A   1      42.652  23.344  26.244  1.00  0.00     0.055 A 
ATOM     54  C   UNL A   1      43.976  25.115  25.306  1.00  0.00     0.041 A 
ATOM     55  F   UNL A   1      44.167  27.148  26.444  1.00  0.00    -0.206 F 
ATOM     56  C   UNL A   1      43.497  23.812  25.235  1.00  0.00     0.022 A 
BRANCH  53  57
ATOM     57  S   UNL A   1      42.158  21.598  26.267  1.00  0.00     0.124 S 
ATOM     58  O   UNL A   1      40.762  21.678  25.853  1.00  0.00    -0.237 OA
ATOM     59  O   UNL A   1      43.081  21.011  25.300  1.00  0.00    -0.237 OA
ATOM     60  O   UNL A   1      42.376  21.201  27.655  1.00  0.00    -0.744 OA
ENDBRANCH  53  57
ENDBRANCH  26  50
BRANCH  38  61
ATOM     61  C   UNL A   1      45.828  26.688  33.545  1.00  0.00     0.023 A 
ATOM     62  C   UNL A   1      45.740  25.527  34.334  1.00  0.00     0.031 A 
ATOM     63  C   UNL A   1      47.081  27.307  33.416  1.00  0.00     0.131 A 
ATOM     64  C   UNL A   1      46.867  25.071  35.033  1.00  0.00     0.055 A 
ATOM     65  C   UNL A   1      48.217  26.805  34.052  1.00  0.00     0.041 A 
ATOM     66  F   UNL A   1      47.222  28.422  32.680  1.00  0.00    -0.206 F 
ATOM     67  C   UNL A   1      48.109  25.691  34.881  1.00  0.00     0.022 A 
BRANCH  64  68
ATOM     68  S   UNL A   1      46.656  23.741  36.248  1.00  0.00     0.124 S 
ATOM     69  O   UNL A   1      46.580  22.561  35.394  1.00  0.00    -0.237 OA
ATOM     70  O   UNL A   1      47.863  23.865  37.059  1.00  0.00    -0.237 OA
ATOM     71  O   UNL A   1      45.413  24.096  36.930  1.00  0.00    -0.744 OA
ENDBRANCH  64  68
ENDBRANCH  38  61
ENDBRANCH  12  13
ENDBRANCH   5   7
ENDBRANCH   2   3
ENDBRANCH   1   2
BRANCH   1  72
ATOM     72  C   UNL A   1      31.380  30.234  25.342  1.00  0.00     0.117 C 
BRANCH  72  73
ATOM     73  N   UNL A   1      31.284  29.439  24.091  1.00  0.00    -0.356 N 
ATOM     74  C   UNL A   1      30.979  28.135  23.562  1.00  0.00     0.225 C 
ATOM     75  H   UNL A   1      31.517  30.027  23.337  1.00  0.00     0.163 HD
ATOM     76  O   UNL A   1      31.421  28.461  22.394  1.00  0.00    -0.275 OA
BRANCH  74  77
ATOM     77  C   UNL A   1      30.048  26.298  24.298  1.00  0.00     0.107 C 
ATOM     78  C   UNL A   1      29.800  25.662  25.933  1.00  0.00     0.116 C 
ATOM     79  C   UNL A   1      30.302  24.642  23.884  1.00  0.00     0.139 C 
ATOM     80  C   UNL A   1      30.860  24.586  26.142  1.00  0.00     0.227 C 
ATOM     81  N   UNL A   1      31.226  24.118  24.874  1.00  0.00    -0.311 N 
ATOM     82  O   UNL A   1      31.359  24.326  27.226  1.00  0.00    -0.274 OA
BRANCH  81  83
ATOM     83  C   UNL A   1      32.572  23.723  24.585  1.00  0.00     0.055 A 
ATOM     84  C   UNL A   1      33.483  24.667  24.092  1.00  0.00     0.028 A 
ATOM     85  C   UNL A   1      33.028  22.391  24.717  1.00  0.00     0.048 A 
ATOM     86  C   UNL A   1      34.808  24.308  23.802  1.00  0.00     0.023 A 
ATOM     87  C   UNL A   1      34.360  22.036  24.459  1.00  0.00     0.035 A 
ATOM     88  C   UNL A   1      35.244  22.999  23.999  1.00  0.00     0.041 A 
ATOM     89  Cl  UNL A   1      36.862  22.563  23.617  1.00  0.00    -0.084 Cl
BRANCH  85  90
ATOM     90  C   UNL A   1      32.117  21.275  25.016  1.00  0.00     0.195 C 
ATOM     91  O   UNL A   1      31.035  21.454  25.556  1.00  0.00    -0.289 OA
BRANCH  90  92
ATOM     92  C   UNL A   1      32.472  19.918  24.569  1.00  0.00     0.023 A 
ATOM     93  C   UNL A   1      32.097  19.555  22.848  1.00  0.00     0.012 A 
ATOM     94  C   UNL A   1      33.470  18.737  25.544  1.00  0.00     0.012 A 
ATOM     95  C   UNL A   1      32.711  18.073  22.077  1.00  0.00     0.001 A 
ATOM     96  C   UNL A   1      33.967  17.173  24.791  1.00  0.00     0.001 A 
ATOM     97  C   UNL A   1      33.663  16.886  23.050  1.00  0.00     0.000 A 
ENDBRANCH  90  92
ENDBRANCH  85  90
ENDBRANCH  81  83
ENDBRANCH  74  77
ENDBRANCH  72  73
ENDBRANCH   1  72
TORSDOF 16
ENDMDL
