MODEL 1
REMARK VINA RESULT:     -12.5      0.000      0.000
REMARK SMILES O=C(NCCCNC(=O)c1ccc(-c2c3nc(c(-c4cc(S(=O)(=O)[O-])ccc4F)c4ccc([nH]4)c(-c4cc(S(=O)(=O)[O-])ccc4F)c4nc(c(-c5cc(S(=O)(=O)[O-])ccc5F)c5ccc2[nH]5)C=C4)C=C3)cc1)C1=NN(c2ccc([N+](=O)[O-])cc2)[C@H](c2ccccc2)C1
REMARK SMILES IDX 5 1 4 2 3 3 1 4 2 5 73 7 74 8 92 9 75 10 85 11 76 12 77 13
REMARK SMILES IDX 84 14 78 15 83 16 79 17 80 18 81 19 82 20 86 21 87 22 91 23
REMARK SMILES IDX 88 24 90 25 89 26 6 27 7 28 8 29 9 31 10 32 11 33 72 34
REMARK SMILES IDX 12 35 71 36 13 37 14 38 15 39 65 40 16 41 70 42 64 43 66 44
REMARK SMILES IDX 17 45 69 46 63 47 62 48 18 50 50 51 30 52 49 53 31 54 34 55
REMARK SMILES IDX 48 56 67 57 32 58 33 59 47 61 68 62 35 63 19 64 20 65 28 66
REMARK SMILES IDX 21 67 27 68 29 69 26 70 22 71 23 72 24 73 25 74 51 75 52 76
REMARK SMILES IDX 60 77 53 78 59 79 61 80 58 81 54 82 55 83 56 84 57 85 36 86
REMARK SMILES IDX 37 87 45 88 38 89 44 90 46 91 43 92 39 93 40 94 41 95 42 96
REMARK H PARENT 3 6 7 30 66 49 34 60
REMARK Flexibility Score: inf
ROOT
ATOM      1  C   UNL A   1      33.184  28.880  23.555  1.00  0.00     0.042 C 
ENDROOT
BRANCH   1   2
ATOM      2  C   UNL A   1      32.190  27.788  23.186  1.00  0.00     0.118 C 
BRANCH   2   3
ATOM      3  N   UNL A   1      32.418  27.239  21.853  1.00  0.00    -0.351 N 
ATOM      4  O   UNL A   1      33.010  25.643  20.335  1.00  0.00    -0.268 OA
ATOM      5  C   UNL A   1      32.861  25.987  21.506  1.00  0.00     0.267 C 
ATOM      6  H   UNL A   1      32.228  27.848  21.103  1.00  0.00     0.163 HD
BRANCH   5   7
ATOM      7  C   UNL A   1      33.229  25.012  22.586  1.00  0.00     0.128 C 
ATOM      8  N   UNL A   1      34.454  24.785  22.940  1.00  0.00    -0.171 NA
ATOM      9  C   UNL A   1      32.171  24.291  23.349  1.00  0.00     0.096 C 
ATOM     10  N   UNL A   1      34.413  23.715  23.769  1.00  0.00    -0.257 N 
ATOM     11  C   UNL A   1      33.046  23.289  24.125  1.00  0.00     0.144 C 
BRANCH  10  12
ATOM     12  C   UNL A   1      35.590  23.334  24.388  1.00  0.00     0.061 A 
ATOM     13  C   UNL A   1      36.271  22.177  23.980  1.00  0.00     0.035 A 
ATOM     14  C   UNL A   1      36.086  24.035  25.496  1.00  0.00     0.035 A 
ATOM     15  C   UNL A   1      37.444  21.762  24.617  1.00  0.00     0.088 A 
ATOM     16  C   UNL A   1      37.259  23.640  26.143  1.00  0.00     0.088 A 
ATOM     17  C   UNL A   1      37.941  22.506  25.692  1.00  0.00     0.269 A 
BRANCH  17  18
ATOM     18  N   UNL A   1      39.185  22.095  26.350  1.00  0.00     0.062 N 
ATOM     19  O   UNL A   1      39.686  22.873  27.176  1.00  0.00    -0.258 OA
ATOM     20  O   UNL A   1      39.653  20.985  26.058  1.00  0.00    -0.258 OA
ENDBRANCH  17  18
ENDBRANCH  10  12
BRANCH  11  21
ATOM     21  C   UNL A   1      32.780  21.813  23.867  1.00  0.00    -0.023 A 
ATOM     22  C   UNL A   1      32.358  21.294  22.632  1.00  0.00     0.006 A 
ATOM     23  C   UNL A   1      32.974  20.901  24.923  1.00  0.00     0.006 A 
ATOM     24  C   UNL A   1      32.138  19.923  22.465  1.00  0.00     0.000 A 
ATOM     25  C   UNL A   1      32.798  19.527  24.744  1.00  0.00     0.000 A 
ATOM     26  C   UNL A   1      32.372  19.039  23.515  1.00  0.00     0.000 A 
ENDBRANCH  11  21
ENDBRANCH   5   7
ENDBRANCH   2   3
ENDBRANCH   1   2
BRANCH   1  27
ATOM     27  C   UNL A   1      33.519  28.947  25.039  1.00  0.00     0.118 C 
BRANCH  27  28
ATOM     28  N   UNL A   1      32.838  30.037  25.722  1.00  0.00    -0.352 N 
ATOM     29  C   UNL A   1      33.198  30.760  26.834  1.00  0.00     0.251 C 
ATOM     30  H   UNL A   1      31.978  30.301  25.321  1.00  0.00     0.163 HD
ATOM     31  O   UNL A   1      32.375  31.521  27.338  1.00  0.00    -0.269 OA
BRANCH  29  32
ATOM     32  C   UNL A   1      34.540  30.609  27.441  1.00  0.00     0.039 A 
ATOM     33  C   UNL A   1      35.345  31.742  27.580  1.00  0.00     0.014 A 
ATOM     34  C   UNL A   1      35.020  29.362  27.849  1.00  0.00     0.014 A 
ATOM     35  C   UNL A   1      36.596  31.637  28.196  1.00  0.00     0.010 A 
ATOM     36  C   UNL A   1      36.228  29.273  28.538  1.00  0.00     0.010 A 
ATOM     37  C   UNL A   1      37.031  30.409  28.720  1.00  0.00    -0.014 A 
BRANCH  37  38
ATOM     38  C   UNL A   1      38.315  30.295  29.461  1.00  0.00     0.031 A 
ATOM     39  C   UNL A   1      39.445  29.476  28.898  1.00  0.00     0.074 A 
ATOM     40  C   UNL A   1      38.440  30.875  30.671  1.00  0.00     0.049 A 
ATOM     41  N   UNL A   1      40.606  29.189  29.431  1.00  0.00    -0.248 NA
ATOM     42  C   UNL A   1      39.228  28.877  27.574  1.00  0.00     0.031 C 
ATOM     43  C   UNL A   1      37.404  31.665  31.341  1.00  0.00     0.029 A 
ATOM     44  N   UNL A   1      39.488  30.887  31.559  1.00  0.00    -0.354 N 
ATOM     45  C   UNL A   1      41.253  28.367  28.514  1.00  0.00     0.074 A 
ATOM     46  C   UNL A   1      40.325  28.150  27.423  1.00  0.00     0.031 C 
ATOM     47  C   UNL A   1      37.877  32.103  32.518  1.00  0.00     0.029 A 
ATOM     48  C   UNL A   1      39.228  31.587  32.714  1.00  0.00     0.049 A 
ATOM     49  H   UNL A   1      40.345  30.435  31.385  1.00  0.00     0.167 HD
ATOM     50  C   UNL A   1      42.510  27.860  28.564  1.00  0.00     0.034 A 
ATOM     51  C   UNL A   1      39.983  31.781  33.813  1.00  0.00     0.034 A 
ATOM     52  C   UNL A   1      43.426  28.093  29.655  1.00  0.00     0.049 A 
ATOM     53  C   UNL A   1      41.363  31.177  33.864  1.00  0.00     0.074 A 
ATOM     54  C   UNL A   1      44.740  27.676  29.783  1.00  0.00     0.029 A 
ATOM     55  N   UNL A   1      43.123  28.799  30.814  1.00  0.00    -0.354 N 
ATOM     56  N   UNL A   1      41.977  30.441  32.966  1.00  0.00    -0.248 NA
ATOM     57  C   UNL A   1      42.153  31.436  35.075  1.00  0.00     0.031 C 
ATOM     58  C   UNL A   1      45.205  28.063  31.045  1.00  0.00     0.029 A 
ATOM     59  C   UNL A   1      44.211  28.795  31.675  1.00  0.00     0.049 A 
ATOM     60  H   UNL A   1      42.261  29.238  30.997  1.00  0.00     0.167 HD
ATOM     61  C   UNL A   1      43.239  30.175  33.494  1.00  0.00     0.074 A 
ATOM     62  C   UNL A   1      43.301  30.842  34.778  1.00  0.00     0.031 C 
ATOM     63  C   UNL A   1      44.255  29.449  32.962  1.00  0.00     0.034 A 
BRANCH  50  64
ATOM     64  C   UNL A   1      42.952  26.981  27.416  1.00  0.00     0.023 A 
ATOM     65  C   UNL A   1      42.815  25.582  27.462  1.00  0.00     0.031 A 
ATOM     66  C   UNL A   1      43.546  27.543  26.273  1.00  0.00     0.131 A 
ATOM     67  C   UNL A   1      43.343  24.791  26.431  1.00  0.00     0.055 A 
ATOM     68  C   UNL A   1      43.989  26.755  25.208  1.00  0.00     0.041 A 
ATOM     69  F   UNL A   1      43.724  28.871  26.177  1.00  0.00    -0.206 F 
ATOM     70  C   UNL A   1      43.905  25.369  25.291  1.00  0.00     0.022 A 
BRANCH  67  71
ATOM     71  S   UNL A   1      43.427  22.995  26.676  1.00  0.00     0.124 S 
ATOM     72  O   UNL A   1      44.863  22.750  26.574  1.00  0.00    -0.237 OA
ATOM     73  O   UNL A   1      42.841  22.830  28.001  1.00  0.00    -0.237 OA
ATOM     74  O   UNL A   1      42.633  22.462  25.570  1.00  0.00    -0.744 OA
ENDBRANCH  67  71
ENDBRANCH  50  64
BRANCH  51  75
ATOM     75  C   UNL A   1      39.454  32.569  34.963  1.00  0.00     0.023 A 
ATOM     76  C   UNL A   1      38.861  31.932  36.064  1.00  0.00     0.031 A 
ATOM     77  C   UNL A   1      39.497  33.975  34.960  1.00  0.00     0.131 A 
ATOM     78  C   UNL A   1      38.295  32.697  37.095  1.00  0.00     0.055 A 
ATOM     79  C   UNL A   1      38.982  34.731  36.015  1.00  0.00     0.041 A 
ATOM     80  F   UNL A   1      40.057  34.636  33.934  1.00  0.00    -0.206 F 
ATOM     81  C   UNL A   1      38.364  34.091  37.085  1.00  0.00     0.022 A 
BRANCH  78  82
ATOM     82  S   UNL A   1      37.391  31.843  38.415  1.00  0.00     0.124 S 
ATOM     83  O   UNL A   1      38.329  31.942  39.528  1.00  0.00    -0.237 OA
ATOM     84  O   UNL A   1      36.178  32.648  38.522  1.00  0.00    -0.237 OA
ATOM     85  O   UNL A   1      37.198  30.497  37.879  1.00  0.00    -0.744 OA
ENDBRANCH  78  82
ENDBRANCH  51  75
BRANCH  63  86
ATOM     86  C   UNL A   1      45.535  29.375  33.760  1.00  0.00     0.023 A 
ATOM     87  C   UNL A   1      45.765  28.352  34.698  1.00  0.00     0.031 A 
ATOM     88  C   UNL A   1      46.533  30.351  33.590  1.00  0.00     0.131 A 
ATOM     89  C   UNL A   1      46.938  28.362  35.469  1.00  0.00     0.055 A 
ATOM     90  C   UNL A   1      47.725  30.319  34.314  1.00  0.00     0.041 A 
ATOM     91  F   UNL A   1      46.366  31.353  32.711  1.00  0.00    -0.206 F 
ATOM     92  C   UNL A   1      47.927  29.328  35.270  1.00  0.00     0.022 A 
BRANCH  89  93
ATOM     93  S   UNL A   1      47.113  27.146  36.804  1.00  0.00     0.124 S 
ATOM     94  O   UNL A   1      46.210  26.086  36.368  1.00  0.00    -0.237 OA
ATOM     95  O   UNL A   1      48.536  26.830  36.755  1.00  0.00    -0.237 OA
ATOM     96  O   UNL A   1      46.681  27.878  37.993  1.00  0.00    -0.744 OA
ENDBRANCH  89  93
ENDBRANCH  63  86
ENDBRANCH  37  38
ENDBRANCH  29  32
ENDBRANCH  27  28
ENDBRANCH   1  27
TORSDOF 16
ENDMDL
MODEL 2
REMARK VINA RESULT:     -12.5      4.617     10.129
REMARK SMILES O=C(NCCCNC(=O)c1ccc(-c2c3nc(c(-c4cc(S(=O)(=O)[O-])ccc4F)c4ccc([nH]4)c(-c4cc(S(=O)(=O)[O-])ccc4F)c4nc(c(-c5cc(S(=O)(=O)[O-])ccc5F)c5ccc2[nH]5)C=C4)C=C3)cc1)C1=NN(c2ccc([N+](=O)[O-])cc2)[C@H](c2ccccc2)C1
REMARK SMILES IDX 5 1 4 2 3 3 1 4 2 5 73 7 74 8 92 9 75 10 85 11 76 12 77 13
REMARK SMILES IDX 84 14 78 15 83 16 79 17 80 18 81 19 82 20 86 21 87 22 91 23
REMARK SMILES IDX 88 24 90 25 89 26 6 27 7 28 8 29 9 31 10 32 11 33 72 34
REMARK SMILES IDX 12 35 71 36 13 37 14 38 15 39 65 40 16 41 70 42 64 43 66 44
REMARK SMILES IDX 17 45 69 46 63 47 62 48 18 50 50 51 30 52 49 53 31 54 34 55
REMARK SMILES IDX 48 56 67 57 32 58 33 59 47 61 68 62 35 63 19 64 20 65 28 66
REMARK SMILES IDX 21 67 27 68 29 69 26 70 22 71 23 72 24 73 25 74 51 75 52 76
REMARK SMILES IDX 60 77 53 78 59 79 61 80 58 81 54 82 55 83 56 84 57 85 36 86
REMARK SMILES IDX 37 87 45 88 38 89 44 90 46 91 43 92 39 93 40 94 41 95 42 96
REMARK H PARENT 3 6 7 30 66 49 34 60
REMARK Flexibility Score: inf
ROOT
ATOM      1  C   UNL A   1      35.967  22.704  24.135  1.00  0.00     0.042 C 
ENDROOT
BRANCH   1   2
ATOM      2  C   UNL A   1      34.615  23.375  23.942  1.00  0.00     0.118 C 
BRANCH   2   3
ATOM      3  N   UNL A   1      33.629  22.497  23.320  1.00  0.00    -0.351 N 
ATOM      4  O   UNL A   1      31.547  21.862  22.637  1.00  0.00    -0.268 OA
ATOM      5  C   UNL A   1      32.275  22.684  23.191  1.00  0.00     0.267 C 
ATOM      6  H   UNL A   1      33.981  21.659  22.942  1.00  0.00     0.163 HD
BRANCH   5   7
ATOM      7  C   UNL A   1      31.641  23.907  23.787  1.00  0.00     0.128 C 
ATOM      8  N   UNL A   1      31.060  24.816  23.072  1.00  0.00    -0.171 NA
ATOM      9  C   UNL A   1      31.609  24.100  25.265  1.00  0.00     0.096 C 
ATOM     10  N   UNL A   1      30.805  25.847  23.911  1.00  0.00    -0.257 N 
ATOM     11  C   UNL A   1      31.093  25.549  25.327  1.00  0.00     0.144 C 
BRANCH  10  12
ATOM     12  C   UNL A   1      30.075  26.914  23.418  1.00  0.00     0.061 A 
ATOM     13  C   UNL A   1      30.710  27.962  22.735  1.00  0.00     0.035 A 
ATOM     14  C   UNL A   1      28.699  27.026  23.667  1.00  0.00     0.035 A 
ATOM     15  C   UNL A   1      29.989  29.061  22.259  1.00  0.00     0.088 A 
ATOM     16  C   UNL A   1      27.960  28.114  23.196  1.00  0.00     0.088 A 
ATOM     17  C   UNL A   1      28.609  29.126  22.483  1.00  0.00     0.269 A 
BRANCH  17  18
ATOM     18  N   UNL A   1      27.839  30.261  21.965  1.00  0.00     0.062 N 
ATOM     19  O   UNL A   1      27.126  30.888  22.762  1.00  0.00    -0.258 OA
ATOM     20  O   UNL A   1      27.961  30.541  20.763  1.00  0.00    -0.258 OA
ENDBRANCH  17  18
ENDBRANCH  10  12
BRANCH  11  21
ATOM     21  C   UNL A   1      32.007  26.568  25.993  1.00  0.00    -0.023 A 
ATOM     22  C   UNL A   1      33.394  26.632  25.785  1.00  0.00     0.006 A 
ATOM     23  C   UNL A   1      31.436  27.515  26.865  1.00  0.00     0.006 A 
ATOM     24  C   UNL A   1      34.174  27.601  26.426  1.00  0.00     0.000 A 
ATOM     25  C   UNL A   1      32.207  28.509  27.470  1.00  0.00     0.000 A 
ATOM     26  C   UNL A   1      33.579  28.547  27.256  1.00  0.00     0.000 A 
ENDBRANCH  11  21
ENDBRANCH   5   7
ENDBRANCH   2   3
ENDBRANCH   1   2
BRANCH   1  27
ATOM     27  C   UNL A   1      36.176  22.105  25.520  1.00  0.00     0.118 C 
BRANCH  27  28
ATOM     28  N   UNL A   1      37.167  21.039  25.530  1.00  0.00    -0.352 N 
ATOM     29  C   UNL A   1      38.518  21.076  25.780  1.00  0.00     0.251 C 
ATOM     30  H   UNL A   1      36.812  20.145  25.325  1.00  0.00     0.163 HD
ATOM     31  O   UNL A   1      39.190  20.071  25.557  1.00  0.00    -0.269 OA
BRANCH  29  32
ATOM     32  C   UNL A   1      39.169  22.308  26.280  1.00  0.00     0.039 A 
ATOM     33  C   UNL A   1      40.287  22.188  27.109  1.00  0.00     0.014 A 
ATOM     34  C   UNL A   1      38.674  23.576  25.962  1.00  0.00     0.014 A 
ATOM     35  C   UNL A   1      40.951  23.336  27.554  1.00  0.00     0.010 A 
ATOM     36  C   UNL A   1      39.384  24.714  26.334  1.00  0.00     0.010 A 
ATOM     37  C   UNL A   1      40.532  24.608  27.135  1.00  0.00    -0.014 A 
BRANCH  37  38
ATOM     38  C   UNL A   1      41.279  25.835  27.521  1.00  0.00     0.031 A 
ATOM     39  C   UNL A   1      40.617  26.896  28.356  1.00  0.00     0.074 A 
ATOM     40  C   UNL A   1      42.534  26.022  27.062  1.00  0.00     0.049 A 
ATOM     41  N   UNL A   1      41.072  28.067  28.723  1.00  0.00    -0.248 NA
ATOM     42  C   UNL A   1      39.249  26.614  28.815  1.00  0.00     0.031 C 
ATOM     43  C   UNL A   1      43.272  25.084  26.214  1.00  0.00     0.029 A 
ATOM     44  N   UNL A   1      43.408  27.066  27.238  1.00  0.00    -0.354 N 
ATOM     45  C   UNL A   1      40.045  28.666  29.444  1.00  0.00     0.074 A 
ATOM     46  C   UNL A   1      38.921  27.754  29.404  1.00  0.00     0.031 C 
ATOM     47  C   UNL A   1      44.493  25.583  25.966  1.00  0.00     0.029 A 
ATOM     48  C   UNL A   1      44.610  26.896  26.592  1.00  0.00     0.049 A 
ATOM     49  H   UNL A   1      43.194  27.863  27.776  1.00  0.00     0.167 HD
ATOM     50  C   UNL A   1      40.046  29.855  30.098  1.00  0.00     0.034 A 
ATOM     51  C   UNL A   1      45.681  27.710  26.499  1.00  0.00     0.034 A 
ATOM     52  C   UNL A   1      41.178  30.749  30.136  1.00  0.00     0.049 A 
ATOM     53  C   UNL A   1      45.646  29.043  27.203  1.00  0.00     0.074 A 
ATOM     54  C   UNL A   1      41.307  31.950  30.814  1.00  0.00     0.029 A 
ATOM     55  N   UNL A   1      42.376  30.548  29.460  1.00  0.00    -0.354 N 
ATOM     56  N   UNL A   1      44.683  29.573  27.921  1.00  0.00    -0.248 NA
ATOM     57  C   UNL A   1      46.846  29.882  27.088  1.00  0.00     0.031 C 
ATOM     58  C   UNL A   1      42.549  32.508  30.489  1.00  0.00     0.029 A 
ATOM     59  C   UNL A   1      43.232  31.619  29.675  1.00  0.00     0.049 A 
ATOM     60  H   UNL A   1      42.587  29.760  28.910  1.00  0.00     0.167 HD
ATOM     61  C   UNL A   1      45.175  30.798  28.368  1.00  0.00     0.074 A 
ATOM     62  C   UNL A   1      46.523  30.916  27.852  1.00  0.00     0.031 C 
ATOM     63  C   UNL A   1      44.568  31.736  29.140  1.00  0.00     0.034 A 
BRANCH  50  64
ATOM     64  C   UNL A   1      38.771  30.262  30.801  1.00  0.00     0.023 A 
ATOM     65  C   UNL A   1      37.724  30.907  30.118  1.00  0.00     0.031 A 
ATOM     66  C   UNL A   1      38.609  30.033  32.179  1.00  0.00     0.131 A 
ATOM     67  C   UNL A   1      36.607  31.375  30.825  1.00  0.00     0.055 A 
ATOM     68  C   UNL A   1      37.454  30.423  32.861  1.00  0.00     0.041 A 
ATOM     69  F   UNL A   1      39.581  29.441  32.892  1.00  0.00    -0.206 F 
ATOM     70  C   UNL A   1      36.452  31.115  32.188  1.00  0.00     0.022 A 
BRANCH  67  71
ATOM     71  S   UNL A   1      35.439  32.468  29.970  1.00  0.00     0.124 S 
ATOM     72  O   UNL A   1      36.280  33.625  29.672  1.00  0.00    -0.237 OA
ATOM     73  O   UNL A   1      35.032  31.661  28.825  1.00  0.00    -0.237 OA
ATOM     74  O   UNL A   1      34.398  32.706  30.969  1.00  0.00    -0.744 OA
ENDBRANCH  67  71
ENDBRANCH  50  64
BRANCH  51  75
ATOM     75  C   UNL A   1      46.873  27.301  25.701  1.00  0.00     0.023 A 
ATOM     76  C   UNL A   1      47.058  27.765  24.390  1.00  0.00     0.031 A 
ATOM     77  C   UNL A   1      47.825  26.408  26.226  1.00  0.00     0.131 A 
ATOM     78  C   UNL A   1      48.142  27.300  23.630  1.00  0.00     0.055 A 
ATOM     79  C   UNL A   1      48.933  25.993  25.485  1.00  0.00     0.041 A 
ATOM     80  F   UNL A   1      47.698  25.937  27.477  1.00  0.00    -0.206 F 
ATOM     81  C   UNL A   1      49.088  26.429  24.173  1.00  0.00     0.022 A 
BRANCH  78  82
ATOM     82  S   UNL A   1      48.254  27.790  21.887  1.00  0.00     0.124 S 
ATOM     83  O   UNL A   1      49.355  28.746  21.919  1.00  0.00    -0.237 OA
ATOM     84  O   UNL A   1      48.528  26.516  21.231  1.00  0.00    -0.237 OA
ATOM     85  O   UNL A   1      46.938  28.362  21.609  1.00  0.00    -0.744 OA
ENDBRANCH  78  82
ENDBRANCH  51  75
BRANCH  63  86
ATOM     86  C   UNL A   1      45.381  32.956  29.500  1.00  0.00     0.023 A 
ATOM     87  C   UNL A   1      45.350  34.125  28.719  1.00  0.00     0.031 A 
ATOM     88  C   UNL A   1      46.211  32.943  30.636  1.00  0.00     0.131 A 
ATOM     89  C   UNL A   1      46.176  35.210  29.051  1.00  0.00     0.055 A 
ATOM     90  C   UNL A   1      46.981  34.049  30.997  1.00  0.00     0.041 A 
ATOM     91  F   UNL A   1      46.283  31.853  31.417  1.00  0.00    -0.206 F 
ATOM     92  C   UNL A   1      46.977  35.187  30.195  1.00  0.00     0.022 A 
BRANCH  89  93
ATOM     93  S   UNL A   1      46.259  36.621  27.914  1.00  0.00     0.124 S 
ATOM     94  O   UNL A   1      47.317  36.210  26.997  1.00  0.00    -0.237 OA
ATOM     95  O   UNL A   1      44.911  36.653  27.356  1.00  0.00    -0.237 OA
ATOM     96  O   UNL A   1      46.596  37.745  28.785  1.00  0.00    -0.744 OA
ENDBRANCH  89  93
ENDBRANCH  63  86
ENDBRANCH  37  38
ENDBRANCH  29  32
ENDBRANCH  27  28
ENDBRANCH   1  27
TORSDOF 16
ENDMDL
MODEL 3
REMARK VINA RESULT:     -12.5      4.278      7.646
REMARK SMILES O=C(NCCCNC(=O)c1ccc(-c2c3nc(c(-c4cc(S(=O)(=O)[O-])ccc4F)c4ccc([nH]4)c(-c4cc(S(=O)(=O)[O-])ccc4F)c4nc(c(-c5cc(S(=O)(=O)[O-])ccc5F)c5ccc2[nH]5)C=C4)C=C3)cc1)C1=NN(c2ccc([N+](=O)[O-])cc2)[C@H](c2ccccc2)C1
REMARK SMILES IDX 5 1 4 2 3 3 1 4 2 5 73 7 74 8 92 9 75 10 85 11 76 12 77 13
REMARK SMILES IDX 84 14 78 15 83 16 79 17 80 18 81 19 82 20 86 21 87 22 91 23
REMARK SMILES IDX 88 24 90 25 89 26 6 27 7 28 8 29 9 31 10 32 11 33 72 34
REMARK SMILES IDX 12 35 71 36 13 37 14 38 15 39 65 40 16 41 70 42 64 43 66 44
REMARK SMILES IDX 17 45 69 46 63 47 62 48 18 50 50 51 30 52 49 53 31 54 34 55
REMARK SMILES IDX 48 56 67 57 32 58 33 59 47 61 68 62 35 63 19 64 20 65 28 66
REMARK SMILES IDX 21 67 27 68 29 69 26 70 22 71 23 72 24 73 25 74 51 75 52 76
REMARK SMILES IDX 60 77 53 78 59 79 61 80 58 81 54 82 55 83 56 84 57 85 36 86
REMARK SMILES IDX 37 87 45 88 38 89 44 90 46 91 43 92 39 93 40 94 41 95 42 96
REMARK H PARENT 3 6 7 30 66 49 34 60
REMARK Flexibility Score: inf
ROOT
ATOM      1  C   UNL A   1      36.155  23.659  24.335  1.00  0.00     0.042 C 
ENDROOT
BRANCH   1   2
ATOM      2  C   UNL A   1      34.714  24.079  24.080  1.00  0.00     0.118 C 
BRANCH   2   3
ATOM      3  N   UNL A   1      33.760  22.997  24.301  1.00  0.00    -0.351 N 
ATOM      4  O   UNL A   1      31.750  22.081  24.872  1.00  0.00    -0.268 OA
ATOM      5  C   UNL A   1      32.458  23.077  24.727  1.00  0.00     0.267 C 
ATOM      6  H   UNL A   1      34.095  22.088  24.121  1.00  0.00     0.163 HD
BRANCH   5   7
ATOM      7  C   UNL A   1      31.880  24.417  25.080  1.00  0.00     0.128 C 
ATOM      8  N   UNL A   1      31.237  25.150  24.229  1.00  0.00    -0.171 NA
ATOM      9  C   UNL A   1      31.980  24.943  26.472  1.00  0.00     0.096 C 
ATOM     10  N   UNL A   1      31.059  26.351  24.828  1.00  0.00    -0.257 N 
ATOM     11  C   UNL A   1      31.471  26.378  26.244  1.00  0.00     0.144 C 
BRANCH  10  12
ATOM     12  C   UNL A   1      30.287  27.292  24.168  1.00  0.00     0.061 A 
ATOM     13  C   UNL A   1      28.949  27.021  23.847  1.00  0.00     0.035 A 
ATOM     14  C   UNL A   1      30.842  28.499  23.721  1.00  0.00     0.035 A 
ATOM     15  C   UNL A   1      28.166  27.948  23.152  1.00  0.00     0.088 A 
ATOM     16  C   UNL A   1      30.076  29.442  23.030  1.00  0.00     0.088 A 
ATOM     17  C   UNL A   1      28.733  29.165  22.757  1.00  0.00     0.269 A 
BRANCH  17  18
ATOM     18  N   UNL A   1      27.914  30.156  22.053  1.00  0.00     0.062 N 
ATOM     19  O   UNL A   1      27.223  30.925  22.736  1.00  0.00    -0.258 OA
ATOM     20  O   UNL A   1      27.977  30.182  20.815  1.00  0.00    -0.258 OA
ENDBRANCH  17  18
ENDBRANCH  10  12
BRANCH  11  21
ATOM     21  C   UNL A   1      32.442  27.503  26.575  1.00  0.00    -0.023 A 
ATOM     22  C   UNL A   1      33.805  27.491  26.236  1.00  0.00     0.006 A 
ATOM     23  C   UNL A   1      31.952  28.635  27.257  1.00  0.00     0.006 A 
ATOM     24  C   UNL A   1      34.639  28.564  26.567  1.00  0.00     0.000 A 
ATOM     25  C   UNL A   1      32.774  29.725  27.547  1.00  0.00     0.000 A 
ATOM     26  C   UNL A   1      34.121  29.686  27.209  1.00  0.00     0.000 A 
ENDBRANCH  11  21
ENDBRANCH   5   7
ENDBRANCH   2   3
ENDBRANCH   1   2
BRANCH   1  27
ATOM     27  C   UNL A   1      36.521  23.543  25.808  1.00  0.00     0.118 C 
BRANCH  27  28
ATOM     28  N   UNL A   1      37.517  22.512  26.063  1.00  0.00    -0.352 N 
ATOM     29  C   UNL A   1      38.823  22.613  26.479  1.00  0.00     0.251 C 
ATOM     30  H   UNL A   1      37.204  21.591  25.913  1.00  0.00     0.163 HD
ATOM     31  O   UNL A   1      39.532  21.610  26.456  1.00  0.00    -0.269 OA
BRANCH  29  32
ATOM     32  C   UNL A   1      39.384  23.910  26.921  1.00  0.00     0.039 A 
ATOM     33  C   UNL A   1      39.915  24.775  25.961  1.00  0.00     0.014 A 
ATOM     34  C   UNL A   1      39.416  24.270  28.271  1.00  0.00     0.014 A 
ATOM     35  C   UNL A   1      40.406  26.027  26.344  1.00  0.00     0.010 A 
ATOM     36  C   UNL A   1      39.826  25.549  28.641  1.00  0.00     0.010 A 
ATOM     37  C   UNL A   1      40.326  26.443  27.683  1.00  0.00    -0.014 A 
BRANCH  37  38
ATOM     38  C   UNL A   1      40.755  27.806  28.096  1.00  0.00     0.031 A 
ATOM     39  C   UNL A   1      42.211  28.184  28.063  1.00  0.00     0.074 A 
ATOM     40  C   UNL A   1      39.841  28.680  28.563  1.00  0.00     0.049 A 
ATOM     41  N   UNL A   1      42.789  29.289  28.461  1.00  0.00    -0.248 NA
ATOM     42  C   UNL A   1      43.142  27.174  27.540  1.00  0.00     0.031 C 
ATOM     43  C   UNL A   1      38.405  28.418  28.678  1.00  0.00     0.029 A 
ATOM     44  N   UNL A   1      39.982  29.961  29.035  1.00  0.00    -0.354 N 
ATOM     45  C   UNL A   1      44.152  29.103  28.249  1.00  0.00     0.074 A 
ATOM     46  C   UNL A   1      44.315  27.754  27.749  1.00  0.00     0.031 C 
ATOM     47  C   UNL A   1      37.797  29.513  29.163  1.00  0.00     0.029 A 
ATOM     48  C   UNL A   1      38.800  30.535  29.441  1.00  0.00     0.049 A 
ATOM     49  H   UNL A   1      40.849  30.426  29.079  1.00  0.00     0.167 HD
ATOM     50  C   UNL A   1      45.168  29.983  28.431  1.00  0.00     0.034 A 
ATOM     51  C   UNL A   1      38.550  31.741  29.990  1.00  0.00     0.034 A 
ATOM     52  C   UNL A   1      44.987  31.328  28.922  1.00  0.00     0.049 A 
ATOM     53  C   UNL A   1      39.701  32.688  30.219  1.00  0.00     0.074 A 
ATOM     54  C   UNL A   1      45.939  32.320  29.091  1.00  0.00     0.029 A 
ATOM     55  N   UNL A   1      43.776  31.870  29.334  1.00  0.00    -0.354 N 
ATOM     56  N   UNL A   1      40.978  32.514  29.967  1.00  0.00    -0.248 NA
ATOM     57  C   UNL A   1      39.373  33.997  30.798  1.00  0.00     0.031 C 
ATOM     58  C   UNL A   1      45.318  33.432  29.672  1.00  0.00     0.029 A 
ATOM     59  C   UNL A   1      43.963  33.168  29.791  1.00  0.00     0.049 A 
ATOM     60  H   UNL A   1      42.911  31.403  29.305  1.00  0.00     0.167 HD
ATOM     61  C   UNL A   1      41.601  33.705  30.332  1.00  0.00     0.074 A 
ATOM     62  C   UNL A   1      40.558  34.592  30.804  1.00  0.00     0.031 C 
ATOM     63  C   UNL A   1      42.917  34.037  30.277  1.00  0.00     0.034 A 
BRANCH  50  64
ATOM     64  C   UNL A   1      46.568  29.501  28.122  1.00  0.00     0.023 A 
ATOM     65  C   UNL A   1      47.380  28.910  29.106  1.00  0.00     0.031 A 
ATOM     66  C   UNL A   1      47.111  29.662  26.835  1.00  0.00     0.131 A 
ATOM     67  C   UNL A   1      48.712  28.584  28.813  1.00  0.00     0.055 A 
ATOM     68  C   UNL A   1      48.410  29.252  26.526  1.00  0.00     0.041 A 
ATOM     69  F   UNL A   1      46.393  30.238  25.857  1.00  0.00    -0.206 F 
ATOM     70  C   UNL A   1      49.226  28.725  27.523  1.00  0.00     0.022 A 
BRANCH  67  71
ATOM     71  S   UNL A   1      49.809  28.121  30.182  1.00  0.00     0.124 S 
ATOM     72  O   UNL A   1      48.852  27.656  31.183  1.00  0.00    -0.237 OA
ATOM     73  O   UNL A   1      50.652  27.095  29.579  1.00  0.00    -0.237 OA
ATOM     74  O   UNL A   1      50.488  29.372  30.516  1.00  0.00    -0.744 OA
ENDBRANCH  67  71
ENDBRANCH  50  64
BRANCH  51  75
ATOM     75  C   UNL A   1      37.162  32.122  30.375  1.00  0.00     0.023 A 
ATOM     76  C   UNL A   1      36.307  32.756  29.461  1.00  0.00     0.031 A 
ATOM     77  C   UNL A   1      36.681  31.893  31.677  1.00  0.00     0.131 A 
ATOM     78  C   UNL A   1      35.034  33.181  29.871  1.00  0.00     0.055 A 
ATOM     79  C   UNL A   1      35.394  32.267  32.065  1.00  0.00     0.041 A 
ATOM     80  F   UNL A   1      37.457  31.286  32.590  1.00  0.00    -0.206 F 
ATOM     81  C   UNL A   1      34.566  32.928  31.162  1.00  0.00     0.022 A 
BRANCH  78  82
ATOM     82  S   UNL A   1      34.024  34.145  28.713  1.00  0.00     0.124 S 
ATOM     83  O   UNL A   1      34.952  35.198  28.317  1.00  0.00    -0.237 OA
ATOM     84  O   UNL A   1      33.705  33.153  27.691  1.00  0.00    -0.237 OA
ATOM     85  O   UNL A   1      32.894  34.582  29.529  1.00  0.00    -0.744 OA
ENDBRANCH  78  82
ENDBRANCH  51  75
BRANCH  63  86
ATOM     86  C   UNL A   1      43.289  35.436  30.706  1.00  0.00     0.023 A 
ATOM     87  C   UNL A   1      43.491  35.768  32.057  1.00  0.00     0.031 A 
ATOM     88  C   UNL A   1      43.430  36.456  29.748  1.00  0.00     0.131 A 
ATOM     89  C   UNL A   1      43.765  37.096  32.418  1.00  0.00     0.055 A 
ATOM     90  C   UNL A   1      43.767  37.761  30.107  1.00  0.00     0.041 A 
ATOM     91  F   UNL A   1      43.247  36.197  28.443  1.00  0.00    -0.206 F 
ATOM     92  C   UNL A   1      43.923  38.091  31.450  1.00  0.00     0.022 A 
BRANCH  89  93
ATOM     93  S   UNL A   1      43.822  37.527  34.179  1.00  0.00     0.124 S 
ATOM     94  O   UNL A   1      43.780  36.213  34.814  1.00  0.00    -0.237 OA
ATOM     95  O   UNL A   1      45.089  38.244  34.285  1.00  0.00    -0.237 OA
ATOM     96  O   UNL A   1      42.628  38.346  34.371  1.00  0.00    -0.744 OA
ENDBRANCH  89  93
ENDBRANCH  63  86
ENDBRANCH  37  38
ENDBRANCH  29  32
ENDBRANCH  27  28
ENDBRANCH   1  27
TORSDOF 16
ENDMDL
