MODEL 1
REMARK VINA RESULT:     -11.7      0.000      0.000
REMARK SMILES CC[C@](C)(C(=O)NCCCNC(=O)c1ccc(-c2c3nc(c(-c4cc(S(=O)(=O)[O-])ccc4F)c4ccc([nH]4)c(-c4cc(S(=O)(=O)[O-])ccc4F)c4nc(c(-c5cc(S(=O)(=O)[O-])ccc5F)c5ccc2[nH]5)C=C4)C=C3)cc1)n1nnnc1Cc1cccc(Cl)c1
REMARK SMILES IDX 9 1 8 2 7 3 5 4 6 5 3 7 4 8 2 9 1 10 77 11 78 12 81 13 79 14
REMARK SMILES IDX 80 15 82 16 83 17 84 18 89 19 85 20 87 21 86 22 88 23 10 24
REMARK SMILES IDX 11 25 12 26 13 28 14 29 15 30 76 31 16 32 75 33 17 34 18 35
REMARK SMILES IDX 19 36 69 37 20 38 74 39 68 40 70 41 21 42 73 43 67 44 66 45
REMARK SMILES IDX 22 47 54 48 34 49 53 50 35 51 38 52 52 53 71 54 36 55 37 56
REMARK SMILES IDX 51 58 72 59 39 60 23 61 24 62 32 63 25 64 31 65 33 66 30 67
REMARK SMILES IDX 26 68 27 69 28 70 29 71 55 72 56 73 64 74 57 75 63 76 65 77
REMARK SMILES IDX 62 78 58 79 59 80 60 81 61 82 40 83 41 84 49 85 42 86 48 87
REMARK SMILES IDX 50 88 47 89 43 90 44 91 45 92 46 93
REMARK H PARENT 7 6 11 27 70 46 38 57
REMARK Flexibility Score: inf
ROOT
ATOM      1  C   UNL A   1      31.879  29.037  26.993  1.00  0.00     0.042 C 
ENDROOT
BRANCH   1   2
ATOM      2  C   UNL A   1      32.073  27.538  26.957  1.00  0.00     0.117 C 
BRANCH   2   3
ATOM      3  N   UNL A   1      30.978  26.822  26.341  1.00  0.00    -0.354 N 
ATOM      4  C   UNL A   1      30.974  25.940  25.291  1.00  0.00     0.247 C 
ATOM      5  O   UNL A   1      29.994  25.191  25.268  1.00  0.00    -0.272 OA
ATOM      6  H   UNL A   1      30.093  26.996  26.739  1.00  0.00     0.163 HD
BRANCH   4   7
ATOM      7  C   UNL A   1      32.184  25.841  24.293  1.00  0.00     0.142 C 
ATOM      8  C   UNL A   1      33.432  25.345  25.055  1.00  0.00     0.048 C 
BRANCH   7   9
ATOM      9  C   UNL A   1      31.676  24.929  23.121  1.00  0.00     0.037 C 
ATOM     10  C   UNL A   1      32.571  23.779  22.644  1.00  0.00     0.007 C 
ENDBRANCH   7   9
BRANCH   7  11
ATOM     11  N   UNL A   1      32.564  27.194  23.786  1.00  0.00    -0.214 N 
ATOM     12  N   UNL A   1      33.871  27.515  23.639  1.00  0.00    -0.044 NA
ATOM     13  C   UNL A   1      31.824  28.165  23.121  1.00  0.00     0.156 A 
ATOM     14  N   UNL A   1      33.906  28.710  23.080  1.00  0.00    -0.024 NA
ATOM     15  N   UNL A   1      32.656  29.118  22.736  1.00  0.00    -0.113 NA
BRANCH  13  16
ATOM     16  C   UNL A   1      30.378  28.152  22.764  1.00  0.00     0.114 C 
BRANCH  16  17
ATOM     17  C   UNL A   1      29.730  29.521  22.787  1.00  0.00    -0.039 A 
ATOM     18  C   UNL A   1      29.670  30.286  23.960  1.00  0.00     0.004 A 
ATOM     19  C   UNL A   1      29.167  30.050  21.615  1.00  0.00     0.024 A 
ATOM     20  C   UNL A   1      29.109  31.564  23.959  1.00  0.00     0.002 A 
ATOM     21  C   UNL A   1      28.587  31.318  21.621  1.00  0.00     0.041 A 
ATOM     22  C   UNL A   1      28.567  32.081  22.786  1.00  0.00     0.020 A 
ATOM     23  Cl  UNL A   1      27.887  31.944  20.179  1.00  0.00    -0.084 Cl
ENDBRANCH  16  17
ENDBRANCH  13  16
ENDBRANCH   7  11
ENDBRANCH   4   7
ENDBRANCH   2   3
ENDBRANCH   1   2
BRANCH   1  24
ATOM     24  C   UNL A   1      33.054  29.801  26.420  1.00  0.00     0.118 C 
BRANCH  24  25
ATOM     25  N   UNL A   1      33.020  31.215  26.771  1.00  0.00    -0.352 N 
ATOM     26  C   UNL A   1      33.838  31.948  27.598  1.00  0.00     0.251 C 
ATOM     27  H   UNL A   1      32.293  31.729  26.348  1.00  0.00     0.163 HD
ATOM     28  O   UNL A   1      33.492  33.075  27.932  1.00  0.00    -0.269 OA
BRANCH  26  29
ATOM     29  C   UNL A   1      35.104  31.367  28.096  1.00  0.00     0.039 A 
ATOM     30  C   UNL A   1      36.270  32.131  28.034  1.00  0.00     0.014 A 
ATOM     31  C   UNL A   1      35.146  30.074  28.622  1.00  0.00     0.014 A 
ATOM     32  C   UNL A   1      37.457  31.619  28.563  1.00  0.00     0.010 A 
ATOM     33  C   UNL A   1      36.291  29.620  29.262  1.00  0.00     0.010 A 
ATOM     34  C   UNL A   1      37.467  30.379  29.222  1.00  0.00    -0.014 A 
BRANCH  34  35
ATOM     35  C   UNL A   1      38.706  29.853  29.851  1.00  0.00     0.031 A 
ATOM     36  C   UNL A   1      39.136  30.348  31.207  1.00  0.00     0.074 A 
ATOM     37  C   UNL A   1      39.462  28.959  29.181  1.00  0.00     0.049 A 
ATOM     38  N   UNL A   1      40.194  30.029  31.906  1.00  0.00    -0.248 NA
ATOM     39  C   UNL A   1      38.281  31.362  31.846  1.00  0.00     0.031 C 
ATOM     40  C   UNL A   1      39.178  28.453  27.836  1.00  0.00     0.029 A 
ATOM     41  N   UNL A   1      40.618  28.314  29.538  1.00  0.00    -0.354 N 
ATOM     42  C   UNL A   1      40.132  30.801  33.062  1.00  0.00     0.074 A 
ATOM     43  C   UNL A   1      38.981  31.667  32.926  1.00  0.00     0.031 C 
ATOM     44  C   UNL A   1      40.107  27.544  27.501  1.00  0.00     0.029 A 
ATOM     45  C   UNL A   1      41.082  27.440  28.582  1.00  0.00     0.049 A 
ATOM     46  H   UNL A   1      41.074  28.462  30.397  1.00  0.00     0.167 HD
ATOM     47  C   UNL A   1      40.937  30.765  34.152  1.00  0.00     0.034 A 
ATOM     48  C   UNL A   1      42.172  26.649  28.574  1.00  0.00     0.034 A 
ATOM     49  C   UNL A   1      42.077  29.891  34.271  1.00  0.00     0.049 A 
ATOM     50  C   UNL A   1      43.067  26.642  29.788  1.00  0.00     0.074 A 
ATOM     51  C   UNL A   1      42.940  29.741  35.342  1.00  0.00     0.029 A 
ATOM     52  N   UNL A   1      42.518  29.020  33.282  1.00  0.00    -0.354 N 
ATOM     53  N   UNL A   1      42.959  27.337  30.897  1.00  0.00    -0.248 NA
ATOM     54  C   UNL A   1      44.217  25.732  29.755  1.00  0.00     0.031 C 
ATOM     55  C   UNL A   1      43.944  28.838  34.973  1.00  0.00     0.029 A 
ATOM     56  C   UNL A   1      43.658  28.355  33.705  1.00  0.00     0.049 A 
ATOM     57  H   UNL A   1      42.085  28.895  32.407  1.00  0.00     0.167 HD
ATOM     58  C   UNL A   1      44.015  26.924  31.706  1.00  0.00     0.074 A 
ATOM     59  C   UNL A   1      44.726  25.903  30.965  1.00  0.00     0.031 C 
ATOM     60  C   UNL A   1      44.366  27.349  32.948  1.00  0.00     0.034 A 
BRANCH  47  61
ATOM     61  C   UNL A   1      40.612  31.710  35.286  1.00  0.00     0.023 A 
ATOM     62  C   UNL A   1      39.588  31.429  36.209  1.00  0.00     0.031 A 
ATOM     63  C   UNL A   1      41.312  32.920  35.434  1.00  0.00     0.131 A 
ATOM     64  C   UNL A   1      39.239  32.377  37.183  1.00  0.00     0.055 A 
ATOM     65  C   UNL A   1      41.020  33.820  36.462  1.00  0.00     0.041 A 
ATOM     66  F   UNL A   1      42.283  33.258  34.572  1.00  0.00    -0.206 F 
ATOM     67  C   UNL A   1      39.968  33.558  37.335  1.00  0.00     0.022 A 
BRANCH  64  68
ATOM     68  S   UNL A   1      37.724  32.112  38.144  1.00  0.00     0.124 S 
ATOM     69  O   UNL A   1      38.201  32.327  39.509  1.00  0.00    -0.237 OA
ATOM     70  O   UNL A   1      36.829  33.133  37.613  1.00  0.00    -0.237 OA
ATOM     71  O   UNL A   1      37.357  30.733  37.831  1.00  0.00    -0.744 OA
ENDBRANCH  64  68
ENDBRANCH  47  61
BRANCH  48  72
ATOM     72  C   UNL A   1      42.487  25.805  27.384  1.00  0.00     0.023 A 
ATOM     73  C   UNL A   1      42.071  24.466  27.309  1.00  0.00     0.031 A 
ATOM     74  C   UNL A   1      43.251  26.316  26.319  1.00  0.00     0.131 A 
ATOM     75  C   UNL A   1      42.465  23.669  26.223  1.00  0.00     0.055 A 
ATOM     76  C   UNL A   1      43.588  25.537  25.210  1.00  0.00     0.041 A 
ATOM     77  F   UNL A   1      43.672  27.591  26.334  1.00  0.00    -0.206 F 
ATOM     78  C   UNL A   1      43.209  24.200  25.165  1.00  0.00     0.022 A 
BRANCH  75  79
ATOM     79  S   UNL A   1      42.078  21.897  26.258  1.00  0.00     0.124 S 
ATOM     80  O   UNL A   1      40.656  21.898  25.934  1.00  0.00    -0.237 OA
ATOM     81  O   UNL A   1      42.971  21.374  25.230  1.00  0.00    -0.237 OA
ATOM     82  O   UNL A   1      42.408  21.505  27.626  1.00  0.00    -0.744 OA
ENDBRANCH  75  79
ENDBRANCH  48  72
BRANCH  60  83
ATOM     83  C   UNL A   1      45.554  26.671  33.591  1.00  0.00     0.023 A 
ATOM     84  C   UNL A   1      45.423  25.463  34.296  1.00  0.00     0.031 A 
ATOM     85  C   UNL A   1      46.829  27.260  33.520  1.00  0.00     0.131 A 
ATOM     86  C   UNL A   1      46.530  24.922  34.966  1.00  0.00     0.055 A 
ATOM     87  C   UNL A   1      47.943  26.676  34.125  1.00  0.00     0.041 A 
ATOM     88  F   UNL A   1      47.014  28.416  32.862  1.00  0.00    -0.206 F 
ATOM     89  C   UNL A   1      47.793  25.511  34.869  1.00  0.00     0.022 A 
BRANCH  86  90
ATOM     90  S   UNL A   1      46.268  23.511  36.075  1.00  0.00     0.124 S 
ATOM     91  O   UNL A   1      47.117  22.490  35.472  1.00  0.00    -0.237 OA
ATOM     92  O   UNL A   1      46.719  24.037  37.360  1.00  0.00    -0.237 OA
ATOM     93  O   UNL A   1      44.830  23.261  35.977  1.00  0.00    -0.744 OA
ENDBRANCH  86  90
ENDBRANCH  60  83
ENDBRANCH  34  35
ENDBRANCH  26  29
ENDBRANCH  24  25
ENDBRANCH   1  24
TORSDOF 17
ENDMDL
MODEL 2
REMARK VINA RESULT:     -11.7      1.786      2.676
REMARK SMILES CC[C@](C)(C(=O)NCCCNC(=O)c1ccc(-c2c3nc(c(-c4cc(S(=O)(=O)[O-])ccc4F)c4ccc([nH]4)c(-c4cc(S(=O)(=O)[O-])ccc4F)c4nc(c(-c5cc(S(=O)(=O)[O-])ccc5F)c5ccc2[nH]5)C=C4)C=C3)cc1)n1nnnc1Cc1cccc(Cl)c1
REMARK SMILES IDX 9 1 8 2 7 3 5 4 6 5 3 7 4 8 2 9 1 10 77 11 78 12 81 13 79 14
REMARK SMILES IDX 80 15 82 16 83 17 84 18 89 19 85 20 87 21 86 22 88 23 10 24
REMARK SMILES IDX 11 25 12 26 13 28 14 29 15 30 76 31 16 32 75 33 17 34 18 35
REMARK SMILES IDX 19 36 69 37 20 38 74 39 68 40 70 41 21 42 73 43 67 44 66 45
REMARK SMILES IDX 22 47 54 48 34 49 53 50 35 51 38 52 52 53 71 54 36 55 37 56
REMARK SMILES IDX 51 58 72 59 39 60 23 61 24 62 32 63 25 64 31 65 33 66 30 67
REMARK SMILES IDX 26 68 27 69 28 70 29 71 55 72 56 73 64 74 57 75 63 76 65 77
REMARK SMILES IDX 62 78 58 79 59 80 60 81 61 82 40 83 41 84 49 85 42 86 48 87
REMARK SMILES IDX 50 88 47 89 43 90 44 91 45 92 46 93
REMARK H PARENT 7 6 11 27 70 46 38 57
REMARK Flexibility Score: inf
ROOT
ATOM      1  C   UNL A   1      31.394  31.585  26.577  1.00  0.00     0.042 C 
ENDROOT
BRANCH   1   2
ATOM      2  C   UNL A   1      31.528  30.153  26.110  1.00  0.00     0.117 C 
BRANCH   2   3
ATOM      3  N   UNL A   1      32.455  29.980  25.014  1.00  0.00    -0.354 N 
ATOM      4  C   UNL A   1      33.109  28.857  24.575  1.00  0.00     0.247 C 
ATOM      5  O   UNL A   1      33.487  28.923  23.402  1.00  0.00    -0.272 OA
ATOM      6  H   UNL A   1      32.649  30.799  24.502  1.00  0.00     0.163 HD
BRANCH   4   7
ATOM      7  C   UNL A   1      33.244  27.576  25.475  1.00  0.00     0.142 C 
ATOM      8  C   UNL A   1      34.163  26.555  24.772  1.00  0.00     0.048 C 
BRANCH   7   9
ATOM      9  C   UNL A   1      33.730  28.105  26.871  1.00  0.00     0.037 C 
ATOM     10  C   UNL A   1      34.956  29.025  26.921  1.00  0.00     0.007 C 
ENDBRANCH   7   9
BRANCH   7  11
ATOM     11  N   UNL A   1      31.929  26.878  25.602  1.00  0.00    -0.214 N 
ATOM     12  N   UNL A   1      31.483  26.499  26.823  1.00  0.00    -0.044 NA
ATOM     13  C   UNL A   1      30.859  26.770  24.721  1.00  0.00     0.156 A 
ATOM     14  N   UNL A   1      30.269  26.013  26.648  1.00  0.00    -0.024 NA
ATOM     15  N   UNL A   1      29.860  26.189  25.364  1.00  0.00    -0.113 NA
BRANCH  13  16
ATOM     16  C   UNL A   1      30.740  27.292  23.331  1.00  0.00     0.114 C 
BRANCH  16  17
ATOM     17  C   UNL A   1      29.589  28.256  23.137  1.00  0.00    -0.039 A 
ATOM     18  C   UNL A   1      28.256  27.845  23.269  1.00  0.00     0.004 A 
ATOM     19  C   UNL A   1      29.845  29.597  22.810  1.00  0.00     0.024 A 
ATOM     20  C   UNL A   1      27.204  28.752  23.129  1.00  0.00     0.002 A 
ATOM     21  C   UNL A   1      28.792  30.497  22.649  1.00  0.00     0.041 A 
ATOM     22  C   UNL A   1      27.474  30.082  22.819  1.00  0.00     0.020 A 
ATOM     23  Cl  UNL A   1      29.124  32.134  22.233  1.00  0.00    -0.084 Cl
ENDBRANCH  16  17
ENDBRANCH  13  16
ENDBRANCH   7  11
ENDBRANCH   4   7
ENDBRANCH   2   3
ENDBRANCH   1   2
BRANCH   1  24
ATOM     24  C   UNL A   1      32.717  32.203  26.979  1.00  0.00     0.118 C 
BRANCH  24  25
ATOM     25  N   UNL A   1      32.574  33.589  27.405  1.00  0.00    -0.352 N 
ATOM     26  C   UNL A   1      33.206  34.282  28.411  1.00  0.00     0.251 C 
ATOM     27  H   UNL A   1      31.919  34.115  26.890  1.00  0.00     0.163 HD
ATOM     28  O   UNL A   1      32.769  35.376  28.746  1.00  0.00    -0.269 OA
BRANCH  26  29
ATOM     29  C   UNL A   1      34.380  33.695  29.094  1.00  0.00     0.039 A 
ATOM     30  C   UNL A   1      34.182  32.671  30.022  1.00  0.00     0.014 A 
ATOM     31  C   UNL A   1      35.672  34.151  28.826  1.00  0.00     0.014 A 
ATOM     32  C   UNL A   1      35.287  32.065  30.623  1.00  0.00     0.010 A 
ATOM     33  C   UNL A   1      36.770  33.463  29.324  1.00  0.00     0.010 A 
ATOM     34  C   UNL A   1      36.591  32.424  30.245  1.00  0.00    -0.014 A 
BRANCH  34  35
ATOM     35  C   UNL A   1      37.775  31.739  30.825  1.00  0.00     0.031 A 
ATOM     36  C   UNL A   1      38.239  32.077  32.217  1.00  0.00     0.074 A 
ATOM     37  C   UNL A   1      38.452  30.841  30.080  1.00  0.00     0.049 A 
ATOM     38  N   UNL A   1      39.261  31.608  32.884  1.00  0.00    -0.248 NA
ATOM     39  C   UNL A   1      37.474  33.105  32.941  1.00  0.00     0.031 C 
ATOM     40  C   UNL A   1      38.132  30.478  28.697  1.00  0.00     0.029 A 
ATOM     41  N   UNL A   1      39.545  30.069  30.378  1.00  0.00    -0.354 N 
ATOM     42  C   UNL A   1      39.261  32.281  34.101  1.00  0.00     0.074 A 
ATOM     43  C   UNL A   1      38.192  33.254  34.042  1.00  0.00     0.031 C 
ATOM     44  C   UNL A   1      38.979  29.523  28.285  1.00  0.00     0.029 A 
ATOM     45  C   UNL A   1      39.935  29.241  29.350  1.00  0.00     0.049 A 
ATOM     46  H   UNL A   1      40.007  30.103  31.246  1.00  0.00     0.167 HD
ATOM     47  C   UNL A   1      40.054  32.082  35.183  1.00  0.00     0.034 A 
ATOM     48  C   UNL A   1      40.951  28.360  29.273  1.00  0.00     0.034 A 
ATOM     49  C   UNL A   1      41.112  31.103  35.225  1.00  0.00     0.049 A 
ATOM     50  C   UNL A   1      41.836  28.172  30.480  1.00  0.00     0.074 A 
ATOM     51  C   UNL A   1      41.953  30.788  36.277  1.00  0.00     0.029 A 
ATOM     52  N   UNL A   1      41.480  30.284  34.164  1.00  0.00    -0.354 N 
ATOM     53  N   UNL A   1      41.784  28.777  31.645  1.00  0.00    -0.248 NA
ATOM     54  C   UNL A   1      42.900  27.170  30.368  1.00  0.00     0.031 C 
ATOM     55  C   UNL A   1      42.874  29.834  35.831  1.00  0.00     0.029 A 
ATOM     56  C   UNL A   1      42.555  29.487  34.527  1.00  0.00     0.049 A 
ATOM     57  H   UNL A   1      41.042  30.272  33.283  1.00  0.00     0.167 HD
ATOM     58  C   UNL A   1      42.795  28.206  32.413  1.00  0.00     0.074 A 
ATOM     59  C   UNL A   1      43.416  27.192  31.586  1.00  0.00     0.031 C 
ATOM     60  C   UNL A   1      43.175  28.491  33.686  1.00  0.00     0.034 A 
BRANCH  47  61
ATOM     61  C   UNL A   1      39.807  32.953  36.394  1.00  0.00     0.023 A 
ATOM     62  C   UNL A   1      39.031  32.505  37.478  1.00  0.00     0.031 A 
ATOM     63  C   UNL A   1      40.329  34.256  36.458  1.00  0.00     0.131 A 
ATOM     64  C   UNL A   1      38.731  33.376  38.536  1.00  0.00     0.055 A 
ATOM     65  C   UNL A   1      40.102  35.089  37.557  1.00  0.00     0.041 A 
ATOM     66  F   UNL A   1      41.058  34.752  35.445  1.00  0.00    -0.206 F 
ATOM     67  C   UNL A   1      39.286  34.655  38.597  1.00  0.00     0.022 A 
BRANCH  64  68
ATOM     68  S   UNL A   1      37.482  32.866  39.749  1.00  0.00     0.124 S 
ATOM     69  O   UNL A   1      38.044  31.608  40.237  1.00  0.00    -0.237 OA
ATOM     70  O   UNL A   1      37.486  33.976  40.694  1.00  0.00    -0.237 OA
ATOM     71  O   UNL A   1      36.266  32.727  38.951  1.00  0.00    -0.744 OA
ENDBRANCH  64  68
ENDBRANCH  47  61
BRANCH  48  72
ATOM     72  C   UNL A   1      41.197  27.596  28.015  1.00  0.00     0.023 A 
ATOM     73  C   UNL A   1      40.923  26.222  27.932  1.00  0.00     0.031 A 
ATOM     74  C   UNL A   1      41.754  28.225  26.886  1.00  0.00     0.131 A 
ATOM     75  C   UNL A   1      41.255  25.510  26.769  1.00  0.00     0.055 A 
ATOM     76  C   UNL A   1      42.025  27.524  25.709  1.00  0.00     0.041 A 
ATOM     77  F   UNL A   1      42.032  29.537  26.906  1.00  0.00    -0.206 F 
ATOM     78  C   UNL A   1      41.791  26.154  25.651  1.00  0.00     0.022 A 
BRANCH  75  79
ATOM     79  S   UNL A   1      41.071  23.705  26.771  1.00  0.00     0.124 S 
ATOM     80  O   UNL A   1      42.010  23.310  25.727  1.00  0.00    -0.237 OA
ATOM     81  O   UNL A   1      41.451  23.365  28.139  1.00  0.00    -0.237 OA
ATOM     82  O   UNL A   1      39.659  23.507  26.451  1.00  0.00    -0.744 OA
ENDBRANCH  75  79
ENDBRANCH  48  72
BRANCH  60  83
ATOM     83  C   UNL A   1      44.294  27.658  34.266  1.00  0.00     0.023 A 
ATOM     84  C   UNL A   1      44.051  26.424  34.892  1.00  0.00     0.031 A 
ATOM     85  C   UNL A   1      45.621  28.122  34.217  1.00  0.00     0.131 A 
ATOM     86  C   UNL A   1      45.104  25.734  35.511  1.00  0.00     0.055 A 
ATOM     87  C   UNL A   1      46.677  27.394  34.766  1.00  0.00     0.041 A 
ATOM     88  F   UNL A   1      45.914  29.297  33.634  1.00  0.00    -0.206 F 
ATOM     89  C   UNL A   1      46.418  26.202  35.435  1.00  0.00     0.022 A 
BRANCH  86  90
ATOM     90  S   UNL A   1      44.712  24.285  36.529  1.00  0.00     0.124 S 
ATOM     91  O   UNL A   1      43.711  23.605  35.714  1.00  0.00    -0.237 OA
ATOM     92  O   UNL A   1      46.006  23.620  36.636  1.00  0.00    -0.237 OA
ATOM     93  O   UNL A   1      44.208  24.866  37.773  1.00  0.00    -0.744 OA
ENDBRANCH  86  90
ENDBRANCH  60  83
ENDBRANCH  34  35
ENDBRANCH  26  29
ENDBRANCH  24  25
ENDBRANCH   1  24
TORSDOF 17
ENDMDL
MODEL 3
REMARK VINA RESULT:     -11.6      2.279      3.824
REMARK SMILES CC[C@](C)(C(=O)NCCCNC(=O)c1ccc(-c2c3nc(c(-c4cc(S(=O)(=O)[O-])ccc4F)c4ccc([nH]4)c(-c4cc(S(=O)(=O)[O-])ccc4F)c4nc(c(-c5cc(S(=O)(=O)[O-])ccc5F)c5ccc2[nH]5)C=C4)C=C3)cc1)n1nnnc1Cc1cccc(Cl)c1
REMARK SMILES IDX 9 1 8 2 7 3 5 4 6 5 3 7 4 8 2 9 1 10 77 11 78 12 81 13 79 14
REMARK SMILES IDX 80 15 82 16 83 17 84 18 89 19 85 20 87 21 86 22 88 23 10 24
REMARK SMILES IDX 11 25 12 26 13 28 14 29 15 30 76 31 16 32 75 33 17 34 18 35
REMARK SMILES IDX 19 36 69 37 20 38 74 39 68 40 70 41 21 42 73 43 67 44 66 45
REMARK SMILES IDX 22 47 54 48 34 49 53 50 35 51 38 52 52 53 71 54 36 55 37 56
REMARK SMILES IDX 51 58 72 59 39 60 23 61 24 62 32 63 25 64 31 65 33 66 30 67
REMARK SMILES IDX 26 68 27 69 28 70 29 71 55 72 56 73 64 74 57 75 63 76 65 77
REMARK SMILES IDX 62 78 58 79 59 80 60 81 61 82 40 83 41 84 49 85 42 86 48 87
REMARK SMILES IDX 50 88 47 89 43 90 44 91 45 92 46 93
REMARK H PARENT 7 6 11 27 70 46 38 57
REMARK Flexibility Score: inf
ROOT
ATOM      1  C   UNL A   1      32.149  29.320  25.634  1.00  0.00     0.042 C 
ENDROOT
BRANCH   1   2
ATOM      2  C   UNL A   1      31.826  27.843  25.644  1.00  0.00     0.117 C 
BRANCH   2   3
ATOM      3  N   UNL A   1      30.625  27.503  24.913  1.00  0.00    -0.354 N 
ATOM      4  C   UNL A   1      30.232  26.312  24.360  1.00  0.00     0.247 C 
ATOM      5  O   UNL A   1      29.015  26.220  24.180  1.00  0.00    -0.272 OA
ATOM      6  H   UNL A   1      29.989  28.246  24.793  1.00  0.00     0.163 HD
BRANCH   4   7
ATOM      7  C   UNL A   1      31.254  25.146  24.100  1.00  0.00     0.142 C 
ATOM      8  C   UNL A   1      30.604  24.098  23.171  1.00  0.00     0.048 C 
BRANCH   7   9
ATOM      9  C   UNL A   1      32.549  25.848  23.559  1.00  0.00     0.037 C 
ATOM     10  C   UNL A   1      33.126  25.389  22.215  1.00  0.00     0.007 C 
ENDBRANCH   7   9
BRANCH   7  11
ATOM     11  N   UNL A   1      31.542  24.403  25.364  1.00  0.00    -0.214 N 
ATOM     12  N   UNL A   1      30.788  24.631  26.465  1.00  0.00    -0.044 NA
ATOM     13  C   UNL A   1      32.282  23.250  25.602  1.00  0.00     0.156 A 
ATOM     14  N   UNL A   1      31.191  23.773  27.383  1.00  0.00    -0.024 NA
ATOM     15  N   UNL A   1      32.096  22.902  26.864  1.00  0.00    -0.113 NA
BRANCH  13  16
ATOM     16  C   UNL A   1      33.069  22.433  24.637  1.00  0.00     0.114 C 
BRANCH  16  17
ATOM     17  C   UNL A   1      34.567  22.526  24.837  1.00  0.00    -0.039 A 
ATOM     18  C   UNL A   1      35.197  23.748  25.113  1.00  0.00     0.004 A 
ATOM     19  C   UNL A   1      35.360  21.373  24.741  1.00  0.00     0.024 A 
ATOM     20  C   UNL A   1      36.573  23.815  25.337  1.00  0.00     0.002 A 
ATOM     21  C   UNL A   1      36.738  21.445  24.943  1.00  0.00     0.041 A 
ATOM     22  C   UNL A   1      37.345  22.660  25.252  1.00  0.00     0.020 A 
ATOM     23  Cl  UNL A   1      37.698  20.023  24.805  1.00  0.00    -0.084 Cl
ENDBRANCH  16  17
ENDBRANCH  13  16
ENDBRANCH   7  11
ENDBRANCH   4   7
ENDBRANCH   2   3
ENDBRANCH   1   2
BRANCH   1  24
ATOM     24  C   UNL A   1      32.827  29.787  26.905  1.00  0.00     0.118 C 
BRANCH  24  25
ATOM     25  N   UNL A   1      32.896  31.241  26.994  1.00  0.00    -0.352 N 
ATOM     26  C   UNL A   1      33.818  32.052  27.612  1.00  0.00     0.251 C 
ATOM     27  H   UNL A   1      32.164  31.718  26.540  1.00  0.00     0.163 HD
ATOM     28  O   UNL A   1      33.560  33.241  27.761  1.00  0.00    -0.269 OA
BRANCH  26  29
ATOM     29  C   UNL A   1      35.089  31.487  28.114  1.00  0.00     0.039 A 
ATOM     30  C   UNL A   1      36.223  32.299  28.155  1.00  0.00     0.014 A 
ATOM     31  C   UNL A   1      35.168  30.160  28.542  1.00  0.00     0.014 A 
ATOM     32  C   UNL A   1      37.411  31.797  28.688  1.00  0.00     0.010 A 
ATOM     33  C   UNL A   1      36.309  29.704  29.189  1.00  0.00     0.010 A 
ATOM     34  C   UNL A   1      37.452  30.511  29.252  1.00  0.00    -0.014 A 
BRANCH  34  35
ATOM     35  C   UNL A   1      38.690  29.989  29.887  1.00  0.00     0.031 A 
ATOM     36  C   UNL A   1      39.111  30.485  31.245  1.00  0.00     0.074 A 
ATOM     37  C   UNL A   1      39.451  29.097  29.220  1.00  0.00     0.049 A 
ATOM     38  N   UNL A   1      40.167  30.170  31.949  1.00  0.00    -0.248 NA
ATOM     39  C   UNL A   1      38.250  31.497  31.880  1.00  0.00     0.031 C 
ATOM     40  C   UNL A   1      39.175  28.590  27.874  1.00  0.00     0.029 A 
ATOM     41  N   UNL A   1      40.608  28.456  29.583  1.00  0.00    -0.354 N 
ATOM     42  C   UNL A   1      40.098  30.941  33.104  1.00  0.00     0.074 A 
ATOM     43  C   UNL A   1      38.945  31.804  32.963  1.00  0.00     0.031 C 
ATOM     44  C   UNL A   1      40.108  27.685  27.544  1.00  0.00     0.029 A 
ATOM     45  C   UNL A   1      41.078  27.583  28.629  1.00  0.00     0.049 A 
ATOM     46  H   UNL A   1      41.059  28.605  30.444  1.00  0.00     0.167 HD
ATOM     47  C   UNL A   1      40.897  30.908  34.198  1.00  0.00     0.034 A 
ATOM     48  C   UNL A   1      42.171  26.795  28.625  1.00  0.00     0.034 A 
ATOM     49  C   UNL A   1      42.040  30.037  34.322  1.00  0.00     0.049 A 
ATOM     50  C   UNL A   1      43.061  26.792  29.844  1.00  0.00     0.074 A 
ATOM     51  C   UNL A   1      42.898  29.890  35.397  1.00  0.00     0.029 A 
ATOM     52  N   UNL A   1      42.488  29.168  33.335  1.00  0.00    -0.354 N 
ATOM     53  N   UNL A   1      42.946  27.487  30.953  1.00  0.00    -0.248 NA
ATOM     54  C   UNL A   1      44.213  25.886  29.816  1.00  0.00     0.031 C 
ATOM     55  C   UNL A   1      43.906  28.990  35.033  1.00  0.00     0.029 A 
ATOM     56  C   UNL A   1      43.628  28.506  33.764  1.00  0.00     0.049 A 
ATOM     57  H   UNL A   1      42.060  29.041  32.459  1.00  0.00     0.167 HD
ATOM     58  C   UNL A   1      43.999  27.077  31.766  1.00  0.00     0.074 A 
ATOM     59  C   UNL A   1      44.716  26.058  31.028  1.00  0.00     0.031 C 
ATOM     60  C   UNL A   1      44.343  27.503  33.010  1.00  0.00     0.034 A 
BRANCH  47  61
ATOM     61  C   UNL A   1      40.564  31.852  35.331  1.00  0.00     0.023 A 
ATOM     62  C   UNL A   1      39.529  31.574  36.242  1.00  0.00     0.031 A 
ATOM     63  C   UNL A   1      41.268  33.058  35.489  1.00  0.00     0.131 A 
ATOM     64  C   UNL A   1      39.174  32.521  37.214  1.00  0.00     0.055 A 
ATOM     65  C   UNL A   1      40.969  33.957  36.516  1.00  0.00     0.041 A 
ATOM     66  F   UNL A   1      42.250  33.393  34.638  1.00  0.00    -0.206 F 
ATOM     67  C   UNL A   1      39.906  33.698  37.376  1.00  0.00     0.022 A 
BRANCH  64  68
ATOM     68  S   UNL A   1      37.647  32.261  38.158  1.00  0.00     0.124 S 
ATOM     69  O   UNL A   1      36.722  33.162  37.475  1.00  0.00    -0.237 OA
ATOM     70  O   UNL A   1      37.400  30.835  37.975  1.00  0.00    -0.237 OA
ATOM     71  O   UNL A   1      38.010  32.664  39.514  1.00  0.00    -0.744 OA
ENDBRANCH  64  68
ENDBRANCH  47  61
BRANCH  48  72
ATOM     72  C   UNL A   1      42.495  25.953  27.437  1.00  0.00     0.023 A 
ATOM     73  C   UNL A   1      42.091  24.610  27.365  1.00  0.00     0.031 A 
ATOM     74  C   UNL A   1      43.253  26.470  26.371  1.00  0.00     0.131 A 
ATOM     75  C   UNL A   1      42.493  23.815  26.280  1.00  0.00     0.055 A 
ATOM     76  C   UNL A   1      43.598  25.692  25.264  1.00  0.00     0.041 A 
ATOM     77  F   UNL A   1      43.662  27.748  26.384  1.00  0.00    -0.206 F 
ATOM     78  C   UNL A   1      43.231  24.351  25.221  1.00  0.00     0.022 A 
BRANCH  75  79
ATOM     79  S   UNL A   1      42.123  22.040  26.318  1.00  0.00     0.124 S 
ATOM     80  O   UNL A   1      42.514  21.685  27.677  1.00  0.00    -0.237 OA
ATOM     81  O   UNL A   1      40.691  22.024  26.037  1.00  0.00    -0.237 OA
ATOM     82  O   UNL A   1      42.970  21.494  25.259  1.00  0.00    -0.744 OA
ENDBRANCH  75  79
ENDBRANCH  48  72
BRANCH  60  83
ATOM     83  C   UNL A   1      45.529  26.828  33.658  1.00  0.00     0.023 A 
ATOM     84  C   UNL A   1      45.392  25.642  34.399  1.00  0.00     0.031 A 
ATOM     85  C   UNL A   1      46.811  27.398  33.556  1.00  0.00     0.131 A 
ATOM     86  C   UNL A   1      46.501  25.107  35.072  1.00  0.00     0.055 A 
ATOM     87  C   UNL A   1      47.925  26.818  34.164  1.00  0.00     0.041 A 
ATOM     88  F   UNL A   1      47.002  28.533  32.864  1.00  0.00    -0.206 F 
ATOM     89  C   UNL A   1      47.770  25.677  34.944  1.00  0.00     0.022 A 
BRANCH  86  90
ATOM     90  S   UNL A   1      46.234  23.731  36.224  1.00  0.00     0.124 S 
ATOM     91  O   UNL A   1      44.962  23.189  35.759  1.00  0.00    -0.237 OA
ATOM     92  O   UNL A   1      47.407  22.896  35.988  1.00  0.00    -0.237 OA
ATOM     93  O   UNL A   1      46.189  24.383  37.532  1.00  0.00    -0.744 OA
ENDBRANCH  86  90
ENDBRANCH  60  83
ENDBRANCH  34  35
ENDBRANCH  26  29
ENDBRANCH  24  25
ENDBRANCH   1  24
TORSDOF 17
ENDMDL
