MODEL 1
REMARK VINA RESULT:     -10.6      0.000      0.000
REMARK SMILES O=C(NCCCNC(=O)c1ccc(-c2c3nc(c(-c4cc(S(=O)(=O)[O-])ccc4F)c4ccc([nH]4)c(-c4cc(S(=O)(=O)[O-])ccc4F)c4nc(c(-c5cc(S(=O)(=O)[O-])ccc5F)c5ccc2[nH]5)C=C4)C=C3)cc1)c1ccc(C[N@@H+]2CCC[C@H]2c2nc(-c3ccc(-c4cncnc4)nc3)no2)cc1
REMARK SMILES IDX 4 1 3 2 1 3 2 4 73 6 74 7 101 8 75 9 100 10 76 11 77 12
REMARK SMILES IDX 78 13 79 14 82 15 80 17 81 18 83 19 84 20 99 21 85 22 98 23
REMARK SMILES IDX 86 24 87 25 97 26 88 27 96 28 89 29 90 30 91 31 95 32 92 33
REMARK SMILES IDX 94 34 93 35 5 36 6 37 7 38 8 39 9 41 10 42 11 43 72 44 12 45
REMARK SMILES IDX 71 46 13 47 14 48 15 49 65 50 16 51 70 52 64 53 66 54 17 55
REMARK SMILES IDX 69 56 63 57 62 58 18 60 50 61 30 62 49 63 31 64 34 65 48 66
REMARK SMILES IDX 67 67 32 68 33 69 47 71 68 72 35 73 19 74 20 75 28 76 21 77
REMARK SMILES IDX 27 78 29 79 26 80 22 81 23 82 24 83 25 84 51 85 52 86 60 87
REMARK SMILES IDX 53 88 59 89 61 90 58 91 54 92 55 93 56 94 57 95 36 96 37 97
REMARK SMILES IDX 45 98 38 99 44 100 46 101 43 102 39 103 40 104 41 105 42 106
REMARK H PARENT 3 5 78 16 7 40 66 59 34 70
REMARK Flexibility Score: inf
ROOT
ATOM      1  C   UNL A   1      42.642  20.098  26.469  1.00  0.00     0.118 C 
ENDROOT
BRANCH   1   2
ATOM      2  N   UNL A   1      43.338  20.041  25.189  1.00  0.00    -0.352 N 
ATOM      3  O   UNL A   1      44.569  20.828  23.458  1.00  0.00    -0.269 OA
ATOM      4  C   UNL A   1      44.147  20.981  24.599  1.00  0.00     0.251 C 
ATOM      5  H   UNL A   1      43.210  19.211  24.675  1.00  0.00     0.163 HD
BRANCH   4   6
ATOM      6  C   UNL A   1      44.487  22.204  25.348  1.00  0.00     0.039 A 
ATOM      7  C   UNL A   1      43.584  23.268  25.411  1.00  0.00     0.014 A 
ATOM      8  C   UNL A   1      45.735  22.294  25.964  1.00  0.00     0.014 A 
ATOM      9  C   UNL A   1      43.981  24.471  25.991  1.00  0.00     0.010 A 
ATOM     10  C   UNL A   1      46.125  23.500  26.547  1.00  0.00     0.010 A 
ATOM     11  C   UNL A   1      45.275  24.618  26.517  1.00  0.00     0.006 A 
BRANCH  11  12
ATOM     12  C   UNL A   1      45.752  25.971  27.009  1.00  0.00     0.299 C 
BRANCH  12  13
ATOM     13  N   UNL A   1      45.646  27.104  26.079  1.00  0.00    -0.321 N 
ATOM     14  C   UNL A   1      46.150  26.868  24.727  1.00  0.00     0.263 C 
ATOM     15  C   UNL A   1      46.259  28.361  26.550  1.00  0.00     0.275 C 
ATOM     16  H   UNL A   1      44.631  27.201  26.045  1.00  0.00     0.349 HD
ATOM     17  C   UNL A   1      47.546  27.462  24.683  1.00  0.00     0.068 C 
ATOM     18  C   UNL A   1      47.520  28.585  25.706  1.00  0.00     0.081 C 
BRANCH  15  19
ATOM     19  C   UNL A   1      45.334  29.542  26.426  1.00  0.00     0.285 A 
ATOM     20  N   UNL A   1      45.564  30.840  26.460  1.00  0.00    -0.186 NA
ATOM     21  O   UNL A   1      44.005  29.235  26.389  1.00  0.00    -0.332 OA
ATOM     22  C   UNL A   1      44.290  31.361  26.504  1.00  0.00     0.204 A 
ATOM     23  N   UNL A   1      43.316  30.440  26.445  1.00  0.00    -0.057 NA
BRANCH  22  24
ATOM     24  C   UNL A   1      44.012  32.772  26.657  1.00  0.00     0.041 A 
ATOM     25  C   UNL A   1      43.783  33.583  25.543  1.00  0.00     0.016 A 
ATOM     26  C   UNL A   1      44.000  33.382  27.902  1.00  0.00     0.123 A 
ATOM     27  C   UNL A   1      43.561  34.948  25.712  1.00  0.00     0.030 A 
ATOM     28  N   UNL A   1      43.825  34.719  28.093  1.00  0.00    -0.255 NA
ATOM     29  C   UNL A   1      43.600  35.488  26.996  1.00  0.00     0.073 A 
BRANCH  29  30
ATOM     30  C   UNL A   1      43.458  36.921  27.233  1.00  0.00     0.037 A 
ATOM     31  C   UNL A   1      44.453  37.712  27.780  1.00  0.00     0.124 A 
ATOM     32  C   UNL A   1      42.286  37.606  26.960  1.00  0.00     0.124 A 
ATOM     33  N   UNL A   1      44.318  39.029  28.054  1.00  0.00    -0.244 NA
ATOM     34  N   UNL A   1      42.083  38.919  27.216  1.00  0.00    -0.244 NA
ATOM     35  C   UNL A   1      43.125  39.565  27.761  1.00  0.00     0.221 A 
ENDBRANCH  29  30
ENDBRANCH  22  24
ENDBRANCH  15  19
ENDBRANCH  12  13
ENDBRANCH  11  12
ENDBRANCH   4   6
ENDBRANCH   1   2
BRANCH   1  36
ATOM     36  C   UNL A   1      41.154  20.400  26.321  1.00  0.00     0.042 C 
BRANCH  36  37
ATOM     37  C   UNL A   1      40.762  21.830  26.679  1.00  0.00     0.118 C 
BRANCH  37  38
ATOM     38  N   UNL A   1      39.531  22.261  26.027  1.00  0.00    -0.352 N 
ATOM     39  C   UNL A   1      38.821  23.433  26.132  1.00  0.00     0.251 C 
ATOM     40  H   UNL A   1      39.144  21.601  25.408  1.00  0.00     0.163 HD
ATOM     41  O   UNL A   1      37.708  23.500  25.616  1.00  0.00    -0.269 OA
BRANCH  39  42
ATOM     42  C   UNL A   1      39.363  24.591  26.879  1.00  0.00     0.039 A 
ATOM     43  C   UNL A   1      40.072  25.573  26.178  1.00  0.00     0.014 A 
ATOM     44  C   UNL A   1      39.200  24.709  28.261  1.00  0.00     0.014 A 
ATOM     45  C   UNL A   1      40.531  26.713  26.844  1.00  0.00     0.010 A 
ATOM     46  C   UNL A   1      39.595  25.878  28.910  1.00  0.00     0.010 A 
ATOM     47  C   UNL A   1      40.250  26.900  28.207  1.00  0.00    -0.014 A 
BRANCH  47  48
ATOM     48  C   UNL A   1      40.605  28.160  28.914  1.00  0.00     0.031 A 
ATOM     49  C   UNL A   1      42.011  28.387  29.397  1.00  0.00     0.074 A 
ATOM     50  C   UNL A   1      39.641  29.059  29.197  1.00  0.00     0.049 A 
ATOM     51  N   UNL A   1      42.480  29.337  30.165  1.00  0.00    -0.248 NA
ATOM     52  C   UNL A   1      43.016  27.398  28.979  1.00  0.00     0.031 C 
ATOM     53  C   UNL A   1      38.236  28.948  28.796  1.00  0.00     0.029 A 
ATOM     54  N   UNL A   1      39.689  30.234  29.906  1.00  0.00    -0.354 N 
ATOM     55  C   UNL A   1      43.832  29.058  30.332  1.00  0.00     0.074 A 
ATOM     56  C   UNL A   1      44.092  27.819  29.627  1.00  0.00     0.031 C 
ATOM     57  C   UNL A   1      37.562  30.016  29.253  1.00  0.00     0.029 A 
ATOM     58  C   UNL A   1      38.469  30.858  30.028  1.00  0.00     0.049 A 
ATOM     59  H   UNL A   1      40.520  30.598  30.290  1.00  0.00     0.167 HD
ATOM     60  C   UNL A   1      44.773  29.777  30.994  1.00  0.00     0.034 A 
ATOM     61  C   UNL A   1      38.112  31.965  30.710  1.00  0.00     0.034 A 
ATOM     62  C   UNL A   1      44.503  31.014  31.684  1.00  0.00     0.049 A 
ATOM     63  C   UNL A   1      39.161  32.709  31.496  1.00  0.00     0.074 A 
ATOM     64  C   UNL A   1      45.390  31.841  32.353  1.00  0.00     0.029 A 
ATOM     65  N   UNL A   1      43.250  31.601  31.803  1.00  0.00    -0.354 N 
ATOM     66  N   UNL A   1      40.439  32.439  31.629  1.00  0.00    -0.248 NA
ATOM     67  C   UNL A   1      38.719  33.903  32.229  1.00  0.00     0.031 C 
ATOM     68  C   UNL A   1      44.667  32.895  32.922  1.00  0.00     0.029 A 
ATOM     69  C   UNL A   1      43.337  32.762  32.556  1.00  0.00     0.049 A 
ATOM     70  H   UNL A   1      42.421  31.245  31.408  1.00  0.00     0.167 HD
ATOM     71  C   UNL A   1      40.956  33.449  32.435  1.00  0.00     0.074 A 
ATOM     72  C   UNL A   1      39.857  34.335  32.751  1.00  0.00     0.031 C 
ATOM     73  C   UNL A   1      42.229  33.630  32.871  1.00  0.00     0.034 A 
BRANCH  60  74
ATOM     74  C   UNL A   1      46.177  29.226  31.016  1.00  0.00     0.023 A 
ATOM     75  C   UNL A   1      47.166  29.701  30.139  1.00  0.00     0.031 A 
ATOM     76  C   UNL A   1      46.528  28.200  31.912  1.00  0.00     0.131 A 
ATOM     77  C   UNL A   1      48.436  29.107  30.126  1.00  0.00     0.055 A 
ATOM     78  C   UNL A   1      47.817  27.666  31.948  1.00  0.00     0.041 A 
ATOM     79  F   UNL A   1      45.620  27.694  32.762  1.00  0.00    -0.206 F 
ATOM     80  C   UNL A   1      48.777  28.108  31.041  1.00  0.00     0.022 A 
BRANCH  77  81
ATOM     81  S   UNL A   1      49.595  29.568  28.810  1.00  0.00     0.124 S 
ATOM     82  O   UNL A   1      49.784  28.291  28.125  1.00  0.00    -0.237 OA
ATOM     83  O   UNL A   1      48.849  30.582  28.075  1.00  0.00    -0.237 OA
ATOM     84  O   UNL A   1      50.764  30.056  29.538  1.00  0.00    -0.744 OA
ENDBRANCH  77  81
ENDBRANCH  60  74
BRANCH  61  85
ATOM     85  C   UNL A   1      36.695  32.429  30.717  1.00  0.00     0.023 A 
ATOM     86  C   UNL A   1      36.146  33.076  29.599  1.00  0.00     0.031 A 
ATOM     87  C   UNL A   1      35.887  32.286  31.859  1.00  0.00     0.131 A 
ATOM     88  C   UNL A   1      34.847  33.602  29.664  1.00  0.00     0.055 A 
ATOM     89  C   UNL A   1      34.577  32.764  31.901  1.00  0.00     0.041 A 
ATOM     90  F   UNL A   1      36.363  31.671  32.954  1.00  0.00    -0.206 F 
ATOM     91  C   UNL A   1      34.055  33.441  30.803  1.00  0.00     0.022 A 
BRANCH  88  92
ATOM     92  S   UNL A   1      34.241  34.589  28.268  1.00  0.00     0.124 S 
ATOM     93  O   UNL A   1      35.249  34.316  27.251  1.00  0.00    -0.237 OA
ATOM     94  O   UNL A   1      32.922  34.007  28.040  1.00  0.00    -0.237 OA
ATOM     95  O   UNL A   1      34.237  35.952  28.794  1.00  0.00    -0.744 OA
ENDBRANCH  88  92
ENDBRANCH  61  85
BRANCH  73  96
ATOM     96  C   UNL A   1      42.497  34.858  33.700  1.00  0.00     0.023 A 
ATOM     97  C   UNL A   1      42.873  36.078  33.111  1.00  0.00     0.031 A 
ATOM     98  C   UNL A   1      42.379  34.804  35.100  1.00  0.00     0.131 A 
ATOM     99  C   UNL A   1      43.159  37.186  33.924  1.00  0.00     0.055 A 
ATOM    100  C   UNL A   1      42.616  35.923  35.900  1.00  0.00     0.041 A 
ATOM    101  F   UNL A   1      42.024  33.663  35.711  1.00  0.00    -0.206 F 
ATOM    102  C   UNL A   1      43.017  37.119  35.313  1.00  0.00     0.022 A 
BRANCH  99 103
ATOM    103  S   UNL A   1      43.776  38.703  33.145  1.00  0.00     0.124 S 
ATOM    104  O   UNL A   1      42.653  39.618  33.332  1.00  0.00    -0.237 OA
ATOM    105  O   UNL A   1      44.972  38.994  33.928  1.00  0.00    -0.237 OA
ATOM    106  O   UNL A   1      44.025  38.301  31.762  1.00  0.00    -0.744 OA
ENDBRANCH  99 103
ENDBRANCH  73  96
ENDBRANCH  47  48
ENDBRANCH  39  42
ENDBRANCH  37  38
ENDBRANCH  36  37
ENDBRANCH   1  36
TORSDOF 18
ENDMDL
MODEL 2
REMARK VINA RESULT:     -10.5      5.096     11.673
REMARK SMILES O=C(NCCCNC(=O)c1ccc(-c2c3nc(c(-c4cc(S(=O)(=O)[O-])ccc4F)c4ccc([nH]4)c(-c4cc(S(=O)(=O)[O-])ccc4F)c4nc(c(-c5cc(S(=O)(=O)[O-])ccc5F)c5ccc2[nH]5)C=C4)C=C3)cc1)c1ccc(C[N@@H+]2CCC[C@H]2c2nc(-c3ccc(-c4cncnc4)nc3)no2)cc1
REMARK SMILES IDX 4 1 3 2 1 3 2 4 73 6 74 7 101 8 75 9 100 10 76 11 77 12
REMARK SMILES IDX 78 13 79 14 82 15 80 17 81 18 83 19 84 20 99 21 85 22 98 23
REMARK SMILES IDX 86 24 87 25 97 26 88 27 96 28 89 29 90 30 91 31 95 32 92 33
REMARK SMILES IDX 94 34 93 35 5 36 6 37 7 38 8 39 9 41 10 42 11 43 72 44 12 45
REMARK SMILES IDX 71 46 13 47 14 48 15 49 65 50 16 51 70 52 64 53 66 54 17 55
REMARK SMILES IDX 69 56 63 57 62 58 18 60 50 61 30 62 49 63 31 64 34 65 48 66
REMARK SMILES IDX 67 67 32 68 33 69 47 71 68 72 35 73 19 74 20 75 28 76 21 77
REMARK SMILES IDX 27 78 29 79 26 80 22 81 23 82 24 83 25 84 51 85 52 86 60 87
REMARK SMILES IDX 53 88 59 89 61 90 58 91 54 92 55 93 56 94 57 95 36 96 37 97
REMARK SMILES IDX 45 98 38 99 44 100 46 101 43 102 39 103 40 104 41 105 42 106
REMARK H PARENT 3 5 78 16 7 40 66 59 34 70
REMARK Flexibility Score: inf
ROOT
ATOM      1  C   UNL A   1      35.025  32.277  30.984  1.00  0.00     0.118 C 
ENDROOT
BRANCH   1   2
ATOM      2  N   UNL A   1      35.992  32.649  29.958  1.00  0.00    -0.352 N 
ATOM      3  O   UNL A   1      37.072  32.503  27.973  1.00  0.00    -0.269 OA
ATOM      4  C   UNL A   1      36.128  32.167  28.679  1.00  0.00     0.251 C 
ATOM      5  H   UNL A   1      36.638  33.344  30.220  1.00  0.00     0.163 HD
BRANCH   4   6
ATOM      6  C   UNL A   1      35.132  31.210  28.166  1.00  0.00     0.039 A 
ATOM      7  C   UNL A   1      35.481  29.875  27.948  1.00  0.00     0.014 A 
ATOM      8  C   UNL A   1      33.847  31.665  27.870  1.00  0.00     0.014 A 
ATOM      9  C   UNL A   1      34.577  29.022  27.320  1.00  0.00     0.010 A 
ATOM     10  C   UNL A   1      32.944  30.805  27.245  1.00  0.00     0.010 A 
ATOM     11  C   UNL A   1      33.317  29.492  26.912  1.00  0.00     0.006 A 
BRANCH  11  12
ATOM     12  C   UNL A   1      32.396  28.605  26.097  1.00  0.00     0.299 C 
BRANCH  12  13
ATOM     13  N   UNL A   1      32.976  27.916  24.935  1.00  0.00    -0.321 N 
ATOM     14  C   UNL A   1      33.488  28.780  23.871  1.00  0.00     0.263 C 
ATOM     15  C   UNL A   1      32.095  26.923  24.291  1.00  0.00     0.275 C 
ATOM     16  H   UNL A   1      33.760  27.447  25.390  1.00  0.00     0.349 HD
ATOM     17  C   UNL A   1      32.404  28.837  22.811  1.00  0.00     0.068 C 
ATOM     18  C   UNL A   1      31.664  27.517  22.944  1.00  0.00     0.081 C 
BRANCH  15  19
ATOM     19  C   UNL A   1      32.771  25.595  24.080  1.00  0.00     0.285 A 
ATOM     20  N   UNL A   1      32.305  24.361  24.110  1.00  0.00    -0.186 NA
ATOM     21  O   UNL A   1      34.129  25.651  23.950  1.00  0.00    -0.332 OA
ATOM     22  C   UNL A   1      33.459  23.613  24.051  1.00  0.00     0.204 A 
ATOM     23  N   UNL A   1      34.582  24.338  23.935  1.00  0.00    -0.057 NA
BRANCH  22  24
ATOM     24  C   UNL A   1      33.478  22.170  24.161  1.00  0.00     0.041 A 
ATOM     25  C   UNL A   1      32.395  21.404  23.728  1.00  0.00     0.016 A 
ATOM     26  C   UNL A   1      34.547  21.496  24.732  1.00  0.00     0.123 A 
ATOM     27  C   UNL A   1      32.416  20.019  23.884  1.00  0.00     0.030 A 
ATOM     28  N   UNL A   1      34.579  20.150  24.933  1.00  0.00    -0.255 NA
ATOM     29  C   UNL A   1      33.515  19.423  24.501  1.00  0.00     0.073 A 
BRANCH  29  30
ATOM     30  C   UNL A   1      33.563  17.990  24.768  1.00  0.00     0.037 A 
ATOM     31  C   UNL A   1      34.653  17.190  24.477  1.00  0.00     0.124 A 
ATOM     32  C   UNL A   1      32.490  17.299  25.307  1.00  0.00     0.124 A 
ATOM     33  N   UNL A   1      34.693  15.852  24.670  1.00  0.00    -0.244 NA
ATOM     34  N   UNL A   1      32.462  15.962  25.517  1.00  0.00    -0.244 NA
ATOM     35  C   UNL A   1      33.581  15.304  25.178  1.00  0.00     0.221 A 
ENDBRANCH  29  30
ENDBRANCH  22  24
ENDBRANCH  15  19
ENDBRANCH  12  13
ENDBRANCH  11  12
ENDBRANCH   4   6
ENDBRANCH   1   2
BRANCH   1  36
ATOM     36  C   UNL A   1      35.340  32.889  32.346  1.00  0.00     0.042 C 
BRANCH  36  37
ATOM     37  C   UNL A   1      36.621  32.369  32.990  1.00  0.00     0.118 C 
BRANCH  37  38
ATOM     38  N   UNL A   1      36.615  30.923  33.180  1.00  0.00    -0.352 N 
ATOM     39  C   UNL A   1      37.456  29.949  32.698  1.00  0.00     0.251 C 
ATOM     40  H   UNL A   1      35.885  30.590  33.750  1.00  0.00     0.163 HD
ATOM     41  O   UNL A   1      37.146  28.770  32.849  1.00  0.00    -0.269 OA
BRANCH  39  42
ATOM     42  C   UNL A   1      38.702  30.303  31.979  1.00  0.00     0.039 A 
ATOM     43  C   UNL A   1      38.678  30.367  30.581  1.00  0.00     0.014 A 
ATOM     44  C   UNL A   1      39.894  30.548  32.663  1.00  0.00     0.014 A 
ATOM     45  C   UNL A   1      39.818  30.770  29.880  1.00  0.00     0.010 A 
ATOM     46  C   UNL A   1      41.009  31.017  31.970  1.00  0.00     0.010 A 
ATOM     47  C   UNL A   1      40.979  31.150  30.573  1.00  0.00    -0.014 A 
BRANCH  47  48
ATOM     48  C   UNL A   1      42.164  31.711  29.868  1.00  0.00     0.031 A 
ATOM     49  C   UNL A   1      43.297  30.811  29.461  1.00  0.00     0.074 A 
ATOM     50  C   UNL A   1      42.255  33.042  29.675  1.00  0.00     0.049 A 
ATOM     51  N   UNL A   1      44.476  31.127  28.986  1.00  0.00    -0.248 NA
ATOM     52  C   UNL A   1      43.085  29.367  29.636  1.00  0.00     0.031 C 
ATOM     53  C   UNL A   1      41.228  34.022  30.038  1.00  0.00     0.029 A 
ATOM     54  N   UNL A   1      43.265  33.805  29.144  1.00  0.00    -0.354 N 
ATOM     55  C   UNL A   1      45.150  29.924  28.813  1.00  0.00     0.074 A 
ATOM     56  C   UNL A   1      44.266  28.878  29.285  1.00  0.00     0.031 C 
ATOM     57  C   UNL A   1      41.656  35.251  29.707  1.00  0.00     0.029 A 
ATOM     58  C   UNL A   1      43.008  35.157  29.164  1.00  0.00     0.049 A 
ATOM     59  H   UNL A   1      44.097  33.421  28.782  1.00  0.00     0.167 HD
ATOM     60  C   UNL A   1      46.384  29.709  28.290  1.00  0.00     0.034 A 
ATOM     61  C   UNL A   1      43.781  36.203  28.814  1.00  0.00     0.034 A 
ATOM     62  C   UNL A   1      47.251  30.758  27.814  1.00  0.00     0.049 A 
ATOM     63  C   UNL A   1      45.175  35.944  28.301  1.00  0.00     0.074 A 
ATOM     64  C   UNL A   1      48.502  30.646  27.232  1.00  0.00     0.029 A 
ATOM     65  N   UNL A   1      46.963  32.115  27.872  1.00  0.00    -0.354 N 
ATOM     66  N   UNL A   1      45.790  34.797  28.128  1.00  0.00    -0.248 NA
ATOM     67  C   UNL A   1      45.980  37.119  27.941  1.00  0.00     0.031 C 
ATOM     68  C   UNL A   1      48.993  31.933  26.990  1.00  0.00     0.029 A 
ATOM     69  C   UNL A   1      48.023  32.849  27.363  1.00  0.00     0.049 A 
ATOM     70  H   UNL A   1      46.126  32.499  28.223  1.00  0.00     0.167 HD
ATOM     71  C   UNL A   1      47.043  35.115  27.611  1.00  0.00     0.074 A 
ATOM     72  C   UNL A   1      47.092  36.556  27.493  1.00  0.00     0.031 C 
ATOM     73  C   UNL A   1      48.060  34.288  27.261  1.00  0.00     0.034 A 
BRANCH  60  74
ATOM     74  C   UNL A   1      46.870  28.282  28.228  1.00  0.00     0.023 A 
ATOM     75  C   UNL A   1      46.572  27.451  27.135  1.00  0.00     0.031 A 
ATOM     76  C   UNL A   1      47.627  27.738  29.282  1.00  0.00     0.131 A 
ATOM     77  C   UNL A   1      46.965  26.106  27.149  1.00  0.00     0.055 A 
ATOM     78  C   UNL A   1      48.082  26.418  29.254  1.00  0.00     0.041 A 
ATOM     79  F   UNL A   1      47.927  28.478  30.360  1.00  0.00    -0.206 F 
ATOM     80  C   UNL A   1      47.739  25.589  28.190  1.00  0.00     0.022 A 
BRANCH  77  81
ATOM     81  S   UNL A   1      46.339  25.007  25.849  1.00  0.00     0.124 S 
ATOM     82  O   UNL A   1      46.801  23.703  26.319  1.00  0.00    -0.237 OA
ATOM     83  O   UNL A   1      44.900  25.234  25.910  1.00  0.00    -0.237 OA
ATOM     84  O   UNL A   1      46.998  25.496  24.641  1.00  0.00    -0.744 OA
ENDBRANCH  77  81
ENDBRANCH  60  74
BRANCH  61  85
ATOM     85  C   UNL A   1      43.281  37.601  28.963  1.00  0.00     0.023 A 
ATOM     86  C   UNL A   1      42.541  38.211  27.939  1.00  0.00     0.031 A 
ATOM     87  C   UNL A   1      43.587  38.366  30.102  1.00  0.00     0.131 A 
ATOM     88  C   UNL A   1      42.173  39.560  28.051  1.00  0.00     0.055 A 
ATOM     89  C   UNL A   1      43.173  39.693  30.232  1.00  0.00     0.041 A 
ATOM     90  F   UNL A   1      44.290  37.829  31.112  1.00  0.00    -0.206 F 
ATOM     91  C   UNL A   1      42.474  40.302  29.195  1.00  0.00     0.022 A 
BRANCH  88  92
ATOM     92  S   UNL A   1      41.377  40.362  26.632  1.00  0.00     0.124 S 
ATOM     93  O   UNL A   1      40.413  41.239  27.288  1.00  0.00    -0.237 OA
ATOM     94  O   UNL A   1      42.508  41.018  25.985  1.00  0.00    -0.237 OA
ATOM     95  O   UNL A   1      40.799  39.243  25.891  1.00  0.00    -0.744 OA
ENDBRANCH  88  92
ENDBRANCH  61  85
BRANCH  73  96
ATOM     96  C   UNL A   1      49.291  34.930  26.677  1.00  0.00     0.023 A 
ATOM     97  C   UNL A   1      50.411  35.234  27.469  1.00  0.00     0.031 A 
ATOM     98  C   UNL A   1      49.340  35.245  25.307  1.00  0.00     0.131 A 
ATOM     99  C   UNL A   1      51.519  35.875  26.894  1.00  0.00     0.055 A 
ATOM    100  C   UNL A   1      50.464  35.837  24.731  1.00  0.00     0.041 A 
ATOM    101  F   UNL A   1      48.297  34.977  24.507  1.00  0.00    -0.206 F 
ATOM    102  C   UNL A   1      51.558  36.164  25.527  1.00  0.00     0.022 A 
BRANCH  99 103
ATOM    103  S   UNL A   1      52.889  36.381  27.969  1.00  0.00     0.124 S 
ATOM    104  O   UNL A   1      53.421  35.094  28.408  1.00  0.00    -0.237 OA
ATOM    105  O   UNL A   1      53.737  37.144  27.060  1.00  0.00    -0.237 OA
ATOM    106  O   UNL A   1      52.234  37.169  29.012  1.00  0.00    -0.744 OA
ENDBRANCH  99 103
ENDBRANCH  73  96
ENDBRANCH  47  48
ENDBRANCH  39  42
ENDBRANCH  37  38
ENDBRANCH  36  37
ENDBRANCH   1  36
TORSDOF 18
ENDMDL
MODEL 3
REMARK VINA RESULT:     -10.2      7.802     13.326
REMARK SMILES O=C(NCCCNC(=O)c1ccc(-c2c3nc(c(-c4cc(S(=O)(=O)[O-])ccc4F)c4ccc([nH]4)c(-c4cc(S(=O)(=O)[O-])ccc4F)c4nc(c(-c5cc(S(=O)(=O)[O-])ccc5F)c5ccc2[nH]5)C=C4)C=C3)cc1)c1ccc(C[N@@H+]2CCC[C@H]2c2nc(-c3ccc(-c4cncnc4)nc3)no2)cc1
REMARK SMILES IDX 4 1 3 2 1 3 2 4 73 6 74 7 101 8 75 9 100 10 76 11 77 12
REMARK SMILES IDX 78 13 79 14 82 15 80 17 81 18 83 19 84 20 99 21 85 22 98 23
REMARK SMILES IDX 86 24 87 25 97 26 88 27 96 28 89 29 90 30 91 31 95 32 92 33
REMARK SMILES IDX 94 34 93 35 5 36 6 37 7 38 8 39 9 41 10 42 11 43 72 44 12 45
REMARK SMILES IDX 71 46 13 47 14 48 15 49 65 50 16 51 70 52 64 53 66 54 17 55
REMARK SMILES IDX 69 56 63 57 62 58 18 60 50 61 30 62 49 63 31 64 34 65 48 66
REMARK SMILES IDX 67 67 32 68 33 69 47 71 68 72 35 73 19 74 20 75 28 76 21 77
REMARK SMILES IDX 27 78 29 79 26 80 22 81 23 82 24 83 25 84 51 85 52 86 60 87
REMARK SMILES IDX 53 88 59 89 61 90 58 91 54 92 55 93 56 94 57 95 36 96 37 97
REMARK SMILES IDX 45 98 38 99 44 100 46 101 43 102 39 103 40 104 41 105 42 106
REMARK H PARENT 3 5 78 16 7 40 66 59 34 70
REMARK Flexibility Score: inf
ROOT
ATOM      1  C   UNL A   1      45.776  28.059  38.712  1.00  0.00     0.118 C 
ENDROOT
BRANCH   1   2
ATOM      2  N   UNL A   1      45.142  27.408  39.852  1.00  0.00    -0.352 N 
ATOM      3  O   UNL A   1      44.310  25.681  41.058  1.00  0.00    -0.269 OA
ATOM      4  C   UNL A   1      44.972  26.068  40.101  1.00  0.00     0.251 C 
ATOM      5  H   UNL A   1      44.786  28.016  40.540  1.00  0.00     0.163 HD
BRANCH   4   6
ATOM      6  C   UNL A   1      45.576  25.087  39.182  1.00  0.00     0.039 A 
ATOM      7  C   UNL A   1      46.937  24.786  39.267  1.00  0.00     0.014 A 
ATOM      8  C   UNL A   1      44.775  24.492  38.209  1.00  0.00     0.014 A 
ATOM      9  C   UNL A   1      47.522  23.975  38.296  1.00  0.00     0.010 A 
ATOM     10  C   UNL A   1      45.365  23.678  37.241  1.00  0.00     0.010 A 
ATOM     11  C   UNL A   1      46.753  23.456  37.241  1.00  0.00     0.006 A 
BRANCH  11  12
ATOM     12  C   UNL A   1      47.419  22.702  36.107  1.00  0.00     0.299 C 
BRANCH  12  13
ATOM     13  N   UNL A   1      47.607  21.254  36.277  1.00  0.00    -0.321 N 
ATOM     14  C   UNL A   1      48.621  20.637  35.421  1.00  0.00     0.263 C 
ATOM     15  C   UNL A   1      46.382  20.442  36.140  1.00  0.00     0.275 C 
ATOM     16  H   UNL A   1      47.932  21.237  37.244  1.00  0.00     0.349 HD
ATOM     17  C   UNL A   1      47.873  20.013  34.258  1.00  0.00     0.068 C 
ATOM     18  C   UNL A   1      46.500  19.677  34.816  1.00  0.00     0.081 C 
BRANCH  15  19
ATOM     19  C   UNL A   1      46.191  19.480  37.281  1.00  0.00     0.285 A 
ATOM     20  N   UNL A   1      45.315  18.512  37.472  1.00  0.00    -0.186 NA
ATOM     21  O   UNL A   1      46.981  19.710  38.371  1.00  0.00    -0.332 OA
ATOM     22  C   UNL A   1      45.546  18.166  38.785  1.00  0.00     0.204 A 
ATOM     23  N   UNL A   1      46.548  18.842  39.366  1.00  0.00    -0.057 NA
BRANCH  22  24
ATOM     24  C   UNL A   1      44.746  17.198  39.504  1.00  0.00     0.041 A 
ATOM     25  C   UNL A   1      43.751  16.466  38.855  1.00  0.00     0.016 A 
ATOM     26  C   UNL A   1      44.906  16.987  40.865  1.00  0.00     0.123 A 
ATOM     27  C   UNL A   1      42.963  15.571  39.577  1.00  0.00     0.030 A 
ATOM     28  N   UNL A   1      44.126  16.150  41.603  1.00  0.00    -0.255 NA
ATOM     29  C   UNL A   1      43.166  15.445  40.951  1.00  0.00     0.073 A 
BRANCH  29  30
ATOM     30  C   UNL A   1      42.322  14.589  41.776  1.00  0.00     0.037 A 
ATOM     31  C   UNL A   1      41.827  14.962  43.013  1.00  0.00     0.124 A 
ATOM     32  C   UNL A   1      41.975  13.302  41.401  1.00  0.00     0.124 A 
ATOM     33  N   UNL A   1      41.087  14.161  43.814  1.00  0.00    -0.244 NA
ATOM     34  N   UNL A   1      41.247  12.448  42.157  1.00  0.00    -0.244 NA
ATOM     35  C   UNL A   1      40.841  12.932  43.340  1.00  0.00     0.221 A 
ENDBRANCH  29  30
ENDBRANCH  22  24
ENDBRANCH  15  19
ENDBRANCH  12  13
ENDBRANCH  11  12
ENDBRANCH   4   6
ENDBRANCH   1   2
BRANCH   1  36
ATOM     36  C   UNL A   1      47.165  28.600  39.035  1.00  0.00     0.042 C 
BRANCH  36  37
ATOM     37  C   UNL A   1      47.960  29.063  37.818  1.00  0.00     0.118 C 
BRANCH  37  38
ATOM     38  N   UNL A   1      48.733  27.990  37.203  1.00  0.00    -0.352 N 
ATOM     39  C   UNL A   1      48.447  27.177  36.131  1.00  0.00     0.251 C 
ATOM     40  H   UNL A   1      49.605  27.819  37.627  1.00  0.00     0.163 HD
ATOM     41  O   UNL A   1      49.180  26.217  35.905  1.00  0.00    -0.269 OA
BRANCH  39  42
ATOM     42  C   UNL A   1      47.263  27.425  35.278  1.00  0.00     0.039 A 
ATOM     43  C   UNL A   1      46.166  26.562  35.380  1.00  0.00     0.014 A 
ATOM     44  C   UNL A   1      47.231  28.481  34.365  1.00  0.00     0.014 A 
ATOM     45  C   UNL A   1      45.007  26.814  34.641  1.00  0.00     0.010 A 
ATOM     46  C   UNL A   1      46.051  28.773  33.682  1.00  0.00     0.010 A 
ATOM     47  C   UNL A   1      44.920  27.953  33.824  1.00  0.00    -0.014 A 
BRANCH  47  48
ATOM     48  C   UNL A   1      43.658  28.326  33.131  1.00  0.00     0.031 A 
ATOM     49  C   UNL A   1      43.432  27.918  31.701  1.00  0.00     0.074 A 
ATOM     50  C   UNL A   1      42.757  29.105  33.761  1.00  0.00     0.049 A 
ATOM     51  N   UNL A   1      42.479  28.276  30.878  1.00  0.00    -0.248 NA
ATOM     52  C   UNL A   1      44.424  27.005  31.114  1.00  0.00     0.031 C 
ATOM     53  C   UNL A   1      42.866  29.579  35.143  1.00  0.00     0.029 A 
ATOM     54  N   UNL A   1      41.579  29.654  33.318  1.00  0.00    -0.354 N 
ATOM     55  C   UNL A   1      42.760  27.642  29.673  1.00  0.00     0.074 A 
ATOM     56  C   UNL A   1      44.002  26.921  29.861  1.00  0.00     0.031 C 
ATOM     57  C   UNL A   1      41.795  30.334  35.436  1.00  0.00     0.029 A 
ATOM     58  C   UNL A   1      40.952  30.449  34.250  1.00  0.00     0.049 A 
ATOM     59  H   UNL A   1      41.215  29.493  32.417  1.00  0.00     0.167 HD
ATOM     60  C   UNL A   1      42.039  27.645  28.523  1.00  0.00     0.034 A 
ATOM     61  C   UNL A   1      39.842  31.207  34.154  1.00  0.00     0.034 A 
ATOM     62  C   UNL A   1      40.799  28.360  28.352  1.00  0.00     0.049 A 
ATOM     63  C   UNL A   1      39.096  31.250  32.845  1.00  0.00     0.074 A 
ATOM     64  C   UNL A   1      39.971  28.398  27.243  1.00  0.00     0.029 A 
ATOM     65  N   UNL A   1      40.209  29.170  29.313  1.00  0.00    -0.354 N 
ATOM     66  N   UNL A   1      39.367  30.630  31.720  1.00  0.00    -0.248 NA
ATOM     67  C   UNL A   1      37.898  32.098  32.791  1.00  0.00     0.031 C 
ATOM     68  C   UNL A   1      38.913  29.274  27.512  1.00  0.00     0.029 A 
ATOM     69  C   UNL A   1      39.046  29.734  28.812  1.00  0.00     0.049 A 
ATOM     70  H   UNL A   1      40.566  29.322  30.218  1.00  0.00     0.167 HD
ATOM     71  C   UNL A   1      38.355  30.991  30.836  1.00  0.00     0.074 A 
ATOM     72  C   UNL A   1      37.465  31.874  31.559  1.00  0.00     0.031 C 
ATOM     73  C   UNL A   1      38.175  30.622  29.543  1.00  0.00     0.034 A 
BRANCH  60  74
ATOM     74  C   UNL A   1      42.593  26.863  27.358  1.00  0.00     0.023 A 
ATOM     75  C   UNL A   1      42.298  25.501  27.181  1.00  0.00     0.031 A 
ATOM     76  C   UNL A   1      43.440  27.482  26.420  1.00  0.00     0.131 A 
ATOM     77  C   UNL A   1      42.899  24.783  26.137  1.00  0.00     0.055 A 
ATOM     78  C   UNL A   1      43.973  26.780  25.337  1.00  0.00     0.041 A 
ATOM     79  F   UNL A   1      43.771  28.776  26.548  1.00  0.00    -0.206 F 
ATOM     80  C   UNL A   1      43.716  25.419  25.199  1.00  0.00     0.022 A 
BRANCH  77  81
ATOM     81  S   UNL A   1      42.701  22.982  26.098  1.00  0.00     0.124 S 
ATOM     82  O   UNL A   1      41.328  22.827  26.576  1.00  0.00    -0.237 OA
ATOM     83  O   UNL A   1      42.926  22.670  24.692  1.00  0.00    -0.237 OA
ATOM     84  O   UNL A   1      43.731  22.504  27.017  1.00  0.00    -0.744 OA
ENDBRANCH  77  81
ENDBRANCH  60  74
BRANCH  61  85
ATOM     85  C   UNL A   1      39.375  32.020  35.315  1.00  0.00     0.023 A 
ATOM     86  C   UNL A   1      39.777  33.357  35.462  1.00  0.00     0.031 A 
ATOM     87  C   UNL A   1      38.572  31.458  36.322  1.00  0.00     0.131 A 
ATOM     88  C   UNL A   1      39.417  34.072  36.614  1.00  0.00     0.055 A 
ATOM     89  C   UNL A   1      38.173  32.189  37.442  1.00  0.00     0.041 A 
ATOM     90  F   UNL A   1      38.157  30.184  36.228  1.00  0.00    -0.206 F 
ATOM     91  C   UNL A   1      38.609  33.501  37.600  1.00  0.00     0.022 A 
BRANCH  88  92
ATOM     92  S   UNL A   1      40.105  35.733  36.854  1.00  0.00     0.124 S 
ATOM     93  O   UNL A   1      39.513  36.119  38.129  1.00  0.00    -0.237 OA
ATOM     94  O   UNL A   1      41.540  35.465  36.865  1.00  0.00    -0.237 OA
ATOM     95  O   UNL A   1      39.619  36.471  35.690  1.00  0.00    -0.744 OA
ENDBRANCH  88  92
ENDBRANCH  61  85
BRANCH  73  96
ATOM     96  C   UNL A   1      36.943  31.143  28.850  1.00  0.00     0.023 A 
ATOM     97  C   UNL A   1      35.936  30.280  28.385  1.00  0.00     0.031 A 
ATOM     98  C   UNL A   1      36.778  32.525  28.650  1.00  0.00     0.131 A 
ATOM     99  C   UNL A   1      34.827  30.804  27.704  1.00  0.00     0.055 A 
ATOM    100  C   UNL A   1      35.649  33.045  28.015  1.00  0.00     0.041 A 
ATOM    101  F   UNL A   1      37.711  33.392  29.073  1.00  0.00    -0.206 F 
ATOM    102  C   UNL A   1      34.671  32.182  27.530  1.00  0.00     0.022 A 
BRANCH  99 103
ATOM    103  S   UNL A   1      33.617  29.655  26.994  1.00  0.00     0.124 S 
ATOM    104  O   UNL A   1      34.415  28.956  25.990  1.00  0.00    -0.237 OA
ATOM    105  O   UNL A   1      33.216  28.865  28.153  1.00  0.00    -0.237 OA
ATOM    106  O   UNL A   1      32.581  30.537  26.458  1.00  0.00    -0.744 OA
ENDBRANCH  99 103
ENDBRANCH  73  96
ENDBRANCH  47  48
ENDBRANCH  39  42
ENDBRANCH  37  38
ENDBRANCH  36  37
ENDBRANCH   1  36
TORSDOF 18
ENDMDL
