MODEL 1
REMARK VINA RESULT:     -12.3      0.000      0.000
REMARK SMILES O=C(Cn1cc(/C=C(/Cl)c2nnc(C(=O)Nc3ccc(Cl)cc3)s2)nn1)NCCCNC(=O)c1ccc(-c2c3nc(c(-c4cc(S(=O)(=O)[O-])ccc4F)c4ccc([nH]4)c(-c4cc(S(=O)(=O)[O-])ccc4F)c4nc(c(-c5cc(S(=O)(=O)[O-])ccc5F)c5ccc2[nH]5)C=C4)C=C3)cc1
REMARK SMILES IDX 28 1 27 2 1 3 2 4 3 6 4 7 5 8 26 9 6 10 25 11 7 12 8 13 9 14
REMARK SMILES IDX 10 15 11 16 24 17 12 18 13 19 14 20 15 21 16 22 17 24 18 25
REMARK SMILES IDX 23 26 19 27 22 28 20 29 21 30 29 31 30 32 31 33 32 34 33 36
REMARK SMILES IDX 34 37 35 38 96 39 36 40 95 41 37 42 38 43 39 44 89 45 40 46
REMARK SMILES IDX 94 47 88 48 90 49 41 50 93 51 87 52 86 53 42 55 74 56 54 57
REMARK SMILES IDX 73 58 55 59 58 60 72 61 91 62 56 63 57 64 71 66 92 67 59 68
REMARK SMILES IDX 43 69 44 70 52 71 45 72 51 73 53 74 50 75 46 76 47 77 48 78
REMARK SMILES IDX 49 79 75 80 76 81 84 82 77 83 83 84 85 85 82 86 78 87 79 88
REMARK SMILES IDX 80 89 81 90 60 91 61 92 69 93 62 94 68 95 70 96 67 97 63 98
REMARK SMILES IDX 64 99 65 100 66 101
REMARK H PARENT 27 5 16 23 31 35 90 54 58 65
REMARK Flexibility Score: inf
ROOT
ATOM      1  C   UNL A   1      38.385  21.186  25.391  1.00  0.00     0.117 C 
ENDROOT
BRANCH   1   2
ATOM      2  N   UNL A   1      37.291  21.721  24.592  1.00  0.00    -0.354 N 
ATOM      3  O   UNL A   1      37.087  23.727  25.693  1.00  0.00    -0.273 OA
ATOM      4  C   UNL A   1      36.766  22.987  24.764  1.00  0.00     0.241 C 
ATOM      5  H   UNL A   1      36.903  21.148  23.891  1.00  0.00     0.163 HD
BRANCH   4   6
ATOM      6  C   UNL A   1      35.715  23.407  23.750  1.00  0.00     0.245 C 
BRANCH   6   7
ATOM      7  N   UNL A   1      34.417  22.865  24.082  1.00  0.00    -0.242 N 
ATOM      8  C   UNL A   1      33.740  22.886  25.270  1.00  0.00     0.139 A 
ATOM      9  N   UNL A   1      33.710  22.237  23.128  1.00  0.00    -0.066 NA
ATOM     10  C   UNL A   1      32.527  22.315  24.959  1.00  0.00     0.107 A 
ATOM     11  N   UNL A   1      32.540  21.923  23.653  1.00  0.00    -0.131 NA
BRANCH  10  12
ATOM     12  C   UNL A   1      31.388  22.153  25.806  1.00  0.00     0.055 C 
ATOM     13  C   UNL A   1      30.619  23.116  26.356  1.00  0.00     0.081 C 
ATOM     14  Cl  UNL A   1      29.267  22.691  27.351  1.00  0.00    -0.081 Cl
BRANCH  13  15
ATOM     15  C   UNL A   1      30.834  24.494  26.096  1.00  0.00     0.159 A 
ATOM     16  N   UNL A   1      31.393  25.404  26.873  1.00  0.00    -0.137 NA
ATOM     17  S   UNL A   1      30.525  25.129  24.521  1.00  0.00    -0.086 S 
ATOM     18  N   UNL A   1      31.965  26.423  26.121  1.00  0.00    -0.133 NA
ATOM     19  C   UNL A   1      31.808  26.220  24.821  1.00  0.00     0.206 A 
BRANCH  19  20
ATOM     20  C   UNL A   1      32.621  26.907  23.820  1.00  0.00     0.286 C 
ATOM     21  O   UNL A   1      33.685  26.427  23.416  1.00  0.00    -0.266 OA
ATOM     22  N   UNL A   1      32.161  28.018  23.102  1.00  0.00    -0.320 N 
ATOM     23  H   UNL A   1      32.753  28.315  22.374  1.00  0.00     0.170 HD
BRANCH  22  24
ATOM     24  C   UNL A   1      30.992  28.776  23.254  1.00  0.00     0.041 A 
ATOM     25  C   UNL A   1      29.848  28.510  22.503  1.00  0.00     0.027 A 
ATOM     26  C   UNL A   1      30.953  29.792  24.210  1.00  0.00     0.027 A 
ATOM     27  C   UNL A   1      28.766  29.393  22.522  1.00  0.00     0.022 A 
ATOM     28  C   UNL A   1      29.862  30.669  24.252  1.00  0.00     0.022 A 
ATOM     29  C   UNL A   1      28.799  30.496  23.367  1.00  0.00     0.041 A 
ATOM     30  Cl  UNL A   1      27.539  31.665  23.297  1.00  0.00    -0.084 Cl
ENDBRANCH  22  24
ENDBRANCH  19  20
ENDBRANCH  13  15
ENDBRANCH  10  12
ENDBRANCH   6   7
ENDBRANCH   4   6
ENDBRANCH   1   2
BRANCH   1  31
ATOM     31  C   UNL A   1      38.763  19.745  25.043  1.00  0.00     0.042 C 
BRANCH  31  32
ATOM     32  C   UNL A   1      39.556  19.049  26.139  1.00  0.00     0.118 C 
BRANCH  32  33
ATOM     33  N   UNL A   1      40.952  18.771  25.794  1.00  0.00    -0.352 N 
ATOM     34  C   UNL A   1      42.012  19.662  25.768  1.00  0.00     0.251 C 
ATOM     35  H   UNL A   1      41.162  17.840  25.553  1.00  0.00     0.163 HD
ATOM     36  O   UNL A   1      43.037  19.385  25.140  1.00  0.00    -0.269 OA
BRANCH  34  37
ATOM     37  C   UNL A   1      41.896  20.949  26.487  1.00  0.00     0.039 A 
ATOM     38  C   UNL A   1      41.512  21.021  27.831  1.00  0.00     0.014 A 
ATOM     39  C   UNL A   1      42.197  22.113  25.788  1.00  0.00     0.014 A 
ATOM     40  C   UNL A   1      41.517  22.262  28.470  1.00  0.00     0.010 A 
ATOM     41  C   UNL A   1      42.377  23.296  26.454  1.00  0.00     0.010 A 
ATOM     42  C   UNL A   1      41.973  23.395  27.777  1.00  0.00    -0.014 A 
BRANCH  42  43
ATOM     43  C   UNL A   1      42.181  24.679  28.439  1.00  0.00     0.031 A 
ATOM     44  C   UNL A   1      41.043  25.623  28.281  1.00  0.00     0.074 A 
ATOM     45  C   UNL A   1      43.179  24.898  29.325  1.00  0.00     0.049 A 
ATOM     46  N   UNL A   1      41.032  26.717  27.596  1.00  0.00    -0.248 NA
ATOM     47  C   UNL A   1      39.713  25.231  28.778  1.00  0.00     0.031 C 
ATOM     48  C   UNL A   1      44.208  23.961  29.793  1.00  0.00     0.029 A 
ATOM     49  N   UNL A   1      43.421  25.994  30.093  1.00  0.00    -0.354 N 
ATOM     50  C   UNL A   1      39.779  27.286  27.794  1.00  0.00     0.074 A 
ATOM     51  C   UNL A   1      38.956  26.233  28.325  1.00  0.00     0.031 C 
ATOM     52  C   UNL A   1      44.783  24.441  30.920  1.00  0.00     0.029 A 
ATOM     53  C   UNL A   1      44.279  25.781  31.174  1.00  0.00     0.049 A 
ATOM     54  H   UNL A   1      43.021  26.873  29.901  1.00  0.00     0.167 HD
ATOM     55  C   UNL A   1      39.612  28.638  27.740  1.00  0.00     0.034 A 
ATOM     56  C   UNL A   1      44.527  26.632  32.211  1.00  0.00     0.034 A 
ATOM     57  C   UNL A   1      40.774  29.269  27.145  1.00  0.00     0.049 A 
ATOM     58  C   UNL A   1      44.175  27.993  31.719  1.00  0.00     0.074 A 
ATOM     59  C   UNL A   1      41.435  29.124  25.939  1.00  0.00     0.029 A 
ATOM     60  N   UNL A   1      41.677  29.887  27.986  1.00  0.00    -0.354 N 
ATOM     61  N   UNL A   1      44.824  28.582  30.750  1.00  0.00    -0.248 NA
ATOM     62  C   UNL A   1      42.805  28.450  31.909  1.00  0.00     0.031 C 
ATOM     63  C   UNL A   1      42.819  29.146  26.283  1.00  0.00     0.029 A 
ATOM     64  C   UNL A   1      42.927  29.427  27.647  1.00  0.00     0.049 A 
ATOM     65  H   UNL A   1      41.466  30.535  28.696  1.00  0.00     0.167 HD
ATOM     66  C   UNL A   1      43.842  29.131  29.940  1.00  0.00     0.074 A 
ATOM     67  C   UNL A   1      42.620  29.090  30.749  1.00  0.00     0.031 C 
ATOM     68  C   UNL A   1      44.022  29.282  28.591  1.00  0.00     0.034 A 
BRANCH  55  69
ATOM     69  C   UNL A   1      38.611  29.433  28.549  1.00  0.00     0.023 A 
ATOM     70  C   UNL A   1      38.833  29.499  29.938  1.00  0.00     0.031 A 
ATOM     71  C   UNL A   1      37.336  29.857  28.113  1.00  0.00     0.131 A 
ATOM     72  C   UNL A   1      37.794  29.827  30.824  1.00  0.00     0.055 A 
ATOM     73  C   UNL A   1      36.326  30.255  28.996  1.00  0.00     0.041 A 
ATOM     74  F   UNL A   1      36.957  29.829  26.832  1.00  0.00    -0.206 F 
ATOM     75  C   UNL A   1      36.537  30.203  30.363  1.00  0.00     0.022 A 
BRANCH  72  76
ATOM     76  S   UNL A   1      38.065  29.550  32.592  1.00  0.00     0.124 S 
ATOM     77  O   UNL A   1      39.519  29.639  32.680  1.00  0.00    -0.237 OA
ATOM     78  O   UNL A   1      37.314  30.650  33.187  1.00  0.00    -0.237 OA
ATOM     79  O   UNL A   1      37.505  28.219  32.815  1.00  0.00    -0.744 OA
ENDBRANCH  72  76
ENDBRANCH  55  69
BRANCH  56  80
ATOM     80  C   UNL A   1      44.724  26.289  33.659  1.00  0.00     0.023 A 
ATOM     81  C   UNL A   1      43.750  26.519  34.662  1.00  0.00     0.031 A 
ATOM     82  C   UNL A   1      45.825  25.484  34.038  1.00  0.00     0.131 A 
ATOM     83  C   UNL A   1      43.903  25.959  35.960  1.00  0.00     0.055 A 
ATOM     84  C   UNL A   1      45.968  24.933  35.315  1.00  0.00     0.041 A 
ATOM     85  F   UNL A   1      46.770  25.129  33.153  1.00  0.00    -0.206 F 
ATOM     86  C   UNL A   1      45.002  25.159  36.279  1.00  0.00     0.022 A 
BRANCH  83  87
ATOM     87  S   UNL A   1      42.630  26.184  37.253  1.00  0.00     0.124 S 
ATOM     88  O   UNL A   1      43.435  26.302  38.464  1.00  0.00    -0.237 OA
ATOM     89  O   UNL A   1      41.938  27.389  36.811  1.00  0.00    -0.237 OA
ATOM     90  O   UNL A   1      41.833  24.958  37.165  1.00  0.00    -0.744 OA
ENDBRANCH  83  87
ENDBRANCH  56  80
BRANCH  68  91
ATOM     91  C   UNL A   1      45.407  29.087  27.999  1.00  0.00     0.023 A 
ATOM     92  C   UNL A   1      45.959  27.849  27.595  1.00  0.00     0.031 A 
ATOM     93  C   UNL A   1      46.139  30.251  27.695  1.00  0.00     0.131 A 
ATOM     94  C   UNL A   1      47.200  27.814  26.924  1.00  0.00     0.055 A 
ATOM     95  C   UNL A   1      47.348  30.215  27.005  1.00  0.00     0.041 A 
ATOM     96  F   UNL A   1      45.662  31.461  28.032  1.00  0.00    -0.206 F 
ATOM     97  C   UNL A   1      47.887  28.994  26.621  1.00  0.00     0.022 A 
BRANCH  94  98
ATOM     98  S   UNL A   1      47.965  26.228  26.452  1.00  0.00     0.124 S 
ATOM     99  O   UNL A   1      48.913  26.603  25.410  1.00  0.00    -0.237 OA
ATOM    100  O   UNL A   1      48.545  25.771  27.711  1.00  0.00    -0.237 OA
ATOM    101  O   UNL A   1      46.828  25.432  25.982  1.00  0.00    -0.744 OA
ENDBRANCH  94  98
ENDBRANCH  68  91
ENDBRANCH  42  43
ENDBRANCH  34  37
ENDBRANCH  32  33
ENDBRANCH  31  32
ENDBRANCH   1  31
TORSDOF 18
ENDMDL
MODEL 2
REMARK VINA RESULT:     -12.1      3.431      8.293
REMARK SMILES O=C(Cn1cc(/C=C(/Cl)c2nnc(C(=O)Nc3ccc(Cl)cc3)s2)nn1)NCCCNC(=O)c1ccc(-c2c3nc(c(-c4cc(S(=O)(=O)[O-])ccc4F)c4ccc([nH]4)c(-c4cc(S(=O)(=O)[O-])ccc4F)c4nc(c(-c5cc(S(=O)(=O)[O-])ccc5F)c5ccc2[nH]5)C=C4)C=C3)cc1
REMARK SMILES IDX 28 1 27 2 1 3 2 4 3 6 4 7 5 8 26 9 6 10 25 11 7 12 8 13 9 14
REMARK SMILES IDX 10 15 11 16 24 17 12 18 13 19 14 20 15 21 16 22 17 24 18 25
REMARK SMILES IDX 23 26 19 27 22 28 20 29 21 30 29 31 30 32 31 33 32 34 33 36
REMARK SMILES IDX 34 37 35 38 96 39 36 40 95 41 37 42 38 43 39 44 89 45 40 46
REMARK SMILES IDX 94 47 88 48 90 49 41 50 93 51 87 52 86 53 42 55 74 56 54 57
REMARK SMILES IDX 73 58 55 59 58 60 72 61 91 62 56 63 57 64 71 66 92 67 59 68
REMARK SMILES IDX 43 69 44 70 52 71 45 72 51 73 53 74 50 75 46 76 47 77 48 78
REMARK SMILES IDX 49 79 75 80 76 81 84 82 77 83 83 84 85 85 82 86 78 87 79 88
REMARK SMILES IDX 80 89 81 90 60 91 61 92 69 93 62 94 68 95 70 96 67 97 63 98
REMARK SMILES IDX 64 99 65 100 66 101
REMARK H PARENT 27 5 16 23 31 35 90 54 58 65
REMARK Flexibility Score: inf
ROOT
ATOM      1  C   UNL A   1      31.679  30.834  26.110  1.00  0.00     0.117 C 
ENDROOT
BRANCH   1   2
ATOM      2  N   UNL A   1      31.298  30.075  24.928  1.00  0.00    -0.354 N 
ATOM      3  O   UNL A   1      29.539  31.404  24.286  1.00  0.00    -0.273 OA
ATOM      4  C   UNL A   1      30.292  30.457  24.064  1.00  0.00     0.241 C 
ATOM      5  H   UNL A   1      31.785  29.240  24.735  1.00  0.00     0.163 HD
BRANCH   4   6
ATOM      6  C   UNL A   1      30.130  29.598  22.820  1.00  0.00     0.245 C 
BRANCH   6   7
ATOM      7  N   UNL A   1      31.252  28.703  22.649  1.00  0.00    -0.242 N 
ATOM      8  C   UNL A   1      31.269  27.344  22.503  1.00  0.00     0.139 A 
ATOM      9  N   UNL A   1      32.493  29.214  22.616  1.00  0.00    -0.066 NA
ATOM     10  C   UNL A   1      32.598  27.061  22.279  1.00  0.00     0.107 A 
ATOM     11  N   UNL A   1      33.319  28.216  22.360  1.00  0.00    -0.131 NA
BRANCH  10  12
ATOM     12  C   UNL A   1      33.190  25.797  21.976  1.00  0.00     0.055 C 
ATOM     13  C   UNL A   1      32.935  24.603  22.551  1.00  0.00     0.081 C 
ATOM     14  Cl  UNL A   1      33.766  23.181  22.016  1.00  0.00    -0.081 Cl
BRANCH  13  15
ATOM     15  C   UNL A   1      31.943  24.444  23.555  1.00  0.00     0.159 A 
ATOM     16  N   UNL A   1      30.783  23.819  23.478  1.00  0.00    -0.137 NA
ATOM     17  S   UNL A   1      32.276  24.940  25.174  1.00  0.00    -0.086 S 
ATOM     18  N   UNL A   1      30.381  23.354  24.724  1.00  0.00    -0.133 NA
ATOM     19  C   UNL A   1      31.263  23.652  25.667  1.00  0.00     0.206 A 
BRANCH  19  20
ATOM     20  C   UNL A   1      31.286  22.970  26.959  1.00  0.00     0.286 C 
ATOM     21  O   UNL A   1      30.286  22.933  27.684  1.00  0.00    -0.266 OA
ATOM     22  N   UNL A   1      32.341  22.142  27.361  1.00  0.00    -0.320 N 
ATOM     23  H   UNL A   1      32.183  21.646  28.197  1.00  0.00     0.170 HD
BRANCH  22  24
ATOM     24  C   UNL A   1      33.587  21.907  26.765  1.00  0.00     0.041 A 
ATOM     25  C   UNL A   1      34.684  22.730  27.017  1.00  0.00     0.027 A 
ATOM     26  C   UNL A   1      33.751  20.797  25.934  1.00  0.00     0.027 A 
ATOM     27  C   UNL A   1      35.854  22.602  26.267  1.00  0.00     0.022 A 
ATOM     28  C   UNL A   1      34.931  20.649  25.195  1.00  0.00     0.022 A 
ATOM     29  C   UNL A   1      35.954  21.586  25.324  1.00  0.00     0.041 A 
ATOM     30  Cl  UNL A   1      37.332  21.505  24.297  1.00  0.00    -0.084 Cl
ENDBRANCH  22  24
ENDBRANCH  19  20
ENDBRANCH  13  15
ENDBRANCH  10  12
ENDBRANCH   6   7
ENDBRANCH   4   6
ENDBRANCH   1   2
BRANCH   1  31
ATOM     31  C   UNL A   1      32.615  30.084  27.059  1.00  0.00     0.042 C 
BRANCH  31  32
ATOM     32  C   UNL A   1      33.914  30.826  27.336  1.00  0.00     0.118 C 
BRANCH  32  33
ATOM     33  N   UNL A   1      33.858  31.741  28.479  1.00  0.00    -0.352 N 
ATOM     34  C   UNL A   1      34.748  31.831  29.536  1.00  0.00     0.251 C 
ATOM     35  H   UNL A   1      33.098  32.366  28.497  1.00  0.00     0.163 HD
ATOM     36  O   UNL A   1      34.408  32.388  30.583  1.00  0.00    -0.269 OA
BRANCH  34  37
ATOM     37  C   UNL A   1      36.098  31.245  29.400  1.00  0.00     0.039 A 
ATOM     38  C   UNL A   1      37.236  32.033  29.188  1.00  0.00     0.014 A 
ATOM     39  C   UNL A   1      36.219  29.863  29.504  1.00  0.00     0.014 A 
ATOM     40  C   UNL A   1      38.489  31.418  29.166  1.00  0.00     0.010 A 
ATOM     41  C   UNL A   1      37.451  29.285  29.662  1.00  0.00     0.010 A 
ATOM     42  C   UNL A   1      38.588  30.041  29.426  1.00  0.00    -0.014 A 
BRANCH  42  43
ATOM     43  C   UNL A   1      39.875  29.375  29.602  1.00  0.00     0.031 A 
ATOM     44  C   UNL A   1      40.211  29.091  31.023  1.00  0.00     0.074 A 
ATOM     45  C   UNL A   1      40.571  28.832  28.577  1.00  0.00     0.049 A 
ATOM     46  N   UNL A   1      41.139  29.646  31.727  1.00  0.00    -0.248 NA
ATOM     47  C   UNL A   1      39.309  28.235  31.813  1.00  0.00     0.031 C 
ATOM     48  C   UNL A   1      40.215  28.788  27.153  1.00  0.00     0.029 A 
ATOM     49  N   UNL A   1      41.711  28.092  28.609  1.00  0.00    -0.354 N 
ATOM     50  C   UNL A   1      41.111  29.020  32.968  1.00  0.00     0.074 A 
ATOM     51  C   UNL A   1      39.843  28.345  33.033  1.00  0.00     0.031 C 
ATOM     52  C   UNL A   1      40.975  27.863  26.522  1.00  0.00     0.029 A 
ATOM     53  C   UNL A   1      41.971  27.356  27.451  1.00  0.00     0.049 A 
ATOM     54  H   UNL A   1      42.309  28.076  29.391  1.00  0.00     0.167 HD
ATOM     55  C   UNL A   1      42.245  28.909  33.716  1.00  0.00     0.034 A 
ATOM     56  C   UNL A   1      42.914  26.383  27.286  1.00  0.00     0.034 A 
ATOM     57  C   UNL A   1      43.280  29.784  33.202  1.00  0.00     0.049 A 
ATOM     58  C   UNL A   1      43.944  26.628  28.333  1.00  0.00     0.074 A 
ATOM     59  C   UNL A   1      43.357  31.145  32.964  1.00  0.00     0.029 A 
ATOM     60  N   UNL A   1      44.288  29.222  32.446  1.00  0.00    -0.354 N 
ATOM     61  N   UNL A   1      44.691  27.700  28.351  1.00  0.00    -0.248 NA
ATOM     62  C   UNL A   1      43.766  25.981  29.626  1.00  0.00     0.031 C 
ATOM     63  C   UNL A   1      44.008  31.251  31.700  1.00  0.00     0.029 A 
ATOM     64  C   UNL A   1      44.402  29.972  31.299  1.00  0.00     0.049 A 
ATOM     65  H   UNL A   1      44.825  28.432  32.682  1.00  0.00     0.167 HD
ATOM     66  C   UNL A   1      44.696  28.114  29.674  1.00  0.00     0.074 A 
ATOM     67  C   UNL A   1      44.178  26.969  30.428  1.00  0.00     0.031 C 
ATOM     68  C   UNL A   1      44.817  29.434  30.016  1.00  0.00     0.034 A 
BRANCH  55  69
ATOM     69  C   UNL A   1      42.574  27.765  34.651  1.00  0.00     0.023 A 
ATOM     70  C   UNL A   1      43.454  26.781  34.159  1.00  0.00     0.031 A 
ATOM     71  C   UNL A   1      41.873  27.423  35.828  1.00  0.00     0.131 A 
ATOM     72  C   UNL A   1      43.505  25.500  34.732  1.00  0.00     0.055 A 
ATOM     73  C   UNL A   1      41.983  26.169  36.439  1.00  0.00     0.041 A 
ATOM     74  F   UNL A   1      40.979  28.232  36.405  1.00  0.00    -0.206 F 
ATOM     75  C   UNL A   1      42.770  25.185  35.870  1.00  0.00     0.022 A 
BRANCH  72  76
ATOM     76  S   UNL A   1      44.391  24.202  33.835  1.00  0.00     0.124 S 
ATOM     77  O   UNL A   1      45.079  24.977  32.808  1.00  0.00    -0.237 OA
ATOM     78  O   UNL A   1      45.230  23.632  34.883  1.00  0.00    -0.237 OA
ATOM     79  O   UNL A   1      43.320  23.334  33.351  1.00  0.00    -0.744 OA
ENDBRANCH  72  76
ENDBRANCH  55  69
BRANCH  56  80
ATOM     80  C   UNL A   1      42.792  25.103  26.511  1.00  0.00     0.023 A 
ATOM     81  C   UNL A   1      43.812  24.592  25.670  1.00  0.00     0.031 A 
ATOM     82  C   UNL A   1      41.721  24.222  26.790  1.00  0.00     0.131 A 
ATOM     83  C   UNL A   1      43.729  23.269  25.156  1.00  0.00     0.055 A 
ATOM     84  C   UNL A   1      41.647  22.920  26.285  1.00  0.00     0.041 A 
ATOM     85  F   UNL A   1      40.737  24.563  27.638  1.00  0.00    -0.206 F 
ATOM     86  C   UNL A   1      42.657  22.434  25.473  1.00  0.00     0.022 A 
BRANCH  83  87
ATOM     87  S   UNL A   1      45.062  22.561  24.124  1.00  0.00     0.124 S 
ATOM     88  O   UNL A   1      45.680  21.600  25.032  1.00  0.00    -0.237 OA
ATOM     89  O   UNL A   1      44.329  22.009  22.991  1.00  0.00    -0.237 OA
ATOM     90  O   UNL A   1      45.897  23.720  23.801  1.00  0.00    -0.744 OA
ENDBRANCH  83  87
ENDBRANCH  56  80
BRANCH  68  91
ATOM     91  C   UNL A   1      45.211  30.444  28.952  1.00  0.00     0.023 A 
ATOM     92  C   UNL A   1      46.537  30.780  28.591  1.00  0.00     0.031 A 
ATOM     93  C   UNL A   1      44.172  30.979  28.167  1.00  0.00     0.131 A 
ATOM     94  C   UNL A   1      46.775  31.627  27.486  1.00  0.00     0.055 A 
ATOM     95  C   UNL A   1      44.413  31.788  27.058  1.00  0.00     0.041 A 
ATOM     96  F   UNL A   1      42.890  30.684  28.442  1.00  0.00    -0.206 F 
ATOM     97  C   UNL A   1      45.717  32.120  26.717  1.00  0.00     0.022 A 
BRANCH  94  98
ATOM     98  S   UNL A   1      48.470  32.127  27.040  1.00  0.00     0.124 S 
ATOM     99  O   UNL A   1      48.276  33.010  25.896  1.00  0.00    -0.237 OA
ATOM    100  O   UNL A   1      48.944  32.763  28.266  1.00  0.00    -0.237 OA
ATOM    101  O   UNL A   1      49.125  30.855  26.722  1.00  0.00    -0.744 OA
ENDBRANCH  94  98
ENDBRANCH  68  91
ENDBRANCH  42  43
ENDBRANCH  34  37
ENDBRANCH  32  33
ENDBRANCH  31  32
ENDBRANCH   1  31
TORSDOF 18
ENDMDL
MODEL 3
REMARK VINA RESULT:     -12.1      3.123      8.259
REMARK SMILES O=C(Cn1cc(/C=C(/Cl)c2nnc(C(=O)Nc3ccc(Cl)cc3)s2)nn1)NCCCNC(=O)c1ccc(-c2c3nc(c(-c4cc(S(=O)(=O)[O-])ccc4F)c4ccc([nH]4)c(-c4cc(S(=O)(=O)[O-])ccc4F)c4nc(c(-c5cc(S(=O)(=O)[O-])ccc5F)c5ccc2[nH]5)C=C4)C=C3)cc1
REMARK SMILES IDX 28 1 27 2 1 3 2 4 3 6 4 7 5 8 26 9 6 10 25 11 7 12 8 13 9 14
REMARK SMILES IDX 10 15 11 16 24 17 12 18 13 19 14 20 15 21 16 22 17 24 18 25
REMARK SMILES IDX 23 26 19 27 22 28 20 29 21 30 29 31 30 32 31 33 32 34 33 36
REMARK SMILES IDX 34 37 35 38 96 39 36 40 95 41 37 42 38 43 39 44 89 45 40 46
REMARK SMILES IDX 94 47 88 48 90 49 41 50 93 51 87 52 86 53 42 55 74 56 54 57
REMARK SMILES IDX 73 58 55 59 58 60 72 61 91 62 56 63 57 64 71 66 92 67 59 68
REMARK SMILES IDX 43 69 44 70 52 71 45 72 51 73 53 74 50 75 46 76 47 77 48 78
REMARK SMILES IDX 49 79 75 80 76 81 84 82 77 83 83 84 85 85 82 86 78 87 79 88
REMARK SMILES IDX 80 89 81 90 60 91 61 92 69 93 62 94 68 95 70 96 67 97 63 98
REMARK SMILES IDX 64 99 65 100 66 101
REMARK H PARENT 27 5 16 23 31 35 90 54 58 65
REMARK Flexibility Score: inf
ROOT
ATOM      1  C   UNL A   1      32.053  30.557  26.320  1.00  0.00     0.117 C 
ENDROOT
BRANCH   1   2
ATOM      2  N   UNL A   1      31.400  29.944  25.173  1.00  0.00    -0.354 N 
ATOM      3  O   UNL A   1      29.894  31.629  24.764  1.00  0.00    -0.273 OA
ATOM      4  C   UNL A   1      30.407  30.560  24.437  1.00  0.00     0.241 C 
ATOM      5  H   UNL A   1      31.681  29.038  24.907  1.00  0.00     0.163 HD
BRANCH   4   6
ATOM      6  C   UNL A   1      29.940  29.809  23.201  1.00  0.00     0.245 C 
BRANCH   6   7
ATOM      7  N   UNL A   1      30.587  28.521  23.092  1.00  0.00    -0.242 N 
ATOM      8  C   UNL A   1      30.091  27.271  23.336  1.00  0.00     0.139 A 
ATOM      9  N   UNL A   1      31.869  28.468  22.693  1.00  0.00    -0.066 NA
ATOM     10  C   UNL A   1      31.122  26.437  22.966  1.00  0.00     0.107 A 
ATOM     11  N   UNL A   1      32.192  27.193  22.586  1.00  0.00    -0.131 NA
BRANCH  10  12
ATOM     12  C   UNL A   1      31.130  25.009  22.932  1.00  0.00     0.055 C 
ATOM     13  C   UNL A   1      32.041  24.172  23.470  1.00  0.00     0.081 C 
ATOM     14  Cl  UNL A   1      31.847  22.458  23.319  1.00  0.00    -0.081 Cl
BRANCH  13  15
ATOM     15  C   UNL A   1      33.145  24.643  24.228  1.00  0.00     0.159 A 
ATOM     16  N   UNL A   1      33.151  25.165  25.440  1.00  0.00    -0.137 NA
ATOM     17  S   UNL A   1      34.752  24.380  23.656  1.00  0.00    -0.086 S 
ATOM     18  N   UNL A   1      34.370  24.950  26.072  1.00  0.00    -0.133 NA
ATOM     19  C   UNL A   1      35.210  24.275  25.301  1.00  0.00     0.206 A 
BRANCH  19  20
ATOM     20  C   UNL A   1      36.385  23.592  25.838  1.00  0.00     0.286 C 
ATOM     21  O   UNL A   1      37.356  24.225  26.265  1.00  0.00    -0.266 OA
ATOM     22  N   UNL A   1      36.407  22.218  26.107  1.00  0.00    -0.320 N 
ATOM     23  H   UNL A   1      37.211  21.901  26.577  1.00  0.00     0.170 HD
BRANCH  22  24
ATOM     24  C   UNL A   1      35.468  21.221  25.812  1.00  0.00     0.041 A 
ATOM     25  C   UNL A   1      35.792  20.127  25.010  1.00  0.00     0.027 A 
ATOM     26  C   UNL A   1      34.190  21.297  26.368  1.00  0.00     0.027 A 
ATOM     27  C   UNL A   1      34.797  19.254  24.565  1.00  0.00     0.022 A 
ATOM     28  C   UNL A   1      33.191  20.411  25.944  1.00  0.00     0.022 A 
ATOM     29  C   UNL A   1      33.489  19.430  25.001  1.00  0.00     0.041 A 
ATOM     30  Cl  UNL A   1      32.233  18.451  24.351  1.00  0.00    -0.084 Cl
ENDBRANCH  22  24
ENDBRANCH  19  20
ENDBRANCH  13  15
ENDBRANCH  10  12
ENDBRANCH   6   7
ENDBRANCH   4   6
ENDBRANCH   1   2
BRANCH   1  31
ATOM     31  C   UNL A   1      33.152  29.696  26.946  1.00  0.00     0.042 C 
BRANCH  31  32
ATOM     32  C   UNL A   1      34.454  30.450  27.170  1.00  0.00     0.118 C 
BRANCH  32  33
ATOM     33  N   UNL A   1      34.405  31.439  28.249  1.00  0.00    -0.352 N 
ATOM     34  C   UNL A   1      35.268  31.563  29.325  1.00  0.00     0.251 C 
ATOM     35  H   UNL A   1      33.671  32.095  28.203  1.00  0.00     0.163 HD
ATOM     36  O   UNL A   1      34.922  32.200  30.323  1.00  0.00    -0.269 OA
BRANCH  34  37
ATOM     37  C   UNL A   1      36.595  30.914  29.269  1.00  0.00     0.039 A 
ATOM     38  C   UNL A   1      37.785  31.651  29.267  1.00  0.00     0.014 A 
ATOM     39  C   UNL A   1      36.638  29.524  29.232  1.00  0.00     0.014 A 
ATOM     40  C   UNL A   1      39.003  30.968  29.310  1.00  0.00     0.010 A 
ATOM     41  C   UNL A   1      37.815  28.861  29.454  1.00  0.00     0.010 A 
ATOM     42  C   UNL A   1      39.007  29.568  29.425  1.00  0.00    -0.014 A 
BRANCH  42  43
ATOM     43  C   UNL A   1      40.232  28.812  29.662  1.00  0.00     0.031 A 
ATOM     44  C   UNL A   1      40.538  28.606  31.102  1.00  0.00     0.074 A 
ATOM     45  C   UNL A   1      40.884  28.139  28.685  1.00  0.00     0.049 A 
ATOM     46  N   UNL A   1      41.506  29.132  31.773  1.00  0.00    -0.248 NA
ATOM     47  C   UNL A   1      39.564  27.889  31.944  1.00  0.00     0.031 C 
ATOM     48  C   UNL A   1      40.531  28.020  27.265  1.00  0.00     0.029 A 
ATOM     49  N   UNL A   1      41.958  27.311  28.783  1.00  0.00    -0.354 N 
ATOM     50  C   UNL A   1      41.422  28.603  33.056  1.00  0.00     0.074 A 
ATOM     51  C   UNL A   1      40.102  28.043  33.158  1.00  0.00     0.031 C 
ATOM     52  C   UNL A   1      41.212  26.991  26.711  1.00  0.00     0.029 A 
ATOM     53  C   UNL A   1      42.160  26.473  27.684  1.00  0.00     0.049 A 
ATOM     54  H   UNL A   1      42.550  27.303  29.569  1.00  0.00     0.167 HD
ATOM     55  C   UNL A   1      42.540  28.453  33.822  1.00  0.00     0.034 A 
ATOM     56  C   UNL A   1      43.018  25.415  27.599  1.00  0.00     0.034 A 
ATOM     57  C   UNL A   1      43.647  29.199  33.255  1.00  0.00     0.049 A 
ATOM     58  C   UNL A   1      44.061  25.649  28.636  1.00  0.00     0.074 A 
ATOM     59  C   UNL A   1      43.839  30.527  32.920  1.00  0.00     0.029 A 
ATOM     60  N   UNL A   1      44.606  28.501  32.552  1.00  0.00    -0.354 N 
ATOM     61  N   UNL A   1      44.895  26.654  28.583  1.00  0.00    -0.248 NA
ATOM     62  C   UNL A   1      43.824  25.116  29.971  1.00  0.00     0.031 C 
ATOM     63  C   UNL A   1      44.501  30.486  31.658  1.00  0.00     0.029 A 
ATOM     64  C   UNL A   1      44.787  29.152  31.355  1.00  0.00     0.049 A 
ATOM     65  H   UNL A   1      45.074  27.688  32.850  1.00  0.00     0.167 HD
ATOM     66  C   UNL A   1      44.930  27.162  29.873  1.00  0.00     0.074 A 
ATOM     67  C   UNL A   1      44.315  26.123  30.703  1.00  0.00     0.031 C 
ATOM     68  C   UNL A   1      45.161  28.489  30.118  1.00  0.00     0.034 A 
BRANCH  55  69
ATOM     69  C   UNL A   1      42.768  27.357  34.840  1.00  0.00     0.023 A 
ATOM     70  C   UNL A   1      43.565  26.271  34.430  1.00  0.00     0.031 A 
ATOM     71  C   UNL A   1      42.037  27.162  36.032  1.00  0.00     0.131 A 
ATOM     72  C   UNL A   1      43.505  25.035  35.095  1.00  0.00     0.055 A 
ATOM     73  C   UNL A   1      42.039  25.952  36.735  1.00  0.00     0.041 A 
ATOM     74  F   UNL A   1      41.212  28.083  36.541  1.00  0.00    -0.206 F 
ATOM     75  C   UNL A   1      42.743  24.866  36.246  1.00  0.00     0.022 A 
BRANCH  72  76
ATOM     76  S   UNL A   1      44.283  23.605  34.304  1.00  0.00     0.124 S 
ATOM     77  O   UNL A   1      43.262  23.219  33.336  1.00  0.00    -0.237 OA
ATOM     78  O   UNL A   1      45.501  24.191  33.756  1.00  0.00    -0.237 OA
ATOM     79  O   UNL A   1      44.480  22.673  35.411  1.00  0.00    -0.744 OA
ENDBRANCH  72  76
ENDBRANCH  55  69
BRANCH  56  80
ATOM     80  C   UNL A   1      42.792  24.097  26.919  1.00  0.00     0.023 A 
ATOM     81  C   UNL A   1      43.728  23.492  26.043  1.00  0.00     0.031 A 
ATOM     82  C   UNL A   1      41.712  23.280  27.328  1.00  0.00     0.131 A 
ATOM     83  C   UNL A   1      43.558  22.145  25.621  1.00  0.00     0.055 A 
ATOM     84  C   UNL A   1      41.552  21.954  26.914  1.00  0.00     0.041 A 
ATOM     85  F   UNL A   1      40.806  23.714  28.219  1.00  0.00    -0.206 F 
ATOM     86  C   UNL A   1      42.481  21.377  26.066  1.00  0.00     0.022 A 
BRANCH  83  87
ATOM     87  S   UNL A   1      44.785  21.320  24.546  1.00  0.00     0.124 S 
ATOM     88  O   UNL A   1      46.022  21.486  25.302  1.00  0.00    -0.237 OA
ATOM     89  O   UNL A   1      44.260  19.964  24.446  1.00  0.00    -0.237 OA
ATOM     90  O   UNL A   1      44.722  22.089  23.302  1.00  0.00    -0.744 OA
ENDBRANCH  83  87
ENDBRANCH  56  80
BRANCH  68  91
ATOM     91  C   UNL A   1      45.641  29.382  28.988  1.00  0.00     0.023 A 
ATOM     92  C   UNL A   1      44.866  30.372  28.339  1.00  0.00     0.031 A 
ATOM     93  C   UNL A   1      47.009  29.316  28.661  1.00  0.00     0.131 A 
ATOM     94  C   UNL A   1      45.468  31.238  27.401  1.00  0.00     0.055 A 
ATOM     95  C   UNL A   1      47.606  30.194  27.759  1.00  0.00     0.041 A 
ATOM     96  F   UNL A   1      47.807  28.413  29.256  1.00  0.00    -0.206 F 
ATOM     97  C   UNL A   1      46.835  31.156  27.120  1.00  0.00     0.022 A 
BRANCH  94  98
ATOM     98  S   UNL A   1      44.478  32.479  26.503  1.00  0.00     0.124 S 
ATOM     99  O   UNL A   1      43.535  31.674  25.737  1.00  0.00    -0.237 OA
ATOM    100  O   UNL A   1      43.909  33.272  27.588  1.00  0.00    -0.237 OA
ATOM    101  O   UNL A   1      45.475  33.184  25.693  1.00  0.00    -0.744 OA
ENDBRANCH  94  98
ENDBRANCH  68  91
ENDBRANCH  42  43
ENDBRANCH  34  37
ENDBRANCH  32  33
ENDBRANCH  31  32
ENDBRANCH   1  31
TORSDOF 18
ENDMDL
