MODEL 1
REMARK VINA RESULT:     -11.7      0.000      0.000
REMARK SMILES CSc1ncc(Cl)c(C(=O)Nc2ccsc2C(=O)NCCCNC(=O)c2ccc(-c3c4nc(c(-c5cc(S(=O)(=O)[O-])ccc5F)c5ccc([nH]5)c(-c5cc(S(=O)(=O)[O-])ccc5F)c5nc(c(-c6cc(S(=O)(=O)[O-])ccc6F)c6ccc3[nH]6)C=C5)C=C4)cc2)n1
REMARK SMILES IDX 21 1 20 2 19 3 17 4 18 5 16 7 12 8 13 9 14 10 15 11 11 12
REMARK SMILES IDX 9 13 10 14 8 16 3 17 4 18 89 19 5 20 6 21 7 22 2 23 1 24
REMARK SMILES IDX 22 25 23 26 24 27 25 29 26 30 27 31 88 32 28 33 87 34 29 35
REMARK SMILES IDX 30 36 31 37 81 38 32 39 86 40 80 41 82 42 33 43 85 44 79 45
REMARK SMILES IDX 78 46 34 48 66 49 46 50 65 51 47 52 50 53 64 54 83 55 48 56
REMARK SMILES IDX 49 57 63 59 84 60 51 61 35 62 36 63 44 64 37 65 43 66 45 67
REMARK SMILES IDX 42 68 38 69 39 70 40 71 41 72 67 73 68 74 76 75 69 76 75 77
REMARK SMILES IDX 77 78 74 79 70 80 71 81 72 82 73 83 52 84 53 85 61 86 54 87
REMARK SMILES IDX 60 88 62 89 59 90 55 91 56 92 57 93 58 94
REMARK H PARENT 19 6 11 15 23 28 82 47 50 58
REMARK Flexibility Score: inf
ROOT
ATOM      1  C   UNL A   1      31.584  28.955  27.222  1.00  0.00     0.042 C 
ENDROOT
BRANCH   1   2
ATOM      2  C   UNL A   1      31.546  27.483  26.859  1.00  0.00     0.118 C 
BRANCH   2   3
ATOM      3  N   UNL A   1      32.798  26.812  26.609  1.00  0.00    -0.351 N 
ATOM      4  C   UNL A   1      33.216  25.996  25.575  1.00  0.00     0.263 C 
ATOM      5  O   UNL A   1      34.411  25.686  25.667  1.00  0.00    -0.268 OA
ATOM      6  H   UNL A   1      33.480  26.963  27.303  1.00  0.00     0.163 HD
BRANCH   4   7
ATOM      7  C   UNL A   1      32.354  25.479  24.489  1.00  0.00     0.115 A 
ATOM      8  C   UNL A   1      31.297  24.574  24.360  1.00  0.00     0.065 A 
ATOM      9  C   UNL A   1      30.920  24.331  23.002  1.00  0.00     0.038 A 
ATOM     10  C   UNL A   1      31.666  25.057  22.110  1.00  0.00     0.068 A 
ATOM     11  S   UNL A   1      32.801  26.045  22.895  1.00  0.00    -0.137 S 
BRANCH   8  12
ATOM     12  N   UNL A   1      30.641  23.966  25.409  1.00  0.00    -0.319 N 
ATOM     13  C   UNL A   1      30.974  22.815  26.104  1.00  0.00     0.276 C 
ATOM     14  O   UNL A   1      30.265  22.542  27.078  1.00  0.00    -0.267 OA
ATOM     15  H   UNL A   1      29.816  24.414  25.706  1.00  0.00     0.170 HD
BRANCH  13  16
ATOM     16  C   UNL A   1      32.149  21.928  25.807  1.00  0.00     0.151 A 
ATOM     17  C   UNL A   1      32.727  19.989  24.697  1.00  0.00     0.188 A 
ATOM     18  N   UNL A   1      34.021  20.110  25.018  1.00  0.00    -0.230 NA
ATOM     19  N   UNL A   1      31.792  20.895  24.998  1.00  0.00    -0.216 NA
ATOM     20  C   UNL A   1      34.334  21.123  25.846  1.00  0.00     0.137 A 
ATOM     21  C   UNL A   1      33.417  22.021  26.354  1.00  0.00     0.090 A 
ATOM     22  Cl  UNL A   1      33.914  22.959  27.700  1.00  0.00    -0.080 Cl
BRANCH  17  23
ATOM     23  S   UNL A   1      32.208  18.462  23.977  1.00  0.00    -0.090 SA
ATOM     24  C   UNL A   1      32.592  17.376  25.382  1.00  0.00     0.094 C 
ENDBRANCH  17  23
ENDBRANCH  13  16
ENDBRANCH   8  12
ENDBRANCH   4   7
ENDBRANCH   2   3
ENDBRANCH   1   2
BRANCH   1  25
ATOM     25  C   UNL A   1      32.545  29.818  26.431  1.00  0.00     0.118 C 
BRANCH  25  26
ATOM     26  N   UNL A   1      32.466  31.237  26.747  1.00  0.00    -0.352 N 
ATOM     27  C   UNL A   1      33.318  32.077  27.427  1.00  0.00     0.251 C 
ATOM     28  H   UNL A   1      31.652  31.677  26.412  1.00  0.00     0.163 HD
ATOM     29  O   UNL A   1      32.948  33.230  27.655  1.00  0.00    -0.269 OA
BRANCH  27  30
ATOM     30  C   UNL A   1      34.635  31.616  27.931  1.00  0.00     0.039 A 
ATOM     31  C   UNL A   1      35.691  32.533  28.014  1.00  0.00     0.014 A 
ATOM     32  C   UNL A   1      34.855  30.295  28.310  1.00  0.00     0.014 A 
ATOM     33  C   UNL A   1      36.914  32.146  28.577  1.00  0.00     0.010 A 
ATOM     34  C   UNL A   1      36.021  29.945  28.985  1.00  0.00     0.010 A 
ATOM     35  C   UNL A   1      37.068  30.866  29.130  1.00  0.00    -0.014 A 
BRANCH  35  36
ATOM     36  C   UNL A   1      38.303  30.458  29.858  1.00  0.00     0.031 A 
ATOM     37  C   UNL A   1      39.243  29.450  29.246  1.00  0.00     0.074 A 
ATOM     38  C   UNL A   1      38.533  30.920  31.104  1.00  0.00     0.049 A 
ATOM     39  N   UNL A   1      40.286  28.861  29.773  1.00  0.00    -0.248 NA
ATOM     40  C   UNL A   1      38.943  29.017  27.873  1.00  0.00     0.031 C 
ATOM     41  C   UNL A   1      37.681  31.869  31.826  1.00  0.00     0.029 A 
ATOM     42  N   UNL A   1      39.542  30.646  31.994  1.00  0.00    -0.354 N 
ATOM     43  C   UNL A   1      40.752  27.975  28.806  1.00  0.00     0.074 A 
ATOM     44  C   UNL A   1      39.834  28.054  27.691  1.00  0.00     0.031 C 
ATOM     45  C   UNL A   1      38.219  32.120  33.029  1.00  0.00     0.029 A 
ATOM     46  C   UNL A   1      39.418  31.306  33.197  1.00  0.00     0.049 A 
ATOM     47  H   UNL A   1      40.287  30.034  31.792  1.00  0.00     0.167 HD
ATOM     48  C   UNL A   1      41.857  27.189  28.833  1.00  0.00     0.034 A 
ATOM     49  C   UNL A   1      40.168  31.247  34.315  1.00  0.00     0.034 A 
ATOM     50  C   UNL A   1      42.775  27.138  29.944  1.00  0.00     0.049 A 
ATOM     51  C   UNL A   1      41.371  30.338  34.337  1.00  0.00     0.074 A 
ATOM     52  C   UNL A   1      43.956  26.425  30.053  1.00  0.00     0.029 A 
ATOM     53  N   UNL A   1      42.611  27.819  31.144  1.00  0.00    -0.354 N 
ATOM     54  N   UNL A   1      41.823  29.542  33.395  1.00  0.00    -0.248 NA
ATOM     55  C   UNL A   1      42.169  30.322  35.571  1.00  0.00     0.031 C 
ATOM     56  C   UNL A   1      44.464  26.612  31.343  1.00  0.00     0.029 A 
ATOM     57  C   UNL A   1      43.649  27.512  32.011  1.00  0.00     0.049 A 
ATOM     58  H   UNL A   1      41.868  28.430  31.349  1.00  0.00     0.167 HD
ATOM     59  C   UNL A   1      42.975  28.957  33.913  1.00  0.00     0.074 A 
ATOM     60  C   UNL A   1      43.156  29.502  35.243  1.00  0.00     0.031 C 
ATOM     61  C   UNL A   1      43.812  28.055  33.340  1.00  0.00     0.034 A 
BRANCH  48  62
ATOM     62  C   UNL A   1      42.116  26.307  27.631  1.00  0.00     0.023 A 
ATOM     63  C   UNL A   1      41.648  24.983  27.569  1.00  0.00     0.031 A 
ATOM     64  C   UNL A   1      42.866  26.789  26.543  1.00  0.00     0.131 A 
ATOM     65  C   UNL A   1      42.002  24.163  26.488  1.00  0.00     0.055 A 
ATOM     66  C   UNL A   1      43.137  25.994  25.426  1.00  0.00     0.041 A 
ATOM     67  F   UNL A   1      43.359  28.037  26.550  1.00  0.00    -0.206 F 
ATOM     68  C   UNL A   1      42.720  24.667  25.402  1.00  0.00     0.022 A 
BRANCH  65  69
ATOM     69  S   UNL A   1      41.647  22.387  26.598  1.00  0.00     0.124 S 
ATOM     70  O   UNL A   1      40.186  22.380  26.608  1.00  0.00    -0.237 OA
ATOM     71  O   UNL A   1      42.280  21.864  25.393  1.00  0.00    -0.237 OA
ATOM     72  O   UNL A   1      42.273  21.990  27.858  1.00  0.00    -0.744 OA
ENDBRANCH  65  69
ENDBRANCH  48  62
BRANCH  49  73
ATOM     73  C   UNL A   1      39.804  32.057  35.517  1.00  0.00     0.023 A 
ATOM     74  C   UNL A   1      38.925  31.553  36.487  1.00  0.00     0.031 A 
ATOM     75  C   UNL A   1      40.296  33.363  35.690  1.00  0.00     0.131 A 
ATOM     76  C   UNL A   1      38.524  32.365  37.561  1.00  0.00     0.055 A 
ATOM     77  C   UNL A   1      39.941  34.146  36.791  1.00  0.00     0.041 A 
ATOM     78  F   UNL A   1      41.142  33.896  34.794  1.00  0.00    -0.206 F 
ATOM     79  C   UNL A   1      39.039  33.652  37.727  1.00  0.00     0.022 A 
BRANCH  76  80
ATOM     80  S   UNL A   1      37.244  31.746  38.687  1.00  0.00     0.124 S 
ATOM     81  O   UNL A   1      36.163  32.699  38.458  1.00  0.00    -0.237 OA
ATOM     82  O   UNL A   1      37.025  30.394  38.184  1.00  0.00    -0.237 OA
ATOM     83  O   UNL A   1      37.879  31.826  40.000  1.00  0.00    -0.744 OA
ENDBRANCH  76  80
ENDBRANCH  49  73
BRANCH  61  84
ATOM     84  C   UNL A   1      45.025  27.636  34.134  1.00  0.00     0.023 A 
ATOM     85  C   UNL A   1      45.022  26.488  34.945  1.00  0.00     0.031 A 
ATOM     86  C   UNL A   1      46.206  28.399  34.073  1.00  0.00     0.131 A 
ATOM     87  C   UNL A   1      46.159  26.164  35.701  1.00  0.00     0.055 A 
ATOM     88  C   UNL A   1      47.355  28.035  34.776  1.00  0.00     0.041 A 
ATOM     89  F   UNL A   1      46.266  29.507  33.316  1.00  0.00    -0.206 F 
ATOM     90  C   UNL A   1      47.332  26.917  35.605  1.00  0.00     0.022 A 
BRANCH  87  91
ATOM     91  S   UNL A   1      46.058  24.789  36.879  1.00  0.00     0.124 S 
ATOM     92  O   UNL A   1      45.677  23.676  36.014  1.00  0.00    -0.237 OA
ATOM     93  O   UNL A   1      47.413  24.739  37.420  1.00  0.00    -0.237 OA
ATOM     94  O   UNL A   1      45.030  25.221  37.824  1.00  0.00    -0.744 OA
ENDBRANCH  87  91
ENDBRANCH  61  84
ENDBRANCH  35  36
ENDBRANCH  27  30
ENDBRANCH  25  26
ENDBRANCH   1  25
TORSDOF 16
ENDMDL
MODEL 2
REMARK VINA RESULT:     -11.5      1.298      1.486
REMARK SMILES CSc1ncc(Cl)c(C(=O)Nc2ccsc2C(=O)NCCCNC(=O)c2ccc(-c3c4nc(c(-c5cc(S(=O)(=O)[O-])ccc5F)c5ccc([nH]5)c(-c5cc(S(=O)(=O)[O-])ccc5F)c5nc(c(-c6cc(S(=O)(=O)[O-])ccc6F)c6ccc3[nH]6)C=C5)C=C4)cc2)n1
REMARK SMILES IDX 21 1 20 2 19 3 17 4 18 5 16 7 12 8 13 9 14 10 15 11 11 12
REMARK SMILES IDX 9 13 10 14 8 16 3 17 4 18 89 19 5 20 6 21 7 22 2 23 1 24
REMARK SMILES IDX 22 25 23 26 24 27 25 29 26 30 27 31 88 32 28 33 87 34 29 35
REMARK SMILES IDX 30 36 31 37 81 38 32 39 86 40 80 41 82 42 33 43 85 44 79 45
REMARK SMILES IDX 78 46 34 48 66 49 46 50 65 51 47 52 50 53 64 54 83 55 48 56
REMARK SMILES IDX 49 57 63 59 84 60 51 61 35 62 36 63 44 64 37 65 43 66 45 67
REMARK SMILES IDX 42 68 38 69 39 70 40 71 41 72 67 73 68 74 76 75 69 76 75 77
REMARK SMILES IDX 77 78 74 79 70 80 71 81 72 82 73 83 52 84 53 85 61 86 54 87
REMARK SMILES IDX 60 88 62 89 59 90 55 91 56 92 57 93 58 94
REMARK H PARENT 19 6 11 15 23 28 82 47 50 58
REMARK Flexibility Score: inf
ROOT
ATOM      1  C   UNL A   1      31.584  28.955  27.222  1.00  0.00     0.042 C 
ENDROOT
BRANCH   1   2
ATOM      2  C   UNL A   1      31.546  27.483  26.859  1.00  0.00     0.118 C 
BRANCH   2   3
ATOM      3  N   UNL A   1      32.798  26.812  26.609  1.00  0.00    -0.351 N 
ATOM      4  C   UNL A   1      33.216  25.996  25.575  1.00  0.00     0.263 C 
ATOM      5  O   UNL A   1      34.411  25.686  25.667  1.00  0.00    -0.268 OA
ATOM      6  H   UNL A   1      33.480  26.963  27.303  1.00  0.00     0.163 HD
BRANCH   4   7
ATOM      7  C   UNL A   1      32.354  25.479  24.489  1.00  0.00     0.115 A 
ATOM      8  C   UNL A   1      31.297  24.574  24.360  1.00  0.00     0.065 A 
ATOM      9  C   UNL A   1      30.920  24.331  23.002  1.00  0.00     0.038 A 
ATOM     10  C   UNL A   1      31.666  25.057  22.110  1.00  0.00     0.068 A 
ATOM     11  S   UNL A   1      32.801  26.045  22.895  1.00  0.00    -0.137 S 
BRANCH   8  12
ATOM     12  N   UNL A   1      30.641  23.966  25.409  1.00  0.00    -0.319 N 
ATOM     13  C   UNL A   1      30.974  22.815  26.104  1.00  0.00     0.276 C 
ATOM     14  O   UNL A   1      30.265  22.542  27.078  1.00  0.00    -0.267 OA
ATOM     15  H   UNL A   1      29.816  24.414  25.706  1.00  0.00     0.170 HD
BRANCH  13  16
ATOM     16  C   UNL A   1      32.149  21.928  25.807  1.00  0.00     0.151 A 
ATOM     17  C   UNL A   1      32.727  19.989  24.697  1.00  0.00     0.188 A 
ATOM     18  N   UNL A   1      34.021  20.110  25.018  1.00  0.00    -0.230 NA
ATOM     19  N   UNL A   1      31.792  20.895  24.998  1.00  0.00    -0.216 NA
ATOM     20  C   UNL A   1      34.334  21.123  25.846  1.00  0.00     0.137 A 
ATOM     21  C   UNL A   1      33.417  22.021  26.354  1.00  0.00     0.090 A 
ATOM     22  Cl  UNL A   1      33.914  22.959  27.700  1.00  0.00    -0.080 Cl
BRANCH  17  23
ATOM     23  S   UNL A   1      32.208  18.462  23.977  1.00  0.00    -0.090 SA
ATOM     24  C   UNL A   1      32.592  17.376  25.382  1.00  0.00     0.094 C 
ENDBRANCH  17  23
ENDBRANCH  13  16
ENDBRANCH   8  12
ENDBRANCH   4   7
ENDBRANCH   2   3
ENDBRANCH   1   2
BRANCH   1  25
ATOM     25  C   UNL A   1      32.545  29.818  26.431  1.00  0.00     0.118 C 
BRANCH  25  26
ATOM     26  N   UNL A   1      32.466  31.237  26.747  1.00  0.00    -0.352 N 
ATOM     27  C   UNL A   1      33.318  32.077  27.427  1.00  0.00     0.251 C 
ATOM     28  H   UNL A   1      31.652  31.677  26.412  1.00  0.00     0.163 HD
ATOM     29  O   UNL A   1      32.948  33.230  27.655  1.00  0.00    -0.269 OA
BRANCH  27  30
ATOM     30  C   UNL A   1      34.635  31.616  27.931  1.00  0.00     0.039 A 
ATOM     31  C   UNL A   1      35.691  32.533  28.014  1.00  0.00     0.014 A 
ATOM     32  C   UNL A   1      34.855  30.295  28.310  1.00  0.00     0.014 A 
ATOM     33  C   UNL A   1      36.914  32.146  28.577  1.00  0.00     0.010 A 
ATOM     34  C   UNL A   1      36.021  29.945  28.985  1.00  0.00     0.010 A 
ATOM     35  C   UNL A   1      37.068  30.866  29.130  1.00  0.00    -0.014 A 
BRANCH  35  36
ATOM     36  C   UNL A   1      38.303  30.458  29.858  1.00  0.00     0.031 A 
ATOM     37  C   UNL A   1      39.243  29.450  29.246  1.00  0.00     0.074 A 
ATOM     38  C   UNL A   1      38.533  30.920  31.104  1.00  0.00     0.049 A 
ATOM     39  N   UNL A   1      40.286  28.861  29.773  1.00  0.00    -0.248 NA
ATOM     40  C   UNL A   1      38.943  29.017  27.873  1.00  0.00     0.031 C 
ATOM     41  C   UNL A   1      37.681  31.869  31.826  1.00  0.00     0.029 A 
ATOM     42  N   UNL A   1      39.542  30.646  31.994  1.00  0.00    -0.354 N 
ATOM     43  C   UNL A   1      40.752  27.975  28.806  1.00  0.00     0.074 A 
ATOM     44  C   UNL A   1      39.834  28.054  27.691  1.00  0.00     0.031 C 
ATOM     45  C   UNL A   1      38.219  32.120  33.029  1.00  0.00     0.029 A 
ATOM     46  C   UNL A   1      39.418  31.306  33.197  1.00  0.00     0.049 A 
ATOM     47  H   UNL A   1      40.287  30.034  31.792  1.00  0.00     0.167 HD
ATOM     48  C   UNL A   1      41.857  27.189  28.833  1.00  0.00     0.034 A 
ATOM     49  C   UNL A   1      40.168  31.247  34.315  1.00  0.00     0.034 A 
ATOM     50  C   UNL A   1      42.775  27.138  29.944  1.00  0.00     0.049 A 
ATOM     51  C   UNL A   1      41.371  30.338  34.337  1.00  0.00     0.074 A 
ATOM     52  C   UNL A   1      43.956  26.425  30.053  1.00  0.00     0.029 A 
ATOM     53  N   UNL A   1      42.611  27.819  31.144  1.00  0.00    -0.354 N 
ATOM     54  N   UNL A   1      41.823  29.542  33.395  1.00  0.00    -0.248 NA
ATOM     55  C   UNL A   1      42.169  30.322  35.571  1.00  0.00     0.031 C 
ATOM     56  C   UNL A   1      44.464  26.612  31.343  1.00  0.00     0.029 A 
ATOM     57  C   UNL A   1      43.649  27.512  32.011  1.00  0.00     0.049 A 
ATOM     58  H   UNL A   1      41.868  28.430  31.349  1.00  0.00     0.167 HD
ATOM     59  C   UNL A   1      42.975  28.957  33.913  1.00  0.00     0.074 A 
ATOM     60  C   UNL A   1      43.156  29.502  35.243  1.00  0.00     0.031 C 
ATOM     61  C   UNL A   1      43.812  28.055  33.340  1.00  0.00     0.034 A 
BRANCH  48  62
ATOM     62  C   UNL A   1      42.116  26.307  27.631  1.00  0.00     0.023 A 
ATOM     63  C   UNL A   1      41.648  24.983  27.569  1.00  0.00     0.031 A 
ATOM     64  C   UNL A   1      42.866  26.789  26.543  1.00  0.00     0.131 A 
ATOM     65  C   UNL A   1      42.002  24.163  26.488  1.00  0.00     0.055 A 
ATOM     66  C   UNL A   1      43.137  25.994  25.426  1.00  0.00     0.041 A 
ATOM     67  F   UNL A   1      43.359  28.037  26.550  1.00  0.00    -0.206 F 
ATOM     68  C   UNL A   1      42.720  24.667  25.402  1.00  0.00     0.022 A 
BRANCH  65  69
ATOM     69  S   UNL A   1      41.647  22.387  26.598  1.00  0.00     0.124 S 
ATOM     70  O   UNL A   1      40.186  22.380  26.608  1.00  0.00    -0.237 OA
ATOM     71  O   UNL A   1      42.280  21.864  25.393  1.00  0.00    -0.237 OA
ATOM     72  O   UNL A   1      42.273  21.990  27.858  1.00  0.00    -0.744 OA
ENDBRANCH  65  69
ENDBRANCH  48  62
BRANCH  49  73
ATOM     73  C   UNL A   1      39.804  32.057  35.517  1.00  0.00     0.023 A 
ATOM     74  C   UNL A   1      38.925  31.553  36.487  1.00  0.00     0.031 A 
ATOM     75  C   UNL A   1      40.296  33.363  35.690  1.00  0.00     0.131 A 
ATOM     76  C   UNL A   1      38.524  32.365  37.561  1.00  0.00     0.055 A 
ATOM     77  C   UNL A   1      39.941  34.146  36.791  1.00  0.00     0.041 A 
ATOM     78  F   UNL A   1      41.142  33.896  34.794  1.00  0.00    -0.206 F 
ATOM     79  C   UNL A   1      39.039  33.652  37.727  1.00  0.00     0.022 A 
BRANCH  76  80
ATOM     80  S   UNL A   1      37.244  31.746  38.687  1.00  0.00     0.124 S 
ATOM     81  O   UNL A   1      36.163  32.699  38.458  1.00  0.00    -0.237 OA
ATOM     82  O   UNL A   1      37.025  30.394  38.184  1.00  0.00    -0.237 OA
ATOM     83  O   UNL A   1      37.879  31.826  40.000  1.00  0.00    -0.744 OA
ENDBRANCH  76  80
ENDBRANCH  49  73
BRANCH  61  84
ATOM     84  C   UNL A   1      45.025  27.636  34.134  1.00  0.00     0.023 A 
ATOM     85  C   UNL A   1      46.243  28.333  34.052  1.00  0.00     0.031 A 
ATOM     86  C   UNL A   1      44.958  26.522  34.991  1.00  0.00     0.131 A 
ATOM     87  C   UNL A   1      47.358  27.880  34.775  1.00  0.00     0.055 A 
ATOM     88  C   UNL A   1      46.051  26.115  35.757  1.00  0.00     0.041 A 
ATOM     89  F   UNL A   1      43.821  25.817  35.106  1.00  0.00    -0.206 F 
ATOM     90  C   UNL A   1      47.263  26.789  35.642  1.00  0.00     0.022 A 
BRANCH  87  91
ATOM     91  S   UNL A   1      48.959  28.686  34.502  1.00  0.00     0.124 S 
ATOM     92  O   UNL A   1      49.121  29.462  35.728  1.00  0.00    -0.237 OA
ATOM     93  O   UNL A   1      49.860  27.549  34.345  1.00  0.00    -0.237 OA
ATOM     94  O   UNL A   1      48.743  29.477  33.291  1.00  0.00    -0.744 OA
ENDBRANCH  87  91
ENDBRANCH  61  84
ENDBRANCH  35  36
ENDBRANCH  27  30
ENDBRANCH  25  26
ENDBRANCH   1  25
TORSDOF 16
ENDMDL
MODEL 3
REMARK VINA RESULT:     -11.5      5.142      9.971
REMARK SMILES CSc1ncc(Cl)c(C(=O)Nc2ccsc2C(=O)NCCCNC(=O)c2ccc(-c3c4nc(c(-c5cc(S(=O)(=O)[O-])ccc5F)c5ccc([nH]5)c(-c5cc(S(=O)(=O)[O-])ccc5F)c5nc(c(-c6cc(S(=O)(=O)[O-])ccc6F)c6ccc3[nH]6)C=C5)C=C4)cc2)n1
REMARK SMILES IDX 21 1 20 2 19 3 17 4 18 5 16 7 12 8 13 9 14 10 15 11 11 12
REMARK SMILES IDX 9 13 10 14 8 16 3 17 4 18 89 19 5 20 6 21 7 22 2 23 1 24
REMARK SMILES IDX 22 25 23 26 24 27 25 29 26 30 27 31 88 32 28 33 87 34 29 35
REMARK SMILES IDX 30 36 31 37 81 38 32 39 86 40 80 41 82 42 33 43 85 44 79 45
REMARK SMILES IDX 78 46 34 48 66 49 46 50 65 51 47 52 50 53 64 54 83 55 48 56
REMARK SMILES IDX 49 57 63 59 84 60 51 61 35 62 36 63 44 64 37 65 43 66 45 67
REMARK SMILES IDX 42 68 38 69 39 70 40 71 41 72 67 73 68 74 76 75 69 76 75 77
REMARK SMILES IDX 77 78 74 79 70 80 71 81 72 82 73 83 52 84 53 85 61 86 54 87
REMARK SMILES IDX 60 88 62 89 59 90 55 91 56 92 57 93 58 94
REMARK H PARENT 19 6 11 15 23 28 82 47 50 58
REMARK Flexibility Score: inf
ROOT
ATOM      1  C   UNL A   1      36.404  22.875  23.922  1.00  0.00     0.042 C 
ENDROOT
BRANCH   1   2
ATOM      2  C   UNL A   1      35.089  23.573  23.634  1.00  0.00     0.118 C 
BRANCH   2   3
ATOM      3  N   UNL A   1      34.034  22.808  23.016  1.00  0.00    -0.351 N 
ATOM      4  C   UNL A   1      32.774  22.451  23.457  1.00  0.00     0.263 C 
ATOM      5  O   UNL A   1      32.115  21.864  22.589  1.00  0.00    -0.268 OA
ATOM      6  H   UNL A   1      34.253  22.479  22.114  1.00  0.00     0.163 HD
BRANCH   4   7
ATOM      7  C   UNL A   1      32.250  22.674  24.823  1.00  0.00     0.115 A 
ATOM      8  C   UNL A   1      31.254  23.446  25.427  1.00  0.00     0.065 A 
ATOM      9  C   UNL A   1      31.279  23.388  26.857  1.00  0.00     0.038 A 
ATOM     10  C   UNL A   1      32.269  22.567  27.333  1.00  0.00     0.068 A 
ATOM     11  S   UNL A   1      33.152  21.848  26.074  1.00  0.00    -0.137 S 
BRANCH   8  12
ATOM     12  N   UNL A   1      30.309  24.189  24.754  1.00  0.00    -0.319 N 
ATOM     13  C   UNL A   1      30.434  25.431  24.152  1.00  0.00     0.276 C 
ATOM     14  O   UNL A   1      29.451  25.831  23.520  1.00  0.00    -0.267 OA
ATOM     15  H   UNL A   1      29.416  23.779  24.693  1.00  0.00     0.170 HD
BRANCH  13  16
ATOM     16  C   UNL A   1      31.673  26.279  24.155  1.00  0.00     0.151 A 
ATOM     17  C   UNL A   1      32.761  27.901  25.383  1.00  0.00     0.188 A 
ATOM     18  N   UNL A   1      33.800  27.940  24.540  1.00  0.00    -0.230 NA
ATOM     19  N   UNL A   1      31.738  27.050  25.273  1.00  0.00    -0.216 NA
ATOM     20  C   UNL A   1      33.689  27.190  23.428  1.00  0.00     0.137 A 
ATOM     21  C   UNL A   1      32.597  26.401  23.132  1.00  0.00     0.090 A 
ATOM     22  Cl  UNL A   1      32.444  25.866  21.510  1.00  0.00    -0.080 Cl
BRANCH  17  23
ATOM     23  S   UNL A   1      32.669  29.163  26.616  1.00  0.00    -0.090 SA
ATOM     24  C   UNL A   1      34.365  29.019  27.252  1.00  0.00     0.094 C 
ENDBRANCH  17  23
ENDBRANCH  13  16
ENDBRANCH   8  12
ENDBRANCH   4   7
ENDBRANCH   2   3
ENDBRANCH   1   2
BRANCH   1  25
ATOM     25  C   UNL A   1      36.593  22.353  25.331  1.00  0.00     0.118 C 
BRANCH  25  26
ATOM     26  N   UNL A   1      37.682  21.396  25.468  1.00  0.00    -0.352 N 
ATOM     27  C   UNL A   1      38.962  21.523  25.959  1.00  0.00     0.251 C 
ATOM     28  H   UNL A   1      37.462  20.491  25.153  1.00  0.00     0.163 HD
ATOM     29  O   UNL A   1      39.730  20.565  25.852  1.00  0.00    -0.269 OA
BRANCH  27  30
ATOM     30  C   UNL A   1      39.448  22.789  26.561  1.00  0.00     0.039 A 
ATOM     31  C   UNL A   1      40.396  22.734  27.591  1.00  0.00     0.014 A 
ATOM     32  C   UNL A   1      38.979  24.030  26.140  1.00  0.00     0.014 A 
ATOM     33  C   UNL A   1      40.942  23.916  28.107  1.00  0.00     0.010 A 
ATOM     34  C   UNL A   1      39.612  25.197  26.559  1.00  0.00     0.010 A 
ATOM     35  C   UNL A   1      40.604  25.158  27.548  1.00  0.00    -0.014 A 
BRANCH  35  36
ATOM     36  C   UNL A   1      41.261  26.426  27.974  1.00  0.00     0.031 A 
ATOM     37  C   UNL A   1      40.460  27.494  28.675  1.00  0.00     0.074 A 
ATOM     38  C   UNL A   1      42.550  26.657  27.651  1.00  0.00     0.049 A 
ATOM     39  N   UNL A   1      40.805  28.714  28.997  1.00  0.00    -0.248 NA
ATOM     40  C   UNL A   1      39.071  27.155  29.022  1.00  0.00     0.031 C 
ATOM     41  C   UNL A   1      43.425  25.722  26.939  1.00  0.00     0.029 A 
ATOM     42  N   UNL A   1      43.348  27.755  27.863  1.00  0.00    -0.354 N 
ATOM     43  C   UNL A   1      39.674  29.294  29.562  1.00  0.00     0.074 A 
ATOM     44  C   UNL A   1      38.613  28.313  29.472  1.00  0.00     0.031 C 
ATOM     45  C   UNL A   1      44.642  26.272  26.804  1.00  0.00     0.029 A 
ATOM     46  C   UNL A   1      44.623  27.621  27.358  1.00  0.00     0.049 A 
ATOM     47  H   UNL A   1      43.039  28.562  28.333  1.00  0.00     0.167 HD
ATOM     48  C   UNL A   1      39.536  30.519  30.129  1.00  0.00     0.034 A 
ATOM     49  C   UNL A   1      45.652  28.491  27.323  1.00  0.00     0.034 A 
ATOM     50  C   UNL A   1      40.610  31.477  30.230  1.00  0.00     0.049 A 
ATOM     51  C   UNL A   1      45.467  29.861  27.925  1.00  0.00     0.074 A 
ATOM     52  C   UNL A   1      40.599  32.720  30.837  1.00  0.00     0.029 A 
ATOM     53  N   UNL A   1      41.884  31.304  29.703  1.00  0.00    -0.354 N 
ATOM     54  N   UNL A   1      44.402  30.375  28.498  1.00  0.00    -0.248 NA
ATOM     55  C   UNL A   1      46.622  30.768  27.881  1.00  0.00     0.031 C 
ATOM     56  C   UNL A   1      41.837  33.330  30.611  1.00  0.00     0.029 A 
ATOM     57  C   UNL A   1      42.653  32.434  29.939  1.00  0.00     0.049 A 
ATOM     58  H   UNL A   1      42.195  30.498  29.233  1.00  0.00     0.167 HD
ATOM     59  C   UNL A   1      44.772  31.652  28.910  1.00  0.00     0.074 A 
ATOM     60  C   UNL A   1      46.160  31.824  28.534  1.00  0.00     0.031 C 
ATOM     61  C   UNL A   1      44.034  32.597  29.548  1.00  0.00     0.034 A 
BRANCH  48  62
ATOM     62  C   UNL A   1      38.171  30.893  30.660  1.00  0.00     0.023 A 
ATOM     63  C   UNL A   1      37.215  31.539  29.857  1.00  0.00     0.031 A 
ATOM     64  C   UNL A   1      37.829  30.625  31.998  1.00  0.00     0.131 A 
ATOM     65  C   UNL A   1      36.003  31.969  30.416  1.00  0.00     0.055 A 
ATOM     66  C   UNL A   1      36.582  30.974  32.524  1.00  0.00     0.041 A 
ATOM     67  F   UNL A   1      38.704  30.030  32.823  1.00  0.00    -0.206 F 
ATOM     68  C   UNL A   1      35.668  31.666  31.738  1.00  0.00     0.022 A 
BRANCH  65  69
ATOM     69  S   UNL A   1      34.941  33.067  29.438  1.00  0.00     0.124 S 
ATOM     70  O   UNL A   1      34.119  33.684  30.476  1.00  0.00    -0.237 OA
ATOM     71  O   UNL A   1      35.908  33.942  28.785  1.00  0.00    -0.237 OA
ATOM     72  O   UNL A   1      34.226  32.151  28.550  1.00  0.00    -0.744 OA
ENDBRANCH  65  69
ENDBRANCH  48  62
BRANCH  49  73
ATOM     73  C   UNL A   1      46.947  28.109  26.685  1.00  0.00     0.023 A 
ATOM     74  C   UNL A   1      47.087  28.091  25.289  1.00  0.00     0.031 A 
ATOM     75  C   UNL A   1      48.052  27.714  27.462  1.00  0.00     0.131 A 
ATOM     76  C   UNL A   1      48.284  27.640  24.710  1.00  0.00     0.055 A 
ATOM     77  C   UNL A   1      49.261  27.324  26.882  1.00  0.00     0.041 A 
ATOM     78  F   UNL A   1      47.977  27.714  28.803  1.00  0.00    -0.206 F 
ATOM     79  C   UNL A   1      49.378  27.272  25.497  1.00  0.00     0.022 A 
BRANCH  76  80
ATOM     80  S   UNL A   1      48.359  27.452  22.907  1.00  0.00     0.124 S 
ATOM     81  O   UNL A   1      49.644  28.069  22.599  1.00  0.00    -0.237 OA
ATOM     82  O   UNL A   1      48.286  26.004  22.750  1.00  0.00    -0.237 OA
ATOM     83  O   UNL A   1      47.186  28.189  22.441  1.00  0.00    -0.744 OA
ENDBRANCH  76  80
ENDBRANCH  49  73
BRANCH  61  84
ATOM     84  C   UNL A   1      44.730  33.883  29.918  1.00  0.00     0.023 A 
ATOM     85  C   UNL A   1      44.713  35.006  29.073  1.00  0.00     0.031 A 
ATOM     86  C   UNL A   1      45.417  33.988  31.141  1.00  0.00     0.131 A 
ATOM     87  C   UNL A   1      45.413  36.167  29.439  1.00  0.00     0.055 A 
ATOM     88  C   UNL A   1      46.057  35.166  31.530  1.00  0.00     0.041 A 
ATOM     89  F   UNL A   1      45.469  32.945  31.987  1.00  0.00    -0.206 F 
ATOM     90  C   UNL A   1      46.066  36.261  30.671  1.00  0.00     0.022 A 
BRANCH  87  91
ATOM     91  S   UNL A   1      45.529  37.527  28.245  1.00  0.00     0.124 S 
ATOM     92  O   UNL A   1      44.158  37.617  27.754  1.00  0.00    -0.237 OA
ATOM     93  O   UNL A   1      45.983  38.637  29.077  1.00  0.00    -0.237 OA
ATOM     94  O   UNL A   1      46.507  37.044  27.270  1.00  0.00    -0.744 OA
ENDBRANCH  87  91
ENDBRANCH  61  84
ENDBRANCH  35  36
ENDBRANCH  27  30
ENDBRANCH  25  26
ENDBRANCH   1  25
TORSDOF 16
ENDMDL
