MODEL 1
REMARK VINA RESULT:     -11.8      0.000      0.000
REMARK SMILES CC[C@@](C)(NC(=O)c1cccc(Br)c1C)C(=O)NCCCNC(=O)c1ccc(-c2c3nc(c(-c4cc(S(=O)(=O)[O-])ccc4F)c4ccc([nH]4)c(-c4cc(S(=O)(=O)[O-])ccc4F)c4nc(c(-c5cc(S(=O)(=O)[O-])ccc5F)c5ccc2[nH]5)C=C4)C=C3)cc1
REMARK SMILES IDX 20 1 19 2 18 3 16 4 17 5 3 7 4 8 2 9 1 10 5 11 6 12 7 14
REMARK SMILES IDX 8 15 9 16 14 17 10 18 12 19 15 20 11 21 13 22 21 23 22 24
REMARK SMILES IDX 23 25 24 27 25 28 26 29 87 30 27 31 86 32 28 33 29 34 30 35
REMARK SMILES IDX 80 36 31 37 85 38 79 39 81 40 32 41 84 42 78 43 77 44 33 46
REMARK SMILES IDX 65 47 45 48 64 49 46 50 49 51 63 52 82 53 47 54 48 55 62 57
REMARK SMILES IDX 83 58 50 59 34 60 35 61 43 62 36 63 42 64 44 65 41 66 37 67
REMARK SMILES IDX 38 68 39 69 40 70 66 71 67 72 75 73 68 74 74 75 76 76 73 77
REMARK SMILES IDX 69 78 70 79 71 80 72 81 51 82 52 83 60 84 53 85 59 86 61 87
REMARK SMILES IDX 58 88 54 89 55 90 56 91 57 92
REMARK H PARENT 18 6 5 13 22 26 81 45 49 56
REMARK Flexibility Score: inf
ROOT
ATOM      1  C   UNL A   1      31.864  29.090  27.047  1.00  0.00     0.042 C 
ENDROOT
BRANCH   1   2
ATOM      2  C   UNL A   1      32.064  27.533  27.102  1.00  0.00     0.117 C 
BRANCH   2   3
ATOM      3  N   UNL A   1      30.953  26.604  26.852  1.00  0.00    -0.354 N 
ATOM      4  C   UNL A   1      30.591  25.647  25.936  1.00  0.00     0.245 C 
ATOM      5  O   UNL A   1      29.826  24.793  26.421  1.00  0.00    -0.272 OA
ATOM      6  H   UNL A   1      30.263  26.693  27.549  1.00  0.00     0.163 HD
BRANCH   4   7
ATOM      7  C   UNL A   1      30.990  25.506  24.393  1.00  0.00     0.116 C 
ATOM      8  C   UNL A   1      30.468  24.162  23.851  1.00  0.00     0.045 C 
BRANCH   7   9
ATOM      9  C   UNL A   1      30.319  26.670  23.559  1.00  0.00     0.035 C 
ATOM     10  C   UNL A   1      31.138  27.358  22.470  1.00  0.00     0.007 C 
ENDBRANCH   7   9
BRANCH   7  11
ATOM     11  N   UNL A   1      32.450  25.578  24.010  1.00  0.00    -0.338 N 
ATOM     12  C   UNL A   1      33.567  25.166  24.725  1.00  0.00     0.252 C 
ATOM     13  H   UNL A   1      32.636  25.976  23.129  1.00  0.00     0.164 HD
ATOM     14  O   UNL A   1      34.528  25.924  24.823  1.00  0.00    -0.269 OA
BRANCH  12  15
ATOM     15  C   UNL A   1      33.647  23.795  25.291  1.00  0.00     0.043 A 
ATOM     16  C   UNL A   1      33.832  23.581  26.661  1.00  0.00     0.014 A 
ATOM     17  C   UNL A   1      33.786  22.703  24.437  1.00  0.00    -0.024 A 
ATOM     18  C   UNL A   1      33.947  22.280  27.161  1.00  0.00     0.002 A 
ATOM     19  C   UNL A   1      33.558  21.425  24.961  1.00  0.00     0.021 A 
ATOM     20  C   UNL A   1      34.627  22.963  23.212  1.00  0.00     0.046 C 
ATOM     21  C   UNL A   1      33.714  21.202  26.319  1.00  0.00     0.016 A 
ATOM     22  Br  UNL A   1      32.606  20.056  24.048  1.00  0.00    -0.051 Br
ENDBRANCH  12  15
ENDBRANCH   7  11
ENDBRANCH   4   7
ENDBRANCH   2   3
ENDBRANCH   1   2
BRANCH   1  23
ATOM     23  C   UNL A   1      32.842  30.086  26.387  1.00  0.00     0.118 C 
BRANCH  23  24
ATOM     24  N   UNL A   1      32.759  31.462  26.821  1.00  0.00    -0.352 N 
ATOM     25  C   UNL A   1      33.626  32.176  27.627  1.00  0.00     0.251 C 
ATOM     26  H   UNL A   1      31.975  31.962  26.497  1.00  0.00     0.163 HD
ATOM     27  O   UNL A   1      33.262  33.275  28.043  1.00  0.00    -0.269 OA
BRANCH  25  28
ATOM     28  C   UNL A   1      34.977  31.671  28.021  1.00  0.00     0.039 A 
ATOM     29  C   UNL A   1      35.072  30.384  28.569  1.00  0.00     0.014 A 
ATOM     30  C   UNL A   1      36.114  32.487  28.027  1.00  0.00     0.014 A 
ATOM     31  C   UNL A   1      36.283  29.918  29.109  1.00  0.00     0.010 A 
ATOM     32  C   UNL A   1      37.336  32.008  28.548  1.00  0.00     0.010 A 
ATOM     33  C   UNL A   1      37.434  30.724  29.115  1.00  0.00    -0.014 A 
BRANCH  33  34
ATOM     34  C   UNL A   1      38.695  30.218  29.755  1.00  0.00     0.031 A 
ATOM     35  C   UNL A   1      39.091  30.657  31.149  1.00  0.00     0.074 A 
ATOM     36  C   UNL A   1      39.477  29.328  29.106  1.00  0.00     0.049 A 
ATOM     37  N   UNL A   1      40.086  30.249  31.900  1.00  0.00    -0.248 NA
ATOM     38  C   UNL A   1      38.271  31.707  31.765  1.00  0.00     0.031 C 
ATOM     39  C   UNL A   1      39.246  28.850  27.742  1.00  0.00     0.029 A 
ATOM     40  N   UNL A   1      40.611  28.658  29.502  1.00  0.00    -0.354 N 
ATOM     41  C   UNL A   1      40.010  30.992  33.078  1.00  0.00     0.074 A 
ATOM     42  C   UNL A   1      38.911  31.919  32.906  1.00  0.00     0.031 C 
ATOM     43  C   UNL A   1      40.181  27.938  27.431  1.00  0.00     0.029 A 
ATOM     44  C   UNL A   1      41.094  27.775  28.560  1.00  0.00     0.049 A 
ATOM     45  H   UNL A   1      41.038  28.795  30.379  1.00  0.00     0.167 HD
ATOM     46  C   UNL A   1      40.767  30.898  34.205  1.00  0.00     0.034 A 
ATOM     47  C   UNL A   1      42.138  26.920  28.601  1.00  0.00     0.034 A 
ATOM     48  C   UNL A   1      41.860  29.967  34.371  1.00  0.00     0.049 A 
ATOM     49  C   UNL A   1      42.955  26.819  29.866  1.00  0.00     0.074 A 
ATOM     50  C   UNL A   1      42.661  29.759  35.482  1.00  0.00     0.029 A 
ATOM     51  N   UNL A   1      42.315  29.091  33.392  1.00  0.00    -0.354 N 
ATOM     52  N   UNL A   1      42.823  27.483  30.992  1.00  0.00    -0.248 NA
ATOM     53  C   UNL A   1      44.045  25.834  29.874  1.00  0.00     0.031 C 
ATOM     54  C   UNL A   1      43.634  28.805  35.156  1.00  0.00     0.029 A 
ATOM     55  C   UNL A   1      43.397  28.361  33.866  1.00  0.00     0.049 A 
ATOM     56  H   UNL A   1      41.925  29.001  32.492  1.00  0.00     0.167 HD
ATOM     57  C   UNL A   1      43.796  26.973  31.849  1.00  0.00     0.074 A 
ATOM     58  C   UNL A   1      44.486  25.930  31.119  1.00  0.00     0.031 C 
ATOM     59  C   UNL A   1      44.093  27.334  33.125  1.00  0.00     0.034 A 
BRANCH  46  60
ATOM     60  C   UNL A   1      40.444  31.847  35.342  1.00  0.00     0.023 A 
ATOM     61  C   UNL A   1      39.393  31.592  36.241  1.00  0.00     0.031 A 
ATOM     62  C   UNL A   1      41.178  33.035  35.516  1.00  0.00     0.131 A 
ATOM     63  C   UNL A   1      39.050  32.547  37.212  1.00  0.00     0.055 A 
ATOM     64  C   UNL A   1      40.885  33.941  36.539  1.00  0.00     0.041 A 
ATOM     65  F   UNL A   1      42.187  33.344  34.685  1.00  0.00    -0.206 F 
ATOM     66  C   UNL A   1      39.804  33.708  37.384  1.00  0.00     0.022 A 
BRANCH  63  67
ATOM     67  S   UNL A   1      37.510  32.318  38.145  1.00  0.00     0.124 S 
ATOM     68  O   UNL A   1      36.584  33.160  37.394  1.00  0.00    -0.237 OA
ATOM     69  O   UNL A   1      37.292  30.881  38.048  1.00  0.00    -0.237 OA
ATOM     70  O   UNL A   1      37.844  32.810  39.482  1.00  0.00    -0.744 OA
ENDBRANCH  63  67
ENDBRANCH  46  60
BRANCH  47  71
ATOM     71  C   UNL A   1      42.472  26.072  27.416  1.00  0.00     0.023 A 
ATOM     72  C   UNL A   1      42.054  24.732  27.336  1.00  0.00     0.031 A 
ATOM     73  C   UNL A   1      43.255  26.578  26.363  1.00  0.00     0.131 A 
ATOM     74  C   UNL A   1      42.456  23.935  26.252  1.00  0.00     0.055 A 
ATOM     75  C   UNL A   1      43.609  25.797  25.262  1.00  0.00     0.041 A 
ATOM     76  F   UNL A   1      43.680  27.852  26.386  1.00  0.00    -0.206 F 
ATOM     77  C   UNL A   1      43.219  24.462  25.208  1.00  0.00     0.022 A 
BRANCH  74  78
ATOM     78  S   UNL A   1      42.032  22.170  26.261  1.00  0.00     0.124 S 
ATOM     79  O   UNL A   1      42.497  21.758  27.580  1.00  0.00    -0.237 OA
ATOM     80  O   UNL A   1      40.585  22.206  26.072  1.00  0.00    -0.237 OA
ATOM     81  O   UNL A   1      42.791  21.632  25.134  1.00  0.00    -0.744 OA
ENDBRANCH  74  78
ENDBRANCH  47  71
BRANCH  59  82
ATOM     82  C   UNL A   1      45.195  26.564  33.813  1.00  0.00     0.023 A 
ATOM     83  C   UNL A   1      44.941  25.356  34.488  1.00  0.00     0.031 A 
ATOM     84  C   UNL A   1      46.509  27.063  33.830  1.00  0.00     0.131 A 
ATOM     85  C   UNL A   1      45.966  24.731  35.215  1.00  0.00     0.055 A 
ATOM     86  C   UNL A   1      47.541  26.401  34.498  1.00  0.00     0.041 A 
ATOM     87  F   UNL A   1      46.812  28.212  33.204  1.00  0.00    -0.206 F 
ATOM     88  C   UNL A   1      47.268  25.237  35.212  1.00  0.00     0.022 A 
BRANCH  85  89
ATOM     89  S   UNL A   1      45.546  23.314  36.268  1.00  0.00     0.124 S 
ATOM     90  O   UNL A   1      46.797  22.564  36.284  1.00  0.00    -0.237 OA
ATOM     91  O   UNL A   1      45.172  23.959  37.523  1.00  0.00    -0.237 OA
ATOM     92  O   UNL A   1      44.445  22.669  35.552  1.00  0.00    -0.744 OA
ENDBRANCH  85  89
ENDBRANCH  59  82
ENDBRANCH  33  34
ENDBRANCH  25  28
ENDBRANCH  23  24
ENDBRANCH   1  23
TORSDOF 16
ENDMDL
MODEL 2
REMARK VINA RESULT:     -11.8      1.709      2.077
REMARK SMILES CC[C@@](C)(NC(=O)c1cccc(Br)c1C)C(=O)NCCCNC(=O)c1ccc(-c2c3nc(c(-c4cc(S(=O)(=O)[O-])ccc4F)c4ccc([nH]4)c(-c4cc(S(=O)(=O)[O-])ccc4F)c4nc(c(-c5cc(S(=O)(=O)[O-])ccc5F)c5ccc2[nH]5)C=C4)C=C3)cc1
REMARK SMILES IDX 20 1 19 2 18 3 16 4 17 5 3 7 4 8 2 9 1 10 5 11 6 12 7 14
REMARK SMILES IDX 8 15 9 16 14 17 10 18 12 19 15 20 11 21 13 22 21 23 22 24
REMARK SMILES IDX 23 25 24 27 25 28 26 29 87 30 27 31 86 32 28 33 29 34 30 35
REMARK SMILES IDX 80 36 31 37 85 38 79 39 81 40 32 41 84 42 78 43 77 44 33 46
REMARK SMILES IDX 65 47 45 48 64 49 46 50 49 51 63 52 82 53 47 54 48 55 62 57
REMARK SMILES IDX 83 58 50 59 34 60 35 61 43 62 36 63 42 64 44 65 41 66 37 67
REMARK SMILES IDX 38 68 39 69 40 70 66 71 67 72 75 73 68 74 74 75 76 76 73 77
REMARK SMILES IDX 69 78 70 79 71 80 72 81 51 82 52 83 60 84 53 85 59 86 61 87
REMARK SMILES IDX 58 88 54 89 55 90 56 91 57 92
REMARK H PARENT 18 6 5 13 22 26 81 45 49 56
REMARK Flexibility Score: inf
ROOT
ATOM      1  C   UNL A   1      33.037  29.328  25.025  1.00  0.00     0.042 C 
ENDROOT
BRANCH   1   2
ATOM      2  C   UNL A   1      33.663  27.909  24.776  1.00  0.00     0.117 C 
BRANCH   2   3
ATOM      3  N   UNL A   1      33.398  26.780  25.680  1.00  0.00    -0.354 N 
ATOM      4  C   UNL A   1      32.729  25.581  25.668  1.00  0.00     0.245 C 
ATOM      5  O   UNL A   1      33.212  24.762  26.470  1.00  0.00    -0.272 OA
ATOM      6  H   UNL A   1      33.829  26.926  26.552  1.00  0.00     0.163 HD
BRANCH   4   7
ATOM      7  C   UNL A   1      31.456  25.129  24.811  1.00  0.00     0.116 C 
ATOM      8  C   UNL A   1      30.736  23.975  25.535  1.00  0.00     0.045 C 
BRANCH   7   9
ATOM      9  C   UNL A   1      30.444  26.337  24.679  1.00  0.00     0.035 C 
ATOM     10  C   UNL A   1      30.098  26.855  23.285  1.00  0.00     0.007 C 
ENDBRANCH   7   9
BRANCH   7  11
ATOM     11  N   UNL A   1      31.663  24.671  23.385  1.00  0.00    -0.338 N 
ATOM     12  C   UNL A   1      32.827  24.238  22.764  1.00  0.00     0.252 C 
ATOM     13  H   UNL A   1      30.860  24.682  22.817  1.00  0.00     0.164 HD
ATOM     14  O   UNL A   1      33.122  24.696  21.663  1.00  0.00    -0.269 OA
BRANCH  12  15
ATOM     15  C   UNL A   1      33.664  23.171  23.368  1.00  0.00     0.043 A 
ATOM     16  C   UNL A   1      35.040  23.339  23.553  1.00  0.00     0.014 A 
ATOM     17  C   UNL A   1      33.137  21.892  23.535  1.00  0.00    -0.024 A 
ATOM     18  C   UNL A   1      35.812  22.301  24.085  1.00  0.00     0.002 A 
ATOM     19  C   UNL A   1      33.824  21.001  24.368  1.00  0.00     0.021 A 
ATOM     20  C   UNL A   1      32.191  21.452  22.446  1.00  0.00     0.046 C 
ATOM     21  C   UNL A   1      35.183  21.168  24.579  1.00  0.00     0.016 A 
ATOM     22  Br  UNL A   1      32.976  19.837  25.609  1.00  0.00    -0.051 Br
ENDBRANCH  12  15
ENDBRANCH   7  11
ENDBRANCH   4   7
ENDBRANCH   2   3
ENDBRANCH   1   2
BRANCH   1  23
ATOM     23  C   UNL A   1      32.196  29.721  26.258  1.00  0.00     0.118 C 
BRANCH  23  24
ATOM     24  N   UNL A   1      32.020  31.135  26.501  1.00  0.00    -0.352 N 
ATOM     25  C   UNL A   1      32.825  32.004  27.214  1.00  0.00     0.251 C 
ATOM     26  H   UNL A   1      31.213  31.536  26.103  1.00  0.00     0.163 HD
ATOM     27  O   UNL A   1      32.385  33.124  27.473  1.00  0.00    -0.269 OA
BRANCH  25  28
ATOM     28  C   UNL A   1      34.196  31.643  27.690  1.00  0.00     0.039 A 
ATOM     29  C   UNL A   1      34.414  30.343  28.164  1.00  0.00     0.014 A 
ATOM     30  C   UNL A   1      35.214  32.592  27.842  1.00  0.00     0.014 A 
ATOM     31  C   UNL A   1      35.630  29.993  28.775  1.00  0.00     0.010 A 
ATOM     32  C   UNL A   1      36.444  32.232  28.434  1.00  0.00     0.010 A 
ATOM     33  C   UNL A   1      36.664  30.933  28.928  1.00  0.00    -0.014 A 
BRANCH  33  34
ATOM     34  C   UNL A   1      37.927  30.542  29.641  1.00  0.00     0.031 A 
ATOM     35  C   UNL A   1      38.189  30.992  31.061  1.00  0.00     0.074 A 
ATOM     36  C   UNL A   1      38.832  29.747  29.031  1.00  0.00     0.049 A 
ATOM     37  N   UNL A   1      39.172  30.671  31.870  1.00  0.00    -0.248 NA
ATOM     38  C   UNL A   1      37.232  31.945  31.638  1.00  0.00     0.031 C 
ATOM     39  C   UNL A   1      38.736  29.274  27.650  1.00  0.00     0.029 A 
ATOM     40  N   UNL A   1      40.002  29.185  29.490  1.00  0.00    -0.354 N 
ATOM     41  C   UNL A   1      38.950  31.381  33.050  1.00  0.00     0.074 A 
ATOM     42  C   UNL A   1      37.776  32.197  32.820  1.00  0.00     0.031 C 
ATOM     43  C   UNL A   1      39.775  28.464  27.387  1.00  0.00     0.029 A 
ATOM     44  C   UNL A   1      40.628  28.373  28.570  1.00  0.00     0.049 A 
ATOM     45  H   UNL A   1      40.358  29.347  30.394  1.00  0.00     0.167 HD
ATOM     46  C   UNL A   1      39.640  31.341  34.221  1.00  0.00     0.034 A 
ATOM     47  C   UNL A   1      41.748  27.625  28.666  1.00  0.00     0.034 A 
ATOM     48  C   UNL A   1      40.809  30.520  34.444  1.00  0.00     0.049 A 
ATOM     49  C   UNL A   1      42.491  27.581  29.979  1.00  0.00     0.074 A 
ATOM     50  C   UNL A   1      41.556  30.372  35.601  1.00  0.00     0.029 A 
ATOM     51  N   UNL A   1      41.409  29.712  33.485  1.00  0.00    -0.354 N 
ATOM     52  N   UNL A   1      42.223  28.207  31.103  1.00  0.00    -0.248 NA
ATOM     53  C   UNL A   1      43.672  26.709  30.044  1.00  0.00     0.031 C 
ATOM     54  C   UNL A   1      42.639  29.526  35.326  1.00  0.00     0.029 A 
ATOM     55  C   UNL A   1      42.527  29.085  34.017  1.00  0.00     0.049 A 
ATOM     56  H   UNL A   1      41.087  29.601  32.562  1.00  0.00     0.167 HD
ATOM     57  C   UNL A   1      43.188  27.781  32.013  1.00  0.00     0.074 A 
ATOM     58  C   UNL A   1      44.023  26.825  31.315  1.00  0.00     0.031 C 
ATOM     59  C   UNL A   1      43.367  28.146  33.309  1.00  0.00     0.034 A 
BRANCH  46  60
ATOM     60  C   UNL A   1      39.155  32.232  35.347  1.00  0.00     0.023 A 
ATOM     61  C   UNL A   1      39.590  33.564  35.475  1.00  0.00     0.031 A 
ATOM     62  C   UNL A   1      38.267  31.739  36.320  1.00  0.00     0.131 A 
ATOM     63  C   UNL A   1      39.209  34.325  36.592  1.00  0.00     0.055 A 
ATOM     64  C   UNL A   1      37.824  32.531  37.384  1.00  0.00     0.041 A 
ATOM     65  F   UNL A   1      37.822  30.474  36.264  1.00  0.00    -0.206 F 
ATOM     66  C   UNL A   1      38.309  33.826  37.535  1.00  0.00     0.022 A 
BRANCH  63  67
ATOM     67  S   UNL A   1      40.028  35.919  36.873  1.00  0.00     0.124 S 
ATOM     68  O   UNL A   1      39.335  36.400  38.065  1.00  0.00    -0.237 OA
ATOM     69  O   UNL A   1      41.421  35.532  37.054  1.00  0.00    -0.237 OA
ATOM     70  O   UNL A   1      39.743  36.670  35.649  1.00  0.00    -0.744 OA
ENDBRANCH  63  67
ENDBRANCH  46  60
BRANCH  47  71
ATOM     71  C   UNL A   1      42.237  26.836  27.494  1.00  0.00     0.023 A 
ATOM     72  C   UNL A   1      42.010  25.452  27.399  1.00  0.00     0.031 A 
ATOM     73  C   UNL A   1      42.982  27.450  26.471  1.00  0.00     0.131 A 
ATOM     74  C   UNL A   1      42.557  24.723  26.330  1.00  0.00     0.055 A 
ATOM     75  C   UNL A   1      43.479  26.730  25.384  1.00  0.00     0.041 A 
ATOM     76  F   UNL A   1      43.227  28.769  26.509  1.00  0.00    -0.206 F 
ATOM     77  C   UNL A   1      43.278  25.354  25.315  1.00  0.00     0.022 A 
BRANCH  74  78
ATOM     78  S   UNL A   1      42.378  22.916  26.324  1.00  0.00     0.124 S 
ATOM     79  O   UNL A   1      40.977  22.754  26.692  1.00  0.00    -0.237 OA
ATOM     80  O   UNL A   1      42.724  22.584  24.945  1.00  0.00    -0.237 OA
ATOM     81  O   UNL A   1      43.344  22.475  27.329  1.00  0.00    -0.744 OA
ENDBRANCH  74  78
ENDBRANCH  47  71
BRANCH  59  82
ATOM     82  C   UNL A   1      44.496  27.476  34.057  1.00  0.00     0.023 A 
ATOM     83  C   UNL A   1      44.299  26.285  34.779  1.00  0.00     0.031 A 
ATOM     84  C   UNL A   1      45.776  28.056  34.081  1.00  0.00     0.131 A 
ATOM     85  C   UNL A   1      45.342  25.756  35.556  1.00  0.00     0.055 A 
ATOM     86  C   UNL A   1      46.829  27.489  34.802  1.00  0.00     0.041 A 
ATOM     87  F   UNL A   1      46.025  29.194  33.412  1.00  0.00    -0.206 F 
ATOM     88  C   UNL A   1      46.610  26.342  35.561  1.00  0.00     0.022 A 
BRANCH  85  89
ATOM     89  S   UNL A   1      44.981  24.363  36.662  1.00  0.00     0.124 S 
ATOM     90  O   UNL A   1      44.169  23.501  35.810  1.00  0.00    -0.237 OA
ATOM     91  O   UNL A   1      46.316  23.867  36.983  1.00  0.00    -0.237 OA
ATOM     92  O   UNL A   1      44.268  24.984  37.776  1.00  0.00    -0.744 OA
ENDBRANCH  85  89
ENDBRANCH  59  82
ENDBRANCH  33  34
ENDBRANCH  25  28
ENDBRANCH  23  24
ENDBRANCH   1  23
TORSDOF 16
ENDMDL
MODEL 3
REMARK VINA RESULT:     -11.8      4.925     10.092
REMARK SMILES CC[C@@](C)(NC(=O)c1cccc(Br)c1C)C(=O)NCCCNC(=O)c1ccc(-c2c3nc(c(-c4cc(S(=O)(=O)[O-])ccc4F)c4ccc([nH]4)c(-c4cc(S(=O)(=O)[O-])ccc4F)c4nc(c(-c5cc(S(=O)(=O)[O-])ccc5F)c5ccc2[nH]5)C=C4)C=C3)cc1
REMARK SMILES IDX 20 1 19 2 18 3 16 4 17 5 3 7 4 8 2 9 1 10 5 11 6 12 7 14
REMARK SMILES IDX 8 15 9 16 14 17 10 18 12 19 15 20 11 21 13 22 21 23 22 24
REMARK SMILES IDX 23 25 24 27 25 28 26 29 87 30 27 31 86 32 28 33 29 34 30 35
REMARK SMILES IDX 80 36 31 37 85 38 79 39 81 40 32 41 84 42 78 43 77 44 33 46
REMARK SMILES IDX 65 47 45 48 64 49 46 50 49 51 63 52 82 53 47 54 48 55 62 57
REMARK SMILES IDX 83 58 50 59 34 60 35 61 43 62 36 63 42 64 44 65 41 66 37 67
REMARK SMILES IDX 38 68 39 69 40 70 66 71 67 72 75 73 68 74 74 75 76 76 73 77
REMARK SMILES IDX 69 78 70 79 71 80 72 81 51 82 52 83 60 84 53 85 59 86 61 87
REMARK SMILES IDX 58 88 54 89 55 90 56 91 57 92
REMARK H PARENT 18 6 5 13 22 26 81 45 49 56
REMARK Flexibility Score: inf
ROOT
ATOM      1  C   UNL A   1      35.815  21.732  25.663  1.00  0.00     0.042 C 
ENDROOT
BRANCH   1   2
ATOM      2  C   UNL A   1      35.428  23.137  26.250  1.00  0.00     0.117 C 
BRANCH   2   3
ATOM      3  N   UNL A   1      34.137  23.364  26.917  1.00  0.00    -0.354 N 
ATOM      4  C   UNL A   1      32.799  23.350  26.613  1.00  0.00     0.245 C 
ATOM      5  O   UNL A   1      32.090  23.108  27.607  1.00  0.00    -0.272 OA
ATOM      6  H   UNL A   1      34.274  23.595  27.865  1.00  0.00     0.163 HD
BRANCH   4   7
ATOM      7  C   UNL A   1      32.065  23.614  25.216  1.00  0.00     0.116 C 
ATOM      8  C   UNL A   1      32.957  24.502  24.329  1.00  0.00     0.045 C 
BRANCH   7   9
ATOM      9  C   UNL A   1      31.833  22.241  24.467  1.00  0.00     0.035 C 
ATOM     10  C   UNL A   1      32.540  22.003  23.135  1.00  0.00     0.007 C 
ENDBRANCH   7   9
BRANCH   7  11
ATOM     11  N   UNL A   1      30.698  24.259  25.223  1.00  0.00    -0.338 N 
ATOM     12  C   UNL A   1      30.262  25.382  25.914  1.00  0.00     0.252 C 
ATOM     13  H   UNL A   1      30.021  23.822  24.658  1.00  0.00     0.164 HD
ATOM     14  O   UNL A   1      29.200  25.330  26.530  1.00  0.00    -0.269 OA
BRANCH  12  15
ATOM     15  C   UNL A   1      31.012  26.662  25.843  1.00  0.00     0.043 A 
ATOM     16  C   UNL A   1      31.479  27.299  26.997  1.00  0.00     0.014 A 
ATOM     17  C   UNL A   1      31.050  27.373  24.646  1.00  0.00    -0.024 A 
ATOM     18  C   UNL A   1      32.145  28.526  26.904  1.00  0.00     0.002 A 
ATOM     19  C   UNL A   1      31.995  28.399  24.519  1.00  0.00     0.021 A 
ATOM     20  C   UNL A   1      29.784  27.304  23.829  1.00  0.00     0.046 C 
ATOM     21  C   UNL A   1      32.485  29.025  25.655  1.00  0.00     0.016 A 
ATOM     22  Br  UNL A   1      33.020  28.713  22.949  1.00  0.00    -0.051 Br
ENDBRANCH  12  15
ENDBRANCH   7  11
ENDBRANCH   4   7
ENDBRANCH   2   3
ENDBRANCH   1   2
BRANCH   1  23
ATOM     23  C   UNL A   1      37.018  21.462  24.734  1.00  0.00     0.118 C 
BRANCH  23  24
ATOM     24  N   UNL A   1      37.903  20.384  25.114  1.00  0.00    -0.352 N 
ATOM     25  C   UNL A   1      39.119  20.445  25.769  1.00  0.00     0.251 C 
ATOM     26  H   UNL A   1      37.598  19.479  24.872  1.00  0.00     0.163 HD
ATOM     27  O   UNL A   1      39.809  19.426  25.811  1.00  0.00    -0.269 OA
BRANCH  25  28
ATOM     28  C   UNL A   1      39.636  21.688  26.419  1.00  0.00     0.039 A 
ATOM     29  C   UNL A   1      39.228  22.926  25.903  1.00  0.00     0.014 A 
ATOM     30  C   UNL A   1      40.636  21.667  27.398  1.00  0.00     0.014 A 
ATOM     31  C   UNL A   1      39.804  24.123  26.361  1.00  0.00     0.010 A 
ATOM     32  C   UNL A   1      41.196  22.872  27.874  1.00  0.00     0.010 A 
ATOM     33  C   UNL A   1      40.804  24.117  27.349  1.00  0.00    -0.014 A 
BRANCH  33  34
ATOM     34  C   UNL A   1      41.442  25.410  27.771  1.00  0.00     0.031 A 
ATOM     35  C   UNL A   1      42.846  25.764  27.333  1.00  0.00     0.074 A 
ATOM     36  C   UNL A   1      40.751  26.295  28.521  1.00  0.00     0.049 A 
ATOM     37  N   UNL A   1      43.521  26.874  27.514  1.00  0.00    -0.248 NA
ATOM     38  C   UNL A   1      43.594  24.723  26.616  1.00  0.00     0.031 C 
ATOM     39  C   UNL A   1      39.407  26.071  29.056  1.00  0.00     0.029 A 
ATOM     40  N   UNL A   1      41.070  27.561  28.955  1.00  0.00    -0.354 N 
ATOM     41  C   UNL A   1      44.772  26.666  26.932  1.00  0.00     0.074 A 
ATOM     42  C   UNL A   1      44.777  25.299  26.455  1.00  0.00     0.031 C 
ATOM     43  C   UNL A   1      39.002  27.173  29.708  1.00  0.00     0.029 A 
ATOM     44  C   UNL A   1      40.060  28.179  29.662  1.00  0.00     0.049 A 
ATOM     45  H   UNL A   1      41.939  27.988  28.776  1.00  0.00     0.167 HD
ATOM     46  C   UNL A   1      45.809  27.534  26.787  1.00  0.00     0.034 A 
ATOM     47  C   UNL A   1      39.982  29.416  30.197  1.00  0.00     0.034 A 
ATOM     48  C   UNL A   1      45.795  28.899  27.264  1.00  0.00     0.049 A 
ATOM     49  C   UNL A   1      41.137  30.370  30.011  1.00  0.00     0.074 A 
ATOM     50  C   UNL A   1      46.771  29.874  27.131  1.00  0.00     0.029 A 
ATOM     51  N   UNL A   1      44.752  29.484  27.973  1.00  0.00    -0.354 N 
ATOM     52  N   UNL A   1      42.283  30.174  29.398  1.00  0.00    -0.248 NA
ATOM     53  C   UNL A   1      40.977  31.721  30.566  1.00  0.00     0.031 C 
ATOM     54  C   UNL A   1      46.346  31.023  27.811  1.00  0.00     0.029 A 
ATOM     55  C   UNL A   1      45.072  30.793  28.305  1.00  0.00     0.049 A 
ATOM     56  H   UNL A   1      43.908  29.034  28.206  1.00  0.00     0.167 HD
ATOM     57  C   UNL A   1      42.965  31.386  29.472  1.00  0.00     0.074 A 
ATOM     58  C   UNL A   1      42.091  32.312  30.162  1.00  0.00     0.031 C 
ATOM     59  C   UNL A   1      44.202  31.706  29.011  1.00  0.00     0.034 A 
BRANCH  46  60
ATOM     60  C   UNL A   1      47.058  27.019  26.100  1.00  0.00     0.023 A 
ATOM     61  C   UNL A   1      48.057  26.326  26.807  1.00  0.00     0.031 A 
ATOM     62  C   UNL A   1      47.267  27.246  24.727  1.00  0.00     0.131 A 
ATOM     63  C   UNL A   1      49.251  25.963  26.163  1.00  0.00     0.055 A 
ATOM     64  C   UNL A   1      48.421  26.806  24.073  1.00  0.00     0.041 A 
ATOM     65  F   UNL A   1      46.358  27.912  23.997  1.00  0.00    -0.206 F 
ATOM     66  C   UNL A   1      49.430  26.176  24.795  1.00  0.00     0.022 A 
BRANCH  63  67
ATOM     67  S   UNL A   1      50.627  25.347  27.174  1.00  0.00     0.124 S 
ATOM     68  O   UNL A   1      51.534  24.831  26.152  1.00  0.00    -0.237 OA
ATOM     69  O   UNL A   1      51.066  26.546  27.874  1.00  0.00    -0.237 OA
ATOM     70  O   UNL A   1      50.002  24.325  28.015  1.00  0.00    -0.744 OA
ENDBRANCH  63  67
ENDBRANCH  46  60
BRANCH  47  71
ATOM     71  C   UNL A   1      38.763  29.844  30.948  1.00  0.00     0.023 A 
ATOM     72  C   UNL A   1      37.772  30.635  30.342  1.00  0.00     0.031 A 
ATOM     73  C   UNL A   1      38.593  29.502  32.302  1.00  0.00     0.131 A 
ATOM     74  C   UNL A   1      36.680  31.094  31.098  1.00  0.00     0.055 A 
ATOM     75  C   UNL A   1      37.480  29.917  33.035  1.00  0.00     0.041 A 
ATOM     76  F   UNL A   1      39.507  28.746  32.930  1.00  0.00    -0.206 F 
ATOM     77  C   UNL A   1      36.521  30.729  32.436  1.00  0.00     0.022 A 
BRANCH  74  78
ATOM     78  S   UNL A   1      35.505  32.243  30.327  1.00  0.00     0.124 S 
ATOM     79  O   UNL A   1      35.101  31.502  29.138  1.00  0.00    -0.237 OA
ATOM     80  O   UNL A   1      34.494  32.385  31.370  1.00  0.00    -0.237 OA
ATOM     81  O   UNL A   1      36.311  33.437  30.077  1.00  0.00    -0.744 OA
ENDBRANCH  74  78
ENDBRANCH  47  71
BRANCH  59  82
ATOM     82  C   UNL A   1      44.659  33.132  29.216  1.00  0.00     0.023 A 
ATOM     83  C   UNL A   1      44.339  34.149  28.299  1.00  0.00     0.031 A 
ATOM     84  C   UNL A   1      45.460  33.469  30.321  1.00  0.00     0.131 A 
ATOM     85  C   UNL A   1      44.880  35.434  28.462  1.00  0.00     0.055 A 
ATOM     86  C   UNL A   1      45.940  34.766  30.515  1.00  0.00     0.041 A 
ATOM     87  F   UNL A   1      45.799  32.540  31.229  1.00  0.00    -0.206 F 
ATOM     88  C   UNL A   1      45.665  35.754  29.571  1.00  0.00     0.022 A 
BRANCH  85  89
ATOM     89  S   UNL A   1      44.645  36.650  27.135  1.00  0.00     0.124 S 
ATOM     90  O   UNL A   1      43.431  36.164  26.488  1.00  0.00    -0.237 OA
ATOM     91  O   UNL A   1      44.514  37.900  27.878  1.00  0.00    -0.237 OA
ATOM     92  O   UNL A   1      45.865  36.529  26.338  1.00  0.00    -0.744 OA
ENDBRANCH  85  89
ENDBRANCH  59  82
ENDBRANCH  33  34
ENDBRANCH  25  28
ENDBRANCH  23  24
ENDBRANCH   1  23
TORSDOF 16
ENDMDL
