MODEL 1
REMARK VINA RESULT:     -12.7      0.000      0.000
REMARK SMILES Cc1cccc(NC(=O)C[C@@H]2CCCCO2)c1C(=O)NCCCNC(=O)c1ccc(-c2c3nc(c(-c4cc(S(=O)(=O)[O-])ccc4F)c4ccc([nH]4)c(-c4cc(S(=O)(=O)[O-])ccc4F)c4nc(c(-c5cc(S(=O)(=O)[O-])ccc5F)c5ccc2[nH]5)C=C4)C=C3)cc1
REMARK SMILES IDX 22 1 21 2 20 3 18 4 19 5 17 7 1 8 2 9 3 10 4 11 6 12 5 13
REMARK SMILES IDX 7 14 8 15 9 17 10 18 11 19 12 20 16 21 13 22 15 23 14 24
REMARK SMILES IDX 23 25 24 26 25 27 26 29 27 30 28 31 89 32 29 33 88 34 30 35
REMARK SMILES IDX 31 36 32 37 82 38 33 39 87 40 81 41 83 42 34 43 86 44 80 45
REMARK SMILES IDX 79 46 35 48 67 49 47 50 66 51 48 52 51 53 65 54 84 55 49 56
REMARK SMILES IDX 50 57 64 59 85 60 52 61 36 62 37 63 45 64 38 65 44 66 46 67
REMARK SMILES IDX 43 68 39 69 40 70 41 71 42 72 68 73 69 74 77 75 70 76 76 77
REMARK SMILES IDX 78 78 75 79 71 80 72 81 73 82 74 83 53 84 54 85 62 86 55 87
REMARK SMILES IDX 61 88 63 89 60 90 56 91 57 92 58 93 59 94
REMARK H PARENT 20 6 7 16 24 28 83 47 51 58
REMARK Flexibility Score: inf
ROOT
ATOM      1  C   UNL A   1      39.042  23.868  26.108  1.00  0.00     0.042 C 
ENDROOT
BRANCH   1   2
ATOM      2  C   UNL A   1      37.570  23.518  25.865  1.00  0.00     0.118 C 
BRANCH   2   3
ATOM      3  N   UNL A   1      37.321  23.357  24.435  1.00  0.00    -0.352 N 
ATOM      4  C   UNL A   1      36.251  22.912  23.705  1.00  0.00     0.253 C 
ATOM      5  O   UNL A   1      36.371  22.995  22.478  1.00  0.00    -0.269 OA
ATOM      6  H   UNL A   1      38.087  23.626  23.877  1.00  0.00     0.163 HD
BRANCH   4   7
ATOM      7  C   UNL A   1      34.946  22.438  24.286  1.00  0.00     0.066 A 
ATOM      8  C   UNL A   1      35.684  20.045  24.882  1.00  0.00     0.045 C 
ATOM      9  C   UNL A   1      34.757  21.219  24.973  1.00  0.00    -0.036 A 
ATOM     10  C   UNL A   1      33.544  20.960  25.643  1.00  0.00     0.004 A 
ATOM     11  C   UNL A   1      32.472  21.830  25.531  1.00  0.00     0.002 A 
ATOM     12  C   UNL A   1      33.764  23.168  23.971  1.00  0.00     0.054 A 
ATOM     13  C   UNL A   1      32.574  22.915  24.669  1.00  0.00     0.027 A 
BRANCH  12  14
ATOM     14  N   UNL A   1      33.755  24.033  22.845  1.00  0.00    -0.325 N 
ATOM     15  C   UNL A   1      33.771  25.408  22.781  1.00  0.00     0.227 C 
ATOM     16  H   UNL A   1      33.734  23.578  21.973  1.00  0.00     0.169 HD
ATOM     17  O   UNL A   1      33.667  25.960  21.680  1.00  0.00    -0.275 OA
BRANCH  15  18
ATOM     18  C   UNL A   1      33.892  26.273  24.022  1.00  0.00     0.132 C 
BRANCH  18  19
ATOM     19  C   UNL A   1      32.888  27.438  24.145  1.00  0.00     0.127 C 
ATOM     20  C   UNL A   1      33.431  28.539  25.073  1.00  0.00     0.033 C 
ATOM     21  O   UNL A   1      31.569  27.113  24.588  1.00  0.00    -0.378 OA
ATOM     22  C   UNL A   1      33.461  28.080  26.532  1.00  0.00     0.005 C 
ATOM     23  C   UNL A   1      31.469  26.643  25.922  1.00  0.00     0.160 C 
ATOM     24  C   UNL A   1      32.098  27.555  26.963  1.00  0.00     0.029 C 
ENDBRANCH  18  19
ENDBRANCH  15  18
ENDBRANCH  12  14
ENDBRANCH   4   7
ENDBRANCH   2   3
ENDBRANCH   1   2
BRANCH   1  25
ATOM     25  C   UNL A   1      39.773  22.931  27.045  1.00  0.00     0.118 C 
BRANCH  25  26
ATOM     26  N   UNL A   1      40.970  23.493  27.675  1.00  0.00    -0.352 N 
ATOM     27  C   UNL A   1      41.231  24.813  28.018  1.00  0.00     0.251 C 
ATOM     28  H   UNL A   1      41.684  22.849  27.884  1.00  0.00     0.163 HD
ATOM     29  O   UNL A   1      42.288  25.149  28.550  1.00  0.00    -0.269 OA
BRANCH  27  30
ATOM     30  C   UNL A   1      40.135  25.810  27.892  1.00  0.00     0.039 A 
ATOM     31  C   UNL A   1      40.442  26.909  27.082  1.00  0.00     0.014 A 
ATOM     32  C   UNL A   1      39.238  25.935  28.943  1.00  0.00     0.014 A 
ATOM     33  C   UNL A   1      40.219  28.181  27.582  1.00  0.00     0.010 A 
ATOM     34  C   UNL A   1      39.142  27.183  29.515  1.00  0.00     0.010 A 
ATOM     35  C   UNL A   1      39.720  28.286  28.876  1.00  0.00    -0.014 A 
BRANCH  35  36
ATOM     36  C   UNL A   1      39.684  29.529  29.620  1.00  0.00     0.031 A 
ATOM     37  C   UNL A   1      38.664  30.492  29.193  1.00  0.00     0.074 A 
ATOM     38  C   UNL A   1      40.528  29.772  30.646  1.00  0.00     0.049 A 
ATOM     39  N   UNL A   1      38.775  31.765  29.288  1.00  0.00    -0.248 NA
ATOM     40  C   UNL A   1      37.452  30.066  28.500  1.00  0.00     0.031 C 
ATOM     41  C   UNL A   1      40.496  30.893  31.581  1.00  0.00     0.029 A 
ATOM     42  N   UNL A   1      41.737  29.135  30.919  1.00  0.00    -0.354 N 
ATOM     43  C   UNL A   1      37.554  32.305  28.954  1.00  0.00     0.074 A 
ATOM     44  C   UNL A   1      36.819  31.227  28.349  1.00  0.00     0.031 C 
ATOM     45  C   UNL A   1      41.710  31.026  32.146  1.00  0.00     0.029 A 
ATOM     46  C   UNL A   1      42.607  30.090  31.490  1.00  0.00     0.049 A 
ATOM     47  H   UNL A   1      41.946  28.189  30.747  1.00  0.00     0.167 HD
ATOM     48  C   UNL A   1      37.263  33.565  29.378  1.00  0.00     0.034 A 
ATOM     49  C   UNL A   1      43.755  30.433  30.831  1.00  0.00     0.034 A 
ATOM     50  C   UNL A   1      38.437  34.157  30.035  1.00  0.00     0.049 A 
ATOM     51  C   UNL A   1      43.699  31.836  30.235  1.00  0.00     0.074 A 
ATOM     52  C   UNL A   1      38.824  34.296  31.358  1.00  0.00     0.029 A 
ATOM     53  N   UNL A   1      39.586  34.356  29.285  1.00  0.00    -0.354 N 
ATOM     54  N   UNL A   1      42.683  32.655  30.329  1.00  0.00    -0.248 NA
ATOM     55  C   UNL A   1      44.773  32.383  29.413  1.00  0.00     0.031 C 
ATOM     56  C   UNL A   1      40.235  34.526  31.385  1.00  0.00     0.029 A 
ATOM     57  C   UNL A   1      40.695  34.582  30.082  1.00  0.00     0.049 A 
ATOM     58  H   UNL A   1      39.610  34.340  28.301  1.00  0.00     0.167 HD
ATOM     59  C   UNL A   1      42.910  33.777  29.567  1.00  0.00     0.074 A 
ATOM     60  C   UNL A   1      44.230  33.540  28.997  1.00  0.00     0.031 C 
ATOM     61  C   UNL A   1      41.989  34.790  29.437  1.00  0.00     0.034 A 
BRANCH  48  62
ATOM     62  C   UNL A   1      35.858  34.124  29.472  1.00  0.00     0.023 A 
ATOM     63  C   UNL A   1      35.319  34.355  30.752  1.00  0.00     0.031 A 
ATOM     64  C   UNL A   1      34.976  34.390  28.401  1.00  0.00     0.131 A 
ATOM     65  C   UNL A   1      33.972  34.728  30.929  1.00  0.00     0.055 A 
ATOM     66  C   UNL A   1      33.623  34.709  28.576  1.00  0.00     0.041 A 
ATOM     67  F   UNL A   1      35.380  34.421  27.128  1.00  0.00    -0.206 F 
ATOM     68  C   UNL A   1      33.109  34.873  29.848  1.00  0.00     0.022 A 
BRANCH  65  69
ATOM     69  S   UNL A   1      33.361  35.028  32.606  1.00  0.00     0.124 S 
ATOM     70  O   UNL A   1      34.310  36.020  33.103  1.00  0.00    -0.237 OA
ATOM     71  O   UNL A   1      32.002  35.497  32.359  1.00  0.00    -0.237 OA
ATOM     72  O   UNL A   1      33.452  33.713  33.239  1.00  0.00    -0.744 OA
ENDBRANCH  65  69
ENDBRANCH  48  62
BRANCH  49  73
ATOM     73  C   UNL A   1      44.382  29.231  30.187  1.00  0.00     0.023 A 
ATOM     74  C   UNL A   1      43.908  28.862  28.903  1.00  0.00     0.031 A 
ATOM     75  C   UNL A   1      45.686  28.858  30.537  1.00  0.00     0.131 A 
ATOM     76  C   UNL A   1      44.806  28.363  27.944  1.00  0.00     0.055 A 
ATOM     77  C   UNL A   1      46.562  28.334  29.583  1.00  0.00     0.041 A 
ATOM     78  F   UNL A   1      46.182  29.152  31.748  1.00  0.00    -0.206 F 
ATOM     79  C   UNL A   1      46.148  28.160  28.265  1.00  0.00     0.022 A 
BRANCH  76  80
ATOM     80  S   UNL A   1      44.290  28.209  26.209  1.00  0.00     0.124 S 
ATOM     81  O   UNL A   1      45.529  28.484  25.491  1.00  0.00    -0.237 OA
ATOM     82  O   UNL A   1      43.800  26.837  26.132  1.00  0.00    -0.237 OA
ATOM     83  O   UNL A   1      43.245  29.226  26.080  1.00  0.00    -0.744 OA
ENDBRANCH  76  80
ENDBRANCH  49  73
BRANCH  61  84
ATOM     84  C   UNL A   1      42.214  36.065  28.633  1.00  0.00     0.023 A 
ATOM     85  C   UNL A   1      42.299  37.326  29.234  1.00  0.00     0.031 A 
ATOM     86  C   UNL A   1      42.302  36.074  27.216  1.00  0.00     0.131 A 
ATOM     87  C   UNL A   1      42.635  38.472  28.493  1.00  0.00     0.055 A 
ATOM     88  C   UNL A   1      42.558  37.227  26.468  1.00  0.00     0.041 A 
ATOM     89  F   UNL A   1      42.150  34.970  26.476  1.00  0.00    -0.206 F 
ATOM     90  C   UNL A   1      42.762  38.434  27.110  1.00  0.00     0.022 A 
BRANCH  87  91
ATOM     91  S   UNL A   1      42.966  40.001  29.400  1.00  0.00     0.124 S 
ATOM     92  O   UNL A   1      41.647  40.616  29.477  1.00  0.00    -0.237 OA
ATOM     93  O   UNL A   1      43.501  39.487  30.658  1.00  0.00    -0.237 OA
ATOM     94  O   UNL A   1      43.934  40.700  28.554  1.00  0.00    -0.744 OA
ENDBRANCH  87  91
ENDBRANCH  61  84
ENDBRANCH  35  36
ENDBRANCH  27  30
ENDBRANCH  25  26
ENDBRANCH   1  25
TORSDOF 16
ENDMDL
MODEL 2
REMARK VINA RESULT:     -12.0      4.589      9.921
REMARK SMILES Cc1cccc(NC(=O)C[C@@H]2CCCCO2)c1C(=O)NCCCNC(=O)c1ccc(-c2c3nc(c(-c4cc(S(=O)(=O)[O-])ccc4F)c4ccc([nH]4)c(-c4cc(S(=O)(=O)[O-])ccc4F)c4nc(c(-c5cc(S(=O)(=O)[O-])ccc5F)c5ccc2[nH]5)C=C4)C=C3)cc1
REMARK SMILES IDX 22 1 21 2 20 3 18 4 19 5 17 7 1 8 2 9 3 10 4 11 6 12 5 13
REMARK SMILES IDX 7 14 8 15 9 17 10 18 11 19 12 20 16 21 13 22 15 23 14 24
REMARK SMILES IDX 23 25 24 26 25 27 26 29 27 30 28 31 89 32 29 33 88 34 30 35
REMARK SMILES IDX 31 36 32 37 82 38 33 39 87 40 81 41 83 42 34 43 86 44 80 45
REMARK SMILES IDX 79 46 35 48 67 49 47 50 66 51 48 52 51 53 65 54 84 55 49 56
REMARK SMILES IDX 50 57 64 59 85 60 52 61 36 62 37 63 45 64 38 65 44 66 46 67
REMARK SMILES IDX 43 68 39 69 40 70 41 71 42 72 68 73 69 74 77 75 70 76 76 77
REMARK SMILES IDX 78 78 75 79 71 80 72 81 73 82 74 83 53 84 54 85 62 86 55 87
REMARK SMILES IDX 61 88 63 89 60 90 56 91 57 92 58 93 59 94
REMARK H PARENT 20 6 7 16 24 28 83 47 51 58
REMARK Flexibility Score: inf
ROOT
ATOM      1  C   UNL A   1      32.672  30.656  27.248  1.00  0.00     0.042 C 
ENDROOT
BRANCH   1   2
ATOM      2  C   UNL A   1      32.232  29.191  27.340  1.00  0.00     0.118 C 
BRANCH   2   3
ATOM      3  N   UNL A   1      33.258  28.321  26.771  1.00  0.00    -0.352 N 
ATOM      4  C   UNL A   1      33.220  27.134  26.089  1.00  0.00     0.253 C 
ATOM      5  O   UNL A   1      34.310  26.719  25.680  1.00  0.00    -0.269 OA
ATOM      6  H   UNL A   1      34.172  28.660  26.909  1.00  0.00     0.163 HD
BRANCH   4   7
ATOM      7  C   UNL A   1      31.966  26.381  25.734  1.00  0.00     0.066 A 
ATOM      8  C   UNL A   1      32.468  24.232  27.056  1.00  0.00     0.045 C 
ATOM      9  C   UNL A   1      31.556  25.162  26.316  1.00  0.00    -0.036 A 
ATOM     10  C   UNL A   1      30.274  24.641  26.051  1.00  0.00     0.004 A 
ATOM     11  C   UNL A   1      29.444  25.240  25.117  1.00  0.00     0.002 A 
ATOM     12  C   UNL A   1      31.219  26.816  24.601  1.00  0.00     0.054 A 
ATOM     13  C   UNL A   1      29.932  26.307  24.370  1.00  0.00     0.027 A 
BRANCH  12  14
ATOM     14  N   UNL A   1      31.840  27.638  23.625  1.00  0.00    -0.325 N 
ATOM     15  C   UNL A   1      31.448  28.850  23.104  1.00  0.00     0.227 C 
ATOM     16  H   UNL A   1      32.686  27.287  23.265  1.00  0.00     0.169 HD
ATOM     17  O   UNL A   1      32.107  29.352  22.186  1.00  0.00    -0.275 OA
BRANCH  15  18
ATOM     18  C   UNL A   1      30.217  29.584  23.604  1.00  0.00     0.132 C 
BRANCH  18  19
ATOM     19  C   UNL A   1      28.955  29.487  22.721  1.00  0.00     0.127 C 
ATOM     20  C   UNL A   1      29.087  30.377  21.472  1.00  0.00     0.033 C 
ATOM     21  O   UNL A   1      27.705  29.793  23.340  1.00  0.00    -0.378 OA
ATOM     22  C   UNL A   1      29.025  31.862  21.832  1.00  0.00     0.005 C 
ATOM     23  C   UNL A   1      27.539  31.141  23.749  1.00  0.00     0.160 C 
ATOM     24  C   UNL A   1      27.782  32.169  22.657  1.00  0.00     0.029 C 
ENDBRANCH  18  19
ENDBRANCH  15  18
ENDBRANCH  12  14
ENDBRANCH   4   7
ENDBRANCH   2   3
ENDBRANCH   1   2
BRANCH   1  25
ATOM     25  C   UNL A   1      34.170  30.868  27.209  1.00  0.00     0.118 C 
BRANCH  25  26
ATOM     26  N   UNL A   1      34.719  31.620  28.341  1.00  0.00    -0.352 N 
ATOM     27  C   UNL A   1      35.552  31.171  29.357  1.00  0.00     0.251 C 
ATOM     28  H   UNL A   1      34.464  32.569  28.386  1.00  0.00     0.163 HD
ATOM     29  O   UNL A   1      35.943  31.918  30.252  1.00  0.00    -0.269 OA
BRANCH  27  30
ATOM     30  C   UNL A   1      36.117  29.799  29.259  1.00  0.00     0.039 A 
ATOM     31  C   UNL A   1      36.750  29.349  30.424  1.00  0.00     0.014 A 
ATOM     32  C   UNL A   1      36.522  29.343  28.013  1.00  0.00     0.014 A 
ATOM     33  C   UNL A   1      38.028  28.826  30.321  1.00  0.00     0.010 A 
ATOM     34  C   UNL A   1      37.840  28.963  27.904  1.00  0.00     0.010 A 
ATOM     35  C   UNL A   1      38.613  28.801  29.059  1.00  0.00    -0.014 A 
BRANCH  35  36
ATOM     36  C   UNL A   1      40.020  28.532  28.837  1.00  0.00     0.031 A 
ATOM     37  C   UNL A   1      40.359  27.134  28.552  1.00  0.00     0.074 A 
ATOM     38  C   UNL A   1      40.950  29.510  28.878  1.00  0.00     0.049 A 
ATOM     39  N   UNL A   1      41.473  26.575  28.852  1.00  0.00    -0.248 NA
ATOM     40  C   UNL A   1      39.381  26.209  27.987  1.00  0.00     0.031 C 
ATOM     41  C   UNL A   1      42.360  29.417  28.511  1.00  0.00     0.029 A 
ATOM     42  N   UNL A   1      40.834  30.766  29.471  1.00  0.00    -0.354 N 
ATOM     43  C   UNL A   1      41.473  25.330  28.267  1.00  0.00     0.074 A 
ATOM     44  C   UNL A   1      40.112  25.105  27.862  1.00  0.00     0.031 C 
ATOM     45  C   UNL A   1      43.031  30.428  29.093  1.00  0.00     0.029 A 
ATOM     46  C   UNL A   1      42.105  31.123  29.971  1.00  0.00     0.049 A 
ATOM     47  H   UNL A   1      40.014  31.307  29.530  1.00  0.00     0.167 HD
ATOM     48  C   UNL A   1      42.667  24.711  28.058  1.00  0.00     0.034 A 
ATOM     49  C   UNL A   1      42.276  31.290  31.318  1.00  0.00     0.034 A 
ATOM     50  C   UNL A   1      43.753  25.502  28.652  1.00  0.00     0.049 A 
ATOM     51  C   UNL A   1      43.088  30.168  31.955  1.00  0.00     0.074 A 
ATOM     52  C   UNL A   1      44.661  26.417  28.142  1.00  0.00     0.029 A 
ATOM     53  N   UNL A   1      43.758  25.696  30.025  1.00  0.00    -0.354 N 
ATOM     54  N   UNL A   1      43.591  29.144  31.315  1.00  0.00    -0.248 NA
ATOM     55  C   UNL A   1      43.322  30.087  33.394  1.00  0.00     0.031 C 
ATOM     56  C   UNL A   1      45.163  27.197  29.230  1.00  0.00     0.029 A 
ATOM     57  C   UNL A   1      44.607  26.722  30.404  1.00  0.00     0.049 A 
ATOM     58  H   UNL A   1      43.220  25.166  30.657  1.00  0.00     0.167 HD
ATOM     59  C   UNL A   1      44.145  28.256  32.208  1.00  0.00     0.074 A 
ATOM     60  C   UNL A   1      43.927  28.892  33.500  1.00  0.00     0.031 C 
ATOM     61  C   UNL A   1      44.705  27.061  31.822  1.00  0.00     0.034 A 
BRANCH  48  62
ATOM     62  C   UNL A   1      42.874  23.581  27.070  1.00  0.00     0.023 A 
ATOM     63  C   UNL A   1      42.270  22.339  27.345  1.00  0.00     0.031 A 
ATOM     64  C   UNL A   1      43.672  23.607  25.905  1.00  0.00     0.131 A 
ATOM     65  C   UNL A   1      42.537  21.200  26.561  1.00  0.00     0.055 A 
ATOM     66  C   UNL A   1      43.980  22.464  25.154  1.00  0.00     0.041 A 
ATOM     67  F   UNL A   1      44.150  24.741  25.385  1.00  0.00    -0.206 F 
ATOM     68  C   UNL A   1      43.417  21.246  25.485  1.00  0.00     0.022 A 
BRANCH  65  69
ATOM     69  S   UNL A   1      41.703  19.645  26.967  1.00  0.00     0.124 S 
ATOM     70  O   UNL A   1      40.780  20.059  28.018  1.00  0.00    -0.237 OA
ATOM     71  O   UNL A   1      41.107  19.273  25.688  1.00  0.00    -0.237 OA
ATOM     72  O   UNL A   1      42.798  18.781  27.409  1.00  0.00    -0.744 OA
ENDBRANCH  65  69
ENDBRANCH  48  62
BRANCH  49  73
ATOM     73  C   UNL A   1      41.083  31.965  31.929  1.00  0.00     0.023 A 
ATOM     74  C   UNL A   1      40.179  31.151  32.656  1.00  0.00     0.031 A 
ATOM     75  C   UNL A   1      41.147  33.326  32.254  1.00  0.00     0.131 A 
ATOM     76  C   UNL A   1      39.565  31.653  33.816  1.00  0.00     0.055 A 
ATOM     77  C   UNL A   1      40.507  33.822  33.393  1.00  0.00     0.041 A 
ATOM     78  F   UNL A   1      41.960  34.155  31.583  1.00  0.00    -0.206 F 
ATOM     79  C   UNL A   1      39.780  32.971  34.220  1.00  0.00     0.022 A 
BRANCH  76  80
ATOM     80  S   UNL A   1      38.682  30.529  34.938  1.00  0.00     0.124 S 
ATOM     81  O   UNL A   1      37.721  31.419  35.577  1.00  0.00    -0.237 OA
ATOM     82  O   UNL A   1      38.122  29.532  34.031  1.00  0.00    -0.237 OA
ATOM     83  O   UNL A   1      39.747  30.019  35.804  1.00  0.00    -0.744 OA
ENDBRANCH  76  80
ENDBRANCH  49  73
BRANCH  61  84
ATOM     84  C   UNL A   1      45.361  26.066  32.772  1.00  0.00     0.023 A 
ATOM     85  C   UNL A   1      44.619  25.246  33.629  1.00  0.00     0.031 A 
ATOM     86  C   UNL A   1      46.769  25.934  32.893  1.00  0.00     0.131 A 
ATOM     87  C   UNL A   1      45.233  24.246  34.403  1.00  0.00     0.055 A 
ATOM     88  C   UNL A   1      47.385  24.992  33.722  1.00  0.00     0.041 A 
ATOM     89  F   UNL A   1      47.628  26.704  32.215  1.00  0.00    -0.206 F 
ATOM     90  C   UNL A   1      46.614  24.113  34.460  1.00  0.00     0.022 A 
BRANCH  87  91
ATOM     91  S   UNL A   1      44.165  23.080  35.282  1.00  0.00     0.124 S 
ATOM     92  O   UNL A   1      44.646  21.789  34.806  1.00  0.00    -0.237 OA
ATOM     93  O   UNL A   1      44.468  23.396  36.675  1.00  0.00    -0.237 OA
ATOM     94  O   UNL A   1      42.819  23.447  34.840  1.00  0.00    -0.744 OA
ENDBRANCH  87  91
ENDBRANCH  61  84
ENDBRANCH  35  36
ENDBRANCH  27  30
ENDBRANCH  25  26
ENDBRANCH   1  25
TORSDOF 16
ENDMDL
MODEL 3
REMARK VINA RESULT:     -12.0      4.329      9.919
REMARK SMILES Cc1cccc(NC(=O)C[C@@H]2CCCCO2)c1C(=O)NCCCNC(=O)c1ccc(-c2c3nc(c(-c4cc(S(=O)(=O)[O-])ccc4F)c4ccc([nH]4)c(-c4cc(S(=O)(=O)[O-])ccc4F)c4nc(c(-c5cc(S(=O)(=O)[O-])ccc5F)c5ccc2[nH]5)C=C4)C=C3)cc1
REMARK SMILES IDX 22 1 21 2 20 3 18 4 19 5 17 7 1 8 2 9 3 10 4 11 6 12 5 13
REMARK SMILES IDX 7 14 8 15 9 17 10 18 11 19 12 20 16 21 13 22 15 23 14 24
REMARK SMILES IDX 23 25 24 26 25 27 26 29 27 30 28 31 89 32 29 33 88 34 30 35
REMARK SMILES IDX 31 36 32 37 82 38 33 39 87 40 81 41 83 42 34 43 86 44 80 45
REMARK SMILES IDX 79 46 35 48 67 49 47 50 66 51 48 52 51 53 65 54 84 55 49 56
REMARK SMILES IDX 50 57 64 59 85 60 52 61 36 62 37 63 45 64 38 65 44 66 46 67
REMARK SMILES IDX 43 68 39 69 40 70 41 71 42 72 68 73 69 74 77 75 70 76 76 77
REMARK SMILES IDX 78 78 75 79 71 80 72 81 73 82 74 83 53 84 54 85 62 86 55 87
REMARK SMILES IDX 61 88 63 89 60 90 56 91 57 92 58 93 59 94
REMARK H PARENT 20 6 7 16 24 28 83 47 51 58
REMARK Flexibility Score: inf
ROOT
ATOM      1  C   UNL A   1      34.062  30.548  26.579  1.00  0.00     0.042 C 
ENDROOT
BRANCH   1   2
ATOM      2  C   UNL A   1      33.516  29.271  25.932  1.00  0.00     0.118 C 
BRANCH   2   3
ATOM      3  N   UNL A   1      33.957  29.183  24.543  1.00  0.00    -0.352 N 
ATOM      4  C   UNL A   1      33.496  28.508  23.444  1.00  0.00     0.253 C 
ATOM      5  O   UNL A   1      34.089  28.742  22.386  1.00  0.00    -0.269 OA
ATOM      6  H   UNL A   1      34.759  29.725  24.356  1.00  0.00     0.163 HD
BRANCH   4   7
ATOM      7  C   UNL A   1      32.292  27.605  23.428  1.00  0.00     0.066 A 
ATOM      8  C   UNL A   1      30.541  29.352  24.139  1.00  0.00     0.045 C 
ATOM      9  C   UNL A   1      30.952  28.032  23.562  1.00  0.00    -0.036 A 
ATOM     10  C   UNL A   1      29.892  27.131  23.341  1.00  0.00     0.004 A 
ATOM     11  C   UNL A   1      30.138  25.786  23.120  1.00  0.00     0.002 A 
ATOM     12  C   UNL A   1      32.506  26.197  23.468  1.00  0.00     0.054 A 
ATOM     13  C   UNL A   1      31.443  25.316  23.216  1.00  0.00     0.027 A 
BRANCH  12  14
ATOM     14  N   UNL A   1      33.753  25.691  23.918  1.00  0.00    -0.325 N 
ATOM     15  C   UNL A   1      34.108  25.158  25.136  1.00  0.00     0.227 C 
ATOM     16  H   UNL A   1      34.480  25.727  23.255  1.00  0.00     0.169 HD
ATOM     17  O   UNL A   1      35.290  24.858  25.341  1.00  0.00    -0.275 OA
BRANCH  15  18
ATOM     18  C   UNL A   1      33.097  24.942  26.249  1.00  0.00     0.132 C 
BRANCH  18  19
ATOM     19  C   UNL A   1      33.032  23.521  26.848  1.00  0.00     0.127 C 
ATOM     20  C   UNL A   1      33.181  22.453  25.750  1.00  0.00     0.033 C 
ATOM     21  O   UNL A   1      31.871  23.194  27.614  1.00  0.00    -0.378 OA
ATOM     22  C   UNL A   1      31.948  22.400  24.846  1.00  0.00     0.005 C 
ATOM     23  C   UNL A   1      30.653  23.144  26.888  1.00  0.00     0.160 C 
ATOM     24  C   UNL A   1      30.678  22.237  25.670  1.00  0.00     0.029 C 
ENDBRANCH  18  19
ENDBRANCH  15  18
ENDBRANCH  12  14
ENDBRANCH   4   7
ENDBRANCH   2   3
ENDBRANCH   1   2
BRANCH   1  25
ATOM     25  C   UNL A   1      33.615  30.780  28.006  1.00  0.00     0.118 C 
BRANCH  25  26
ATOM     26  N   UNL A   1      34.511  31.615  28.809  1.00  0.00    -0.352 N 
ATOM     27  C   UNL A   1      35.697  31.259  29.437  1.00  0.00     0.251 C 
ATOM     28  H   UNL A   1      34.237  32.553  28.917  1.00  0.00     0.163 HD
ATOM     29  O   UNL A   1      36.358  32.071  30.085  1.00  0.00    -0.269 OA
BRANCH  27  30
ATOM     30  C   UNL A   1      36.263  29.909  29.177  1.00  0.00     0.039 A 
ATOM     31  C   UNL A   1      36.829  29.292  30.298  1.00  0.00     0.014 A 
ATOM     32  C   UNL A   1      36.735  29.631  27.902  1.00  0.00     0.014 A 
ATOM     33  C   UNL A   1      38.110  28.775  30.190  1.00  0.00     0.010 A 
ATOM     34  C   UNL A   1      38.055  29.256  27.811  1.00  0.00     0.010 A 
ATOM     35  C   UNL A   1      38.763  28.923  28.972  1.00  0.00    -0.014 A 
BRANCH  35  36
ATOM     36  C   UNL A   1      40.179  28.674  28.790  1.00  0.00     0.031 A 
ATOM     37  C   UNL A   1      40.541  27.289  28.468  1.00  0.00     0.074 A 
ATOM     38  C   UNL A   1      41.098  29.657  28.897  1.00  0.00     0.049 A 
ATOM     39  N   UNL A   1      41.649  26.729  28.788  1.00  0.00    -0.248 NA
ATOM     40  C   UNL A   1      39.592  26.377  27.837  1.00  0.00     0.031 C 
ATOM     41  C   UNL A   1      42.521  29.589  28.577  1.00  0.00     0.029 A 
ATOM     42  N   UNL A   1      40.950  30.890  29.529  1.00  0.00    -0.354 N 
ATOM     43  C   UNL A   1      41.681  25.505  28.159  1.00  0.00     0.074 A 
ATOM     44  C   UNL A   1      40.337  25.284  27.699  1.00  0.00     0.031 C 
ATOM     45  C   UNL A   1      43.161  30.584  29.218  1.00  0.00     0.029 A 
ATOM     46  C   UNL A   1      42.200  31.240  30.087  1.00  0.00     0.049 A 
ATOM     47  H   UNL A   1      40.123  31.423  29.578  1.00  0.00     0.167 HD
ATOM     48  C   UNL A   1      42.887  24.904  27.971  1.00  0.00     0.034 A 
ATOM     49  C   UNL A   1      42.322  31.361  31.443  1.00  0.00     0.034 A 
ATOM     50  C   UNL A   1      43.945  25.683  28.631  1.00  0.00     0.049 A 
ATOM     51  C   UNL A   1      43.122  30.224  32.069  1.00  0.00     0.074 A 
ATOM     52  C   UNL A   1      44.861  26.622  28.185  1.00  0.00     0.029 A 
ATOM     53  N   UNL A   1      43.900  25.828  30.009  1.00  0.00    -0.354 N 
ATOM     54  N   UNL A   1      43.655  29.226  31.412  1.00  0.00    -0.248 NA
ATOM     55  C   UNL A   1      43.306  30.094  33.512  1.00  0.00     0.031 C 
ATOM     56  C   UNL A   1      45.318  27.367  29.317  1.00  0.00     0.029 A 
ATOM     57  C   UNL A   1      44.725  26.846  30.453  1.00  0.00     0.049 A 
ATOM     58  H   UNL A   1      43.346  25.271  30.602  1.00  0.00     0.167 HD
ATOM     59  C   UNL A   1      44.186  28.312  32.292  1.00  0.00     0.074 A 
ATOM     60  C   UNL A   1      43.917  28.900  33.597  1.00  0.00     0.031 C 
ATOM     61  C   UNL A   1      44.771  27.136  31.884  1.00  0.00     0.034 A 
BRANCH  48  62
ATOM     62  C   UNL A   1      43.139  23.811  26.952  1.00  0.00     0.023 A 
ATOM     63  C   UNL A   1      42.427  22.604  27.083  1.00  0.00     0.031 A 
ATOM     64  C   UNL A   1      44.073  23.837  25.893  1.00  0.00     0.131 A 
ATOM     65  C   UNL A   1      42.712  21.488  26.272  1.00  0.00     0.055 A 
ATOM     66  C   UNL A   1      44.396  22.713  25.120  1.00  0.00     0.041 A 
ATOM     67  F   UNL A   1      44.684  24.958  25.499  1.00  0.00    -0.206 F 
ATOM     68  C   UNL A   1      43.718  21.523  25.313  1.00  0.00     0.022 A 
BRANCH  65  69
ATOM     69  S   UNL A   1      41.737  19.978  26.488  1.00  0.00     0.124 S 
ATOM     70  O   UNL A   1      40.371  20.492  26.464  1.00  0.00    -0.237 OA
ATOM     71  O   UNL A   1      42.150  19.178  25.340  1.00  0.00    -0.237 OA
ATOM     72  O   UNL A   1      42.184  19.470  27.785  1.00  0.00    -0.744 OA
ENDBRANCH  65  69
ENDBRANCH  48  62
BRANCH  49  73
ATOM     73  C   UNL A   1      41.101  32.004  32.035  1.00  0.00     0.023 A 
ATOM     74  C   UNL A   1      40.215  31.168  32.759  1.00  0.00     0.031 A 
ATOM     75  C   UNL A   1      41.121  33.369  32.350  1.00  0.00     0.131 A 
ATOM     76  C   UNL A   1      39.572  31.661  33.908  1.00  0.00     0.055 A 
ATOM     77  C   UNL A   1      40.454  33.854  33.477  1.00  0.00     0.041 A 
ATOM     78  F   UNL A   1      41.916  34.216  31.681  1.00  0.00    -0.206 F 
ATOM     79  C   UNL A   1      39.743  32.988  34.303  1.00  0.00     0.022 A 
BRANCH  76  80
ATOM     80  S   UNL A   1      38.711  30.520  35.029  1.00  0.00     0.124 S 
ATOM     81  O   UNL A   1      37.719  31.386  35.653  1.00  0.00    -0.237 OA
ATOM     82  O   UNL A   1      38.189  29.501  34.123  1.00  0.00    -0.237 OA
ATOM     83  O   UNL A   1      39.781  30.047  35.909  1.00  0.00    -0.744 OA
ENDBRANCH  76  80
ENDBRANCH  49  73
BRANCH  61  84
ATOM     84  C   UNL A   1      45.403  26.113  32.821  1.00  0.00     0.023 A 
ATOM     85  C   UNL A   1      44.655  25.396  33.762  1.00  0.00     0.031 A 
ATOM     86  C   UNL A   1      46.797  25.852  32.844  1.00  0.00     0.131 A 
ATOM     87  C   UNL A   1      45.231  24.366  34.527  1.00  0.00     0.055 A 
ATOM     88  C   UNL A   1      47.385  24.882  33.661  1.00  0.00     0.041 A 
ATOM     89  F   UNL A   1      47.670  26.515  32.076  1.00  0.00    -0.206 F 
ATOM     90  C   UNL A   1      46.595  24.104  34.488  1.00  0.00     0.022 A 
BRANCH  87  91
ATOM     91  S   UNL A   1      44.130  23.336  35.526  1.00  0.00     0.124 S 
ATOM     92  O   UNL A   1      42.864  23.438  34.811  1.00  0.00    -0.237 OA
ATOM     93  O   UNL A   1      44.796  22.039  35.455  1.00  0.00    -0.237 OA
ATOM     94  O   UNL A   1      44.159  23.977  36.841  1.00  0.00    -0.744 OA
ENDBRANCH  87  91
ENDBRANCH  61  84
ENDBRANCH  35  36
ENDBRANCH  27  30
ENDBRANCH  25  26
ENDBRANCH   1  25
TORSDOF 16
ENDMDL
