MODEL 1
REMARK VINA RESULT:     -11.5      0.000      0.000
REMARK SMILES CC[C@H](NC(=O)N1CCO[C@@H](CC(=O)NCCCNC(=O)c2ccc(-c3c4nc(c(-c5cc(S(=O)(=O)[O-])ccc5F)c5ccc([nH]5)c(-c5cc(S(=O)(=O)[O-])ccc5F)c5nc(c(-c6cc(S(=O)(=O)[O-])ccc6F)c6ccc3[nH]6)C=C5)C=C4)cc2)C1)c1cccs1
REMARK SMILES IDX 16 1 15 2 13 3 14 4 12 6 11 7 7 8 8 9 85 10 9 11 10 12 5 13
REMARK SMILES IDX 4 14 6 16 3 17 2 18 1 19 86 20 87 21 90 22 88 23 89 24 17 25
REMARK SMILES IDX 18 26 19 27 20 28 21 30 22 31 23 32 84 33 24 34 83 35 25 36
REMARK SMILES IDX 26 37 27 38 77 39 28 40 82 41 76 42 78 43 29 44 81 45 75 46
REMARK SMILES IDX 74 47 30 49 62 50 42 51 61 52 43 53 46 54 60 55 79 56 44 57
REMARK SMILES IDX 45 58 59 60 80 61 47 62 31 63 32 64 40 65 33 66 39 67 41 68
REMARK SMILES IDX 38 69 34 70 35 71 36 72 37 73 63 74 64 75 72 76 65 77 71 78
REMARK SMILES IDX 73 79 70 80 66 81 67 82 68 83 69 84 48 85 49 86 57 87 50 88
REMARK SMILES IDX 56 89 58 90 55 91 51 92 52 93 53 94 54 95
REMARK H PARENT 15 5 4 15 19 29 78 48 46 59
REMARK Flexibility Score: inf
ROOT
ATOM      1  C   UNL A   1      31.440  30.811  26.140  1.00  0.00     0.117 C 
ENDROOT
BRANCH   1   2
ATOM      2  N   UNL A   1      32.767  30.228  26.329  1.00  0.00    -0.356 N 
ATOM      3  C   UNL A   1      33.145  29.001  26.795  1.00  0.00     0.222 C 
ATOM      4  O   UNL A   1      34.345  28.785  26.972  1.00  0.00    -0.275 OA
ATOM      5  H   UNL A   1      33.513  30.818  26.077  1.00  0.00     0.163 HD
BRANCH   3   6
ATOM      6  C   UNL A   1      32.114  27.935  27.100  1.00  0.00     0.133 C 
BRANCH   6   7
ATOM      7  C   UNL A   1      32.113  26.756  26.118  1.00  0.00     0.147 C 
ATOM      8  N   UNL A   1      31.247  24.401  25.877  1.00  0.00    -0.320 N 
ATOM      9  C   UNL A   1      30.371  24.880  24.821  1.00  0.00     0.150 C 
ATOM     10  C   UNL A   1      31.596  25.477  26.784  1.00  0.00     0.154 C 
ATOM     11  C   UNL A   1      31.019  26.066  24.107  1.00  0.00     0.182 C 
ATOM     12  O   UNL A   1      31.251  27.150  25.022  1.00  0.00    -0.374 OA
BRANCH   8  13
ATOM     13  C   UNL A   1      30.909  23.238  26.524  1.00  0.00     0.318 C 
ATOM     14  N   UNL A   1      31.800  22.220  26.507  1.00  0.00    -0.330 N 
ATOM     15  H   UNL A   1      31.699  21.596  27.261  1.00  0.00     0.166 HD
ATOM     16  O   UNL A   1      29.906  23.152  27.230  1.00  0.00    -0.249 OA
BRANCH  14  17
ATOM     17  C   UNL A   1      32.885  21.862  25.593  1.00  0.00     0.124 C 
BRANCH  17  18
ATOM     18  C   UNL A   1      34.255  22.292  26.149  1.00  0.00     0.027 C 
ATOM     19  C   UNL A   1      34.394  22.326  27.663  1.00  0.00     0.006 C 
ENDBRANCH  17  18
BRANCH  17  20
ATOM     20  C   UNL A   1      32.745  20.478  24.995  1.00  0.00     0.027 A 
ATOM     21  C   UNL A   1      32.849  19.270  25.671  1.00  0.00     0.017 A 
ATOM     22  S   UNL A   1      32.337  20.202  23.350  1.00  0.00    -0.147 S 
ATOM     23  C   UNL A   1      32.677  18.138  24.825  1.00  0.00     0.012 A 
ATOM     24  C   UNL A   1      32.407  18.508  23.529  1.00  0.00     0.065 A 
ENDBRANCH  17  20
ENDBRANCH  14  17
ENDBRANCH   8  13
ENDBRANCH   6   7
ENDBRANCH   3   6
ENDBRANCH   1   2
BRANCH   1  25
ATOM     25  C   UNL A   1      31.420  32.296  26.506  1.00  0.00     0.042 C 
BRANCH  25  26
ATOM     26  C   UNL A   1      32.658  32.779  27.242  1.00  0.00     0.118 C 
BRANCH  26  27
ATOM     27  N   UNL A   1      32.529  34.159  27.673  1.00  0.00    -0.352 N 
ATOM     28  C   UNL A   1      33.140  34.815  28.717  1.00  0.00     0.251 C 
ATOM     29  H   UNL A   1      31.913  34.708  27.137  1.00  0.00     0.163 HD
ATOM     30  O   UNL A   1      32.696  35.907  29.066  1.00  0.00    -0.269 OA
BRANCH  28  31
ATOM     31  C   UNL A   1      34.305  34.227  29.430  1.00  0.00     0.039 A 
ATOM     32  C   UNL A   1      35.591  34.454  28.928  1.00  0.00     0.014 A 
ATOM     33  C   UNL A   1      34.145  33.403  30.547  1.00  0.00     0.014 A 
ATOM     34  C   UNL A   1      36.706  33.901  29.568  1.00  0.00     0.010 A 
ATOM     35  C   UNL A   1      35.260  32.928  31.237  1.00  0.00     0.010 A 
ATOM     36  C   UNL A   1      36.554  33.153  30.747  1.00  0.00    -0.014 A 
BRANCH  36  37
ATOM     37  C   UNL A   1      37.721  32.551  31.453  1.00  0.00     0.031 A 
ATOM     38  C   UNL A   1      38.467  31.404  30.818  1.00  0.00     0.074 A 
ATOM     39  C   UNL A   1      38.074  32.986  32.679  1.00  0.00     0.049 A 
ATOM     40  N   UNL A   1      39.420  30.655  31.313  1.00  0.00    -0.248 NA
ATOM     41  C   UNL A   1      38.060  31.031  29.455  1.00  0.00     0.031 C 
ATOM     42  C   UNL A   1      37.426  34.075  33.411  1.00  0.00     0.029 A 
ATOM     43  N   UNL A   1      39.062  32.557  33.533  1.00  0.00    -0.354 N 
ATOM     44  C   UNL A   1      39.710  29.711  30.332  1.00  0.00     0.074 A 
ATOM     45  C   UNL A   1      38.788  29.946  29.242  1.00  0.00     0.031 C 
ATOM     46  C   UNL A   1      38.047  34.244  34.589  1.00  0.00     0.029 A 
ATOM     47  C   UNL A   1      39.100  33.243  34.725  1.00  0.00     0.049 A 
ATOM     48  H   UNL A   1      39.685  31.828  33.312  1.00  0.00     0.167 HD
ATOM     49  C   UNL A   1      40.670  28.753  30.329  1.00  0.00     0.034 A 
ATOM     50  C   UNL A   1      39.880  33.071  35.812  1.00  0.00     0.034 A 
ATOM     51  C   UNL A   1      41.600  28.545  31.413  1.00  0.00     0.049 A 
ATOM     52  C   UNL A   1      40.919  31.975  35.803  1.00  0.00     0.074 A 
ATOM     53  C   UNL A   1      42.638  27.634  31.497  1.00  0.00     0.029 A 
ATOM     54  N   UNL A   1      41.603  29.261  32.604  1.00  0.00    -0.354 N 
ATOM     55  N   UNL A   1      41.194  31.105  34.858  1.00  0.00    -0.248 NA
ATOM     56  C   UNL A   1      41.755  31.841  37.004  1.00  0.00     0.031 C 
ATOM     57  C   UNL A   1      43.227  27.753  32.760  1.00  0.00     0.029 A 
ATOM     58  C   UNL A   1      42.608  28.792  33.437  1.00  0.00     0.049 A 
ATOM     59  H   UNL A   1      40.984  29.993  32.825  1.00  0.00     0.167 HD
ATOM     60  C   UNL A   1      42.259  30.347  35.337  1.00  0.00     0.074 A 
ATOM     61  C   UNL A   1      42.581  30.867  36.650  1.00  0.00     0.031 C 
ATOM     62  C   UNL A   1      42.918  29.320  34.744  1.00  0.00     0.034 A 
BRANCH  49  63
ATOM     63  C   UNL A   1      40.745  27.845  29.123  1.00  0.00     0.023 A 
ATOM     64  C   UNL A   1      41.690  28.048  28.102  1.00  0.00     0.031 A 
ATOM     65  C   UNL A   1      39.842  26.776  28.979  1.00  0.00     0.131 A 
ATOM     66  C   UNL A   1      41.658  27.250  26.949  1.00  0.00     0.055 A 
ATOM     67  C   UNL A   1      39.873  25.930  27.867  1.00  0.00     0.041 A 
ATOM     68  F   UNL A   1      38.904  26.542  29.910  1.00  0.00    -0.206 F 
ATOM     69  C   UNL A   1      40.774  26.175  26.836  1.00  0.00     0.022 A 
BRANCH  66  70
ATOM     70  S   UNL A   1      42.692  27.730  25.537  1.00  0.00     0.124 S 
ATOM     71  O   UNL A   1      41.979  28.902  25.036  1.00  0.00    -0.237 OA
ATOM     72  O   UNL A   1      43.983  27.985  26.164  1.00  0.00    -0.237 OA
ATOM     73  O   UNL A   1      42.643  26.559  24.663  1.00  0.00    -0.744 OA
ENDBRANCH  66  70
ENDBRANCH  49  63
BRANCH  50  74
ATOM     74  C   UNL A   1      39.710  33.941  37.014  1.00  0.00     0.023 A 
ATOM     75  C   UNL A   1      39.114  33.446  38.184  1.00  0.00     0.031 A 
ATOM     76  C   UNL A   1      40.094  35.294  36.992  1.00  0.00     0.131 A 
ATOM     77  C   UNL A   1      38.869  34.308  39.264  1.00  0.00     0.055 A 
ATOM     78  C   UNL A   1      39.900  36.134  38.091  1.00  0.00     0.041 A 
ATOM     79  F   UNL A   1      40.670  35.822  35.900  1.00  0.00    -0.206 F 
ATOM     80  C   UNL A   1      39.270  35.644  39.231  1.00  0.00     0.022 A 
BRANCH  77  81
ATOM     81  S   UNL A   1      37.925  33.678  40.680  1.00  0.00     0.124 S 
ATOM     82  O   UNL A   1      37.754  34.885  41.482  1.00  0.00    -0.237 OA
ATOM     83  O   UNL A   1      36.724  33.159  40.035  1.00  0.00    -0.237 OA
ATOM     84  O   UNL A   1      38.809  32.667  41.256  1.00  0.00    -0.744 OA
ENDBRANCH  77  81
ENDBRANCH  50  74
BRANCH  62  85
ATOM     85  C   UNL A   1      44.090  28.730  35.487  1.00  0.00     0.023 A 
ATOM     86  C   UNL A   1      43.933  27.691  36.420  1.00  0.00     0.031 A 
ATOM     87  C   UNL A   1      45.389  29.214  35.247  1.00  0.00     0.131 A 
ATOM     88  C   UNL A   1      45.051  27.200  37.112  1.00  0.00     0.055 A 
ATOM     89  C   UNL A   1      46.503  28.684  35.897  1.00  0.00     0.041 A 
ATOM     90  F   UNL A   1      45.596  30.206  34.366  1.00  0.00    -0.206 F 
ATOM     91  C   UNL A   1      46.336  27.677  36.844  1.00  0.00     0.022 A 
BRANCH  88  92
ATOM     92  S   UNL A   1      44.795  25.972  38.423  1.00  0.00     0.124 S 
ATOM     93  O   UNL A   1      43.819  26.639  39.278  1.00  0.00    -0.237 OA
ATOM     94  O   UNL A   1      44.305  24.816  37.679  1.00  0.00    -0.237 OA
ATOM     95  O   UNL A   1      46.126  25.812  39.007  1.00  0.00    -0.744 OA
ENDBRANCH  88  92
ENDBRANCH  62  85
ENDBRANCH  36  37
ENDBRANCH  28  31
ENDBRANCH  26  27
ENDBRANCH  25  26
ENDBRANCH   1  25
TORSDOF 18
ENDMDL
MODEL 2
REMARK VINA RESULT:     -11.4      2.573      7.920
REMARK SMILES CC[C@H](NC(=O)N1CCO[C@@H](CC(=O)NCCCNC(=O)c2ccc(-c3c4nc(c(-c5cc(S(=O)(=O)[O-])ccc5F)c5ccc([nH]5)c(-c5cc(S(=O)(=O)[O-])ccc5F)c5nc(c(-c6cc(S(=O)(=O)[O-])ccc6F)c6ccc3[nH]6)C=C5)C=C4)cc2)C1)c1cccs1
REMARK SMILES IDX 16 1 15 2 13 3 14 4 12 6 11 7 7 8 8 9 85 10 9 11 10 12 5 13
REMARK SMILES IDX 4 14 6 16 3 17 2 18 1 19 86 20 87 21 90 22 88 23 89 24 17 25
REMARK SMILES IDX 18 26 19 27 20 28 21 30 22 31 23 32 84 33 24 34 83 35 25 36
REMARK SMILES IDX 26 37 27 38 77 39 28 40 82 41 76 42 78 43 29 44 81 45 75 46
REMARK SMILES IDX 74 47 30 49 62 50 42 51 61 52 43 53 46 54 60 55 79 56 44 57
REMARK SMILES IDX 45 58 59 60 80 61 47 62 31 63 32 64 40 65 33 66 39 67 41 68
REMARK SMILES IDX 38 69 34 70 35 71 36 72 37 73 63 74 64 75 72 76 65 77 71 78
REMARK SMILES IDX 73 79 70 80 66 81 67 82 68 83 69 84 48 85 49 86 57 87 50 88
REMARK SMILES IDX 56 89 58 90 55 91 51 92 52 93 53 94 54 95
REMARK H PARENT 15 5 4 15 19 29 78 48 46 59
REMARK Flexibility Score: inf
ROOT
ATOM      1  C   UNL A   1      30.928  30.729  25.570  1.00  0.00     0.117 C 
ENDROOT
BRANCH   1   2
ATOM      2  N   UNL A   1      30.351  30.727  24.228  1.00  0.00    -0.356 N 
ATOM      3  C   UNL A   1      30.015  29.692  23.401  1.00  0.00     0.222 C 
ATOM      4  O   UNL A   1      29.646  29.953  22.255  1.00  0.00    -0.275 OA
ATOM      5  H   UNL A   1      30.174  31.621  23.856  1.00  0.00     0.163 HD
BRANCH   3   6
ATOM      6  C   UNL A   1      30.103  28.258  23.878  1.00  0.00     0.133 C 
BRANCH   6   7
ATOM      7  C   UNL A   1      31.504  27.641  23.775  1.00  0.00     0.147 C 
ATOM      8  N   UNL A   1      32.931  26.255  22.225  1.00  0.00    -0.320 N 
ATOM      9  C   UNL A   1      33.770  27.425  22.026  1.00  0.00     0.150 C 
ATOM     10  C   UNL A   1      31.589  26.644  22.614  1.00  0.00     0.154 C 
ATOM     11  C   UNL A   1      33.749  28.299  23.280  1.00  0.00     0.182 C 
ATOM     12  O   UNL A   1      32.415  28.749  23.570  1.00  0.00    -0.374 OA
BRANCH   8  13
ATOM     13  C   UNL A   1      32.952  25.270  21.269  1.00  0.00     0.318 C 
ATOM     14  N   UNL A   1      32.685  24.002  21.657  1.00  0.00    -0.330 N 
ATOM     15  H   UNL A   1      32.342  23.432  20.932  1.00  0.00     0.166 HD
ATOM     16  O   UNL A   1      33.054  25.527  20.070  1.00  0.00    -0.249 OA
BRANCH  14  17
ATOM     17  C   UNL A   1      32.803  23.309  22.939  1.00  0.00     0.124 C 
BRANCH  17  18
ATOM     18  C   UNL A   1      32.139  21.919  22.891  1.00  0.00     0.027 C 
ATOM     19  C   UNL A   1      32.366  21.016  24.093  1.00  0.00     0.006 C 
ENDBRANCH  17  18
BRANCH  17  20
ATOM     20  C   UNL A   1      34.169  23.440  23.579  1.00  0.00     0.027 A 
ATOM     21  C   UNL A   1      35.361  22.919  23.098  1.00  0.00     0.017 A 
ATOM     22  S   UNL A   1      34.455  24.362  25.000  1.00  0.00    -0.147 S 
ATOM     23  C   UNL A   1      36.477  23.207  23.935  1.00  0.00     0.012 A 
ATOM     24  C   UNL A   1      36.116  23.975  25.017  1.00  0.00     0.065 A 
ENDBRANCH  17  20
ENDBRANCH  14  17
ENDBRANCH   8  13
ENDBRANCH   6   7
ENDBRANCH   3   6
ENDBRANCH   1   2
BRANCH   1  25
ATOM     25  C   UNL A   1      31.000  32.142  26.151  1.00  0.00     0.042 C 
BRANCH  25  26
ATOM     26  C   UNL A   1      32.276  32.441  26.918  1.00  0.00     0.118 C 
BRANCH  26  27
ATOM     27  N   UNL A   1      32.342  33.828  27.342  1.00  0.00    -0.352 N 
ATOM     28  C   UNL A   1      33.104  34.411  28.329  1.00  0.00     0.251 C 
ATOM     29  H   UNL A   1      31.754  34.444  26.849  1.00  0.00     0.163 HD
ATOM     30  O   UNL A   1      32.817  35.548  28.699  1.00  0.00    -0.269 OA
BRANCH  28  31
ATOM     31  C   UNL A   1      34.244  33.694  28.957  1.00  0.00     0.039 A 
ATOM     32  C   UNL A   1      35.549  34.088  28.642  1.00  0.00     0.014 A 
ATOM     33  C   UNL A   1      34.049  32.596  29.801  1.00  0.00     0.014 A 
ATOM     34  C   UNL A   1      36.643  33.422  29.205  1.00  0.00     0.010 A 
ATOM     35  C   UNL A   1      35.135  31.993  30.433  1.00  0.00     0.010 A 
ATOM     36  C   UNL A   1      36.448  32.383  30.129  1.00  0.00    -0.014 A 
BRANCH  36  37
ATOM     37  C   UNL A   1      37.591  31.653  30.747  1.00  0.00     0.031 A 
ATOM     38  C   UNL A   1      38.016  31.986  32.155  1.00  0.00     0.074 A 
ATOM     39  C   UNL A   1      38.283  30.741  30.035  1.00  0.00     0.049 A 
ATOM     40  N   UNL A   1      39.056  31.569  32.832  1.00  0.00    -0.248 NA
ATOM     41  C   UNL A   1      37.173  32.946  32.885  1.00  0.00     0.031 C 
ATOM     42  C   UNL A   1      37.987  30.338  28.660  1.00  0.00     0.029 A 
ATOM     43  N   UNL A   1      39.386  29.993  30.368  1.00  0.00    -0.354 N 
ATOM     44  C   UNL A   1      39.003  32.230  34.057  1.00  0.00     0.074 A 
ATOM     45  C   UNL A   1      37.864  33.121  34.001  1.00  0.00     0.031 C 
ATOM     46  C   UNL A   1      38.869  29.401  28.276  1.00  0.00     0.029 A 
ATOM     47  C   UNL A   1      39.828  29.175  29.352  1.00  0.00     0.049 A 
ATOM     48  H   UNL A   1      39.821  30.036  31.250  1.00  0.00     0.167 HD
ATOM     49  C   UNL A   1      39.813  32.090  35.136  1.00  0.00     0.034 A 
ATOM     50  C   UNL A   1      40.895  28.352  29.288  1.00  0.00     0.034 A 
ATOM     51  C   UNL A   1      40.931  31.180  35.187  1.00  0.00     0.049 A 
ATOM     52  C   UNL A   1      41.805  28.239  30.487  1.00  0.00     0.074 A 
ATOM     53  C   UNL A   1      41.791  30.928  36.242  1.00  0.00     0.029 A 
ATOM     54  N   UNL A   1      41.345  30.371  34.137  1.00  0.00    -0.354 N 
ATOM     55  N   UNL A   1      41.728  28.856  31.645  1.00  0.00    -0.248 NA
ATOM     56  C   UNL A   1      42.944  27.316  30.374  1.00  0.00     0.031 C 
ATOM     57  C   UNL A   1      42.761  30.017  35.811  1.00  0.00     0.029 A 
ATOM     58  C   UNL A   1      42.463  29.641  34.511  1.00  0.00     0.049 A 
ATOM     59  H   UNL A   1      40.909  30.322  33.255  1.00  0.00     0.167 HD
ATOM     60  C   UNL A   1      42.785  28.365  32.408  1.00  0.00     0.074 A 
ATOM     61  C   UNL A   1      43.480  27.398  31.583  1.00  0.00     0.031 C 
ATOM     62  C   UNL A   1      43.145  28.679  33.678  1.00  0.00     0.034 A 
BRANCH  49  63
ATOM     63  C   UNL A   1      39.528  32.961  36.338  1.00  0.00     0.023 A 
ATOM     64  C   UNL A   1      40.134  34.219  36.500  1.00  0.00     0.031 A 
ATOM     65  C   UNL A   1      38.657  32.516  37.349  1.00  0.00     0.131 A 
ATOM     66  C   UNL A   1      39.927  34.950  37.679  1.00  0.00     0.055 A 
ATOM     67  C   UNL A   1      38.387  33.290  38.481  1.00  0.00     0.041 A 
ATOM     68  F   UNL A   1      38.063  31.316  37.262  1.00  0.00    -0.206 F 
ATOM     69  C   UNL A   1      39.037  34.507  38.659  1.00  0.00     0.022 A 
BRANCH  66  70
ATOM     70  S   UNL A   1      40.951  36.418  37.977  1.00  0.00     0.124 S 
ATOM     71  O   UNL A   1      41.428  36.722  36.630  1.00  0.00    -0.237 OA
ATOM     72  O   UNL A   1      39.995  37.360  38.546  1.00  0.00    -0.237 OA
ATOM     73  O   UNL A   1      41.978  35.937  38.900  1.00  0.00    -0.744 OA
ENDBRANCH  66  70
ENDBRANCH  49  63
BRANCH  50  74
ATOM     74  C   UNL A   1      41.182  27.576  28.046  1.00  0.00     0.023 A 
ATOM     75  C   UNL A   1      40.893  26.205  27.968  1.00  0.00     0.031 A 
ATOM     76  C   UNL A   1      41.799  28.183  26.936  1.00  0.00     0.131 A 
ATOM     77  C   UNL A   1      41.266  25.473  26.830  1.00  0.00     0.055 A 
ATOM     78  C   UNL A   1      42.118  27.462  25.783  1.00  0.00     0.041 A 
ATOM     79  F   UNL A   1      42.099  29.492  26.954  1.00  0.00    -0.206 F 
ATOM     80  C   UNL A   1      41.864  26.095  25.732  1.00  0.00     0.022 A 
BRANCH  77  81
ATOM     81  S   UNL A   1      41.049  23.672  26.846  1.00  0.00     0.124 S 
ATOM     82  O   UNL A   1      41.418  23.342  28.218  1.00  0.00    -0.237 OA
ATOM     83  O   UNL A   1      39.636  23.535  26.509  1.00  0.00    -0.237 OA
ATOM     84  O   UNL A   1      41.981  23.208  25.820  1.00  0.00    -0.744 OA
ENDBRANCH  77  81
ENDBRANCH  50  74
BRANCH  62  85
ATOM     85  C   UNL A   1      44.309  27.926  34.273  1.00  0.00     0.023 A 
ATOM     86  C   UNL A   1      44.131  26.744  35.012  1.00  0.00     0.031 A 
ATOM     87  C   UNL A   1      45.621  28.399  34.086  1.00  0.00     0.131 A 
ATOM     88  C   UNL A   1      45.243  26.100  35.576  1.00  0.00     0.055 A 
ATOM     89  C   UNL A   1      46.726  27.724  34.601  1.00  0.00     0.041 A 
ATOM     90  F   UNL A   1      45.847  29.524  33.389  1.00  0.00    -0.206 F 
ATOM     91  C   UNL A   1      46.540  26.572  35.361  1.00  0.00     0.022 A 
BRANCH  88  92
ATOM     92  S   UNL A   1      44.967  24.669  36.656  1.00  0.00     0.124 S 
ATOM     93  O   UNL A   1      45.333  23.556  35.786  1.00  0.00    -0.237 OA
ATOM     94  O   UNL A   1      45.874  24.934  37.767  1.00  0.00    -0.237 OA
ATOM     95  O   UNL A   1      43.545  24.757  36.985  1.00  0.00    -0.744 OA
ENDBRANCH  88  92
ENDBRANCH  62  85
ENDBRANCH  36  37
ENDBRANCH  28  31
ENDBRANCH  26  27
ENDBRANCH  25  26
ENDBRANCH   1  25
TORSDOF 18
ENDMDL
MODEL 3
REMARK VINA RESULT:     -11.4      1.372      2.101
REMARK SMILES CC[C@H](NC(=O)N1CCO[C@@H](CC(=O)NCCCNC(=O)c2ccc(-c3c4nc(c(-c5cc(S(=O)(=O)[O-])ccc5F)c5ccc([nH]5)c(-c5cc(S(=O)(=O)[O-])ccc5F)c5nc(c(-c6cc(S(=O)(=O)[O-])ccc6F)c6ccc3[nH]6)C=C5)C=C4)cc2)C1)c1cccs1
REMARK SMILES IDX 16 1 15 2 13 3 14 4 12 6 11 7 7 8 8 9 85 10 9 11 10 12 5 13
REMARK SMILES IDX 4 14 6 16 3 17 2 18 1 19 86 20 87 21 90 22 88 23 89 24 17 25
REMARK SMILES IDX 18 26 19 27 20 28 21 30 22 31 23 32 84 33 24 34 83 35 25 36
REMARK SMILES IDX 26 37 27 38 77 39 28 40 82 41 76 42 78 43 29 44 81 45 75 46
REMARK SMILES IDX 74 47 30 49 62 50 42 51 61 52 43 53 46 54 60 55 79 56 44 57
REMARK SMILES IDX 45 58 59 60 80 61 47 62 31 63 32 64 40 65 33 66 39 67 41 68
REMARK SMILES IDX 38 69 34 70 35 71 36 72 37 73 63 74 64 75 72 76 65 77 71 78
REMARK SMILES IDX 73 79 70 80 66 81 67 82 68 83 69 84 48 85 49 86 57 87 50 88
REMARK SMILES IDX 56 89 58 90 55 91 51 92 52 93 53 94 54 95
REMARK H PARENT 15 5 4 15 19 29 78 48 46 59
REMARK Flexibility Score: inf
ROOT
ATOM      1  C   UNL A   1      31.586  30.812  26.030  1.00  0.00     0.117 C 
ENDROOT
BRANCH   1   2
ATOM      2  N   UNL A   1      31.545  29.775  27.059  1.00  0.00    -0.356 N 
ATOM      3  C   UNL A   1      32.029  28.497  27.059  1.00  0.00     0.222 C 
ATOM      4  O   UNL A   1      31.765  27.770  28.018  1.00  0.00    -0.275 OA
ATOM      5  H   UNL A   1      31.095  30.041  27.892  1.00  0.00     0.163 HD
BRANCH   3   6
ATOM      6  C   UNL A   1      32.861  27.982  25.903  1.00  0.00     0.133 C 
BRANCH   6   7
ATOM      7  C   UNL A   1      32.071  27.744  24.610  1.00  0.00     0.147 C 
ATOM      8  N   UNL A   1      31.993  26.214  22.608  1.00  0.00    -0.320 N 
ATOM      9  C   UNL A   1      30.729  25.698  23.109  1.00  0.00     0.150 C 
ATOM     10  C   UNL A   1      32.792  26.755  23.690  1.00  0.00     0.154 C 
ATOM     11  C   UNL A   1      29.999  26.787  23.894  1.00  0.00     0.182 C 
ATOM     12  O   UNL A   1      30.782  27.221  25.019  1.00  0.00    -0.374 OA
BRANCH   8  13
ATOM     13  C   UNL A   1      32.715  25.431  21.741  1.00  0.00     0.318 C 
ATOM     14  N   UNL A   1      32.919  24.136  22.074  1.00  0.00    -0.330 N 
ATOM     15  H   UNL A   1      33.084  23.552  21.299  1.00  0.00     0.166 HD
ATOM     16  O   UNL A   1      33.044  25.828  20.624  1.00  0.00    -0.249 OA
BRANCH  14  17
ATOM     17  C   UNL A   1      32.941  23.429  23.354  1.00  0.00     0.124 C 
BRANCH  17  18
ATOM     18  C   UNL A   1      32.140  22.115  23.286  1.00  0.00     0.027 C 
ATOM     19  C   UNL A   1      32.766  20.902  23.957  1.00  0.00     0.006 C 
ENDBRANCH  17  18
BRANCH  17  20
ATOM     20  C   UNL A   1      34.301  23.418  24.019  1.00  0.00     0.027 A 
ATOM     21  C   UNL A   1      35.525  23.214  23.398  1.00  0.00     0.017 A 
ATOM     22  S   UNL A   1      34.533  23.756  25.687  1.00  0.00    -0.147 S 
ATOM     23  C   UNL A   1      36.625  23.253  24.301  1.00  0.00     0.012 A 
ATOM     24  C   UNL A   1      36.220  23.526  25.585  1.00  0.00     0.065 A 
ENDBRANCH  17  20
ENDBRANCH  14  17
ENDBRANCH   8  13
ENDBRANCH   6   7
ENDBRANCH   3   6
ENDBRANCH   1   2
BRANCH   1  25
ATOM     25  C   UNL A   1      31.433  32.209  26.632  1.00  0.00     0.042 C 
BRANCH  25  26
ATOM     26  C   UNL A   1      32.703  32.770  27.247  1.00  0.00     0.118 C 
BRANCH  26  27
ATOM     27  N   UNL A   1      32.530  34.139  27.696  1.00  0.00    -0.352 N 
ATOM     28  C   UNL A   1      33.107  34.797  28.759  1.00  0.00     0.251 C 
ATOM     29  H   UNL A   1      31.908  34.680  27.159  1.00  0.00     0.163 HD
ATOM     30  O   UNL A   1      32.627  35.870  29.117  1.00  0.00    -0.269 OA
BRANCH  28  31
ATOM     31  C   UNL A   1      34.276  34.230  29.482  1.00  0.00     0.039 A 
ATOM     32  C   UNL A   1      35.559  34.437  28.961  1.00  0.00     0.014 A 
ATOM     33  C   UNL A   1      34.124  33.444  30.627  1.00  0.00     0.014 A 
ATOM     34  C   UNL A   1      36.678  33.903  29.610  1.00  0.00     0.010 A 
ATOM     35  C   UNL A   1      35.243  32.991  31.323  1.00  0.00     0.010 A 
ATOM     36  C   UNL A   1      36.534  33.196  30.815  1.00  0.00    -0.014 A 
BRANCH  36  37
ATOM     37  C   UNL A   1      37.705  32.615  31.531  1.00  0.00     0.031 A 
ATOM     38  C   UNL A   1      38.460  31.463  30.917  1.00  0.00     0.074 A 
ATOM     39  C   UNL A   1      38.056  33.074  32.749  1.00  0.00     0.049 A 
ATOM     40  N   UNL A   1      39.419  30.730  31.425  1.00  0.00    -0.248 NA
ATOM     41  C   UNL A   1      38.055  31.062  29.560  1.00  0.00     0.031 C 
ATOM     42  C   UNL A   1      37.400  34.171  33.462  1.00  0.00     0.029 A 
ATOM     43  N   UNL A   1      39.047  32.668  33.610  1.00  0.00    -0.354 N 
ATOM     44  C   UNL A   1      39.716  29.770  30.460  1.00  0.00     0.074 A 
ATOM     45  C   UNL A   1      38.791  29.979  29.366  1.00  0.00     0.031 C 
ATOM     46  C   UNL A   1      38.020  34.366  34.637  1.00  0.00     0.029 A 
ATOM     47  C   UNL A   1      39.081  33.375  34.790  1.00  0.00     0.049 A 
ATOM     48  H   UNL A   1      39.676  31.939  33.402  1.00  0.00     0.167 HD
ATOM     49  C   UNL A   1      40.683  28.820  30.474  1.00  0.00     0.034 A 
ATOM     50  C   UNL A   1      39.862  33.229  35.880  1.00  0.00     0.034 A 
ATOM     51  C   UNL A   1      41.614  28.638  31.560  1.00  0.00     0.049 A 
ATOM     52  C   UNL A   1      40.909  32.140  35.889  1.00  0.00     0.074 A 
ATOM     53  C   UNL A   1      42.659  27.736  31.660  1.00  0.00     0.029 A 
ATOM     54  N   UNL A   1      41.613  29.375  32.739  1.00  0.00    -0.354 N 
ATOM     55  N   UNL A   1      41.190  31.255  34.960  1.00  0.00    -0.248 NA
ATOM     56  C   UNL A   1      41.747  32.034  37.092  1.00  0.00     0.031 C 
ATOM     57  C   UNL A   1      43.248  27.883  32.921  1.00  0.00     0.029 A 
ATOM     58  C   UNL A   1      42.621  28.928  33.579  1.00  0.00     0.049 A 
ATOM     59  H   UNL A   1      40.988  30.107  32.947  1.00  0.00     0.167 HD
ATOM     60  C   UNL A   1      42.261  30.515  35.452  1.00  0.00     0.074 A 
ATOM     61  C   UNL A   1      42.580  31.059  36.756  1.00  0.00     0.031 C 
ATOM     62  C   UNL A   1      42.927  29.482  34.876  1.00  0.00     0.034 A 
BRANCH  49  63
ATOM     63  C   UNL A   1      40.764  27.891  29.284  1.00  0.00     0.023 A 
ATOM     64  C   UNL A   1      41.700  28.090  28.254  1.00  0.00     0.031 A 
ATOM     65  C   UNL A   1      39.876  26.806  29.165  1.00  0.00     0.131 A 
ATOM     66  C   UNL A   1      41.673  27.270  27.115  1.00  0.00     0.055 A 
ATOM     67  C   UNL A   1      39.914  25.941  28.069  1.00  0.00     0.041 A 
ATOM     68  F   UNL A   1      38.948  26.575  30.106  1.00  0.00    -0.206 F 
ATOM     69  C   UNL A   1      40.805  26.181  27.027  1.00  0.00     0.022 A 
BRANCH  66  70
ATOM     70  S   UNL A   1      42.691  27.740  25.688  1.00  0.00     0.124 S 
ATOM     71  O   UNL A   1      42.228  29.101  25.432  1.00  0.00    -0.237 OA
ATOM     72  O   UNL A   1      44.046  27.613  26.212  1.00  0.00    -0.237 OA
ATOM     73  O   UNL A   1      42.321  26.762  24.667  1.00  0.00    -0.744 OA
ENDBRANCH  66  70
ENDBRANCH  49  63
BRANCH  50  74
ATOM     74  C   UNL A   1      39.686  34.118  37.066  1.00  0.00     0.023 A 
ATOM     75  C   UNL A   1      39.120  33.631  38.255  1.00  0.00     0.031 A 
ATOM     76  C   UNL A   1      40.032  35.480  37.011  1.00  0.00     0.131 A 
ATOM     77  C   UNL A   1      38.868  34.508  39.321  1.00  0.00     0.055 A 
ATOM     78  C   UNL A   1      39.832  36.337  38.095  1.00  0.00     0.041 A 
ATOM     79  F   UNL A   1      40.578  36.000  35.899  1.00  0.00    -0.206 F 
ATOM     80  C   UNL A   1      39.232  35.854  39.255  1.00  0.00     0.022 A 
BRANCH  77  81
ATOM     81  S   UNL A   1      37.962  33.884  40.764  1.00  0.00     0.124 S 
ATOM     82  O   UNL A   1      36.804  33.256  40.137  1.00  0.00    -0.237 OA
ATOM     83  O   UNL A   1      38.937  32.979  41.363  1.00  0.00    -0.237 OA
ATOM     84  O   UNL A   1      37.677  35.091  41.535  1.00  0.00    -0.744 OA
ENDBRANCH  77  81
ENDBRANCH  50  74
BRANCH  62  85
ATOM     85  C   UNL A   1      44.105  28.913  35.629  1.00  0.00     0.023 A 
ATOM     86  C   UNL A   1      43.968  27.836  36.521  1.00  0.00     0.031 A 
ATOM     87  C   UNL A   1      45.388  29.459  35.442  1.00  0.00     0.131 A 
ATOM     88  C   UNL A   1      45.087  27.367  37.225  1.00  0.00     0.055 A 
ATOM     89  C   UNL A   1      46.506  28.952  36.102  1.00  0.00     0.041 A 
ATOM     90  F   UNL A   1      45.575  30.490  34.602  1.00  0.00    -0.206 F 
ATOM     91  C   UNL A   1      46.358  27.906  37.009  1.00  0.00     0.022 A 
BRANCH  88  92
ATOM     92  S   UNL A   1      44.850  26.083  38.485  1.00  0.00     0.124 S 
ATOM     93  O   UNL A   1      44.838  24.866  37.680  1.00  0.00    -0.237 OA
ATOM     94  O   UNL A   1      46.015  26.267  39.344  1.00  0.00    -0.237 OA
ATOM     95  O   UNL A   1      43.569  26.435  39.096  1.00  0.00    -0.744 OA
ENDBRANCH  88  92
ENDBRANCH  62  85
ENDBRANCH  36  37
ENDBRANCH  28  31
ENDBRANCH  26  27
ENDBRANCH  25  26
ENDBRANCH   1  25
TORSDOF 18
ENDMDL
