MODEL 1
REMARK VINA RESULT:     -13.7      0.000      0.000
REMARK SMILES Cc1ccccc1/C=C1\SC(=O)N(CC(=O)Nc2ccccc2C(=O)NCCCNC(=O)c2ccc(-c3c4nc(c(-c5cc(S(=O)(=O)[O-])ccc5F)c5ccc([nH]5)c(-c5cc(S(=O)(=O)[O-])ccc5F)c5nc(c(-c6cc(S(=O)(=O)[O-])ccc6F)c6ccc3[nH]6)C=C5)C=C4)cc2)C1=O
REMARK SMILES IDX 27 1 26 2 24 3 25 4 23 6 18 7 19 8 20 9 22 10 21 11 17 12
REMARK SMILES IDX 15 13 16 14 14 16 13 17 8 18 9 19 10 20 96 21 11 22 97 23
REMARK SMILES IDX 12 24 7 25 1 26 2 27 3 28 4 29 6 30 5 31 28 32 29 33 30 34
REMARK SMILES IDX 31 35 32 37 33 38 34 39 95 40 35 41 94 42 36 43 37 44 38 45
REMARK SMILES IDX 88 46 39 47 93 48 87 49 89 50 40 51 92 52 86 53 85 54 41 56
REMARK SMILES IDX 73 57 53 58 72 59 54 60 57 61 71 62 90 63 55 64 56 65 70 67
REMARK SMILES IDX 91 68 58 69 42 70 43 71 51 72 44 73 50 74 52 75 49 76 45 77
REMARK SMILES IDX 46 78 47 79 48 80 74 81 75 82 83 83 76 84 82 85 84 86 81 87
REMARK SMILES IDX 77 88 78 89 79 90 80 91 59 92 60 93 68 94 61 95 67 96 69 97
REMARK SMILES IDX 66 98 62 99 63 100 64 101 65 102
REMARK H PARENT 26 5 17 15 30 36 89 55 57 66
REMARK Flexibility Score: inf
ROOT
ATOM      1  C   UNL A   1      37.149  22.596  24.784  1.00  0.00     0.118 C 
ENDROOT
BRANCH   1   2
ATOM      2  N   UNL A   1      36.697  21.192  24.744  1.00  0.00    -0.352 N 
ATOM      3  C   UNL A   1      35.529  20.515  25.077  1.00  0.00     0.253 C 
ATOM      4  O   UNL A   1      35.370  19.349  24.719  1.00  0.00    -0.269 OA
ATOM      5  H   UNL A   1      37.391  20.586  24.398  1.00  0.00     0.163 HD
BRANCH   3   6
ATOM      6  C   UNL A   1      34.412  21.104  25.845  1.00  0.00     0.063 A 
ATOM      7  C   UNL A   1      33.108  21.328  25.338  1.00  0.00     0.054 A 
ATOM      8  C   UNL A   1      32.219  22.113  26.116  1.00  0.00     0.027 A 
ATOM      9  C   UNL A   1      32.575  22.644  27.356  1.00  0.00     0.002 A 
ATOM     10  C   UNL A   1      34.778  21.780  27.025  1.00  0.00     0.016 A 
ATOM     11  C   UNL A   1      33.869  22.486  27.807  1.00  0.00     0.001 A 
BRANCH   7  12
ATOM     12  N   UNL A   1      32.572  21.057  24.058  1.00  0.00    -0.324 N 
ATOM     13  C   UNL A   1      32.317  21.709  22.894  1.00  0.00     0.244 C 
ATOM     14  O   UNL A   1      31.799  21.014  22.004  1.00  0.00    -0.273 OA
ATOM     15  H   UNL A   1      32.303  20.113  23.990  1.00  0.00     0.170 HD
BRANCH  13  16
ATOM     16  C   UNL A   1      32.883  23.065  22.526  1.00  0.00     0.230 C 
BRANCH  16  17
ATOM     17  N   UNL A   1      32.629  24.205  23.370  1.00  0.00    -0.259 N 
ATOM     18  C   UNL A   1      33.595  27.220  25.138  1.00  0.00     0.029 C 
ATOM     19  C   UNL A   1      32.941  26.058  24.848  1.00  0.00     0.083 C 
ATOM     20  S   UNL A   1      31.264  25.664  24.903  1.00  0.00    -0.022 SA
ATOM     21  C   UNL A   1      33.573  24.830  24.187  1.00  0.00     0.268 C 
ATOM     22  C   UNL A   1      31.332  24.534  23.600  1.00  0.00     0.294 C 
ATOM     23  O   UNL A   1      34.702  24.423  24.414  1.00  0.00    -0.268 OA
ATOM     24  O   UNL A   1      30.332  24.087  23.055  1.00  0.00    -0.261 OA
BRANCH  18  25
ATOM     25  C   UNL A   1      33.220  28.706  25.453  1.00  0.00    -0.021 A 
ATOM     26  C   UNL A   1      35.336  29.412  27.071  1.00  0.00     0.045 C 
ATOM     27  C   UNL A   1      33.908  29.537  26.861  1.00  0.00    -0.044 A 
ATOM     28  C   UNL A   1      33.141  31.002  27.651  1.00  0.00     0.004 A 
ATOM     29  C   UNL A   1      31.730  31.779  26.848  1.00  0.00     0.000 A 
ATOM     30  C   UNL A   1      31.700  29.425  24.760  1.00  0.00     0.008 A 
ATOM     31  C   UNL A   1      31.016  30.990  25.380  1.00  0.00     0.001 A 
ENDBRANCH  18  25
ENDBRANCH  16  17
ENDBRANCH  13  16
ENDBRANCH   7  12
ENDBRANCH   3   6
ENDBRANCH   1   2
BRANCH   1  32
ATOM     32  C   UNL A   1      37.769  23.198  26.051  1.00  0.00     0.042 C 
BRANCH  32  33
ATOM     33  C   UNL A   1      39.293  23.211  26.249  1.00  0.00     0.118 C 
BRANCH  33  34
ATOM     34  N   UNL A   1      40.039  21.951  26.053  1.00  0.00    -0.352 N 
ATOM     35  C   UNL A   1      41.400  21.635  26.125  1.00  0.00     0.251 C 
ATOM     36  H   UNL A   1      39.466  21.183  25.829  1.00  0.00     0.163 HD
ATOM     37  O   UNL A   1      41.775  20.524  25.741  1.00  0.00    -0.269 OA
BRANCH  35  38
ATOM     38  C   UNL A   1      42.396  22.486  26.868  1.00  0.00     0.039 A 
ATOM     39  C   UNL A   1      42.307  22.497  28.287  1.00  0.00     0.014 A 
ATOM     40  C   UNL A   1      43.030  23.537  26.228  1.00  0.00     0.014 A 
ATOM     41  C   UNL A   1      42.537  23.680  29.001  1.00  0.00     0.010 A 
ATOM     42  C   UNL A   1      43.114  24.739  26.899  1.00  0.00     0.010 A 
ATOM     43  C   UNL A   1      42.774  24.830  28.263  1.00  0.00    -0.014 A 
BRANCH  43  44
ATOM     44  C   UNL A   1      42.892  26.179  28.794  1.00  0.00     0.031 A 
ATOM     45  C   UNL A   1      41.695  26.972  28.469  1.00  0.00     0.074 A 
ATOM     46  C   UNL A   1      43.865  26.531  29.681  1.00  0.00     0.049 A 
ATOM     47  N   UNL A   1      41.624  28.243  28.549  1.00  0.00    -0.248 NA
ATOM     48  C   UNL A   1      40.469  26.386  27.899  1.00  0.00     0.031 C 
ATOM     49  C   UNL A   1      43.890  27.581  30.701  1.00  0.00     0.029 A 
ATOM     50  N   UNL A   1      45.169  26.038  29.745  1.00  0.00    -0.354 N 
ATOM     51  C   UNL A   1      40.284  28.555  28.500  1.00  0.00     0.074 A 
ATOM     52  C   UNL A   1      39.644  27.431  27.890  1.00  0.00     0.031 C 
ATOM     53  C   UNL A   1      45.164  27.845  31.066  1.00  0.00     0.029 A 
ATOM     54  C   UNL A   1      46.026  27.049  30.221  1.00  0.00     0.049 A 
ATOM     55  H   UNL A   1      45.446  25.127  29.497  1.00  0.00     0.167 HD
ATOM     56  C   UNL A   1      39.882  29.649  29.192  1.00  0.00     0.034 A 
ATOM     57  C   UNL A   1      47.074  27.473  29.459  1.00  0.00     0.034 A 
ATOM     58  C   UNL A   1      41.067  30.338  29.709  1.00  0.00     0.049 A 
ATOM     59  C   UNL A   1      46.717  28.853  28.935  1.00  0.00     0.074 A 
ATOM     60  C   UNL A   1      41.686  30.351  30.945  1.00  0.00     0.029 A 
ATOM     61  N   UNL A   1      42.006  30.789  28.793  1.00  0.00    -0.354 N 
ATOM     62  N   UNL A   1      45.494  29.318  28.926  1.00  0.00    -0.248 NA
ATOM     63  C   UNL A   1      47.693  29.838  28.489  1.00  0.00     0.031 C 
ATOM     64  C   UNL A   1      43.048  30.727  30.734  1.00  0.00     0.029 A 
ATOM     65  C   UNL A   1      43.241  30.958  29.380  1.00  0.00     0.049 A 
ATOM     66  H   UNL A   1      41.814  30.965  27.843  1.00  0.00     0.167 HD
ATOM     67  C   UNL A   1      45.500  30.638  28.585  1.00  0.00     0.074 A 
ATOM     68  C   UNL A   1      46.906  30.914  28.317  1.00  0.00     0.031 C 
ATOM     69  C   UNL A   1      44.364  31.405  28.567  1.00  0.00     0.034 A 
BRANCH  56  70
ATOM     70  C   UNL A   1      38.483  29.993  29.621  1.00  0.00     0.023 A 
ATOM     71  C   UNL A   1      37.991  31.242  29.200  1.00  0.00     0.031 A 
ATOM     72  C   UNL A   1      37.617  29.255  30.454  1.00  0.00     0.131 A 
ATOM     73  C   UNL A   1      36.737  31.719  29.604  1.00  0.00     0.055 A 
ATOM     74  C   UNL A   1      36.350  29.718  30.838  1.00  0.00     0.041 A 
ATOM     75  F   UNL A   1      37.940  28.063  30.966  1.00  0.00    -0.206 F 
ATOM     76  C   UNL A   1      35.903  30.959  30.417  1.00  0.00     0.022 A 
BRANCH  73  77
ATOM     77  S   UNL A   1      36.241  33.369  29.060  1.00  0.00     0.124 S 
ATOM     78  O   UNL A   1      35.915  33.141  27.656  1.00  0.00    -0.237 OA
ATOM     79  O   UNL A   1      35.120  33.660  29.947  1.00  0.00    -0.237 OA
ATOM     80  O   UNL A   1      37.438  34.174  29.293  1.00  0.00    -0.744 OA
ENDBRANCH  73  77
ENDBRANCH  56  70
BRANCH  57  81
ATOM     81  C   UNL A   1      47.634  26.301  28.684  1.00  0.00     0.023 A 
ATOM     82  C   UNL A   1      47.514  26.422  27.203  1.00  0.00     0.031 A 
ATOM     83  C   UNL A   1      48.694  25.627  29.267  1.00  0.00     0.131 A 
ATOM     84  C   UNL A   1      48.604  26.204  26.131  1.00  0.00     0.055 A 
ATOM     85  C   UNL A   1      49.759  25.302  28.477  1.00  0.00     0.041 A 
ATOM     86  F   UNL A   1      48.809  25.479  30.594  1.00  0.00    -0.206 F 
ATOM     87  C   UNL A   1      49.749  25.612  27.085  1.00  0.00     0.022 A 
BRANCH  84  88
ATOM     88  S   UNL A   1      48.653  26.607  23.589  1.00  0.00     0.124 S 
ATOM     89  O   UNL A   1      48.250  25.401  22.802  1.00  0.00    -0.237 OA
ATOM     90  O   UNL A   1      47.774  27.717  23.125  1.00  0.00    -0.237 OA
ATOM     91  O   UNL A   1      50.004  27.003  23.072  1.00  0.00    -0.744 OA
ENDBRANCH  84  88
ENDBRANCH  57  81
BRANCH  69  92
ATOM     92  C   UNL A   1      44.247  32.713  27.822  1.00  0.00     0.023 A 
ATOM     93  C   UNL A   1      43.772  33.865  28.447  1.00  0.00     0.031 A 
ATOM     94  C   UNL A   1      44.671  32.883  26.482  1.00  0.00     0.131 A 
ATOM     95  C   UNL A   1      43.536  35.037  27.726  1.00  0.00     0.055 A 
ATOM     96  C   UNL A   1      44.582  34.101  25.806  1.00  0.00     0.041 A 
ATOM     97  F   UNL A   1      45.205  31.888  25.762  1.00  0.00    -0.206 F 
ATOM     98  C   UNL A   1      43.964  35.179  26.413  1.00  0.00     0.022 A 
BRANCH  95  99
ATOM     99  S   UNL A   1      42.519  36.291  28.532  1.00  0.00     0.124 S 
ATOM    100  O   UNL A   1      42.239  37.200  27.422  1.00  0.00    -0.237 OA
ATOM    101  O   UNL A   1      41.380  35.513  29.009  1.00  0.00    -0.237 OA
ATOM    102  O   UNL A   1      43.394  36.825  29.572  1.00  0.00    -0.744 OA
ENDBRANCH  95  99
ENDBRANCH  69  92
ENDBRANCH  43  44
ENDBRANCH  35  38
ENDBRANCH  33  34
ENDBRANCH  32  33
ENDBRANCH   1  32
TORSDOF 17
ENDMDL
MODEL 2
REMARK VINA RESULT:     -13.3      4.600     10.214
REMARK SMILES Cc1ccccc1/C=C1\SC(=O)N(CC(=O)Nc2ccccc2C(=O)NCCCNC(=O)c2ccc(-c3c4nc(c(-c5cc(S(=O)(=O)[O-])ccc5F)c5ccc([nH]5)c(-c5cc(S(=O)(=O)[O-])ccc5F)c5nc(c(-c6cc(S(=O)(=O)[O-])ccc6F)c6ccc3[nH]6)C=C5)C=C4)cc2)C1=O
REMARK SMILES IDX 27 1 26 2 24 3 25 4 23 6 18 7 19 8 20 9 22 10 21 11 17 12
REMARK SMILES IDX 15 13 16 14 14 16 13 17 8 18 9 19 10 20 96 21 11 22 97 23
REMARK SMILES IDX 12 24 7 25 1 26 2 27 3 28 4 29 6 30 5 31 28 32 29 33 30 34
REMARK SMILES IDX 31 35 32 37 33 38 34 39 95 40 35 41 94 42 36 43 37 44 38 45
REMARK SMILES IDX 88 46 39 47 93 48 87 49 89 50 40 51 92 52 86 53 85 54 41 56
REMARK SMILES IDX 73 57 53 58 72 59 54 60 57 61 71 62 90 63 55 64 56 65 70 67
REMARK SMILES IDX 91 68 58 69 42 70 43 71 51 72 44 73 50 74 52 75 49 76 45 77
REMARK SMILES IDX 46 78 47 79 48 80 74 81 75 82 83 83 76 84 82 85 84 86 81 87
REMARK SMILES IDX 77 88 78 89 79 90 80 91 59 92 60 93 68 94 61 95 67 96 69 97
REMARK SMILES IDX 66 98 62 99 63 100 64 101 65 102
REMARK H PARENT 26 5 17 15 30 36 89 55 57 66
REMARK Flexibility Score: inf
ROOT
ATOM      1  C   UNL A   1      33.489  29.698  27.232  1.00  0.00     0.118 C 
ENDROOT
BRANCH   1   2
ATOM      2  N   UNL A   1      33.795  28.287  26.923  1.00  0.00    -0.352 N 
ATOM      3  C   UNL A   1      33.290  27.330  26.050  1.00  0.00     0.253 C 
ATOM      4  O   UNL A   1      33.909  26.284  25.861  1.00  0.00    -0.269 OA
ATOM      5  H   UNL A   1      34.536  27.939  27.469  1.00  0.00     0.163 HD
BRANCH   3   6
ATOM      6  C   UNL A   1      32.031  27.473  25.291  1.00  0.00     0.063 A 
ATOM      7  C   UNL A   1      30.920  26.599  25.389  1.00  0.00     0.054 A 
ATOM      8  C   UNL A   1      29.884  26.731  24.429  1.00  0.00     0.027 A 
ATOM      9  C   UNL A   1      29.914  27.693  23.420  1.00  0.00     0.002 A 
ATOM     10  C   UNL A   1      32.092  28.326  24.172  1.00  0.00     0.016 A 
ATOM     11  C   UNL A   1      31.033  28.488  23.284  1.00  0.00     0.001 A 
BRANCH   7  12
ATOM     12  N   UNL A   1      30.737  25.449  26.191  1.00  0.00    -0.324 N 
ATOM     13  C   UNL A   1      30.681  24.099  26.050  1.00  0.00     0.244 C 
ATOM     14  O   UNL A   1      30.478  23.469  27.102  1.00  0.00    -0.273 OA
ATOM     15  H   UNL A   1      30.614  25.703  27.134  1.00  0.00     0.170 HD
BRANCH  13  16
ATOM     16  C   UNL A   1      31.139  23.343  24.821  1.00  0.00     0.230 C 
BRANCH  16  17
ATOM     17  N   UNL A   1      32.404  22.655  24.829  1.00  0.00    -0.259 N 
ATOM     18  C   UNL A   1      36.028  22.513  24.813  1.00  0.00     0.029 C 
ATOM     19  C   UNL A   1      34.731  22.163  24.576  1.00  0.00     0.083 C 
ATOM     20  S   UNL A   1      33.925  20.648  24.735  1.00  0.00    -0.022 SA
ATOM     21  C   UNL A   1      33.592  23.142  24.279  1.00  0.00     0.268 C 
ATOM     22  C   UNL A   1      32.395  21.334  25.147  1.00  0.00     0.294 C 
ATOM     23  O   UNL A   1      33.702  24.148  23.594  1.00  0.00    -0.268 OA
ATOM     24  O   UNL A   1      31.466  20.672  25.589  1.00  0.00    -0.261 OA
BRANCH  18  25
ATOM     25  C   UNL A   1      37.296  21.867  25.463  1.00  0.00    -0.021 A 
ATOM     26  C   UNL A   1      38.289  24.029  26.854  1.00  0.00     0.045 C 
ATOM     27  C   UNL A   1      38.633  22.878  26.045  1.00  0.00    -0.044 A 
ATOM     28  C   UNL A   1      40.346  22.265  26.270  1.00  0.00     0.004 A 
ATOM     29  C   UNL A   1      40.665  20.502  26.096  1.00  0.00     0.000 A 
ATOM     30  C   UNL A   1      37.691  20.120  25.143  1.00  0.00     0.008 A 
ATOM     31  C   UNL A   1      39.318  19.421  25.544  1.00  0.00     0.001 A 
ENDBRANCH  18  25
ENDBRANCH  16  17
ENDBRANCH  13  16
ENDBRANCH   7  12
ENDBRANCH   3   6
ENDBRANCH   1   2
BRANCH   1  32
ATOM     32  C   UNL A   1      34.593  30.763  27.268  1.00  0.00     0.042 C 
BRANCH  32  33
ATOM     33  C   UNL A   1      35.055  31.371  28.601  1.00  0.00     0.118 C 
BRANCH  33  34
ATOM     34  N   UNL A   1      34.328  32.545  29.128  1.00  0.00    -0.352 N 
ATOM     35  C   UNL A   1      34.560  33.391  30.219  1.00  0.00     0.251 C 
ATOM     36  H   UNL A   1      33.524  32.777  28.611  1.00  0.00     0.163 HD
ATOM     37  O   UNL A   1      33.689  34.203  30.539  1.00  0.00    -0.269 OA
BRANCH  35  38
ATOM     38  C   UNL A   1      35.911  33.529  30.869  1.00  0.00     0.039 A 
ATOM     39  C   UNL A   1      36.981  33.984  30.050  1.00  0.00     0.014 A 
ATOM     40  C   UNL A   1      36.204  32.826  32.025  1.00  0.00     0.014 A 
ATOM     41  C   UNL A   1      38.267  33.451  30.208  1.00  0.00     0.010 A 
ATOM     42  C   UNL A   1      37.423  32.187  32.096  1.00  0.00     0.010 A 
ATOM     43  C   UNL A   1      38.421  32.427  31.130  1.00  0.00    -0.014 A 
BRANCH  43  44
ATOM     44  C   UNL A   1      39.627  31.642  31.345  1.00  0.00     0.031 A 
ATOM     45  C   UNL A   1      39.543  30.355  30.636  1.00  0.00     0.074 A 
ATOM     46  C   UNL A   1      40.750  32.171  31.908  1.00  0.00     0.049 A 
ATOM     47  N   UNL A   1      40.302  29.355  30.857  1.00  0.00    -0.248 NA
ATOM     48  C   UNL A   1      38.484  30.038  29.662  1.00  0.00     0.031 C 
ATOM     49  C   UNL A   1      42.157  31.793  31.761  1.00  0.00     0.029 A 
ATOM     50  N   UNL A   1      40.819  33.154  32.895  1.00  0.00    -0.354 N 
ATOM     51  C   UNL A   1      40.136  28.504  29.787  1.00  0.00     0.074 A 
ATOM     52  C   UNL A   1      38.876  28.850  29.206  1.00  0.00     0.031 C 
ATOM     53  C   UNL A   1      42.882  32.297  32.783  1.00  0.00     0.029 A 
ATOM     54  C   UNL A   1      41.958  32.935  33.693  1.00  0.00     0.049 A 
ATOM     55  H   UNL A   1      40.173  33.888  33.014  1.00  0.00     0.167 HD
ATOM     56  C   UNL A   1      41.210  27.765  29.418  1.00  0.00     0.034 A 
ATOM     57  C   UNL A   1      41.824  32.725  35.034  1.00  0.00     0.034 A 
ATOM     58  C   UNL A   1      42.276  27.959  30.404  1.00  0.00     0.049 A 
ATOM     59  C   UNL A   1      42.099  31.253  35.287  1.00  0.00     0.074 A 
ATOM     60  C   UNL A   1      43.408  28.753  30.426  1.00  0.00     0.029 A 
ATOM     61  N   UNL A   1      42.009  27.615  31.721  1.00  0.00    -0.354 N 
ATOM     62  N   UNL A   1      42.077  30.350  34.340  1.00  0.00    -0.248 NA
ATOM     63  C   UNL A   1      42.515  30.707  36.571  1.00  0.00     0.031 C 
ATOM     64  C   UNL A   1      43.756  28.957  31.796  1.00  0.00     0.029 A 
ATOM     65  C   UNL A   1      42.850  28.272  32.593  1.00  0.00     0.049 A 
ATOM     66  H   UNL A   1      41.308  26.982  31.999  1.00  0.00     0.167 HD
ATOM     67  C   UNL A   1      42.546  29.163  34.818  1.00  0.00     0.074 A 
ATOM     68  C   UNL A   1      42.804  29.440  36.225  1.00  0.00     0.031 C 
ATOM     69  C   UNL A   1      42.705  28.056  34.027  1.00  0.00     0.034 A 
BRANCH  56  70
ATOM     70  C   UNL A   1      41.429  27.070  28.103  1.00  0.00     0.023 A 
ATOM     71  C   UNL A   1      42.246  25.925  28.131  1.00  0.00     0.031 A 
ATOM     72  C   UNL A   1      40.980  27.458  26.822  1.00  0.00     0.131 A 
ATOM     73  C   UNL A   1      42.598  25.237  26.962  1.00  0.00     0.055 A 
ATOM     74  C   UNL A   1      41.311  26.756  25.654  1.00  0.00     0.041 A 
ATOM     75  F   UNL A   1      40.223  28.539  26.614  1.00  0.00    -0.206 F 
ATOM     76  C   UNL A   1      42.128  25.640  25.717  1.00  0.00     0.022 A 
BRANCH  73  77
ATOM     77  S   UNL A   1      43.710  23.821  27.113  1.00  0.00     0.124 S 
ATOM     78  O   UNL A   1      43.639  23.234  25.780  1.00  0.00    -0.237 OA
ATOM     79  O   UNL A   1      44.971  24.458  27.475  1.00  0.00    -0.237 OA
ATOM     80  O   UNL A   1      43.096  23.023  28.173  1.00  0.00    -0.744 OA
ENDBRANCH  73  77
ENDBRANCH  56  70
BRANCH  57  81
ATOM     81  C   UNL A   1      40.676  33.560  35.557  1.00  0.00     0.023 A 
ATOM     82  C   UNL A   1      39.571  32.775  36.177  1.00  0.00     0.031 A 
ATOM     83  C   UNL A   1      40.992  34.832  36.002  1.00  0.00     0.131 A 
ATOM     84  C   UNL A   1      38.878  33.002  37.539  1.00  0.00     0.055 A 
ATOM     85  C   UNL A   1      40.450  35.251  37.183  1.00  0.00     0.041 A 
ATOM     86  F   UNL A   1      41.960  35.570  35.443  1.00  0.00    -0.206 F 
ATOM     87  C   UNL A   1      39.550  34.412  37.904  1.00  0.00     0.022 A 
BRANCH  84  88
ATOM     88  S   UNL A   1      37.158  31.626  38.871  1.00  0.00     0.124 S 
ATOM     89  O   UNL A   1      36.953  30.255  38.310  1.00  0.00    -0.237 OA
ATOM     90  O   UNL A   1      37.500  31.439  40.309  1.00  0.00    -0.237 OA
ATOM     91  O   UNL A   1      35.798  32.257  38.922  1.00  0.00    -0.744 OA
ENDBRANCH  84  88
ENDBRANCH  57  81
BRANCH  69  92
ATOM     92  C   UNL A   1      42.819  26.650  34.564  1.00  0.00     0.023 A 
ATOM     93  C   UNL A   1      43.864  25.808  34.185  1.00  0.00     0.031 A 
ATOM     94  C   UNL A   1      41.932  26.115  35.529  1.00  0.00     0.131 A 
ATOM     95  C   UNL A   1      43.895  24.468  34.574  1.00  0.00     0.055 A 
ATOM     96  C   UNL A   1      42.055  24.822  36.041  1.00  0.00     0.041 A 
ATOM     97  F   UNL A   1      40.911  26.816  36.038  1.00  0.00    -0.206 F 
ATOM     98  C   UNL A   1      43.015  23.969  35.525  1.00  0.00     0.022 A 
BRANCH  95  99
ATOM     99  S   UNL A   1      45.027  23.391  33.674  1.00  0.00     0.124 S 
ATOM    100  O   UNL A   1      44.372  23.298  32.371  1.00  0.00    -0.237 OA
ATOM    101  O   UNL A   1      46.272  24.153  33.697  1.00  0.00    -0.237 OA
ATOM    102  O   UNL A   1      45.030  22.161  34.461  1.00  0.00    -0.744 OA
ENDBRANCH  95  99
ENDBRANCH  69  92
ENDBRANCH  43  44
ENDBRANCH  35  38
ENDBRANCH  33  34
ENDBRANCH  32  33
ENDBRANCH   1  32
TORSDOF 17
ENDMDL
MODEL 3
REMARK VINA RESULT:     -13.1      3.852      8.793
REMARK SMILES Cc1ccccc1/C=C1\SC(=O)N(CC(=O)Nc2ccccc2C(=O)NCCCNC(=O)c2ccc(-c3c4nc(c(-c5cc(S(=O)(=O)[O-])ccc5F)c5ccc([nH]5)c(-c5cc(S(=O)(=O)[O-])ccc5F)c5nc(c(-c6cc(S(=O)(=O)[O-])ccc6F)c6ccc3[nH]6)C=C5)C=C4)cc2)C1=O
REMARK SMILES IDX 27 1 26 2 24 3 25 4 23 6 18 7 19 8 20 9 22 10 21 11 17 12
REMARK SMILES IDX 15 13 16 14 14 16 13 17 8 18 9 19 10 20 96 21 11 22 97 23
REMARK SMILES IDX 12 24 7 25 1 26 2 27 3 28 4 29 6 30 5 31 28 32 29 33 30 34
REMARK SMILES IDX 31 35 32 37 33 38 34 39 95 40 35 41 94 42 36 43 37 44 38 45
REMARK SMILES IDX 88 46 39 47 93 48 87 49 89 50 40 51 92 52 86 53 85 54 41 56
REMARK SMILES IDX 73 57 53 58 72 59 54 60 57 61 71 62 90 63 55 64 56 65 70 67
REMARK SMILES IDX 91 68 58 69 42 70 43 71 51 72 44 73 50 74 52 75 49 76 45 77
REMARK SMILES IDX 46 78 47 79 48 80 74 81 75 82 83 83 76 84 82 85 84 86 81 87
REMARK SMILES IDX 77 88 78 89 79 90 80 91 59 92 60 93 68 94 61 95 67 96 69 97
REMARK SMILES IDX 66 98 62 99 63 100 64 101 65 102
REMARK H PARENT 26 5 17 15 30 36 89 55 57 66
REMARK Flexibility Score: inf
ROOT
ATOM      1  C   UNL A   1      32.469  28.423  27.579  1.00  0.00     0.118 C 
ENDROOT
BRANCH   1   2
ATOM      2  N   UNL A   1      33.295  27.528  26.745  1.00  0.00    -0.352 N 
ATOM      3  C   UNL A   1      33.128  26.273  26.170  1.00  0.00     0.253 C 
ATOM      4  O   UNL A   1      33.929  25.872  25.327  1.00  0.00    -0.269 OA
ATOM      5  H   UNL A   1      34.179  27.912  26.548  1.00  0.00     0.163 HD
BRANCH   3   6
ATOM      6  C   UNL A   1      32.021  25.348  26.488  1.00  0.00     0.063 A 
ATOM      7  C   UNL A   1      32.116  23.935  26.480  1.00  0.00     0.054 A 
ATOM      8  C   UNL A   1      30.914  23.187  26.575  1.00  0.00     0.027 A 
ATOM      9  C   UNL A   1      29.663  23.790  26.697  1.00  0.00     0.002 A 
ATOM     10  C   UNL A   1      30.732  25.914  26.461  1.00  0.00     0.016 A 
ATOM     11  C   UNL A   1      29.571  25.165  26.626  1.00  0.00     0.001 A 
BRANCH   7  12
ATOM     12  N   UNL A   1      33.221  23.100  26.195  1.00  0.00    -0.324 N 
ATOM     13  C   UNL A   1      33.705  22.354  25.168  1.00  0.00     0.244 C 
ATOM     14  O   UNL A   1      34.766  21.754  25.408  1.00  0.00    -0.273 OA
ATOM     15  H   UNL A   1      33.820  23.044  26.974  1.00  0.00     0.170 HD
BRANCH  13  16
ATOM     16  C   UNL A   1      33.231  22.456  23.734  1.00  0.00     0.230 C 
BRANCH  16  17
ATOM     17  N   UNL A   1      32.708  23.701  23.234  1.00  0.00    -0.259 N 
ATOM     18  C   UNL A   1      30.202  26.311  22.989  1.00  0.00     0.029 C 
ATOM     19  C   UNL A   1      31.209  25.463  22.629  1.00  0.00     0.083 C 
ATOM     20  S   UNL A   1      32.676  25.754  21.774  1.00  0.00    -0.022 SA
ATOM     21  C   UNL A   1      31.354  24.014  23.101  1.00  0.00     0.268 C 
ATOM     22  C   UNL A   1      33.575  24.530  22.596  1.00  0.00     0.294 C 
ATOM     23  O   UNL A   1      30.424  23.236  23.253  1.00  0.00    -0.268 OA
ATOM     24  O   UNL A   1      34.793  24.437  22.522  1.00  0.00    -0.261 OA
BRANCH  18  25
ATOM     25  C   UNL A   1      29.942  27.854  22.997  1.00  0.00    -0.021 A 
ATOM     26  C   UNL A   1      32.452  28.769  23.672  1.00  0.00     0.045 C 
ATOM     27  C   UNL A   1      31.029  28.952  23.868  1.00  0.00    -0.044 A 
ATOM     28  C   UNL A   1      30.541  30.626  24.434  1.00  0.00     0.004 A 
ATOM     29  C   UNL A   1      28.952  31.289  23.908  1.00  0.00     0.000 A 
ATOM     30  C   UNL A   1      28.283  28.498  22.620  1.00  0.00     0.008 A 
ATOM     31  C   UNL A   1      27.823  30.217  22.978  1.00  0.00     0.001 A 
ENDBRANCH  18  25
ENDBRANCH  16  17
ENDBRANCH  13  16
ENDBRANCH   7  12
ENDBRANCH   3   6
ENDBRANCH   1   2
BRANCH   1  32
ATOM     32  C   UNL A   1      32.477  29.942  27.366  1.00  0.00     0.042 C 
BRANCH  32  33
ATOM     33  C   UNL A   1      33.661  30.632  26.672  1.00  0.00     0.118 C 
BRANCH  33  34
ATOM     34  N   UNL A   1      34.490  31.568  27.460  1.00  0.00    -0.352 N 
ATOM     35  C   UNL A   1      35.566  31.376  28.334  1.00  0.00     0.251 C 
ATOM     36  H   UNL A   1      34.236  32.512  27.347  1.00  0.00     0.163 HD
ATOM     37  O   UNL A   1      35.970  32.331  29.001  1.00  0.00    -0.269 OA
BRANCH  35  38
ATOM     38  C   UNL A   1      36.410  30.128  28.324  1.00  0.00     0.039 A 
ATOM     39  C   UNL A   1      36.667  29.510  29.578  1.00  0.00     0.014 A 
ATOM     40  C   UNL A   1      37.260  29.870  27.263  1.00  0.00     0.014 A 
ATOM     41  C   UNL A   1      37.918  28.937  29.841  1.00  0.00     0.010 A 
ATOM     42  C   UNL A   1      38.538  29.445  27.553  1.00  0.00     0.010 A 
ATOM     43  C   UNL A   1      38.894  29.071  28.865  1.00  0.00    -0.014 A 
BRANCH  43  44
ATOM     44  C   UNL A   1      40.290  28.682  28.991  1.00  0.00     0.031 A 
ATOM     45  C   UNL A   1      40.432  27.220  28.911  1.00  0.00     0.074 A 
ATOM     46  C   UNL A   1      41.307  29.587  28.924  1.00  0.00     0.049 A 
ATOM     47  N   UNL A   1      41.472  26.572  29.265  1.00  0.00    -0.248 NA
ATOM     48  C   UNL A   1      39.331  26.322  28.518  1.00  0.00     0.031 C 
ATOM     49  C   UNL A   1      42.703  29.422  28.514  1.00  0.00     0.029 A 
ATOM     50  N   UNL A   1      41.294  30.909  29.368  1.00  0.00    -0.354 N 
ATOM     51  C   UNL A   1      41.340  25.312  28.725  1.00  0.00     0.074 A 
ATOM     52  C   UNL A   1      39.943  25.140  28.473  1.00  0.00     0.031 C 
ATOM     53  C   UNL A   1      43.448  30.449  28.978  1.00  0.00     0.029 A 
ATOM     54  C   UNL A   1      42.585  31.270  29.797  1.00  0.00     0.049 A 
ATOM     55  H   UNL A   1      40.504  31.498  29.381  1.00  0.00     0.167 HD
ATOM     56  C   UNL A   1      42.481  24.674  28.368  1.00  0.00     0.034 A 
ATOM     57  C   UNL A   1      42.791  31.679  31.082  1.00  0.00     0.034 A 
ATOM     58  C   UNL A   1      43.625  25.471  28.818  1.00  0.00     0.049 A 
ATOM     59  C   UNL A   1      43.518  30.553  31.798  1.00  0.00     0.074 A 
ATOM     60  C   UNL A   1      44.466  26.361  28.176  1.00  0.00     0.029 A 
ATOM     61  N   UNL A   1      43.741  25.728  30.177  1.00  0.00    -0.354 N 
ATOM     62  N   UNL A   1      43.561  29.328  31.342  1.00  0.00    -0.248 NA
ATOM     63  C   UNL A   1      44.323  30.732  32.998  1.00  0.00     0.031 C 
ATOM     64  C   UNL A   1      45.013  27.224  29.174  1.00  0.00     0.029 A 
ATOM     65  C   UNL A   1      44.520  26.840  30.413  1.00  0.00     0.049 A 
ATOM     66  H   UNL A   1      43.319  25.186  30.882  1.00  0.00     0.167 HD
ATOM     67  C   UNL A   1      44.434  28.586  32.081  1.00  0.00     0.074 A 
ATOM     68  C   UNL A   1      44.883  29.515  33.111  1.00  0.00     0.031 C 
ATOM     69  C   UNL A   1      44.736  27.283  31.784  1.00  0.00     0.034 A 
BRANCH  56  70
ATOM     70  C   UNL A   1      42.617  23.502  27.436  1.00  0.00     0.023 A 
ATOM     71  C   UNL A   1      43.671  23.562  26.507  1.00  0.00     0.031 A 
ATOM     72  C   UNL A   1      41.778  22.373  27.322  1.00  0.00     0.131 A 
ATOM     73  C   UNL A   1      43.854  22.576  25.528  1.00  0.00     0.055 A 
ATOM     74  C   UNL A   1      41.974  21.372  26.360  1.00  0.00     0.041 A 
ATOM     75  F   UNL A   1      40.713  22.176  28.105  1.00  0.00    -0.206 F 
ATOM     76  C   UNL A   1      43.015  21.470  25.452  1.00  0.00     0.022 A 
BRANCH  73  77
ATOM     77  S   UNL A   1      45.200  22.796  24.343  1.00  0.00     0.124 S 
ATOM     78  O   UNL A   1      46.273  22.019  24.955  1.00  0.00    -0.237 OA
ATOM     79  O   UNL A   1      44.623  22.253  23.119  1.00  0.00    -0.237 OA
ATOM     80  O   UNL A   1      45.411  24.243  24.338  1.00  0.00    -0.744 OA
ENDBRANCH  73  77
ENDBRANCH  56  70
BRANCH  57  81
ATOM     81  C   UNL A   1      41.585  32.457  31.557  1.00  0.00     0.023 A 
ATOM     82  C   UNL A   1      40.796  31.785  32.629  1.00  0.00     0.031 A 
ATOM     83  C   UNL A   1      41.677  33.837  31.490  1.00  0.00     0.131 A 
ATOM     84  C   UNL A   1      40.296  32.374  33.966  1.00  0.00     0.055 A 
ATOM     85  C   UNL A   1      41.251  34.561  32.567  1.00  0.00     0.041 A 
ATOM     86  F   UNL A   1      42.355  34.466  30.521  1.00  0.00    -0.206 F 
ATOM     87  C   UNL A   1      40.687  33.906  33.702  1.00  0.00     0.022 A 
BRANCH  84  88
ATOM     88  S   UNL A   1      39.160  31.316  36.020  1.00  0.00     0.124 S 
ATOM     89  O   UNL A   1      39.405  29.844  36.124  1.00  0.00    -0.237 OA
ATOM     90  O   UNL A   1      39.581  31.899  37.325  1.00  0.00    -0.237 OA
ATOM     91  O   UNL A   1      37.670  31.487  36.034  1.00  0.00    -0.744 OA
ENDBRANCH  84  88
ENDBRANCH  57  81
BRANCH  69  92
ATOM     92  C   UNL A   1      45.350  26.319  32.770  1.00  0.00     0.023 A 
ATOM     93  C   UNL A   1      44.570  25.400  33.471  1.00  0.00     0.031 A 
ATOM     94  C   UNL A   1      46.745  26.225  32.997  1.00  0.00     0.131 A 
ATOM     95  C   UNL A   1      45.117  24.603  34.479  1.00  0.00     0.055 A 
ATOM     96  C   UNL A   1      47.310  25.315  33.892  1.00  0.00     0.041 A 
ATOM     97  F   UNL A   1      47.634  26.997  32.358  1.00  0.00    -0.206 F 
ATOM     98  C   UNL A   1      46.489  24.528  34.679  1.00  0.00     0.022 A 
BRANCH  95  99
ATOM     99  S   UNL A   1      43.950  23.800  35.597  1.00  0.00     0.124 S 
ATOM    100  O   UNL A   1      43.891  24.759  36.698  1.00  0.00    -0.237 OA
ATOM    101  O   UNL A   1      42.744  23.708  34.779  1.00  0.00    -0.237 OA
ATOM    102  O   UNL A   1      44.595  22.528  35.909  1.00  0.00    -0.744 OA
ENDBRANCH  95  99
ENDBRANCH  69  92
ENDBRANCH  43  44
ENDBRANCH  35  38
ENDBRANCH  33  34
ENDBRANCH  32  33
ENDBRANCH   1  32
TORSDOF 17
ENDMDL
