MODEL 1
REMARK VINA RESULT:     -11.1      0.000      0.000
REMARK SMILES NC(=[NH2+])N1CCC[C@H]1C(=O)NCCCNC(=O)c1ccc(-c2c3nc(c(-c4cc(S(=O)(=O)[O-])ccc4F)c4ccc([nH]4)c(-c4cc(S(=O)(=O)[O-])ccc4F)c4nc(c(-c5cc(S(=O)(=O)[O-])ccc5F)c5ccc2[nH]5)C=C4)C=C3)cc1
REMARK SMILES IDX 14 1 13 2 12 3 11 4 9 5 10 6 8 8 4 9 5 10 6 11 7 12 2 13
REMARK SMILES IDX 3 14 1 17 15 20 16 21 17 23 18 24 19 25 80 26 20 27 79 28
REMARK SMILES IDX 21 29 22 30 23 31 73 32 24 33 78 34 72 35 74 36 25 37 77 38
REMARK SMILES IDX 71 39 70 40 26 42 58 43 38 44 57 45 39 46 42 47 56 48 75 49
REMARK SMILES IDX 40 50 41 51 55 53 76 54 43 55 27 56 28 57 36 58 29 59 35 60
REMARK SMILES IDX 37 61 34 62 30 63 31 64 32 65 33 66 59 67 60 68 68 69 61 70
REMARK SMILES IDX 67 71 69 72 66 73 62 74 63 75 64 76 65 77 44 78 45 79 53 80
REMARK SMILES IDX 46 81 52 82 54 83 51 84 47 85 48 86 49 87 50 88
REMARK H PARENT 11 7 3 15 3 16 1 18 1 19 15 22 74 41 42 52
REMARK Flexibility Score: inf
ROOT
ATOM      1  C   UNL A   1      33.734  29.281  26.134  1.00  0.00     0.118 C 
ENDROOT
BRANCH   1   2
ATOM      2  C   UNL A   1      32.995  29.173  24.806  1.00  0.00     0.042 C 
BRANCH   2   3
ATOM      3  C   UNL A   1      31.489  29.387  24.935  1.00  0.00     0.117 C 
BRANCH   3   4
ATOM      4  N   UNL A   1      30.892  29.794  23.675  1.00  0.00    -0.353 N 
ATOM      5  C   UNL A   1      30.438  29.077  22.613  1.00  0.00     0.257 C 
ATOM      6  O   UNL A   1      30.078  29.738  21.628  1.00  0.00    -0.271 OA
ATOM      7  H   UNL A   1      30.798  30.768  23.571  1.00  0.00     0.163 HD
BRANCH   5   8
ATOM      8  C   UNL A   1      30.239  27.554  22.599  1.00  0.00     0.237 C 
ATOM      9  N   UNL A   1      31.444  26.722  22.645  1.00  0.00    -0.253 N 
ATOM     10  C   UNL A   1      31.390  25.806  23.787  1.00  0.00     0.201 C 
ATOM     11  C   UNL A   1      29.914  25.741  24.145  1.00  0.00     0.042 C 
ATOM     12  C   UNL A   1      29.416  27.137  23.822  1.00  0.00     0.055 C 
BRANCH   9  13
ATOM     13  C   UNL A   1      32.405  26.602  21.692  1.00  0.00     0.341 C 
ATOM     14  N   UNL A   1      33.493  27.292  21.730  1.00  0.00    -0.291 N 
ATOM     15  H   UNL A   1      34.170  27.182  21.023  1.00  0.00     0.256 HD
ATOM     16  H   UNL A   1      33.646  27.930  22.464  1.00  0.00     0.256 HD
ATOM     17  N   UNL A   1      32.191  25.725  20.697  1.00  0.00    -0.291 N 
ATOM     18  H   UNL A   1      32.865  25.610  19.989  1.00  0.00     0.256 HD
ATOM     19  H   UNL A   1      31.360  25.198  20.677  1.00  0.00     0.256 HD
ENDBRANCH   9  13
ENDBRANCH   5   8
ENDBRANCH   3   4
ENDBRANCH   2   3
ENDBRANCH   1   2
BRANCH   1  20
ATOM     20  N   UNL A   1      33.663  30.624  26.696  1.00  0.00    -0.352 N 
ATOM     21  C   UNL A   1      34.397  31.198  27.701  1.00  0.00     0.251 C 
ATOM     22  H   UNL A   1      32.982  31.208  26.292  1.00  0.00     0.163 HD
ATOM     23  O   UNL A   1      34.004  32.258  28.199  1.00  0.00    -0.269 OA
BRANCH  21  24
ATOM     24  C   UNL A   1      35.635  30.560  28.196  1.00  0.00     0.039 A 
ATOM     25  C   UNL A   1      36.837  30.792  27.523  1.00  0.00     0.014 A 
ATOM     26  C   UNL A   1      35.612  29.708  29.304  1.00  0.00     0.014 A 
ATOM     27  C   UNL A   1      38.021  30.219  27.996  1.00  0.00     0.010 A 
ATOM     28  C   UNL A   1      36.803  29.218  29.830  1.00  0.00     0.010 A 
ATOM     29  C   UNL A   1      38.020  29.455  29.175  1.00  0.00    -0.014 A 
BRANCH  29  30
ATOM     30  C   UNL A   1      39.274  28.878  29.726  1.00  0.00     0.031 A 
ATOM     31  C   UNL A   1      39.937  29.512  30.920  1.00  0.00     0.074 A 
ATOM     32  C   UNL A   1      39.854  27.830  29.108  1.00  0.00     0.049 A 
ATOM     33  N   UNL A   1      41.072  29.210  31.497  1.00  0.00    -0.248 NA
ATOM     34  C   UNL A   1      39.250  30.666  31.516  1.00  0.00     0.031 C 
ATOM     35  C   UNL A   1      39.336  27.165  27.909  1.00  0.00     0.029 A 
ATOM     36  N   UNL A   1      41.009  27.146  29.392  1.00  0.00    -0.354 N 
ATOM     37  C   UNL A   1      41.245  30.151  32.508  1.00  0.00     0.074 A 
ATOM     38  C   UNL A   1      40.135  31.074  32.411  1.00  0.00     0.031 C 
ATOM     39  C   UNL A   1      40.155  26.156  27.579  1.00  0.00     0.029 A 
ATOM     40  C   UNL A   1      41.280  26.129  28.508  1.00  0.00     0.049 A 
ATOM     41  H   UNL A   1      41.588  27.363  30.159  1.00  0.00     0.167 HD
ATOM     42  C   UNL A   1      42.224  30.222  33.445  1.00  0.00     0.034 A 
ATOM     43  C   UNL A   1      42.323  25.277  28.444  1.00  0.00     0.034 A 
ATOM     44  C   UNL A   1      43.314  29.280  33.531  1.00  0.00     0.049 A 
ATOM     45  C   UNL A   1      43.404  25.373  29.489  1.00  0.00     0.074 A 
ATOM     46  C   UNL A   1      44.319  29.205  34.480  1.00  0.00     0.029 A 
ATOM     47  N   UNL A   1      43.551  28.252  32.624  1.00  0.00    -0.354 N 
ATOM     48  N   UNL A   1      43.519  26.224  30.481  1.00  0.00    -0.248 NA
ATOM     49  C   UNL A   1      44.486  24.384  29.412  1.00  0.00     0.031 C 
ATOM     50  C   UNL A   1      45.203  28.187  34.105  1.00  0.00     0.029 A 
ATOM     51  C   UNL A   1      44.706  27.566  32.969  1.00  0.00     0.049 A 
ATOM     52  H   UNL A   1      42.982  28.042  31.849  1.00  0.00     0.167 HD
ATOM     53  C   UNL A   1      44.677  25.859  31.162  1.00  0.00     0.074 A 
ATOM     54  C   UNL A   1      45.211  24.700  30.474  1.00  0.00     0.031 C 
ATOM     55  C   UNL A   1      45.243  26.426  32.259  1.00  0.00     0.034 A 
BRANCH  42  56
ATOM     56  C   UNL A   1      42.166  31.376  34.422  1.00  0.00     0.023 A 
ATOM     57  C   UNL A   1      41.268  31.387  35.505  1.00  0.00     0.031 A 
ATOM     58  C   UNL A   1      42.977  32.510  34.236  1.00  0.00     0.131 A 
ATOM     59  C   UNL A   1      41.126  32.542  36.289  1.00  0.00     0.055 A 
ATOM     60  C   UNL A   1      42.901  33.619  35.083  1.00  0.00     0.041 A 
ATOM     61  F   UNL A   1      43.842  32.573  33.211  1.00  0.00    -0.206 F 
ATOM     62  C   UNL A   1      41.956  33.649  36.103  1.00  0.00     0.022 A 
BRANCH  59  63
ATOM     63  S   UNL A   1      39.715  32.645  37.426  1.00  0.00     0.124 S 
ATOM     64  O   UNL A   1      40.379  32.577  38.725  1.00  0.00    -0.237 OA
ATOM     65  O   UNL A   1      39.122  33.930  37.077  1.00  0.00    -0.237 OA
ATOM     66  O   UNL A   1      38.912  31.472  37.083  1.00  0.00    -0.744 OA
ENDBRANCH  59  63
ENDBRANCH  42  56
BRANCH  43  67
ATOM     67  C   UNL A   1      42.395  24.271  27.347  1.00  0.00     0.023 A 
ATOM     68  C   UNL A   1      41.640  23.089  27.393  1.00  0.00     0.031 A 
ATOM     69  C   UNL A   1      43.225  24.481  26.230  1.00  0.00     0.131 A 
ATOM     70  C   UNL A   1      41.750  22.148  26.357  1.00  0.00     0.055 A 
ATOM     71  C   UNL A   1      43.295  23.565  25.180  1.00  0.00     0.041 A 
ATOM     72  F   UNL A   1      43.962  25.600  26.134  1.00  0.00    -0.206 F 
ATOM     73  C   UNL A   1      42.561  22.385  25.244  1.00  0.00     0.022 A 
BRANCH  70  74
ATOM     74  S   UNL A   1      40.855  20.578  26.507  1.00  0.00     0.124 S 
ATOM     75  O   UNL A   1      39.522  20.950  26.045  1.00  0.00    -0.237 OA
ATOM     76  O   UNL A   1      41.620  19.706  25.622  1.00  0.00    -0.237 OA
ATOM     77  O   UNL A   1      40.958  20.262  27.930  1.00  0.00    -0.744 OA
ENDBRANCH  70  74
ENDBRANCH  43  67
BRANCH  55  78
ATOM     78  C   UNL A   1      46.492  25.773  32.801  1.00  0.00     0.023 A 
ATOM     79  C   UNL A   1      46.435  24.712  33.722  1.00  0.00     0.031 A 
ATOM     80  C   UNL A   1      47.760  26.227  32.394  1.00  0.00     0.131 A 
ATOM     81  C   UNL A   1      47.621  24.180  34.249  1.00  0.00     0.055 A 
ATOM     82  C   UNL A   1      48.936  25.649  32.872  1.00  0.00     0.041 A 
ATOM     83  F   UNL A   1      47.875  27.240  31.519  1.00  0.00    -0.206 F 
ATOM     84  C   UNL A   1      48.872  24.629  33.815  1.00  0.00     0.022 A 
BRANCH  81  85
ATOM     85  S   UNL A   1      47.510  22.957  35.585  1.00  0.00     0.124 S 
ATOM     86  O   UNL A   1      46.129  23.118  36.028  1.00  0.00    -0.237 OA
ATOM     87  O   UNL A   1      47.816  21.709  34.891  1.00  0.00    -0.237 OA
ATOM     88  O   UNL A   1      48.524  23.399  36.540  1.00  0.00    -0.744 OA
ENDBRANCH  81  85
ENDBRANCH  55  78
ENDBRANCH  29  30
ENDBRANCH  21  24
ENDBRANCH   1  20
TORSDOF 14
ENDMDL
MODEL 2
REMARK VINA RESULT:     -11.1      3.218      8.818
REMARK SMILES NC(=[NH2+])N1CCC[C@H]1C(=O)NCCCNC(=O)c1ccc(-c2c3nc(c(-c4cc(S(=O)(=O)[O-])ccc4F)c4ccc([nH]4)c(-c4cc(S(=O)(=O)[O-])ccc4F)c4nc(c(-c5cc(S(=O)(=O)[O-])ccc5F)c5ccc2[nH]5)C=C4)C=C3)cc1
REMARK SMILES IDX 14 1 13 2 12 3 11 4 9 5 10 6 8 8 4 9 5 10 6 11 7 12 2 13
REMARK SMILES IDX 3 14 1 17 15 20 16 21 17 23 18 24 19 25 80 26 20 27 79 28
REMARK SMILES IDX 21 29 22 30 23 31 73 32 24 33 78 34 72 35 74 36 25 37 77 38
REMARK SMILES IDX 71 39 70 40 26 42 58 43 38 44 57 45 39 46 42 47 56 48 75 49
REMARK SMILES IDX 40 50 41 51 55 53 76 54 43 55 27 56 28 57 36 58 29 59 35 60
REMARK SMILES IDX 37 61 34 62 30 63 31 64 32 65 33 66 59 67 60 68 68 69 61 70
REMARK SMILES IDX 67 71 69 72 66 73 62 74 63 75 64 76 65 77 44 78 45 79 53 80
REMARK SMILES IDX 46 81 52 82 54 83 51 84 47 85 48 86 49 87 50 88
REMARK H PARENT 11 7 3 15 3 16 1 18 1 19 15 22 74 41 42 52
REMARK Flexibility Score: inf
ROOT
ATOM      1  C   UNL A   1      32.686  32.419  27.220  1.00  0.00     0.118 C 
ENDROOT
BRANCH   1   2
ATOM      2  C   UNL A   1      31.421  32.022  26.468  1.00  0.00     0.042 C 
BRANCH   2   3
ATOM      3  C   UNL A   1      31.363  30.534  26.130  1.00  0.00     0.117 C 
BRANCH   3   4
ATOM      4  N   UNL A   1      32.494  30.122  25.316  1.00  0.00    -0.353 N 
ATOM      5  C   UNL A   1      32.702  29.022  24.544  1.00  0.00     0.257 C 
ATOM      6  O   UNL A   1      33.836  28.913  24.054  1.00  0.00    -0.271 OA
ATOM      7  H   UNL A   1      33.247  30.756  25.324  1.00  0.00     0.163 HD
BRANCH   5   8
ATOM      8  C   UNL A   1      31.624  27.999  24.158  1.00  0.00     0.237 C 
ATOM      9  N   UNL A   1      31.054  28.104  22.812  1.00  0.00    -0.253 N 
ATOM     10  C   UNL A   1      31.222  26.843  22.085  1.00  0.00     0.201 C 
ATOM     11  C   UNL A   1      31.452  25.811  23.177  1.00  0.00     0.042 C 
ATOM     12  C   UNL A   1      32.211  26.587  24.236  1.00  0.00     0.055 C 
BRANCH   9  13
ATOM     13  C   UNL A   1      30.279  29.104  22.316  1.00  0.00     0.341 C 
ATOM     14  N   UNL A   1      30.758  30.025  21.554  1.00  0.00    -0.291 N 
ATOM     15  H   UNL A   1      30.170  30.737  21.211  1.00  0.00     0.256 HD
ATOM     16  H   UNL A   1      31.713  30.019  21.316  1.00  0.00     0.256 HD
ATOM     17  N   UNL A   1      28.975  29.102  22.642  1.00  0.00    -0.291 N 
ATOM     18  H   UNL A   1      28.382  29.809  22.301  1.00  0.00     0.256 HD
ATOM     19  H   UNL A   1      28.614  28.392  23.221  1.00  0.00     0.256 HD
ENDBRANCH   9  13
ENDBRANCH   5   8
ENDBRANCH   3   4
ENDBRANCH   2   3
ENDBRANCH   1   2
BRANCH   1  20
ATOM     20  N   UNL A   1      32.685  33.829  27.589  1.00  0.00    -0.352 N 
ATOM     21  C   UNL A   1      33.398  34.486  28.559  1.00  0.00     0.251 C 
ATOM     22  H   UNL A   1      32.079  34.397  27.062  1.00  0.00     0.163 HD
ATOM     23  O   UNL A   1      33.059  35.629  28.879  1.00  0.00    -0.269 OA
BRANCH  21  24
ATOM     24  C   UNL A   1      34.549  33.839  29.223  1.00  0.00     0.039 A 
ATOM     25  C   UNL A   1      35.843  34.265  28.912  1.00  0.00     0.014 A 
ATOM     26  C   UNL A   1      34.361  32.791  30.129  1.00  0.00     0.014 A 
ATOM     27  C   UNL A   1      36.939  33.682  29.554  1.00  0.00     0.010 A 
ATOM     28  C   UNL A   1      35.444  32.281  30.837  1.00  0.00     0.010 A 
ATOM     29  C   UNL A   1      36.748  32.709  30.549  1.00  0.00    -0.014 A 
BRANCH  29  30
ATOM     30  C   UNL A   1      37.895  32.112  31.281  1.00  0.00     0.031 A 
ATOM     31  C   UNL A   1      38.696  31.002  30.655  1.00  0.00     0.074 A 
ATOM     32  C   UNL A   1      38.169  32.518  32.536  1.00  0.00     0.049 A 
ATOM     33  N   UNL A   1      39.676  30.297  31.160  1.00  0.00    -0.248 NA
ATOM     34  C   UNL A   1      38.312  30.603  29.293  1.00  0.00     0.031 C 
ATOM     35  C   UNL A   1      37.429  33.547  33.271  1.00  0.00     0.029 A 
ATOM     36  N   UNL A   1      39.135  32.111  33.422  1.00  0.00    -0.354 N 
ATOM     37  C   UNL A   1      40.010  29.359  30.188  1.00  0.00     0.074 A 
ATOM     38  C   UNL A   1      39.075  29.541  29.098  1.00  0.00     0.031 C 
ATOM     39  C   UNL A   1      37.983  33.707  34.482  1.00  0.00     0.029 A 
ATOM     40  C   UNL A   1      39.085  32.762  34.631  1.00  0.00     0.049 A 
ATOM     41  H   UNL A   1      39.801  31.416  33.210  1.00  0.00     0.167 HD
ATOM     42  C   UNL A   1      41.018  28.450  30.193  1.00  0.00     0.034 A 
ATOM     43  C   UNL A   1      39.834  32.607  35.742  1.00  0.00     0.034 A 
ATOM     44  C   UNL A   1      41.948  28.298  31.287  1.00  0.00     0.049 A 
ATOM     45  C   UNL A   1      40.945  31.591  35.733  1.00  0.00     0.074 A 
ATOM     46  C   UNL A   1      43.051  27.468  31.374  1.00  0.00     0.029 A 
ATOM     47  N   UNL A   1      41.875  28.985  32.495  1.00  0.00    -0.354 N 
ATOM     48  N   UNL A   1      41.294  30.758  34.780  1.00  0.00    -0.248 NA
ATOM     49  C   UNL A   1      41.771  31.505  36.943  1.00  0.00     0.031 C 
ATOM     50  C   UNL A   1      43.597  27.595  32.656  1.00  0.00     0.029 A 
ATOM     51  C   UNL A   1      42.888  28.568  33.344  1.00  0.00     0.049 A 
ATOM     52  H   UNL A   1      41.201  29.668  32.714  1.00  0.00     0.167 HD
ATOM     53  C   UNL A   1      42.397  30.062  35.269  1.00  0.00     0.074 A 
ATOM     54  C   UNL A   1      42.662  30.589  36.593  1.00  0.00     0.031 C 
ATOM     55  C   UNL A   1      43.127  29.084  34.674  1.00  0.00     0.034 A 
BRANCH  42  56
ATOM     56  C   UNL A   1      41.134  27.538  28.992  1.00  0.00     0.023 A 
ATOM     57  C   UNL A   1      42.136  27.715  28.020  1.00  0.00     0.031 A 
ATOM     58  C   UNL A   1      40.196  26.512  28.781  1.00  0.00     0.131 A 
ATOM     59  C   UNL A   1      42.112  26.958  26.838  1.00  0.00     0.055 A 
ATOM     60  C   UNL A   1      40.238  25.694  27.649  1.00  0.00     0.041 A 
ATOM     61  F   UNL A   1      39.203  26.301  29.659  1.00  0.00    -0.206 F 
ATOM     62  C   UNL A   1      41.186  25.929  26.658  1.00  0.00     0.022 A 
BRANCH  59  63
ATOM     63  S   UNL A   1      43.186  27.464  25.467  1.00  0.00     0.124 S 
ATOM     64  O   UNL A   1      44.167  28.301  26.155  1.00  0.00    -0.237 OA
ATOM     65  O   UNL A   1      43.677  26.188  24.962  1.00  0.00    -0.237 OA
ATOM     66  O   UNL A   1      42.282  28.185  24.572  1.00  0.00    -0.744 OA
ENDBRANCH  59  63
ENDBRANCH  42  56
BRANCH  43  67
ATOM     67  C   UNL A   1      39.549  33.431  36.951  1.00  0.00     0.023 A 
ATOM     68  C   UNL A   1      38.826  32.906  38.034  1.00  0.00     0.031 A 
ATOM     69  C   UNL A   1      40.000  34.760  37.040  1.00  0.00     0.131 A 
ATOM     70  C   UNL A   1      38.550  33.715  39.148  1.00  0.00     0.055 A 
ATOM     71  C   UNL A   1      39.765  35.546  38.169  1.00  0.00     0.041 A 
ATOM     72  F   UNL A   1      40.703  35.307  36.035  1.00  0.00    -0.206 F 
ATOM     73  C   UNL A   1      39.028  35.027  39.228  1.00  0.00     0.022 A 
BRANCH  70  74
ATOM     74  S   UNL A   1      37.510  33.047  40.475  1.00  0.00     0.124 S 
ATOM     75  O   UNL A   1      38.297  31.902  40.920  1.00  0.00    -0.237 OA
ATOM     76  O   UNL A   1      37.436  34.173  41.399  1.00  0.00    -0.237 OA
ATOM     77  O   UNL A   1      36.259  32.719  39.794  1.00  0.00    -0.744 OA
ENDBRANCH  70  74
ENDBRANCH  43  67
BRANCH  55  78
ATOM     78  C   UNL A   1      44.306  28.542  35.447  1.00  0.00     0.023 A 
ATOM     79  C   UNL A   1      44.167  27.489  36.370  1.00  0.00     0.031 A 
ATOM     80  C   UNL A   1      45.586  29.095  35.264  1.00  0.00     0.131 A 
ATOM     81  C   UNL A   1      45.276  27.062  37.115  1.00  0.00     0.055 A 
ATOM     82  C   UNL A   1      46.698  28.621  35.960  1.00  0.00     0.041 A 
ATOM     83  F   UNL A   1      45.777  30.105  34.400  1.00  0.00    -0.206 F 
ATOM     84  C   UNL A   1      46.545  27.608  36.902  1.00  0.00     0.022 A 
BRANCH  81  85
ATOM     85  S   UNL A   1      45.022  25.848  38.438  1.00  0.00     0.124 S 
ATOM     86  O   UNL A   1      44.201  24.842  37.772  1.00  0.00    -0.237 OA
ATOM     87  O   UNL A   1      46.389  25.444  38.758  1.00  0.00    -0.237 OA
ATOM     88  O   UNL A   1      44.343  26.614  39.481  1.00  0.00    -0.744 OA
ENDBRANCH  81  85
ENDBRANCH  55  78
ENDBRANCH  29  30
ENDBRANCH  21  24
ENDBRANCH   1  20
TORSDOF 14
ENDMDL
MODEL 3
REMARK VINA RESULT:     -11.1      2.015      2.592
REMARK SMILES NC(=[NH2+])N1CCC[C@H]1C(=O)NCCCNC(=O)c1ccc(-c2c3nc(c(-c4cc(S(=O)(=O)[O-])ccc4F)c4ccc([nH]4)c(-c4cc(S(=O)(=O)[O-])ccc4F)c4nc(c(-c5cc(S(=O)(=O)[O-])ccc5F)c5ccc2[nH]5)C=C4)C=C3)cc1
REMARK SMILES IDX 14 1 13 2 12 3 11 4 9 5 10 6 8 8 4 9 5 10 6 11 7 12 2 13
REMARK SMILES IDX 3 14 1 17 15 20 16 21 17 23 18 24 19 25 80 26 20 27 79 28
REMARK SMILES IDX 21 29 22 30 23 31 73 32 24 33 78 34 72 35 74 36 25 37 77 38
REMARK SMILES IDX 71 39 70 40 26 42 58 43 38 44 57 45 39 46 42 47 56 48 75 49
REMARK SMILES IDX 40 50 41 51 55 53 76 54 43 55 27 56 28 57 36 58 29 59 35 60
REMARK SMILES IDX 37 61 34 62 30 63 31 64 32 65 33 66 59 67 60 68 68 69 61 70
REMARK SMILES IDX 67 71 69 72 66 73 62 74 63 75 64 76 65 77 44 78 45 79 53 80
REMARK SMILES IDX 46 81 52 82 54 83 51 84 47 85 48 86 49 87 50 88
REMARK H PARENT 11 7 3 15 3 16 1 18 1 19 15 22 74 41 42 52
REMARK Flexibility Score: inf
ROOT
ATOM      1  C   UNL A   1      34.019  28.734  25.847  1.00  0.00     0.118 C 
ENDROOT
BRANCH   1   2
ATOM      2  C   UNL A   1      33.332  27.671  26.696  1.00  0.00     0.042 C 
BRANCH   2   3
ATOM      3  C   UNL A   1      32.009  27.189  26.106  1.00  0.00     0.117 C 
BRANCH   3   4
ATOM      4  N   UNL A   1      31.505  26.015  26.798  1.00  0.00    -0.353 N 
ATOM      5  C   UNL A   1      31.613  24.687  26.527  1.00  0.00     0.257 C 
ATOM      6  O   UNL A   1      30.967  23.931  27.267  1.00  0.00    -0.271 OA
ATOM      7  H   UNL A   1      30.993  26.219  27.614  1.00  0.00     0.163 HD
BRANCH   5   8
ATOM      8  C   UNL A   1      32.544  24.076  25.470  1.00  0.00     0.237 C 
ATOM      9  N   UNL A   1      32.538  24.690  24.139  1.00  0.00    -0.253 N 
ATOM     10  C   UNL A   1      33.889  25.119  23.767  1.00  0.00     0.201 C 
ATOM     11  C   UNL A   1      34.801  24.308  24.673  1.00  0.00     0.042 C 
ATOM     12  C   UNL A   1      33.995  24.176  25.951  1.00  0.00     0.055 C 
BRANCH   9  13
ATOM     13  C   UNL A   1      31.524  24.699  23.235  1.00  0.00     0.341 C 
ATOM     14  N   UNL A   1      30.803  23.656  23.008  1.00  0.00    -0.291 N 
ATOM     15  H   UNL A   1      30.075  23.695  22.346  1.00  0.00     0.256 HD
ATOM     16  H   UNL A   1      30.981  22.819  23.494  1.00  0.00     0.256 HD
ATOM     17  N   UNL A   1      31.284  25.846  22.580  1.00  0.00    -0.291 N 
ATOM     18  H   UNL A   1      30.557  25.892  21.917  1.00  0.00     0.256 HD
ATOM     19  H   UNL A   1      31.835  26.641  22.761  1.00  0.00     0.256 HD
ENDBRANCH   9  13
ENDBRANCH   5   8
ENDBRANCH   3   4
ENDBRANCH   2   3
ENDBRANCH   1   2
BRANCH   1  20
ATOM     20  N   UNL A   1      33.763  30.081  26.341  1.00  0.00    -0.352 N 
ATOM     21  C   UNL A   1      34.362  30.773  27.361  1.00  0.00     0.251 C 
ATOM     22  H   UNL A   1      33.049  30.568  25.870  1.00  0.00     0.163 HD
ATOM     23  O   UNL A   1      33.823  31.800  27.785  1.00  0.00    -0.269 OA
BRANCH  21  24
ATOM     24  C   UNL A   1      35.629  30.299  27.958  1.00  0.00     0.039 A 
ATOM     25  C   UNL A   1      35.604  29.687  29.213  1.00  0.00     0.014 A 
ATOM     26  C   UNL A   1      36.847  30.484  27.298  1.00  0.00     0.014 A 
ATOM     27  C   UNL A   1      36.790  29.208  29.777  1.00  0.00     0.010 A 
ATOM     28  C   UNL A   1      38.010  29.921  27.815  1.00  0.00     0.010 A 
ATOM     29  C   UNL A   1      37.998  29.289  29.067  1.00  0.00    -0.014 A 
BRANCH  29  30
ATOM     30  C   UNL A   1      39.263  28.741  29.624  1.00  0.00     0.031 A 
ATOM     31  C   UNL A   1      39.928  29.414  30.795  1.00  0.00     0.074 A 
ATOM     32  C   UNL A   1      39.850  27.684  29.029  1.00  0.00     0.049 A 
ATOM     33  N   UNL A   1      41.070  29.141  31.371  1.00  0.00    -0.248 NA
ATOM     34  C   UNL A   1      39.232  30.577  31.365  1.00  0.00     0.031 C 
ATOM     35  C   UNL A   1      39.332  26.981  27.853  1.00  0.00     0.029 A 
ATOM     36  N   UNL A   1      41.015  27.021  29.323  1.00  0.00    -0.354 N 
ATOM     37  C   UNL A   1      41.240  30.111  32.355  1.00  0.00     0.074 A 
ATOM     38  C   UNL A   1      40.118  31.018  32.242  1.00  0.00     0.031 C 
ATOM     39  C   UNL A   1      40.160  25.972  27.543  1.00  0.00     0.029 A 
ATOM     40  C   UNL A   1      41.292  25.983  28.464  1.00  0.00     0.049 A 
ATOM     41  H   UNL A   1      41.598  27.266  30.079  1.00  0.00     0.167 HD
ATOM     42  C   UNL A   1      42.225  30.218  33.282  1.00  0.00     0.034 A 
ATOM     43  C   UNL A   1      42.345  25.143  28.415  1.00  0.00     0.034 A 
ATOM     44  C   UNL A   1      43.327  29.291  33.386  1.00  0.00     0.049 A 
ATOM     45  C   UNL A   1      43.432  25.279  29.448  1.00  0.00     0.074 A 
ATOM     46  C   UNL A   1      44.339  29.254  34.328  1.00  0.00     0.029 A 
ATOM     47  N   UNL A   1      43.569  28.242  32.504  1.00  0.00    -0.354 N 
ATOM     48  N   UNL A   1      43.545  26.158  30.417  1.00  0.00    -0.248 NA
ATOM     49  C   UNL A   1      44.525  24.301  29.389  1.00  0.00     0.031 C 
ATOM     50  C   UNL A   1      45.232  28.236  33.974  1.00  0.00     0.029 A 
ATOM     51  C   UNL A   1      44.734  27.580  32.859  1.00  0.00     0.049 A 
ATOM     52  H   UNL A   1      42.996  28.005  31.740  1.00  0.00     0.167 HD
ATOM     53  C   UNL A   1      44.712  25.824  31.098  1.00  0.00     0.074 A 
ATOM     54  C   UNL A   1      45.254  24.653  30.438  1.00  0.00     0.031 C 
ATOM     55  C   UNL A   1      45.279  26.427  32.176  1.00  0.00     0.034 A 
BRANCH  42  56
ATOM     56  C   UNL A   1      42.161  31.398  34.229  1.00  0.00     0.023 A 
ATOM     57  C   UNL A   1      41.358  31.379  35.384  1.00  0.00     0.031 A 
ATOM     58  C   UNL A   1      42.865  32.581  33.943  1.00  0.00     0.131 A 
ATOM     59  C   UNL A   1      41.193  32.547  36.145  1.00  0.00     0.055 A 
ATOM     60  C   UNL A   1      42.775  33.710  34.762  1.00  0.00     0.041 A 
ATOM     61  F   UNL A   1      43.634  32.673  32.847  1.00  0.00    -0.206 F 
ATOM     62  C   UNL A   1      41.919  33.705  35.858  1.00  0.00     0.022 A 
BRANCH  59  63
ATOM     63  S   UNL A   1      39.878  32.584  37.395  1.00  0.00     0.124 S 
ATOM     64  O   UNL A   1      39.030  31.476  36.962  1.00  0.00    -0.237 OA
ATOM     65  O   UNL A   1      40.617  32.379  38.635  1.00  0.00    -0.237 OA
ATOM     66  O   UNL A   1      39.288  33.912  37.231  1.00  0.00    -0.744 OA
ENDBRANCH  59  63
ENDBRANCH  42  56
BRANCH  43  67
ATOM     67  C   UNL A   1      42.420  24.108  27.345  1.00  0.00     0.023 A 
ATOM     68  C   UNL A   1      41.657  22.932  27.415  1.00  0.00     0.031 A 
ATOM     69  C   UNL A   1      43.261  24.285  26.230  1.00  0.00     0.131 A 
ATOM     70  C   UNL A   1      41.771  21.964  26.405  1.00  0.00     0.055 A 
ATOM     71  C   UNL A   1      43.335  23.342  25.204  1.00  0.00     0.041 A 
ATOM     72  F   UNL A   1      44.005  25.397  26.112  1.00  0.00    -0.206 F 
ATOM     73  C   UNL A   1      42.593  22.168  25.293  1.00  0.00     0.022 A 
BRANCH  70  74
ATOM     74  S   UNL A   1      40.866  20.403  26.587  1.00  0.00     0.124 S 
ATOM     75  O   UNL A   1      40.940  20.183  28.027  1.00  0.00    -0.237 OA
ATOM     76  O   UNL A   1      39.551  20.751  26.058  1.00  0.00    -0.237 OA
ATOM     77  O   UNL A   1      41.634  19.466  25.770  1.00  0.00    -0.744 OA
ENDBRANCH  70  74
ENDBRANCH  43  67
BRANCH  55  78
ATOM     78  C   UNL A   1      46.540  25.803  32.724  1.00  0.00     0.023 A 
ATOM     79  C   UNL A   1      47.800  26.050  32.149  1.00  0.00     0.031 A 
ATOM     80  C   UNL A   1      46.479  24.943  33.835  1.00  0.00     0.131 A 
ATOM     81  C   UNL A   1      48.936  25.397  32.650  1.00  0.00     0.055 A 
ATOM     82  C   UNL A   1      47.622  24.348  34.370  1.00  0.00     0.041 A 
ATOM     83  F   UNL A   1      45.302  24.667  34.422  1.00  0.00    -0.206 F 
ATOM     84  C   UNL A   1      48.858  24.563  33.769  1.00  0.00     0.022 A 
BRANCH  81  85
ATOM     85  S   UNL A   1      50.507  25.576  31.760  1.00  0.00     0.124 S 
ATOM     86  O   UNL A   1      50.163  26.553  30.732  1.00  0.00    -0.237 OA
ATOM     87  O   UNL A   1      51.408  26.045  32.809  1.00  0.00    -0.237 OA
ATOM     88  O   UNL A   1      50.779  24.227  31.269  1.00  0.00    -0.744 OA
ENDBRANCH  81  85
ENDBRANCH  55  78
ENDBRANCH  29  30
ENDBRANCH  21  24
ENDBRANCH   1  20
TORSDOF 14
ENDMDL
