MODEL 1
REMARK VINA RESULT:     -13.6      0.000      0.000
REMARK SMILES CCc1cc(OCCC(=O)NCCCNC(=O)c2ccc(-c3c4nc(c(-c5cc(S(=O)(=O)[O-])ccc5F)c5ccc([nH]5)c(-c5cc(S(=O)(=O)[O-])ccc5F)c5nc(c(-c6cc(S(=O)(=O)[O-])ccc6F)c6ccc3[nH]6)C=C5)C=C4)cc2)nc(-c2cnccn2)n1
REMARK SMILES IDX 12 1 11 2 9 3 10 4 8 6 7 7 6 8 5 9 3 10 4 11 89 12 82 13
REMARK SMILES IDX 81 14 2 15 1 16 83 17 84 18 88 19 85 20 87 21 86 22 13 23
REMARK SMILES IDX 14 24 15 25 16 26 17 28 18 29 19 30 80 31 20 32 79 33 21 34
REMARK SMILES IDX 22 35 23 36 73 37 24 38 78 39 72 40 74 41 25 42 77 43 71 44
REMARK SMILES IDX 70 45 26 47 58 48 38 49 57 50 39 51 42 52 56 53 75 54 40 55
REMARK SMILES IDX 41 56 55 58 76 59 43 60 27 61 28 62 36 63 29 64 35 65 37 66
REMARK SMILES IDX 34 67 30 68 31 69 32 70 33 71 59 72 60 73 68 74 61 75 67 76
REMARK SMILES IDX 69 77 66 78 62 79 63 80 64 81 65 82 44 83 45 84 53 85 46 86
REMARK SMILES IDX 52 87 54 88 51 89 47 90 48 91 49 92 50 93
REMARK H PARENT 11 5 15 27 74 46 42 57
REMARK Flexibility Score: inf
ROOT
ATOM      1  C   UNL A   1      39.513  20.462  26.122  1.00  0.00     0.117 C 
ENDROOT
BRANCH   1   2
ATOM      2  N   UNL A   1      38.767  21.826  26.254  1.00  0.00    -0.356 N 
ATOM      3  C   UNL A   1      37.751  22.277  25.473  1.00  0.00     0.223 C 
ATOM      4  O   UNL A   1      37.627  23.481  25.261  1.00  0.00    -0.275 OA
ATOM      5  H   UNL A   1      39.063  22.421  26.980  1.00  0.00     0.163 HD
BRANCH   3   6
ATOM      6  C   UNL A   1      36.799  21.237  24.935  1.00  0.00     0.141 C 
BRANCH   6   7
ATOM      7  C   UNL A   1      35.300  21.358  25.285  1.00  0.00     0.241 C 
BRANCH   7   8
ATOM      8  O   UNL A   1      34.810  22.410  26.159  1.00  0.00    -0.477 OA
BRANCH   8   9
ATOM      9  C   UNL A   1      33.783  23.250  25.675  1.00  0.00     0.217 A 
ATOM     10  C   UNL A   1      31.050  23.936  26.665  1.00  0.00     0.048 A 
ATOM     11  C   UNL A   1      32.201  22.742  26.100  1.00  0.00     0.092 A 
ATOM     12  N   UNL A   1      31.591  25.631  26.850  1.00  0.00    -0.231 NA
ATOM     13  C   UNL A   1      33.206  26.143  26.119  1.00  0.00     0.183 A 
ATOM     14  N   UNL A   1      34.301  24.899  25.643  1.00  0.00    -0.192 NA
BRANCH  10  15
ATOM     15  C   UNL A   1      29.597  23.492  26.517  1.00  0.00     0.053 C 
ATOM     16  C   UNL A   1      29.050  22.578  27.631  1.00  0.00     0.011 C 
ENDBRANCH  10  15
BRANCH  13  17
ATOM     17  C   UNL A   1      33.237  27.216  24.740  1.00  0.00     0.126 A 
ATOM     18  C   UNL A   1      32.201  28.533  25.207  1.00  0.00     0.143 A 
ATOM     19  N   UNL A   1      33.046  26.597  22.967  1.00  0.00    -0.250 NA
ATOM     20  N   UNL A   1      30.940  29.086  24.177  1.00  0.00    -0.261 NA
ATOM     21  C   UNL A   1      31.711  27.181  21.935  1.00  0.00     0.132 A 
ATOM     22  C   UNL A   1      30.670  28.393  22.592  1.00  0.00     0.131 A 
ENDBRANCH  13  17
ENDBRANCH   8   9
ENDBRANCH   7   8
ENDBRANCH   6   7
ENDBRANCH   3   6
ENDBRANCH   1   2
BRANCH   1  23
ATOM     23  C   UNL A   1      41.675  20.075  26.079  1.00  0.00     0.042 C 
BRANCH  23  24
ATOM     24  C   UNL A   1      42.827  21.484  26.726  1.00  0.00     0.118 C 
BRANCH  24  25
ATOM     25  N   UNL A   1      43.927  22.179  25.481  1.00  0.00    -0.352 N 
ATOM     26  C   UNL A   1      43.937  23.814  24.931  1.00  0.00     0.251 C 
ATOM     27  H   UNL A   1      44.585  21.569  25.076  1.00  0.00     0.163 HD
ATOM     28  O   UNL A   1      44.609  23.691  23.879  1.00  0.00    -0.269 OA
BRANCH  26  29
ATOM     29  C   UNL A   1      42.859  25.330  26.033  1.00  0.00     0.039 A 
ATOM     30  C   UNL A   1      42.964  26.793  26.107  1.00  0.00     0.014 A 
ATOM     31  C   UNL A   1      41.890  25.010  27.242  1.00  0.00     0.014 A 
ATOM     32  C   UNL A   1      42.640  27.580  27.249  1.00  0.00     0.010 A 
ATOM     33  C   UNL A   1      41.623  25.739  28.379  1.00  0.00     0.010 A 
ATOM     34  C   UNL A   1      42.042  27.034  28.390  1.00  0.00    -0.014 A 
BRANCH  34  35
ATOM     35  C   UNL A   1      41.454  27.839  29.452  1.00  0.00     0.031 A 
ATOM     36  C   UNL A   1      40.178  28.577  29.254  1.00  0.00     0.074 A 
ATOM     37  C   UNL A   1      42.280  28.016  30.495  1.00  0.00     0.049 A 
ATOM     38  N   UNL A   1      39.517  29.289  30.120  1.00  0.00    -0.248 NA
ATOM     39  C   UNL A   1      39.585  28.554  27.907  1.00  0.00     0.031 C 
ATOM     40  C   UNL A   1      43.642  27.460  30.571  1.00  0.00     0.029 A 
ATOM     41  N   UNL A   1      42.127  28.675  31.667  1.00  0.00    -0.354 N 
ATOM     42  C   UNL A   1      38.408  29.772  29.440  1.00  0.00     0.074 A 
ATOM     43  C   UNL A   1      38.531  29.343  28.064  1.00  0.00     0.031 C 
ATOM     44  C   UNL A   1      44.145  27.691  31.785  1.00  0.00     0.029 A 
ATOM     45  C   UNL A   1      43.183  28.487  32.522  1.00  0.00     0.049 A 
ATOM     46  H   UNL A   1      41.343  29.230  31.882  1.00  0.00     0.167 HD
ATOM     47  C   UNL A   1      37.388  30.492  29.964  1.00  0.00     0.034 A 
ATOM     48  C   UNL A   1      43.339  28.920  33.780  1.00  0.00     0.034 A 
ATOM     49  C   UNL A   1      37.410  30.926  31.341  1.00  0.00     0.049 A 
ATOM     50  C   UNL A   1      42.190  29.689  34.346  1.00  0.00     0.074 A 
ATOM     51  C   UNL A   1      36.451  31.617  32.054  1.00  0.00     0.029 A 
ATOM     52  N   UNL A   1      38.489  30.732  32.207  1.00  0.00    -0.354 N 
ATOM     53  N   UNL A   1      41.066  30.036  33.752  1.00  0.00    -0.248 NA
ATOM     54  C   UNL A   1      42.311  30.117  35.734  1.00  0.00     0.031 C 
ATOM     55  C   UNL A   1      36.991  31.928  33.307  1.00  0.00     0.029 A 
ATOM     56  C   UNL A   1      38.242  31.332  33.429  1.00  0.00     0.049 A 
ATOM     57  H   UNL A   1      39.310  30.238  31.979  1.00  0.00     0.167 HD
ATOM     58  C   UNL A   1      40.331  30.722  34.701  1.00  0.00     0.074 A 
ATOM     59  C   UNL A   1      41.139  30.710  35.914  1.00  0.00     0.031 C 
ATOM     60  C   UNL A   1      39.109  31.308  34.591  1.00  0.00     0.034 A 
BRANCH  47  61
ATOM     61  C   UNL A   1      36.254  30.874  29.041  1.00  0.00     0.023 A 
ATOM     62  C   UNL A   1      35.826  32.208  28.909  1.00  0.00     0.031 A 
ATOM     63  C   UNL A   1      35.529  29.889  28.347  1.00  0.00     0.131 A 
ATOM     64  C   UNL A   1      34.646  32.505  28.208  1.00  0.00     0.055 A 
ATOM     65  C   UNL A   1      34.415  30.204  27.564  1.00  0.00     0.041 A 
ATOM     66  F   UNL A   1      35.860  28.592  28.453  1.00  0.00    -0.206 F 
ATOM     67  C   UNL A   1      33.953  31.516  27.510  1.00  0.00     0.022 A 
BRANCH  64  68
ATOM     68  S   UNL A   1      33.914  34.155  28.409  1.00  0.00     0.124 S 
ATOM     69  O   UNL A   1      34.764  34.962  27.535  1.00  0.00    -0.237 OA
ATOM     70  O   UNL A   1      32.543  33.952  27.955  1.00  0.00    -0.237 OA
ATOM     71  O   UNL A   1      34.067  34.428  29.837  1.00  0.00    -0.744 OA
ENDBRANCH  64  68
ENDBRANCH  47  61
BRANCH  48  72
ATOM     72  C   UNL A   1      44.590  28.602  34.508  1.00  0.00     0.023 A 
ATOM     73  C   UNL A   1      44.770  27.370  35.148  1.00  0.00     0.031 A 
ATOM     74  C   UNL A   1      45.669  29.509  34.496  1.00  0.00     0.131 A 
ATOM     75  C   UNL A   1      45.991  27.092  35.782  1.00  0.00     0.055 A 
ATOM     76  C   UNL A   1      46.901  29.199  35.067  1.00  0.00     0.041 A 
ATOM     77  F   UNL A   1      45.555  30.692  33.869  1.00  0.00    -0.206 F 
ATOM     78  C   UNL A   1      47.064  27.987  35.727  1.00  0.00     0.022 A 
BRANCH  75  79
ATOM     79  S   UNL A   1      46.130  25.575  36.763  1.00  0.00     0.124 S 
ATOM     80  O   UNL A   1      47.140  25.951  37.747  1.00  0.00    -0.237 OA
ATOM     81  O   UNL A   1      44.771  25.411  37.268  1.00  0.00    -0.237 OA
ATOM     82  O   UNL A   1      46.555  24.577  35.784  1.00  0.00    -0.744 OA
ENDBRANCH  75  79
ENDBRANCH  48  72
BRANCH  60  83
ATOM     83  C   UNL A   1      38.588  31.958  35.841  1.00  0.00     0.023 A 
ATOM     84  C   UNL A   1      38.081  31.195  36.904  1.00  0.00     0.031 A 
ATOM     85  C   UNL A   1      38.587  33.358  35.957  1.00  0.00     0.131 A 
ATOM     86  C   UNL A   1      37.517  31.843  38.007  1.00  0.00     0.055 A 
ATOM     87  C   UNL A   1      38.118  33.993  37.103  1.00  0.00     0.041 A 
ATOM     88  F   UNL A   1      39.052  34.129  34.959  1.00  0.00    -0.206 F 
ATOM     89  C   UNL A   1      37.561  33.235  38.128  1.00  0.00     0.022 A 
BRANCH  86  90
ATOM     90  S   UNL A   1      36.586  30.849  39.200  1.00  0.00     0.124 S 
ATOM     91  O   UNL A   1      36.470  29.574  38.499  1.00  0.00    -0.237 OA
ATOM     92  O   UNL A   1      37.464  30.857  40.366  1.00  0.00    -0.237 OA
ATOM     93  O   UNL A   1      35.335  31.588  39.356  1.00  0.00    -0.744 OA
ENDBRANCH  86  90
ENDBRANCH  60  83
ENDBRANCH  34  35
ENDBRANCH  26  29
ENDBRANCH  24  25
ENDBRANCH  23  24
ENDBRANCH   1  23
TORSDOF 18
ENDMDL
MODEL 2
REMARK VINA RESULT:     -13.3      5.145     10.025
REMARK SMILES CCc1cc(OCCC(=O)NCCCNC(=O)c2ccc(-c3c4nc(c(-c5cc(S(=O)(=O)[O-])ccc5F)c5ccc([nH]5)c(-c5cc(S(=O)(=O)[O-])ccc5F)c5nc(c(-c6cc(S(=O)(=O)[O-])ccc6F)c6ccc3[nH]6)C=C5)C=C4)cc2)nc(-c2cnccn2)n1
REMARK SMILES IDX 12 1 11 2 9 3 10 4 8 6 7 7 6 8 5 9 3 10 4 11 89 12 82 13
REMARK SMILES IDX 81 14 2 15 1 16 83 17 84 18 88 19 85 20 87 21 86 22 13 23
REMARK SMILES IDX 14 24 15 25 16 26 17 28 18 29 19 30 80 31 20 32 79 33 21 34
REMARK SMILES IDX 22 35 23 36 73 37 24 38 78 39 72 40 74 41 25 42 77 43 71 44
REMARK SMILES IDX 70 45 26 47 58 48 38 49 57 50 39 51 42 52 56 53 75 54 40 55
REMARK SMILES IDX 41 56 55 58 76 59 43 60 27 61 28 62 36 63 29 64 35 65 37 66
REMARK SMILES IDX 34 67 30 68 31 69 32 70 33 71 59 72 60 73 68 74 61 75 67 76
REMARK SMILES IDX 69 77 66 78 62 79 63 80 64 81 65 82 44 83 45 84 53 85 46 86
REMARK SMILES IDX 52 87 54 88 51 89 47 90 48 91 49 92 50 93
REMARK H PARENT 11 5 15 27 74 46 42 57
REMARK Flexibility Score: inf
ROOT
ATOM      1  C   UNL A   1      35.505  22.388  26.067  1.00  0.00     0.117 C 
ENDROOT
BRANCH   1   2
ATOM      2  N   UNL A   1      34.501  22.028  27.205  1.00  0.00    -0.356 N 
ATOM      3  C   UNL A   1      33.181  22.346  27.256  1.00  0.00     0.223 C 
ATOM      4  O   UNL A   1      32.638  22.547  28.340  1.00  0.00    -0.275 OA
ATOM      5  H   UNL A   1      34.861  21.518  27.966  1.00  0.00     0.163 HD
BRANCH   3   6
ATOM      6  C   UNL A   1      32.446  22.395  25.939  1.00  0.00     0.141 C 
BRANCH   6   7
ATOM      7  C   UNL A   1      31.743  23.708  25.535  1.00  0.00     0.241 C 
BRANCH   7   8
ATOM      8  O   UNL A   1      32.458  24.768  24.844  1.00  0.00    -0.477 OA
BRANCH   8   9
ATOM      9  C   UNL A   1      32.177  26.103  25.208  1.00  0.00     0.217 A 
ATOM     10  C   UNL A   1      33.884  28.512  25.657  1.00  0.00     0.048 A 
ATOM     11  C   UNL A   1      33.437  26.872  26.080  1.00  0.00     0.092 A 
ATOM     12  N   UNL A   1      33.060  29.298  24.278  1.00  0.00    -0.231 NA
ATOM     13  C   UNL A   1      31.544  28.517  23.575  1.00  0.00     0.183 A 
ATOM     14  N   UNL A   1      31.214  26.880  24.002  1.00  0.00    -0.192 NA
BRANCH  10  15
ATOM     15  C   UNL A   1      34.609  29.250  26.779  1.00  0.00     0.053 C 
ATOM     16  C   UNL A   1      33.816  30.375  27.474  1.00  0.00     0.011 C 
ENDBRANCH  10  15
BRANCH  13  17
ATOM     17  C   UNL A   1      29.987  29.283  23.794  1.00  0.00     0.126 A 
ATOM     18  C   UNL A   1      29.081  28.806  22.388  1.00  0.00     0.143 A 
ATOM     19  N   UNL A   1      29.808  31.085  24.327  1.00  0.00    -0.250 NA
ATOM     20  N   UNL A   1      28.247  29.965  21.429  1.00  0.00    -0.261 NA
ATOM     21  C   UNL A   1      28.951  32.261  23.294  1.00  0.00     0.132 A 
ATOM     22  C   UNL A   1      28.221  31.665  21.847  1.00  0.00     0.131 A 
ENDBRANCH  13  17
ENDBRANCH   8   9
ENDBRANCH   7   8
ENDBRANCH   6   7
ENDBRANCH   3   6
ENDBRANCH   1   2
BRANCH   1  23
ATOM     23  C   UNL A   1      36.968  21.092  25.064  1.00  0.00     0.042 C 
BRANCH  23  24
ATOM     24  C   UNL A   1      38.803  21.230  25.649  1.00  0.00     0.118 C 
BRANCH  24  25
ATOM     25  N   UNL A   1      39.679  19.660  25.739  1.00  0.00    -0.352 N 
ATOM     26  C   UNL A   1      41.363  19.450  26.047  1.00  0.00     0.251 C 
ATOM     27  H   UNL A   1      39.147  18.844  25.598  1.00  0.00     0.163 HD
ATOM     28  O   UNL A   1      41.512  18.262  25.674  1.00  0.00    -0.269 OA
BRANCH  26  29
ATOM     29  C   UNL A   1      42.538  21.104  26.793  1.00  0.00     0.039 A 
ATOM     30  C   UNL A   1      42.873  21.581  28.141  1.00  0.00     0.014 A 
ATOM     31  C   UNL A   1      43.022  22.312  25.891  1.00  0.00     0.014 A 
ATOM     32  C   UNL A   1      43.123  22.939  28.492  1.00  0.00     0.010 A 
ATOM     33  C   UNL A   1      43.203  23.638  26.210  1.00  0.00     0.010 A 
ATOM     34  C   UNL A   1      43.213  23.955  27.534  1.00  0.00    -0.014 A 
BRANCH  34  35
ATOM     35  C   UNL A   1      43.730  25.286  27.821  1.00  0.00     0.031 A 
ATOM     36  C   UNL A   1      45.191  25.569  27.828  1.00  0.00     0.074 A 
ATOM     37  C   UNL A   1      42.792  26.124  28.288  1.00  0.00     0.049 A 
ATOM     38  N   UNL A   1      45.789  26.709  28.019  1.00  0.00    -0.248 NA
ATOM     39  C   UNL A   1      46.102  24.428  27.641  1.00  0.00     0.031 C 
ATOM     40  C   UNL A   1      41.382  25.751  28.494  1.00  0.00     0.029 A 
ATOM     41  N   UNL A   1      42.846  27.424  28.660  1.00  0.00    -0.354 N 
ATOM     42  C   UNL A   1      47.147  26.437  27.939  1.00  0.00     0.074 A 
ATOM     43  C   UNL A   1      47.288  25.007  27.769  1.00  0.00     0.031 C 
ATOM     44  C   UNL A   1      40.683  26.837  28.826  1.00  0.00     0.029 A 
ATOM     45  C   UNL A   1      41.611  27.945  28.949  1.00  0.00     0.049 A 
ATOM     46  H   UNL A   1      43.683  27.940  28.718  1.00  0.00     0.167 HD
ATOM     47  C   UNL A   1      48.157  27.339  27.987  1.00  0.00     0.034 A 
ATOM     48  C   UNL A   1      41.277  29.200  29.275  1.00  0.00     0.034 A 
ATOM     49  C   UNL A   1      47.898  28.738  28.235  1.00  0.00     0.049 A 
ATOM     50  C   UNL A   1      42.404  30.182  29.297  1.00  0.00     0.074 A 
ATOM     51  C   UNL A   1      48.783  29.796  28.271  1.00  0.00     0.029 A 
ATOM     52  N   UNL A   1      46.637  29.261  28.529  1.00  0.00    -0.354 N 
ATOM     53  N   UNL A   1      43.685  29.962  29.084  1.00  0.00    -0.248 NA
ATOM     54  C   UNL A   1      42.055  31.567  29.588  1.00  0.00     0.031 C 
ATOM     55  C   UNL A   1      48.077  30.930  28.688  1.00  0.00     0.029 A 
ATOM     56  C   UNL A   1      46.727  30.615  28.797  1.00  0.00     0.049 A 
ATOM     57  H   UNL A   1      45.802  28.740  28.543  1.00  0.00     0.167 HD
ATOM     58  C   UNL A   1      44.307  31.191  29.206  1.00  0.00     0.074 A 
ATOM     59  C   UNL A   1      43.243  32.148  29.486  1.00  0.00     0.031 C 
ATOM     60  C   UNL A   1      45.624  31.507  29.102  1.00  0.00     0.034 A 
BRANCH  47  61
ATOM     61  C   UNL A   1      49.568  26.819  27.832  1.00  0.00     0.023 A 
ATOM     62  C   UNL A   1      50.429  26.678  28.937  1.00  0.00     0.031 A 
ATOM     63  C   UNL A   1      50.096  26.542  26.559  1.00  0.00     0.131 A 
ATOM     64  C   UNL A   1      51.789  26.392  28.739  1.00  0.00     0.055 A 
ATOM     65  C   UNL A   1      51.426  26.154  26.378  1.00  0.00     0.041 A 
ATOM     66  F   UNL A   1      49.341  26.685  25.458  1.00  0.00    -0.206 F 
ATOM     67  C   UNL A   1      52.288  26.100  27.469  1.00  0.00     0.022 A 
BRANCH  64  68
ATOM     68  S   UNL A   1      52.932  26.627  30.131  1.00  0.00     0.124 S 
ATOM     69  O   UNL A   1      52.226  25.939  31.210  1.00  0.00    -0.237 OA
ATOM     70  O   UNL A   1      54.150  25.983  29.653  1.00  0.00    -0.237 OA
ATOM     71  O   UNL A   1      53.007  28.079  30.274  1.00  0.00    -0.744 OA
ENDBRANCH  64  68
ENDBRANCH  47  61
BRANCH  48  72
ATOM     72  C   UNL A   1      39.861  29.524  29.564  1.00  0.00     0.023 A 
ATOM     73  C   UNL A   1      39.395  29.662  30.877  1.00  0.00     0.031 A 
ATOM     74  C   UNL A   1      38.964  29.790  28.510  1.00  0.00     0.131 A 
ATOM     75  C   UNL A   1      38.058  30.021  31.103  1.00  0.00     0.055 A 
ATOM     76  C   UNL A   1      37.656  30.212  28.740  1.00  0.00     0.041 A 
ATOM     77  F   UNL A   1      39.371  29.699  27.233  1.00  0.00    -0.206 F 
ATOM     78  C   UNL A   1      37.192  30.318  30.045  1.00  0.00     0.022 A 
BRANCH  75  79
ATOM     79  S   UNL A   1      37.434  30.006  32.804  1.00  0.00     0.124 S 
ATOM     80  O   UNL A   1      36.216  30.801  32.679  1.00  0.00    -0.237 OA
ATOM     81  O   UNL A   1      37.247  28.580  33.049  1.00  0.00    -0.237 OA
ATOM     82  O   UNL A   1      38.511  30.634  33.566  1.00  0.00    -0.744 OA
ENDBRANCH  75  79
ENDBRANCH  48  72
BRANCH  60  83
ATOM     83  C   UNL A   1      45.956  32.963  29.271  1.00  0.00     0.023 A 
ATOM     84  C   UNL A   1      45.708  33.893  28.250  1.00  0.00     0.031 A 
ATOM     85  C   UNL A   1      46.541  33.416  30.465  1.00  0.00     0.131 A 
ATOM     86  C   UNL A   1      46.121  35.219  28.413  1.00  0.00     0.055 A 
ATOM     87  C   UNL A   1      46.855  34.757  30.660  1.00  0.00     0.041 A 
ATOM     88  F   UNL A   1      46.808  32.558  31.466  1.00  0.00    -0.206 F 
ATOM     89  C   UNL A   1      46.664  35.664  29.622  1.00  0.00     0.022 A 
BRANCH  86  90
ATOM     90  S   UNL A   1      46.084  36.310  26.969  1.00  0.00     0.124 S 
ATOM     91  O   UNL A   1      46.949  35.596  26.034  1.00  0.00    -0.237 OA
ATOM     92  O   UNL A   1      44.664  36.335  26.632  1.00  0.00    -0.237 OA
ATOM     93  O   UNL A   1      46.626  37.567  27.479  1.00  0.00    -0.744 OA
ENDBRANCH  86  90
ENDBRANCH  60  83
ENDBRANCH  34  35
ENDBRANCH  26  29
ENDBRANCH  24  25
ENDBRANCH  23  24
ENDBRANCH   1  23
TORSDOF 18
ENDMDL
MODEL 3
REMARK VINA RESULT:     -13.2      4.855      7.777
REMARK SMILES CCc1cc(OCCC(=O)NCCCNC(=O)c2ccc(-c3c4nc(c(-c5cc(S(=O)(=O)[O-])ccc5F)c5ccc([nH]5)c(-c5cc(S(=O)(=O)[O-])ccc5F)c5nc(c(-c6cc(S(=O)(=O)[O-])ccc6F)c6ccc3[nH]6)C=C5)C=C4)cc2)nc(-c2cnccn2)n1
REMARK SMILES IDX 12 1 11 2 9 3 10 4 8 6 7 7 6 8 5 9 3 10 4 11 89 12 82 13
REMARK SMILES IDX 81 14 2 15 1 16 83 17 84 18 88 19 85 20 87 21 86 22 13 23
REMARK SMILES IDX 14 24 15 25 16 26 17 28 18 29 19 30 80 31 20 32 79 33 21 34
REMARK SMILES IDX 22 35 23 36 73 37 24 38 78 39 72 40 74 41 25 42 77 43 71 44
REMARK SMILES IDX 70 45 26 47 58 48 38 49 57 50 39 51 42 52 56 53 75 54 40 55
REMARK SMILES IDX 41 56 55 58 76 59 43 60 27 61 28 62 36 63 29 64 35 65 37 66
REMARK SMILES IDX 34 67 30 68 31 69 32 70 33 71 59 72 60 73 68 74 61 75 67 76
REMARK SMILES IDX 69 77 66 78 62 79 63 80 64 81 65 82 44 83 45 84 53 85 46 86
REMARK SMILES IDX 52 87 54 88 51 89 47 90 48 91 49 92 50 93
REMARK H PARENT 11 5 15 27 74 46 42 57
REMARK Flexibility Score: inf
ROOT
ATOM      1  C   UNL A   1      34.540  21.784  25.837  1.00  0.00     0.117 C 
ENDROOT
BRANCH   1   2
ATOM      2  N   UNL A   1      33.023  21.459  25.673  1.00  0.00    -0.356 N 
ATOM      3  C   UNL A   1      32.026  22.342  25.402  1.00  0.00     0.223 C 
ATOM      4  O   UNL A   1      30.895  22.146  25.843  1.00  0.00    -0.275 OA
ATOM      5  H   UNL A   1      32.761  20.516  25.775  1.00  0.00     0.163 HD
BRANCH   3   6
ATOM      6  C   UNL A   1      32.382  23.517  24.525  1.00  0.00     0.141 C 
BRANCH   6   7
ATOM      7  C   UNL A   1      31.244  24.421  24.005  1.00  0.00     0.241 C 
BRANCH   7   8
ATOM      8  O   UNL A   1      30.213  24.927  24.894  1.00  0.00    -0.477 OA
BRANCH   8   9
ATOM      9  C   UNL A   1      30.207  26.310  25.182  1.00  0.00     0.217 A 
ATOM     10  C   UNL A   1      32.359  28.296  25.769  1.00  0.00     0.048 A 
ATOM     11  C   UNL A   1      31.502  26.825  26.181  1.00  0.00     0.092 A 
ATOM     12  N   UNL A   1      31.901  29.167  24.276  1.00  0.00    -0.231 NA
ATOM     13  C   UNL A   1      30.337  28.709  23.412  1.00  0.00     0.183 A 
ATOM     14  N   UNL A   1      29.593  27.214  23.842  1.00  0.00    -0.192 NA
BRANCH  10  15
ATOM     15  C   UNL A   1      33.101  28.915  26.951  1.00  0.00     0.053 C 
ATOM     16  C   UNL A   1      32.887  30.426  27.170  1.00  0.00     0.011 C 
ENDBRANCH  10  15
BRANCH  13  17
ATOM     17  C   UNL A   1      28.984  29.815  23.414  1.00  0.00     0.126 A 
ATOM     18  C   UNL A   1      28.296  29.641  21.826  1.00  0.00     0.143 A 
ATOM     19  N   UNL A   1      29.115  31.578  24.075  1.00  0.00    -0.250 NA
ATOM     20  N   UNL A   1      27.956  31.013  20.845  1.00  0.00    -0.261 NA
ATOM     21  C   UNL A   1      28.773  32.977  23.020  1.00  0.00     0.132 A 
ATOM     22  C   UNL A   1      28.233  32.647  21.412  1.00  0.00     0.131 A 
ENDBRANCH  13  17
ENDBRANCH   8   9
ENDBRANCH   7   8
ENDBRANCH   6   7
ENDBRANCH   3   6
ENDBRANCH   1   2
BRANCH   1  23
ATOM     23  C   UNL A   1      36.235  21.086  24.627  1.00  0.00     0.042 C 
BRANCH  23  24
ATOM     24  C   UNL A   1      38.001  21.350  25.363  1.00  0.00     0.118 C 
BRANCH  24  25
ATOM     25  N   UNL A   1      38.921  19.831  25.660  1.00  0.00    -0.352 N 
ATOM     26  C   UNL A   1      40.596  19.717  26.054  1.00  0.00     0.251 C 
ATOM     27  H   UNL A   1      38.421  18.986  25.590  1.00  0.00     0.163 HD
ATOM     28  O   UNL A   1      40.798  18.502  25.821  1.00  0.00    -0.269 OA
BRANCH  26  29
ATOM     29  C   UNL A   1      41.686  21.484  26.658  1.00  0.00     0.039 A 
ATOM     30  C   UNL A   1      42.222  21.952  27.942  1.00  0.00     0.014 A 
ATOM     31  C   UNL A   1      41.829  22.775  25.754  1.00  0.00     0.014 A 
ATOM     32  C   UNL A   1      42.369  23.318  28.320  1.00  0.00     0.010 A 
ATOM     33  C   UNL A   1      41.906  24.102  26.112  1.00  0.00     0.010 A 
ATOM     34  C   UNL A   1      42.142  24.370  27.426  1.00  0.00    -0.014 A 
BRANCH  34  35
ATOM     35  C   UNL A   1      42.540  25.747  27.687  1.00  0.00     0.031 A 
ATOM     36  C   UNL A   1      41.605  26.723  28.308  1.00  0.00     0.074 A 
ATOM     37  C   UNL A   1      43.708  26.074  27.112  1.00  0.00     0.049 A 
ATOM     38  N   UNL A   1      41.837  27.960  28.640  1.00  0.00    -0.248 NA
ATOM     39  C   UNL A   1      40.223  26.277  28.550  1.00  0.00     0.031 C 
ATOM     40  C   UNL A   1      44.514  25.147  26.299  1.00  0.00     0.029 A 
ATOM     41  N   UNL A   1      44.425  27.221  27.112  1.00  0.00    -0.354 N 
ATOM     42  C   UNL A   1      40.644  28.436  29.167  1.00  0.00     0.074 A 
ATOM     43  C   UNL A   1      39.665  27.380  29.030  1.00  0.00     0.031 C 
ATOM     44  C   UNL A   1      45.677  25.725  25.995  1.00  0.00     0.029 A 
ATOM     45  C   UNL A   1      45.648  27.082  26.506  1.00  0.00     0.049 A 
ATOM     46  H   UNL A   1      44.104  28.065  27.505  1.00  0.00     0.167 HD
ATOM     47  C   UNL A   1      40.435  29.652  29.727  1.00  0.00     0.034 A 
ATOM     48  C   UNL A   1      46.639  27.974  26.389  1.00  0.00     0.034 A 
ATOM     49  C   UNL A   1      41.473  30.656  29.742  1.00  0.00     0.049 A 
ATOM     50  C   UNL A   1      46.396  29.299  27.036  1.00  0.00     0.074 A 
ATOM     51  C   UNL A   1      41.459  31.917  30.302  1.00  0.00     0.029 A 
ATOM     52  N   UNL A   1      42.716  30.507  29.122  1.00  0.00    -0.354 N 
ATOM     53  N   UNL A   1      45.316  29.716  27.664  1.00  0.00    -0.248 NA
ATOM     54  C   UNL A   1      47.487  30.264  26.975  1.00  0.00     0.031 C 
ATOM     55  C   UNL A   1      42.644  32.562  29.931  1.00  0.00     0.029 A 
ATOM     56  C   UNL A   1      43.457  31.669  29.241  1.00  0.00     0.049 A 
ATOM     57  H   UNL A   1      43.021  29.691  28.664  1.00  0.00     0.167 HD
ATOM     58  C   UNL A   1      45.597  31.003  28.087  1.00  0.00     0.074 A 
ATOM     59  C   UNL A   1      46.964  31.272  27.660  1.00  0.00     0.031 C 
ATOM     60  C   UNL A   1      44.809  31.882  28.761  1.00  0.00     0.034 A 
BRANCH  47  61
ATOM     61  C   UNL A   1      39.059  29.939  30.281  1.00  0.00     0.023 A 
ATOM     62  C   UNL A   1      38.114  30.692  29.558  1.00  0.00     0.031 A 
ATOM     63  C   UNL A   1      38.709  29.536  31.581  1.00  0.00     0.131 A 
ATOM     64  C   UNL A   1      36.927  31.117  30.177  1.00  0.00     0.055 A 
ATOM     65  C   UNL A   1      37.480  29.874  32.155  1.00  0.00     0.041 A 
ATOM     66  F   UNL A   1      39.573  28.843  32.340  1.00  0.00    -0.206 F 
ATOM     67  C   UNL A   1      36.590  30.688  31.461  1.00  0.00     0.022 A 
BRANCH  64  68
ATOM     68  S   UNL A   1      35.945  32.411  29.365  1.00  0.00     0.124 S 
ATOM     69  O   UNL A   1      34.667  32.293  30.065  1.00  0.00    -0.237 OA
ATOM     70  O   UNL A   1      36.717  33.617  29.644  1.00  0.00    -0.237 OA
ATOM     71  O   UNL A   1      35.919  31.996  27.964  1.00  0.00    -0.744 OA
ENDBRANCH  64  68
ENDBRANCH  47  61
BRANCH  48  72
ATOM     72  C   UNL A   1      47.877  27.595  25.666  1.00  0.00     0.023 A 
ATOM     73  C   UNL A   1      48.029  27.844  24.297  1.00  0.00     0.031 A 
ATOM     74  C   UNL A   1      48.970  27.050  26.368  1.00  0.00     0.131 A 
ATOM     75  C   UNL A   1      49.238  27.515  23.665  1.00  0.00     0.055 A 
ATOM     76  C   UNL A   1      50.191  26.789  25.749  1.00  0.00     0.041 A 
ATOM     77  F   UNL A   1      48.882  26.820  27.689  1.00  0.00    -0.206 F 
ATOM     78  C   UNL A   1      50.326  27.011  24.384  1.00  0.00     0.022 A 
BRANCH  75  79
ATOM     79  S   UNL A   1      49.340  27.671  21.862  1.00  0.00     0.124 S 
ATOM     80  O   UNL A   1      50.285  26.610  21.528  1.00  0.00    -0.237 OA
ATOM     81  O   UNL A   1      47.956  27.450  21.456  1.00  0.00    -0.237 OA
ATOM     82  O   UNL A   1      49.837  29.031  21.667  1.00  0.00    -0.744 OA
ENDBRANCH  75  79
ENDBRANCH  48  72
BRANCH  60  83
ATOM     83  C   UNL A   1      45.445  33.203  29.086  1.00  0.00     0.023 A 
ATOM     84  C   UNL A   1      46.153  33.400  30.282  1.00  0.00     0.031 A 
ATOM     85  C   UNL A   1      45.325  34.279  28.191  1.00  0.00     0.131 A 
ATOM     86  C   UNL A   1      46.645  34.672  30.588  1.00  0.00     0.055 A 
ATOM     87  C   UNL A   1      45.907  35.515  28.455  1.00  0.00     0.041 A 
ATOM     88  F   UNL A   1      44.646  34.140  27.039  1.00  0.00    -0.206 F 
ATOM     89  C   UNL A   1      46.555  35.723  29.669  1.00  0.00     0.022 A 
BRANCH  86  90
ATOM     90  S   UNL A   1      47.260  34.972  32.263  1.00  0.00     0.124 S 
ATOM     91  O   UNL A   1      48.400  35.848  32.010  1.00  0.00    -0.237 OA
ATOM     92  O   UNL A   1      46.110  35.593  32.913  1.00  0.00    -0.237 OA
ATOM     93  O   UNL A   1      47.600  33.635  32.745  1.00  0.00    -0.744 OA
ENDBRANCH  86  90
ENDBRANCH  60  83
ENDBRANCH  34  35
ENDBRANCH  26  29
ENDBRANCH  24  25
ENDBRANCH  23  24
ENDBRANCH   1  23
TORSDOF 18
ENDMDL
