MODEL 1
REMARK VINA RESULT:     -11.1      0.000      0.000
REMARK SMILES [NH3+][C@@H](Cc1cccc(O)c1)C(=O)NCCCNC(=O)c1ccc(-c2c3nc(c(-c4cc(S(=O)(=O)[O-])ccc4F)c4ccc([nH]4)c(-c4cc(S(=O)(=O)[O-])ccc4F)c4nc(c(-c5cc(S(=O)(=O)[O-])ccc5F)c5ccc2[nH]5)C=C4)C=C3)cc1
REMARK SMILES IDX 15 1 14 2 13 3 11 4 12 5 2 7 1 8 3 12 4 13 5 14 10 15 6 16
REMARK SMILES IDX 8 17 7 18 9 19 16 21 17 22 18 23 19 25 20 26 21 27 82 28
REMARK SMILES IDX 22 29 81 30 23 31 24 32 25 33 75 34 26 35 80 36 74 37 76 38
REMARK SMILES IDX 27 39 79 40 73 41 72 42 28 44 60 45 40 46 59 47 41 48 44 49
REMARK SMILES IDX 58 50 77 51 42 52 43 53 57 55 78 56 45 57 29 58 30 59 38 60
REMARK SMILES IDX 31 61 37 62 39 63 36 64 32 65 33 66 34 67 35 68 61 69 62 70
REMARK SMILES IDX 70 71 63 72 69 73 71 74 68 75 64 76 65 77 66 78 67 79 46 80
REMARK SMILES IDX 47 81 55 82 48 83 54 84 56 85 53 86 49 87 50 88 51 89 52 90
REMARK H PARENT 13 6 1 9 1 10 1 11 9 20 17 24 76 43 44 54
REMARK Flexibility Score: inf
ROOT
ATOM      1  C   UNL A   1      42.486  18.866  27.050  1.00  0.00     0.042 C 
ENDROOT
BRANCH   1   2
ATOM      2  C   UNL A   1      43.204  18.537  25.758  1.00  0.00     0.118 C 
BRANCH   2   3
ATOM      3  N   UNL A   1      44.612  18.234  25.888  1.00  0.00    -0.351 N 
ATOM      4  C   UNL A   1      45.676  18.809  25.252  1.00  0.00     0.278 C 
ATOM      5  O   UNL A   1      46.793  18.620  25.750  1.00  0.00    -0.268 OA
ATOM      6  H   UNL A   1      44.834  17.516  26.525  1.00  0.00     0.163 HD
BRANCH   4   7
ATOM      7  C   UNL A   1      45.532  19.652  23.957  1.00  0.00     0.275 C 
BRANCH   7   8
ATOM      8  N   UNL A   1      45.101  18.824  22.810  1.00  0.00    -0.347 N 
ATOM      9  H   UNL A   1      44.784  19.429  22.053  1.00  0.00     0.345 HD
ATOM     10  H   UNL A   1      44.337  18.213  23.099  1.00  0.00     0.345 HD
ATOM     11  H   UNL A   1      45.885  18.257  22.486  1.00  0.00     0.345 HD
ENDBRANCH   7   8
BRANCH   7  12
ATOM     12  C   UNL A   1      44.861  21.040  24.115  1.00  0.00     0.111 C 
BRANCH  12  13
ATOM     13  C   UNL A   1      45.576  22.125  24.887  1.00  0.00    -0.038 A 
ATOM     14  C   UNL A   1      46.448  23.024  24.249  1.00  0.00     0.004 A 
ATOM     15  C   UNL A   1      45.330  22.289  26.259  1.00  0.00     0.050 A 
ATOM     16  C   UNL A   1      46.970  24.120  24.944  1.00  0.00     0.004 A 
ATOM     17  C   UNL A   1      45.859  23.381  26.942  1.00  0.00     0.115 A 
ATOM     18  C   UNL A   1      46.664  24.309  26.292  1.00  0.00     0.046 A 
BRANCH  17  19
ATOM     19  O   UNL A   1      45.518  23.532  28.253  1.00  0.00    -0.508 OA
ATOM     20  H   UNL A   1      45.844  24.264  28.740  1.00  0.00     0.293 HD
ENDBRANCH  17  19
ENDBRANCH  12  13
ENDBRANCH   7  12
ENDBRANCH   4   7
ENDBRANCH   2   3
ENDBRANCH   1   2
BRANCH   1  21
ATOM     21  C   UNL A   1      41.859  20.250  27.070  1.00  0.00     0.118 C 
BRANCH  21  22
ATOM     22  N   UNL A   1      40.535  20.289  26.452  1.00  0.00    -0.352 N 
ATOM     23  C   UNL A   1      39.579  21.277  26.378  1.00  0.00     0.251 C 
ATOM     24  H   UNL A   1      40.279  19.450  26.004  1.00  0.00     0.163 HD
ATOM     25  O   UNL A   1      38.459  20.983  25.973  1.00  0.00    -0.269 OA
BRANCH  23  26
ATOM     26  C   UNL A   1      39.866  22.664  26.821  1.00  0.00     0.039 A 
ATOM     27  C   UNL A   1      40.772  22.867  27.868  1.00  0.00     0.014 A 
ATOM     28  C   UNL A   1      39.255  23.766  26.227  1.00  0.00     0.014 A 
ATOM     29  C   UNL A   1      41.146  24.166  28.229  1.00  0.00     0.010 A 
ATOM     30  C   UNL A   1      39.714  25.051  26.501  1.00  0.00     0.010 A 
ATOM     31  C   UNL A   1      40.672  25.269  27.501  1.00  0.00    -0.014 A 
BRANCH  31  32
ATOM     32  C   UNL A   1      41.167  26.650  27.749  1.00  0.00     0.031 A 
ATOM     33  C   UNL A   1      42.578  27.026  27.376  1.00  0.00     0.074 A 
ATOM     34  C   UNL A   1      40.383  27.533  28.401  1.00  0.00     0.049 A 
ATOM     35  N   UNL A   1      43.242  28.121  27.641  1.00  0.00    -0.248 NA
ATOM     36  C   UNL A   1      43.356  26.016  26.641  1.00  0.00     0.031 C 
ATOM     37  C   UNL A   1      39.017  27.274  28.862  1.00  0.00     0.029 A 
ATOM     38  N   UNL A   1      40.627  28.821  28.808  1.00  0.00    -0.354 N 
ATOM     39  C   UNL A   1      44.522  27.923  27.132  1.00  0.00     0.074 A 
ATOM     40  C   UNL A   1      44.554  26.577  26.600  1.00  0.00     0.031 C 
ATOM     41  C   UNL A   1      38.536  28.375  29.461  1.00  0.00     0.029 A 
ATOM     42  C   UNL A   1      39.574  29.398  29.482  1.00  0.00     0.049 A 
ATOM     43  H   UNL A   1      41.476  29.290  28.633  1.00  0.00     0.167 HD
ATOM     44  C   UNL A   1      45.565  28.789  27.090  1.00  0.00     0.034 A 
ATOM     45  C   UNL A   1      39.464  30.606  30.071  1.00  0.00     0.034 A 
ATOM     46  C   UNL A   1      45.506  30.137  27.602  1.00  0.00     0.049 A 
ATOM     47  C   UNL A   1      40.640  31.547  30.024  1.00  0.00     0.074 A 
ATOM     48  C   UNL A   1      46.476  31.124  27.546  1.00  0.00     0.029 A 
ATOM     49  N   UNL A   1      44.419  30.688  28.268  1.00  0.00    -0.354 N 
ATOM     50  N   UNL A   1      41.825  31.360  29.493  1.00  0.00    -0.248 NA
ATOM     51  C   UNL A   1      40.459  32.862  30.652  1.00  0.00     0.031 C 
ATOM     52  C   UNL A   1      46.000  32.246  28.235  1.00  0.00     0.029 A 
ATOM     53  C   UNL A   1      44.706  31.987  28.659  1.00  0.00     0.049 A 
ATOM     54  H   UNL A   1      43.568  30.224  28.440  1.00  0.00     0.167 HD
ATOM     55  C   UNL A   1      42.525  32.546  29.705  1.00  0.00     0.074 A 
ATOM     56  C   UNL A   1      41.620  33.444  30.392  1.00  0.00     0.031 C 
ATOM     57  C   UNL A   1      43.799  32.864  29.361  1.00  0.00     0.034 A 
BRANCH  44  58
ATOM     58  C   UNL A   1      46.857  28.292  26.487  1.00  0.00     0.023 A 
ATOM     59  C   UNL A   1      47.081  28.314  25.098  1.00  0.00     0.031 A 
ATOM     60  C   UNL A   1      47.869  27.761  27.306  1.00  0.00     0.131 A 
ATOM     61  C   UNL A   1      48.244  27.739  24.566  1.00  0.00     0.055 A 
ATOM     62  C   UNL A   1      49.065  27.269  26.775  1.00  0.00     0.041 A 
ATOM     63  F   UNL A   1      47.709  27.697  28.637  1.00  0.00    -0.206 F 
ATOM     64  C   UNL A   1      49.250  27.240  25.396  1.00  0.00     0.022 A 
BRANCH  61  65
ATOM     65  S   UNL A   1      48.355  27.518  22.769  1.00  0.00     0.124 S 
ATOM     66  O   UNL A   1      49.608  28.206  22.465  1.00  0.00    -0.237 OA
ATOM     67  O   UNL A   1      48.373  26.066  22.630  1.00  0.00    -0.237 OA
ATOM     68  O   UNL A   1      47.153  28.180  22.267  1.00  0.00    -0.744 OA
ENDBRANCH  61  65
ENDBRANCH  44  58
BRANCH  45  69
ATOM     69  C   UNL A   1      38.205  30.994  30.770  1.00  0.00     0.023 A 
ATOM     70  C   UNL A   1      37.193  31.696  30.096  1.00  0.00     0.031 A 
ATOM     71  C   UNL A   1      38.012  30.703  32.132  1.00  0.00     0.131 A 
ATOM     72  C   UNL A   1      36.054  32.123  30.795  1.00  0.00     0.055 A 
ATOM     73  C   UNL A   1      36.853  31.086  32.810  1.00  0.00     0.041 A 
ATOM     74  F   UNL A   1      38.944  30.027  32.822  1.00  0.00    -0.206 F 
ATOM     75  C   UNL A   1      35.870  31.812  32.145  1.00  0.00     0.022 A 
BRANCH  72  76
ATOM     76  S   UNL A   1      34.845  33.163  29.931  1.00  0.00     0.124 S 
ATOM     77  O   UNL A   1      35.709  34.124  29.254  1.00  0.00    -0.237 OA
ATOM     78  O   UNL A   1      34.168  32.193  29.076  1.00  0.00    -0.237 OA
ATOM     79  O   UNL A   1      34.030  33.710  31.015  1.00  0.00    -0.744 OA
ENDBRANCH  72  76
ENDBRANCH  45  69
BRANCH  57  80
ATOM     80  C   UNL A   1      44.269  34.256  29.701  1.00  0.00     0.023 A 
ATOM     81  C   UNL A   1      44.026  35.345  28.846  1.00  0.00     0.031 A 
ATOM     82  C   UNL A   1      44.984  34.493  30.888  1.00  0.00     0.131 A 
ATOM     83  C   UNL A   1      44.542  36.610  29.163  1.00  0.00     0.055 A 
ATOM     84  C   UNL A   1      45.442  35.766  31.228  1.00  0.00     0.041 A 
ATOM     85  F   UNL A   1      45.247  33.488  31.739  1.00  0.00    -0.206 F 
ATOM     86  C   UNL A   1      45.234  36.831  30.356  1.00  0.00     0.022 A 
BRANCH  83  87
ATOM     87  S   UNL A   1      44.374  37.947  27.949  1.00  0.00     0.124 S 
ATOM     88  O   UNL A   1      43.544  37.323  26.924  1.00  0.00    -0.237 OA
ATOM     89  O   UNL A   1      43.736  39.001  28.731  1.00  0.00    -0.237 OA
ATOM     90  O   UNL A   1      45.752  38.222  27.548  1.00  0.00    -0.744 OA
ENDBRANCH  83  87
ENDBRANCH  57  80
ENDBRANCH  31  32
ENDBRANCH  23  26
ENDBRANCH  21  22
ENDBRANCH   1  21
TORSDOF 17
ENDMDL
MODEL 2
REMARK VINA RESULT:     -11.1      3.144      9.641
REMARK SMILES [NH3+][C@@H](Cc1cccc(O)c1)C(=O)NCCCNC(=O)c1ccc(-c2c3nc(c(-c4cc(S(=O)(=O)[O-])ccc4F)c4ccc([nH]4)c(-c4cc(S(=O)(=O)[O-])ccc4F)c4nc(c(-c5cc(S(=O)(=O)[O-])ccc5F)c5ccc2[nH]5)C=C4)C=C3)cc1
REMARK SMILES IDX 15 1 14 2 13 3 11 4 12 5 2 7 1 8 3 12 4 13 5 14 10 15 6 16
REMARK SMILES IDX 8 17 7 18 9 19 16 21 17 22 18 23 19 25 20 26 21 27 82 28
REMARK SMILES IDX 22 29 81 30 23 31 24 32 25 33 75 34 26 35 80 36 74 37 76 38
REMARK SMILES IDX 27 39 79 40 73 41 72 42 28 44 60 45 40 46 59 47 41 48 44 49
REMARK SMILES IDX 58 50 77 51 42 52 43 53 57 55 78 56 45 57 29 58 30 59 38 60
REMARK SMILES IDX 31 61 37 62 39 63 36 64 32 65 33 66 34 67 35 68 61 69 62 70
REMARK SMILES IDX 70 71 63 72 69 73 71 74 68 75 64 76 65 77 66 78 67 79 46 80
REMARK SMILES IDX 47 81 55 82 48 83 54 84 56 85 53 86 49 87 50 88 51 89 52 90
REMARK H PARENT 13 6 1 9 1 10 1 11 9 20 17 24 76 43 44 54
REMARK Flexibility Score: inf
ROOT
ATOM      1  C   UNL A   1      36.945  21.775  24.004  1.00  0.00     0.042 C 
ENDROOT
BRANCH   1   2
ATOM      2  C   UNL A   1      36.253  23.106  23.800  1.00  0.00     0.118 C 
BRANCH   2   3
ATOM      3  N   UNL A   1      34.994  23.050  23.091  1.00  0.00    -0.351 N 
ATOM      4  C   UNL A   1      33.734  22.872  23.592  1.00  0.00     0.278 C 
ATOM      5  O   UNL A   1      32.791  23.180  22.852  1.00  0.00    -0.268 OA
ATOM      6  H   UNL A   1      35.052  23.157  22.114  1.00  0.00     0.163 HD
BRANCH   4   7
ATOM      7  C   UNL A   1      33.461  22.301  25.008  1.00  0.00     0.275 C 
BRANCH   7   8
ATOM      8  N   UNL A   1      33.177  23.374  25.986  1.00  0.00    -0.347 N 
ATOM      9  H   UNL A   1      33.765  24.183  25.783  1.00  0.00     0.345 HD
ATOM     10  H   UNL A   1      33.376  23.037  26.928  1.00  0.00     0.345 HD
ATOM     11  H   UNL A   1      32.195  23.642  25.921  1.00  0.00     0.345 HD
ENDBRANCH   7   8
BRANCH   7  12
ATOM     12  C   UNL A   1      32.571  21.033  25.075  1.00  0.00     0.111 C 
BRANCH  12  13
ATOM     13  C   UNL A   1      33.009  19.782  24.351  1.00  0.00    -0.038 A 
ATOM     14  C   UNL A   1      34.127  19.044  24.775  1.00  0.00     0.004 A 
ATOM     15  C   UNL A   1      32.259  19.300  23.267  1.00  0.00     0.050 A 
ATOM     16  C   UNL A   1      34.420  17.804  24.197  1.00  0.00     0.004 A 
ATOM     17  C   UNL A   1      32.562  18.065  22.697  1.00  0.00     0.115 A 
ATOM     18  C   UNL A   1      33.626  17.303  23.164  1.00  0.00     0.046 A 
BRANCH  17  19
ATOM     19  O   UNL A   1      31.748  17.612  21.702  1.00  0.00    -0.508 OA
ATOM     20  H   UNL A   1      30.818  17.695  21.783  1.00  0.00     0.293 HD
ENDBRANCH  17  19
ENDBRANCH  12  13
ENDBRANCH   7  12
ENDBRANCH   4   7
ENDBRANCH   2   3
ENDBRANCH   1   2
BRANCH   1  21
ATOM     21  C   UNL A   1      37.072  21.365  25.461  1.00  0.00     0.118 C 
BRANCH  21  22
ATOM     22  N   UNL A   1      38.170  20.431  25.702  1.00  0.00    -0.352 N 
ATOM     23  C   UNL A   1      39.457  20.616  26.153  1.00  0.00     0.251 C 
ATOM     24  H   UNL A   1      37.946  19.492  25.505  1.00  0.00     0.163 HD
ATOM     25  O   UNL A   1      40.249  19.682  26.071  1.00  0.00    -0.269 OA
BRANCH  23  26
ATOM     26  C   UNL A   1      39.909  21.925  26.684  1.00  0.00     0.039 A 
ATOM     27  C   UNL A   1      40.879  21.949  27.693  1.00  0.00     0.014 A 
ATOM     28  C   UNL A   1      39.391  23.129  26.210  1.00  0.00     0.014 A 
ATOM     29  C   UNL A   1      41.403  23.170  28.132  1.00  0.00     0.010 A 
ATOM     30  C   UNL A   1      39.995  24.333  26.557  1.00  0.00     0.010 A 
ATOM     31  C   UNL A   1      41.015  24.371  27.517  1.00  0.00    -0.014 A 
BRANCH  31  32
ATOM     32  C   UNL A   1      41.664  25.670  27.842  1.00  0.00     0.031 A 
ATOM     33  C   UNL A   1      40.901  26.731  28.592  1.00  0.00     0.074 A 
ATOM     34  C   UNL A   1      42.901  25.933  27.374  1.00  0.00     0.049 A 
ATOM     35  N   UNL A   1      41.231  27.972  28.840  1.00  0.00    -0.248 NA
ATOM     36  C   UNL A   1      39.570  26.353  29.094  1.00  0.00     0.031 C 
ATOM     37  C   UNL A   1      43.725  25.009  26.590  1.00  0.00     0.029 A 
ATOM     38  N   UNL A   1      43.678  27.062  27.470  1.00  0.00    -0.354 N 
ATOM     39  C   UNL A   1      40.141  28.531  29.500  1.00  0.00     0.074 A 
ATOM     40  C   UNL A   1      39.118  27.508  29.555  1.00  0.00     0.031 C 
ATOM     41  C   UNL A   1      44.897  25.596  26.302  1.00  0.00     0.029 A 
ATOM     42  C   UNL A   1      44.890  26.957  26.827  1.00  0.00     0.049 A 
ATOM     43  H   UNL A   1      43.394  27.871  27.955  1.00  0.00     0.167 HD
ATOM     44  C   UNL A   1      40.014  29.772  30.032  1.00  0.00     0.034 A 
ATOM     45  C   UNL A   1      45.877  27.860  26.659  1.00  0.00     0.034 A 
ATOM     46  C   UNL A   1      41.055  30.771  29.991  1.00  0.00     0.049 A 
ATOM     47  C   UNL A   1      45.708  29.237  27.246  1.00  0.00     0.074 A 
ATOM     48  C   UNL A   1      41.063  32.033  30.561  1.00  0.00     0.029 A 
ATOM     49  N   UNL A   1      42.273  30.623  29.339  1.00  0.00    -0.354 N 
ATOM     50  N   UNL A   1      44.691  29.731  27.912  1.00  0.00    -0.248 NA
ATOM     51  C   UNL A   1      46.823  30.175  27.063  1.00  0.00     0.031 C 
ATOM     52  C   UNL A   1      42.255  32.670  30.198  1.00  0.00     0.029 A 
ATOM     53  C   UNL A   1      43.024  31.782  29.464  1.00  0.00     0.049 A 
ATOM     54  H   UNL A   1      42.561  29.814  28.858  1.00  0.00     0.167 HD
ATOM     55  C   UNL A   1      45.054  31.034  28.246  1.00  0.00     0.074 A 
ATOM     56  C   UNL A   1      46.391  31.237  27.726  1.00  0.00     0.031 C 
ATOM     57  C   UNL A   1      44.349  31.976  28.922  1.00  0.00     0.034 A 
BRANCH  44  58
ATOM     58  C   UNL A   1      38.696  30.117  30.684  1.00  0.00     0.023 A 
ATOM     59  C   UNL A   1      37.682  30.797  29.985  1.00  0.00     0.031 A 
ATOM     60  C   UNL A   1      38.458  29.790  32.031  1.00  0.00     0.131 A 
ATOM     61  C   UNL A   1      36.518  31.202  30.655  1.00  0.00     0.055 A 
ATOM     62  C   UNL A   1      37.260  30.121  32.669  1.00  0.00     0.041 A 
ATOM     63  F   UNL A   1      39.393  29.158  32.756  1.00  0.00    -0.206 F 
ATOM     64  C   UNL A   1      36.288  30.846  31.986  1.00  0.00     0.022 A 
BRANCH  61  65
ATOM     65  S   UNL A   1      35.379  32.329  29.805  1.00  0.00     0.124 S 
ATOM     66  O   UNL A   1      36.261  33.446  29.477  1.00  0.00    -0.237 OA
ATOM     67  O   UNL A   1      34.922  31.523  28.678  1.00  0.00    -0.237 OA
ATOM     68  O   UNL A   1      34.366  32.621  30.816  1.00  0.00    -0.744 OA
ENDBRANCH  61  65
ENDBRANCH  44  58
BRANCH  45  69
ATOM     69  C   UNL A   1      47.104  27.505  25.890  1.00  0.00     0.023 A 
ATOM     70  C   UNL A   1      47.209  27.801  24.522  1.00  0.00     0.031 A 
ATOM     71  C   UNL A   1      48.176  26.831  26.503  1.00  0.00     0.131 A 
ATOM     72  C   UNL A   1      48.339  27.386  23.801  1.00  0.00     0.055 A 
ATOM     73  C   UNL A   1      49.320  26.465  25.792  1.00  0.00     0.041 A 
ATOM     74  F   UNL A   1      48.131  26.531  27.811  1.00  0.00    -0.206 F 
ATOM     75  C   UNL A   1      49.401  26.730  24.429  1.00  0.00     0.022 A 
BRANCH  72  76
ATOM     76  S   UNL A   1      48.366  27.645  22.006  1.00  0.00     0.124 S 
ATOM     77  O   UNL A   1      49.493  28.558  21.854  1.00  0.00    -0.237 OA
ATOM     78  O   UNL A   1      48.567  26.287  21.508  1.00  0.00    -0.237 OA
ATOM     79  O   UNL A   1      47.052  28.221  21.725  1.00  0.00    -0.744 OA
ENDBRANCH  72  76
ENDBRANCH  45  69
BRANCH  57  80
ATOM     80  C   UNL A   1      45.033  33.299  29.160  1.00  0.00     0.023 A 
ATOM     81  C   UNL A   1      44.836  34.395  28.301  1.00  0.00     0.031 A 
ATOM     82  C   UNL A   1      45.907  33.459  30.249  1.00  0.00     0.131 A 
ATOM     83  C   UNL A   1      45.546  35.585  28.515  1.00  0.00     0.055 A 
ATOM     84  C   UNL A   1      46.565  34.666  30.492  1.00  0.00     0.041 A 
ATOM     85  F   UNL A   1      46.134  32.444  31.098  1.00  0.00    -0.206 F 
ATOM     86  C   UNL A   1      46.396  35.733  29.614  1.00  0.00     0.022 A 
BRANCH  83  87
ATOM     87  S   UNL A   1      45.413  36.911  27.284  1.00  0.00     0.124 S 
ATOM     88  O   UNL A   1      46.327  36.450  26.244  1.00  0.00    -0.237 OA
ATOM     89  O   UNL A   1      43.994  36.881  26.945  1.00  0.00    -0.237 OA
ATOM     90  O   UNL A   1      45.851  38.100  28.012  1.00  0.00    -0.744 OA
ENDBRANCH  83  87
ENDBRANCH  57  80
ENDBRANCH  31  32
ENDBRANCH  23  26
ENDBRANCH  21  22
ENDBRANCH   1  21
TORSDOF 17
ENDMDL
MODEL 3
REMARK VINA RESULT:     -10.9      6.516     10.672
REMARK SMILES [NH3+][C@@H](Cc1cccc(O)c1)C(=O)NCCCNC(=O)c1ccc(-c2c3nc(c(-c4cc(S(=O)(=O)[O-])ccc4F)c4ccc([nH]4)c(-c4cc(S(=O)(=O)[O-])ccc4F)c4nc(c(-c5cc(S(=O)(=O)[O-])ccc5F)c5ccc2[nH]5)C=C4)C=C3)cc1
REMARK SMILES IDX 15 1 14 2 13 3 11 4 12 5 2 7 1 8 3 12 4 13 5 14 10 15 6 16
REMARK SMILES IDX 8 17 7 18 9 19 16 21 17 22 18 23 19 25 20 26 21 27 82 28
REMARK SMILES IDX 22 29 81 30 23 31 24 32 25 33 75 34 26 35 80 36 74 37 76 38
REMARK SMILES IDX 27 39 79 40 73 41 72 42 28 44 60 45 40 46 59 47 41 48 44 49
REMARK SMILES IDX 58 50 77 51 42 52 43 53 57 55 78 56 45 57 29 58 30 59 38 60
REMARK SMILES IDX 31 61 37 62 39 63 36 64 32 65 33 66 34 67 35 68 61 69 62 70
REMARK SMILES IDX 70 71 63 72 69 73 71 74 68 75 64 76 65 77 66 78 67 79 46 80
REMARK SMILES IDX 47 81 55 82 48 83 54 84 56 85 53 86 49 87 50 88 51 89 52 90
REMARK H PARENT 13 6 1 9 1 10 1 11 9 20 17 24 76 43 44 54
REMARK Flexibility Score: inf
ROOT
ATOM      1  C   UNL A   1      32.670  29.597  25.600  1.00  0.00     0.042 C 
ENDROOT
BRANCH   1   2
ATOM      2  C   UNL A   1      31.839  28.496  24.974  1.00  0.00     0.118 C 
BRANCH   2   3
ATOM      3  N   UNL A   1      31.314  27.513  25.896  1.00  0.00    -0.351 N 
ATOM      4  C   UNL A   1      30.678  26.334  25.623  1.00  0.00     0.278 C 
ATOM      5  O   UNL A   1      30.608  25.512  26.545  1.00  0.00    -0.268 OA
ATOM      6  H   UNL A   1      31.432  27.722  26.851  1.00  0.00     0.163 HD
BRANCH   4   7
ATOM      7  C   UNL A   1      30.049  26.013  24.242  1.00  0.00     0.275 C 
BRANCH   7   8
ATOM      8  N   UNL A   1      30.190  24.581  23.896  1.00  0.00    -0.347 N 
ATOM      9  H   UNL A   1      30.238  24.479  22.883  1.00  0.00     0.345 HD
ATOM     10  H   UNL A   1      29.385  24.065  24.252  1.00  0.00     0.345 HD
ATOM     11  H   UNL A   1      31.043  24.212  24.316  1.00  0.00     0.345 HD
ENDBRANCH   7   8
BRANCH   7  12
ATOM     12  C   UNL A   1      28.683  26.680  23.939  1.00  0.00     0.111 C 
BRANCH  12  13
ATOM     13  C   UNL A   1      28.649  27.988  23.184  1.00  0.00    -0.038 A 
ATOM     14  C   UNL A   1      27.488  28.779  23.140  1.00  0.00     0.004 A 
ATOM     15  C   UNL A   1      29.811  28.466  22.558  1.00  0.00     0.050 A 
ATOM     16  C   UNL A   1      27.523  30.060  22.578  1.00  0.00     0.004 A 
ATOM     17  C   UNL A   1      29.833  29.742  21.998  1.00  0.00     0.115 A 
ATOM     18  C   UNL A   1      28.703  30.551  22.019  1.00  0.00     0.046 A 
BRANCH  17  19
ATOM     19  O   UNL A   1      31.012  30.183  21.477  1.00  0.00    -0.508 OA
ATOM     20  H   UNL A   1      31.802  30.108  21.977  1.00  0.00     0.293 HD
ENDBRANCH  17  19
ENDBRANCH  12  13
ENDBRANCH   7  12
ENDBRANCH   4   7
ENDBRANCH   2   3
ENDBRANCH   1   2
BRANCH   1  21
ATOM     21  C   UNL A   1      32.071  30.171  26.872  1.00  0.00     0.118 C 
BRANCH  21  22
ATOM     22  N   UNL A   1      32.123  31.631  26.924  1.00  0.00    -0.352 N 
ATOM     23  C   UNL A   1      33.057  32.504  27.432  1.00  0.00     0.251 C 
ATOM     24  H   UNL A   1      31.342  32.072  26.517  1.00  0.00     0.163 HD
ATOM     25  O   UNL A   1      32.761  33.691  27.530  1.00  0.00    -0.269 OA
BRANCH  23  26
ATOM     26  C   UNL A   1      34.383  32.031  27.902  1.00  0.00     0.039 A 
ATOM     27  C   UNL A   1      35.430  32.951  28.014  1.00  0.00     0.014 A 
ATOM     28  C   UNL A   1      34.612  30.696  28.229  1.00  0.00     0.014 A 
ATOM     29  C   UNL A   1      36.657  32.555  28.560  1.00  0.00     0.010 A 
ATOM     30  C   UNL A   1      35.785  30.329  28.881  1.00  0.00     0.010 A 
ATOM     31  C   UNL A   1      36.821  31.255  29.064  1.00  0.00    -0.014 A 
BRANCH  31  32
ATOM     32  C   UNL A   1      38.049  30.841  29.795  1.00  0.00     0.031 A 
ATOM     33  C   UNL A   1      39.008  29.861  29.171  1.00  0.00     0.074 A 
ATOM     34  C   UNL A   1      38.248  31.267  31.060  1.00  0.00     0.049 A 
ATOM     35  N   UNL A   1      40.046  29.265  29.698  1.00  0.00    -0.248 NA
ATOM     36  C   UNL A   1      38.735  29.469  27.779  1.00  0.00     0.031 C 
ATOM     37  C   UNL A   1      37.365  32.177  31.796  1.00  0.00     0.029 A 
ATOM     38  N   UNL A   1      39.244  30.979  31.959  1.00  0.00    -0.354 N 
ATOM     39  C   UNL A   1      40.534  28.409  28.715  1.00  0.00     0.074 A 
ATOM     40  C   UNL A   1      39.637  28.520  27.585  1.00  0.00     0.031 C 
ATOM     41  C   UNL A   1      37.874  32.392  33.019  1.00  0.00     0.029 A 
ATOM     42  C   UNL A   1      39.083  31.594  33.180  1.00  0.00     0.049 A 
ATOM     43  H   UNL A   1      40.003  30.387  31.750  1.00  0.00     0.167 HD
ATOM     44  C   UNL A   1      41.639  27.624  28.743  1.00  0.00     0.034 A 
ATOM     45  C   UNL A   1      39.814  31.508  34.310  1.00  0.00     0.034 A 
ATOM     46  C   UNL A   1      42.537  27.546  29.870  1.00  0.00     0.049 A 
ATOM     47  C   UNL A   1      41.029  30.618  34.323  1.00  0.00     0.074 A 
ATOM     48  C   UNL A   1      43.724  26.842  29.980  1.00  0.00     0.029 A 
ATOM     49  N   UNL A   1      42.346  28.192  31.085  1.00  0.00    -0.354 N 
ATOM     50  N   UNL A   1      41.504  29.855  33.366  1.00  0.00    -0.248 NA
ATOM     51  C   UNL A   1      41.809  30.582  35.567  1.00  0.00     0.031 C 
ATOM     52  C   UNL A   1      44.214  27.009  31.281  1.00  0.00     0.029 A 
ATOM     53  C   UNL A   1      43.373  27.875  31.961  1.00  0.00     0.049 A 
ATOM     54  H   UNL A   1      41.590  28.787  31.295  1.00  0.00     0.167 HD
ATOM     55  C   UNL A   1      42.653  29.265  33.888  1.00  0.00     0.074 A 
ATOM     56  C   UNL A   1      42.807  29.779  35.234  1.00  0.00     0.031 C 
ATOM     57  C   UNL A   1      43.503  28.380  33.307  1.00  0.00     0.034 A 
BRANCH  44  58
ATOM     58  C   UNL A   1      41.920  26.775  27.525  1.00  0.00     0.023 A 
ATOM     59  C   UNL A   1      41.538  25.423  27.463  1.00  0.00     0.031 A 
ATOM     60  C   UNL A   1      42.604  27.316  26.422  1.00  0.00     0.131 A 
ATOM     61  C   UNL A   1      41.917  24.637  26.365  1.00  0.00     0.055 A 
ATOM     62  C   UNL A   1      42.903  26.548  25.292  1.00  0.00     0.041 A 
ATOM     63  F   UNL A   1      43.010  28.594  26.428  1.00  0.00    -0.206 F 
ATOM     64  C   UNL A   1      42.574  25.196  25.267  1.00  0.00     0.022 A 
BRANCH  61  65
ATOM     65  S   UNL A   1      41.670  22.842  26.461  1.00  0.00     0.124 S 
ATOM     66  O   UNL A   1      42.369  22.386  25.261  1.00  0.00    -0.237 OA
ATOM     67  O   UNL A   1      42.298  22.506  27.734  1.00  0.00    -0.237 OA
ATOM     68  O   UNL A   1      40.218  22.693  26.421  1.00  0.00    -0.744 OA
ENDBRANCH  61  65
ENDBRANCH  44  58
BRANCH  45  69
ATOM     69  C   UNL A   1      39.414  32.268  35.529  1.00  0.00     0.023 A 
ATOM     70  C   UNL A   1      38.657  31.659  36.542  1.00  0.00     0.031 A 
ATOM     71  C   UNL A   1      39.750  33.625  35.682  1.00  0.00     0.131 A 
ATOM     72  C   UNL A   1      38.222  32.416  37.641  1.00  0.00     0.055 A 
ATOM     73  C   UNL A   1      39.358  34.360  36.802  1.00  0.00     0.041 A 
ATOM     74  F   UNL A   1      40.479  34.254  34.747  1.00  0.00    -0.206 F 
ATOM     75  C   UNL A   1      38.579  33.759  37.785  1.00  0.00     0.022 A 
BRANCH  72  76
ATOM     76  S   UNL A   1      37.114  31.637  38.847  1.00  0.00     0.124 S 
ATOM     77  O   UNL A   1      35.947  32.510  38.786  1.00  0.00    -0.237 OA
ATOM     78  O   UNL A   1      36.947  30.300  38.285  1.00  0.00    -0.237 OA
ATOM     79  O   UNL A   1      37.874  31.695  40.095  1.00  0.00    -0.744 OA
ENDBRANCH  72  76
ENDBRANCH  45  69
BRANCH  57  80
ATOM     80  C   UNL A   1      44.693  27.943  34.124  1.00  0.00     0.023 A 
ATOM     81  C   UNL A   1      44.664  26.768  34.897  1.00  0.00     0.031 A 
ATOM     82  C   UNL A   1      45.863  28.721  34.145  1.00  0.00     0.131 A 
ATOM     83  C   UNL A   1      45.764  26.434  35.700  1.00  0.00     0.055 A 
ATOM     84  C   UNL A   1      46.978  28.351  34.899  1.00  0.00     0.041 A 
ATOM     85  F   UNL A   1      45.943  29.854  33.429  1.00  0.00    -0.206 F 
ATOM     86  C   UNL A   1      46.927  27.208  35.693  1.00  0.00     0.022 A 
BRANCH  83  87
ATOM     87  S   UNL A   1      45.622  25.019  36.825  1.00  0.00     0.124 S 
ATOM     88  O   UNL A   1      45.887  25.635  38.121  1.00  0.00    -0.237 OA
ATOM     89  O   UNL A   1      44.250  24.576  36.599  1.00  0.00    -0.237 OA
ATOM     90  O   UNL A   1      46.656  24.100  36.352  1.00  0.00    -0.744 OA
ENDBRANCH  83  87
ENDBRANCH  57  80
ENDBRANCH  31  32
ENDBRANCH  23  26
ENDBRANCH  21  22
ENDBRANCH   1  21
TORSDOF 17
ENDMDL
