MODEL 1
REMARK VINA RESULT:     -10.5      0.000      0.000
REMARK SMILES CC(C)CC[C@@H](C)[C@@](C)(O)C(=O)NCCCNC(=O)c1ccc(-c2c3nc(c(-c4cc(S(=O)(=O)[O-])ccc4F)c4ccc([nH]4)c(-c4cc(S(=O)(=O)[O-])ccc4F)c4nc(c(-c5cc(S(=O)(=O)[O-])ccc5F)c5ccc2[nH]5)C=C4)C=C3)cc1
REMARK SMILES IDX 14 1 13 2 11 3 12 4 8 6 9 7 6 8 7 9 5 10 4 11 2 12 1 13 3 14
REMARK SMILES IDX 10 15 15 17 16 18 17 19 18 20 19 22 20 23 21 24 82 25 22 26
REMARK SMILES IDX 81 27 23 28 24 29 25 30 75 31 26 32 80 33 74 34 76 35 27 36
REMARK SMILES IDX 79 37 73 38 72 39 28 41 60 42 40 43 59 44 41 45 44 46 58 47
REMARK SMILES IDX 77 48 42 49 43 50 57 52 78 53 45 54 29 55 30 56 38 57 31 58
REMARK SMILES IDX 37 59 39 60 36 61 32 62 33 63 34 64 35 65 61 66 62 67 70 68
REMARK SMILES IDX 63 69 69 70 71 71 68 72 64 73 65 74 66 75 67 76 46 77 47 78
REMARK SMILES IDX 55 79 48 80 54 81 56 82 53 83 49 84 50 85 51 86 52 87
REMARK H PARENT 13 5 10 16 17 21 76 40 44 51
REMARK Flexibility Score: inf
ROOT
ATOM      1  C   UNL A   1      34.675  23.096  25.277  1.00  0.00     0.117 C 
ENDROOT
BRANCH   1   2
ATOM      2  N   UNL A   1      33.831  23.109  26.456  1.00  0.00    -0.354 N 
ATOM      3  C   UNL A   1      32.510  22.806  26.603  1.00  0.00     0.251 C 
ATOM      4  O   UNL A   1      32.028  23.001  27.722  1.00  0.00    -0.272 OA
ATOM      5  H   UNL A   1      34.287  23.382  27.286  1.00  0.00     0.163 HD
BRANCH   3   6
ATOM      6  C   UNL A   1      31.699  22.186  25.424  1.00  0.00     0.142 C 
ATOM      7  C   UNL A   1      31.144  23.314  24.536  1.00  0.00     0.053 C 
BRANCH   6   8
ATOM      8  C   UNL A   1      32.552  21.198  24.551  1.00  0.00     0.027 C 
ATOM      9  C   UNL A   1      32.234  21.306  23.051  1.00  0.00     0.011 C 
BRANCH   8  10
ATOM     10  C   UNL A   1      32.502  19.727  25.033  1.00  0.00     0.007 C 
BRANCH  10  11
ATOM     11  C   UNL A   1      32.423  18.669  23.924  1.00  0.00     0.003 C 
BRANCH  11  12
ATOM     12  C   UNL A   1      33.385  17.477  24.075  1.00  0.00    -0.017 C 
ATOM     13  C   UNL A   1      34.820  17.918  24.373  1.00  0.00     0.007 C 
ATOM     14  C   UNL A   1      32.884  16.549  25.182  1.00  0.00     0.007 C 
ENDBRANCH  11  12
ENDBRANCH  10  11
ENDBRANCH   8  10
ENDBRANCH   6   8
BRANCH   6  15
ATOM     15  O   UNL A   1      30.574  21.456  25.939  1.00  0.00    -0.380 OA
ATOM     16  H   UNL A   1      30.689  20.511  25.753  1.00  0.00     0.212 HD
ENDBRANCH   6  15
ENDBRANCH   3   6
ENDBRANCH   1   2
BRANCH   1  17
ATOM     17  C   UNL A   1      35.753  22.027  25.350  1.00  0.00     0.042 C 
BRANCH  17  18
ATOM     18  C   UNL A   1      37.167  22.578  25.459  1.00  0.00     0.118 C 
BRANCH  18  19
ATOM     19  N   UNL A   1      38.130  21.576  25.896  1.00  0.00    -0.352 N 
ATOM     20  C   UNL A   1      39.387  21.726  26.421  1.00  0.00     0.251 C 
ATOM     21  H   UNL A   1      37.829  20.644  25.801  1.00  0.00     0.163 HD
ATOM     22  O   UNL A   1      40.114  20.734  26.523  1.00  0.00    -0.269 OA
BRANCH  20  23
ATOM     23  C   UNL A   1      39.878  23.056  26.839  1.00  0.00     0.039 A 
ATOM     24  C   UNL A   1      40.755  23.143  27.923  1.00  0.00     0.014 A 
ATOM     25  C   UNL A   1      39.455  24.219  26.191  1.00  0.00     0.014 A 
ATOM     26  C   UNL A   1      41.243  24.391  28.320  1.00  0.00     0.010 A 
ATOM     27  C   UNL A   1      40.025  25.445  26.517  1.00  0.00     0.010 A 
ATOM     28  C   UNL A   1      40.904  25.549  27.604  1.00  0.00    -0.014 A 
BRANCH  28  29
ATOM     29  C   UNL A   1      41.410  26.886  28.014  1.00  0.00     0.031 A 
ATOM     30  C   UNL A   1      42.833  27.274  27.704  1.00  0.00     0.074 A 
ATOM     31  C   UNL A   1      40.608  27.729  28.693  1.00  0.00     0.049 A 
ATOM     32  N   UNL A   1      43.481  28.367  28.016  1.00  0.00    -0.248 NA
ATOM     33  C   UNL A   1      43.644  26.285  26.977  1.00  0.00     0.031 C 
ATOM     34  C   UNL A   1      39.226  27.448  29.088  1.00  0.00     0.029 A 
ATOM     35  N   UNL A   1      40.837  28.994  29.173  1.00  0.00    -0.354 N 
ATOM     36  C   UNL A   1      44.775  28.189  27.538  1.00  0.00     0.074 A 
ATOM     37  C   UNL A   1      44.839  26.853  26.986  1.00  0.00     0.031 C 
ATOM     38  C   UNL A   1      38.721  28.522  29.715  1.00  0.00     0.029 A 
ATOM     39  C   UNL A   1      39.752  29.550  29.811  1.00  0.00     0.049 A 
ATOM     40  H   UNL A   1      41.698  29.461  29.070  1.00  0.00     0.167 HD
ATOM     41  C   UNL A   1      45.808  29.069  27.528  1.00  0.00     0.034 A 
ATOM     42  C   UNL A   1      39.609  30.749  30.409  1.00  0.00     0.034 A 
ATOM     43  C   UNL A   1      45.720  30.403  28.068  1.00  0.00     0.049 A 
ATOM     44  C   UNL A   1      40.774  31.707  30.403  1.00  0.00     0.074 A 
ATOM     45  C   UNL A   1      46.684  31.396  28.075  1.00  0.00     0.029 A 
ATOM     46  N   UNL A   1      44.603  30.933  28.703  1.00  0.00    -0.354 N 
ATOM     47  N   UNL A   1      41.978  31.542  29.902  1.00  0.00    -0.248 NA
ATOM     48  C   UNL A   1      40.557  33.018  31.026  1.00  0.00     0.031 C 
ATOM     49  C   UNL A   1      46.177  32.496  28.774  1.00  0.00     0.029 A 
ATOM     50  C   UNL A   1      44.864  32.227  29.128  1.00  0.00     0.049 A 
ATOM     51  H   UNL A   1      43.751  30.459  28.833  1.00  0.00     0.167 HD
ATOM     52  C   UNL A   1      42.645  32.746  30.115  1.00  0.00     0.074 A 
ATOM     53  C   UNL A   1      41.706  33.628  30.776  1.00  0.00     0.031 C 
ATOM     54  C   UNL A   1      43.917  33.094  29.789  1.00  0.00     0.034 A 
BRANCH  41  55
ATOM     55  C   UNL A   1      47.117  28.599  26.936  1.00  0.00     0.023 A 
ATOM     56  C   UNL A   1      47.286  28.437  25.549  1.00  0.00     0.031 A 
ATOM     57  C   UNL A   1      48.201  28.274  27.769  1.00  0.00     0.131 A 
ATOM     58  C   UNL A   1      48.473  27.886  25.045  1.00  0.00     0.055 A 
ATOM     59  C   UNL A   1      49.414  27.812  27.254  1.00  0.00     0.041 A 
ATOM     60  F   UNL A   1      48.097  28.385  29.103  1.00  0.00    -0.206 F 
ATOM     61  C   UNL A   1      49.550  27.598  25.886  1.00  0.00     0.022 A 
BRANCH  58  62
ATOM     62  S   UNL A   1      48.530  27.402  23.298  1.00  0.00     0.124 S 
ATOM     63  O   UNL A   1      47.355  28.087  22.764  1.00  0.00    -0.237 OA
ATOM     64  O   UNL A   1      49.823  27.921  22.868  1.00  0.00    -0.237 OA
ATOM     65  O   UNL A   1      48.424  25.944  23.342  1.00  0.00    -0.744 OA
ENDBRANCH  58  62
ENDBRANCH  41  55
BRANCH  42  66
ATOM     66  C   UNL A   1      38.319  31.122  31.062  1.00  0.00     0.023 A 
ATOM     67  C   UNL A   1      37.291  31.741  30.333  1.00  0.00     0.031 A 
ATOM     68  C   UNL A   1      38.114  30.907  32.437  1.00  0.00     0.131 A 
ATOM     69  C   UNL A   1      36.128  32.173  30.991  1.00  0.00     0.055 A 
ATOM     70  C   UNL A   1      36.931  31.285  33.075  1.00  0.00     0.041 A 
ATOM     71  F   UNL A   1      39.062  30.315  33.181  1.00  0.00    -0.206 F 
ATOM     72  C   UNL A   1      35.936  31.937  32.354  1.00  0.00     0.022 A 
BRANCH  69  73
ATOM     73  S   UNL A   1      34.909  33.139  30.057  1.00  0.00     0.124 S 
ATOM     74  O   UNL A   1      35.748  34.161  29.443  1.00  0.00    -0.237 OA
ATOM     75  O   UNL A   1      34.356  32.134  29.154  1.00  0.00    -0.237 OA
ATOM     76  O   UNL A   1      33.992  33.618  31.089  1.00  0.00    -0.744 OA
ENDBRANCH  69  73
ENDBRANCH  42  66
BRANCH  54  77
ATOM     77  C   UNL A   1      44.340  34.512  30.089  1.00  0.00     0.023 A 
ATOM     78  C   UNL A   1      44.122  35.563  29.181  1.00  0.00     0.031 A 
ATOM     79  C   UNL A   1      44.988  34.811  31.301  1.00  0.00     0.131 A 
ATOM     80  C   UNL A   1      44.605  36.848  29.471  1.00  0.00     0.055 A 
ATOM     81  C   UNL A   1      45.404  36.105  31.614  1.00  0.00     0.041 A 
ATOM     82  F   UNL A   1      45.227  33.848  32.204  1.00  0.00    -0.206 F 
ATOM     83  C   UNL A   1      45.228  37.129  30.689  1.00  0.00     0.022 A 
BRANCH  80  84
ATOM     84  S   UNL A   1      44.510  38.125  28.185  1.00  0.00     0.124 S 
ATOM     85  O   UNL A   1      45.858  38.684  28.213  1.00  0.00    -0.237 OA
ATOM     86  O   UNL A   1      44.168  37.347  26.998  1.00  0.00    -0.237 OA
ATOM     87  O   UNL A   1      43.458  39.018  28.665  1.00  0.00    -0.744 OA
ENDBRANCH  80  84
ENDBRANCH  54  77
ENDBRANCH  28  29
ENDBRANCH  20  23
ENDBRANCH  18  19
ENDBRANCH  17  18
ENDBRANCH   1  17
TORSDOF 18
ENDMDL
MODEL 2
REMARK VINA RESULT:     -10.5      5.905     11.060
REMARK SMILES CC(C)CC[C@@H](C)[C@@](C)(O)C(=O)NCCCNC(=O)c1ccc(-c2c3nc(c(-c4cc(S(=O)(=O)[O-])ccc4F)c4ccc([nH]4)c(-c4cc(S(=O)(=O)[O-])ccc4F)c4nc(c(-c5cc(S(=O)(=O)[O-])ccc5F)c5ccc2[nH]5)C=C4)C=C3)cc1
REMARK SMILES IDX 14 1 13 2 11 3 12 4 8 6 9 7 6 8 7 9 5 10 4 11 2 12 1 13 3 14
REMARK SMILES IDX 10 15 15 17 16 18 17 19 18 20 19 22 20 23 21 24 82 25 22 26
REMARK SMILES IDX 81 27 23 28 24 29 25 30 75 31 26 32 80 33 74 34 76 35 27 36
REMARK SMILES IDX 79 37 73 38 72 39 28 41 60 42 40 43 59 44 41 45 44 46 58 47
REMARK SMILES IDX 77 48 42 49 43 50 57 52 78 53 45 54 29 55 30 56 38 57 31 58
REMARK SMILES IDX 37 59 39 60 36 61 32 62 33 63 34 64 35 65 61 66 62 67 70 68
REMARK SMILES IDX 63 69 69 70 71 71 68 72 64 73 65 74 66 75 67 76 46 77 47 78
REMARK SMILES IDX 55 79 48 80 54 81 56 82 53 83 49 84 50 85 51 86 52 87
REMARK H PARENT 13 5 10 16 17 21 76 40 44 51
REMARK Flexibility Score: inf
ROOT
ATOM      1  C   UNL A   1      31.527  29.663  25.512  1.00  0.00     0.117 C 
ENDROOT
BRANCH   1   2
ATOM      2  N   UNL A   1      32.468  29.547  24.414  1.00  0.00    -0.354 N 
ATOM      3  C   UNL A   1      32.454  28.736  23.318  1.00  0.00     0.251 C 
ATOM      4  O   UNL A   1      33.449  28.788  22.590  1.00  0.00    -0.272 OA
ATOM      5  H   UNL A   1      33.244  30.151  24.470  1.00  0.00     0.163 HD
BRANCH   3   6
ATOM      6  C   UNL A   1      31.207  27.858  22.993  1.00  0.00     0.142 C 
ATOM      7  C   UNL A   1      31.200  26.621  23.911  1.00  0.00     0.053 C 
BRANCH   6   8
ATOM      8  C   UNL A   1      29.853  28.638  23.149  1.00  0.00     0.027 C 
ATOM      9  C   UNL A   1      28.643  27.702  23.303  1.00  0.00     0.011 C 
BRANCH   8  10
ATOM     10  C   UNL A   1      29.608  29.700  22.049  1.00  0.00     0.007 C 
BRANCH  10  11
ATOM     11  C   UNL A   1      28.142  30.091  21.821  1.00  0.00     0.003 C 
BRANCH  11  12
ATOM     12  C   UNL A   1      27.760  31.518  22.255  1.00  0.00    -0.017 C 
ATOM     13  C   UNL A   1      28.496  31.960  23.521  1.00  0.00     0.007 C 
ATOM     14  C   UNL A   1      28.050  32.496  21.115  1.00  0.00     0.007 C 
ENDBRANCH  11  12
ENDBRANCH  10  11
ENDBRANCH   8  10
ENDBRANCH   6   8
BRANCH   6  15
ATOM     15  O   UNL A   1      31.286  27.383  21.639  1.00  0.00    -0.380 OA
ATOM     16  H   UNL A   1      32.111  26.888  21.517  1.00  0.00     0.212 HD
ENDBRANCH   6  15
ENDBRANCH   3   6
ENDBRANCH   1   2
BRANCH   1  17
ATOM     17  C   UNL A   1      31.450  31.079  26.059  1.00  0.00     0.042 C 
BRANCH  17  18
ATOM     18  C   UNL A   1      32.642  31.480  26.914  1.00  0.00     0.118 C 
BRANCH  18  19
ATOM     19  N   UNL A   1      32.667  32.906  27.213  1.00  0.00    -0.352 N 
ATOM     20  C   UNL A   1      33.467  33.618  28.068  1.00  0.00     0.251 C 
ATOM     21  H   UNL A   1      32.004  33.443  26.723  1.00  0.00     0.163 HD
ATOM     22  O   UNL A   1      33.174  34.787  28.326  1.00  0.00    -0.269 OA
BRANCH  20  23
ATOM     23  C   UNL A   1      34.654  32.992  28.689  1.00  0.00     0.039 A 
ATOM     24  C   UNL A   1      34.468  31.983  29.637  1.00  0.00     0.014 A 
ATOM     25  C   UNL A   1      35.946  33.413  28.366  1.00  0.00     0.014 A 
ATOM     26  C   UNL A   1      35.579  31.367  30.221  1.00  0.00     0.010 A 
ATOM     27  C   UNL A   1      37.048  32.727  28.864  1.00  0.00     0.010 A 
ATOM     28  C   UNL A   1      36.878  31.715  29.819  1.00  0.00    -0.014 A 
BRANCH  28  29
ATOM     29  C   UNL A   1      38.072  31.075  30.431  1.00  0.00     0.031 A 
ATOM     30  C   UNL A   1      38.515  31.485  31.812  1.00  0.00     0.074 A 
ATOM     31  C   UNL A   1      38.777  30.160  29.735  1.00  0.00     0.049 A 
ATOM     32  N   UNL A   1      39.552  31.086  32.503  1.00  0.00    -0.248 NA
ATOM     33  C   UNL A   1      37.700  32.504  32.492  1.00  0.00     0.031 C 
ATOM     34  C   UNL A   1      38.470  29.715  28.374  1.00  0.00     0.029 A 
ATOM     35  N   UNL A   1      39.893  29.440  30.074  1.00  0.00    -0.354 N 
ATOM     36  C   UNL A   1      39.521  31.815  33.687  1.00  0.00     0.074 A 
ATOM     37  C   UNL A   1      38.409  32.735  33.585  1.00  0.00     0.031 C 
ATOM     38  C   UNL A   1      39.355  28.772  28.011  1.00  0.00     0.029 A 
ATOM     39  C   UNL A   1      40.319  28.578  29.090  1.00  0.00     0.049 A 
ATOM     40  H   UNL A   1      40.349  29.531  30.943  1.00  0.00     0.167 HD
ATOM     41  C   UNL A   1      40.325  31.707  34.775  1.00  0.00     0.034 A 
ATOM     42  C   UNL A   1      41.368  27.733  29.059  1.00  0.00     0.034 A 
ATOM     43  C   UNL A   1      41.419  30.772  34.865  1.00  0.00     0.049 A 
ATOM     44  C   UNL A   1      42.260  27.640  30.272  1.00  0.00     0.074 A 
ATOM     45  C   UNL A   1      42.271  30.542  35.931  1.00  0.00     0.029 A 
ATOM     46  N   UNL A   1      41.817  29.912  33.849  1.00  0.00    -0.354 N 
ATOM     47  N   UNL A   1      42.188  28.303  31.405  1.00  0.00    -0.248 NA
ATOM     48  C   UNL A   1      43.363  26.674  30.209  1.00  0.00     0.031 C 
ATOM     49  C   UNL A   1      43.225  29.599  35.535  1.00  0.00     0.029 A 
ATOM     50  C   UNL A   1      42.917  29.171  34.253  1.00  0.00     0.049 A 
ATOM     51  H   UNL A   1      41.381  29.839  32.969  1.00  0.00     0.167 HD
ATOM     52  C   UNL A   1      43.213  27.801  32.203  1.00  0.00     0.074 A 
ATOM     53  C   UNL A   1      43.876  26.773  31.427  1.00  0.00     0.031 C 
ATOM     54  C   UNL A   1      43.570  28.151  33.466  1.00  0.00     0.034 A 
BRANCH  41  55
ATOM     55  C   UNL A   1      40.057  32.640  35.934  1.00  0.00     0.023 A 
ATOM     56  C   UNL A   1      39.249  32.258  37.020  1.00  0.00     0.031 A 
ATOM     57  C   UNL A   1      40.586  33.942  35.938  1.00  0.00     0.131 A 
ATOM     58  C   UNL A   1      38.925  33.190  38.017  1.00  0.00     0.055 A 
ATOM     59  C   UNL A   1      40.334  34.837  36.980  1.00  0.00     0.041 A 
ATOM     60  F   UNL A   1      41.347  34.376  34.920  1.00  0.00    -0.206 F 
ATOM     61  C   UNL A   1      39.485  34.470  38.019  1.00  0.00     0.022 A 
BRANCH  58  62
ATOM     62  S   UNL A   1      37.637  32.759  39.219  1.00  0.00     0.124 S 
ATOM     63  O   UNL A   1      36.475  32.573  38.353  1.00  0.00    -0.237 OA
ATOM     64  O   UNL A   1      38.173  31.553  39.838  1.00  0.00    -0.237 OA
ATOM     65  O   UNL A   1      37.574  33.933  40.090  1.00  0.00    -0.744 OA
ENDBRANCH  58  62
ENDBRANCH  41  55
BRANCH  42  66
ATOM     66  C   UNL A   1      41.639  26.904  27.848  1.00  0.00     0.023 A 
ATOM     67  C   UNL A   1      41.338  25.532  27.827  1.00  0.00     0.031 A 
ATOM     68  C   UNL A   1      42.246  27.461  26.709  1.00  0.00     0.131 A 
ATOM     69  C   UNL A   1      41.695  24.753  26.715  1.00  0.00     0.055 A 
ATOM     70  C   UNL A   1      42.545  26.694  25.581  1.00  0.00     0.041 A 
ATOM     71  F   UNL A   1      42.551  28.768  26.672  1.00  0.00    -0.206 F 
ATOM     72  C   UNL A   1      42.284  25.328  25.587  1.00  0.00     0.022 A 
BRANCH  69  73
ATOM     73  S   UNL A   1      41.466  22.956  26.804  1.00  0.00     0.124 S 
ATOM     74  O   UNL A   1      42.611  22.473  26.043  1.00  0.00    -0.237 OA
ATOM     75  O   UNL A   1      41.504  22.717  28.244  1.00  0.00    -0.237 OA
ATOM     76  O   UNL A   1      40.163  22.748  26.175  1.00  0.00    -0.744 OA
ENDBRANCH  69  73
ENDBRANCH  42  66
BRANCH  54  77
ATOM     77  C   UNL A   1      44.692  27.370  34.105  1.00  0.00     0.023 A 
ATOM     78  C   UNL A   1      44.455  26.220  34.878  1.00  0.00     0.031 A 
ATOM     79  C   UNL A   1      46.024  27.795  33.947  1.00  0.00     0.131 A 
ATOM     80  C   UNL A   1      45.524  25.575  35.518  1.00  0.00     0.055 A 
ATOM     81  C   UNL A   1      47.090  27.109  34.529  1.00  0.00     0.041 A 
ATOM     82  F   UNL A   1      46.311  28.888  33.223  1.00  0.00    -0.206 F 
ATOM     83  C   UNL A   1      46.842  26.001  35.332  1.00  0.00     0.022 A 
BRANCH  80  84
ATOM     84  S   UNL A   1      45.160  24.237  36.688  1.00  0.00     0.124 S 
ATOM     85  O   UNL A   1      43.954  24.730  37.345  1.00  0.00    -0.237 OA
ATOM     86  O   UNL A   1      44.980  23.090  35.804  1.00  0.00    -0.237 OA
ATOM     87  O   UNL A   1      46.351  24.187  37.534  1.00  0.00    -0.744 OA
ENDBRANCH  80  84
ENDBRANCH  54  77
ENDBRANCH  28  29
ENDBRANCH  20  23
ENDBRANCH  18  19
ENDBRANCH  17  18
ENDBRANCH   1  17
TORSDOF 18
ENDMDL
MODEL 3
REMARK VINA RESULT:     -10.5      4.755      9.652
REMARK SMILES CC(C)CC[C@@H](C)[C@@](C)(O)C(=O)NCCCNC(=O)c1ccc(-c2c3nc(c(-c4cc(S(=O)(=O)[O-])ccc4F)c4ccc([nH]4)c(-c4cc(S(=O)(=O)[O-])ccc4F)c4nc(c(-c5cc(S(=O)(=O)[O-])ccc5F)c5ccc2[nH]5)C=C4)C=C3)cc1
REMARK SMILES IDX 14 1 13 2 11 3 12 4 8 6 9 7 6 8 7 9 5 10 4 11 2 12 1 13 3 14
REMARK SMILES IDX 10 15 15 17 16 18 17 19 18 20 19 22 20 23 21 24 82 25 22 26
REMARK SMILES IDX 81 27 23 28 24 29 25 30 75 31 26 32 80 33 74 34 76 35 27 36
REMARK SMILES IDX 79 37 73 38 72 39 28 41 60 42 40 43 59 44 41 45 44 46 58 47
REMARK SMILES IDX 77 48 42 49 43 50 57 52 78 53 45 54 29 55 30 56 38 57 31 58
REMARK SMILES IDX 37 59 39 60 36 61 32 62 33 63 34 64 35 65 61 66 62 67 70 68
REMARK SMILES IDX 63 69 69 70 71 71 68 72 64 73 65 74 66 75 67 76 46 77 47 78
REMARK SMILES IDX 55 79 48 80 54 81 56 82 53 83 49 84 50 85 51 86 52 87
REMARK H PARENT 13 5 10 16 17 21 76 40 44 51
REMARK Flexibility Score: inf
ROOT
ATOM      1  C   UNL A   1      31.697  27.986  26.533  1.00  0.00     0.117 C 
ENDROOT
BRANCH   1   2
ATOM      2  N   UNL A   1      31.026  26.739  26.845  1.00  0.00    -0.354 N 
ATOM      3  C   UNL A   1      30.489  25.793  26.024  1.00  0.00     0.251 C 
ATOM      4  O   UNL A   1      29.888  24.868  26.578  1.00  0.00    -0.272 OA
ATOM      5  H   UNL A   1      30.944  26.545  27.808  1.00  0.00     0.163 HD
BRANCH   3   6
ATOM      6  C   UNL A   1      30.699  25.867  24.480  1.00  0.00     0.142 C 
ATOM      7  C   UNL A   1      30.130  27.196  23.950  1.00  0.00     0.053 C 
BRANCH   6   8
ATOM      8  C   UNL A   1      32.207  25.733  24.063  1.00  0.00     0.027 C 
ATOM      9  C   UNL A   1      32.415  25.859  22.545  1.00  0.00     0.011 C 
BRANCH   8  10
ATOM     10  C   UNL A   1      32.906  24.471  24.624  1.00  0.00     0.007 C 
BRANCH  10  11
ATOM     11  C   UNL A   1      34.099  24.733  25.553  1.00  0.00     0.003 C 
BRANCH  11  12
ATOM     12  C   UNL A   1      35.465  24.250  25.032  1.00  0.00    -0.017 C 
ATOM     13  C   UNL A   1      36.185  23.342  26.032  1.00  0.00     0.007 C 
ATOM     14  C   UNL A   1      35.277  23.516  23.703  1.00  0.00     0.007 C 
ENDBRANCH  11  12
ENDBRANCH  10  11
ENDBRANCH   8  10
ENDBRANCH   6   8
BRANCH   6  15
ATOM     15  O   UNL A   1      29.971  24.806  23.839  1.00  0.00    -0.380 OA
ATOM     16  H   UNL A   1      29.279  25.184  23.275  1.00  0.00     0.212 HD
ENDBRANCH   6  15
ENDBRANCH   3   6
ENDBRANCH   1   2
BRANCH   1  17
ATOM     17  C   UNL A   1      33.195  27.915  26.783  1.00  0.00     0.042 C 
BRANCH  17  18
ATOM     18  C   UNL A   1      33.995  29.000  26.078  1.00  0.00     0.118 C 
BRANCH  18  19
ATOM     19  N   UNL A   1      33.817  30.313  26.683  1.00  0.00    -0.352 N 
ATOM     20  C   UNL A   1      34.512  30.923  27.696  1.00  0.00     0.251 C 
ATOM     21  H   UNL A   1      33.083  30.847  26.305  1.00  0.00     0.163 HD
ATOM     22  O   UNL A   1      34.056  31.954  28.197  1.00  0.00    -0.269 OA
BRANCH  20  23
ATOM     23  C   UNL A   1      35.778  30.347  28.197  1.00  0.00     0.039 A 
ATOM     24  C   UNL A   1      36.957  30.583  27.486  1.00  0.00     0.014 A 
ATOM     25  C   UNL A   1      35.805  29.552  29.345  1.00  0.00     0.014 A 
ATOM     26  C   UNL A   1      38.166  30.062  27.956  1.00  0.00     0.010 A 
ATOM     27  C   UNL A   1      37.021  29.127  29.870  1.00  0.00     0.010 A 
ATOM     28  C   UNL A   1      38.212  29.353  29.166  1.00  0.00    -0.014 A 
BRANCH  28  29
ATOM     29  C   UNL A   1      39.487  28.787  29.680  1.00  0.00     0.031 A 
ATOM     30  C   UNL A   1      40.123  29.376  30.914  1.00  0.00     0.074 A 
ATOM     31  C   UNL A   1      40.091  27.778  29.021  1.00  0.00     0.049 A 
ATOM     32  N   UNL A   1      41.252  29.062  31.495  1.00  0.00    -0.248 NA
ATOM     33  C   UNL A   1      39.407  30.487  31.560  1.00  0.00     0.031 C 
ATOM     34  C   UNL A   1      39.593  27.156  27.791  1.00  0.00     0.029 A 
ATOM     35  N   UNL A   1      41.250  27.098  29.289  1.00  0.00    -0.354 N 
ATOM     36  C   UNL A   1      41.388  29.946  32.560  1.00  0.00     0.074 A 
ATOM     37  C   UNL A   1      40.266  30.856  32.496  1.00  0.00     0.031 C 
ATOM     38  C   UNL A   1      40.424  26.162  27.435  1.00  0.00     0.029 A 
ATOM     39  C   UNL A   1      41.535  26.105  28.379  1.00  0.00     0.049 A 
ATOM     40  H   UNL A   1      41.827  27.300  30.062  1.00  0.00     0.167 HD
ATOM     41  C   UNL A   1      42.343  29.977  33.524  1.00  0.00     0.034 A 
ATOM     42  C   UNL A   1      42.576  25.252  28.312  1.00  0.00     0.034 A 
ATOM     43  C   UNL A   1      43.446  29.050  33.581  1.00  0.00     0.049 A 
ATOM     44  C   UNL A   1      43.635  25.314  29.384  1.00  0.00     0.074 A 
ATOM     45  C   UNL A   1      44.446  28.957  34.533  1.00  0.00     0.029 A 
ATOM     46  N   UNL A   1      43.699  28.055  32.644  1.00  0.00    -0.354 N 
ATOM     47  N   UNL A   1      43.724  26.125  30.414  1.00  0.00    -0.248 NA
ATOM     48  C   UNL A   1      44.725  24.335  29.294  1.00  0.00     0.031 C 
ATOM     49  C   UNL A   1      45.339  27.958  34.135  1.00  0.00     0.029 A 
ATOM     50  C   UNL A   1      44.852  27.364  32.981  1.00  0.00     0.049 A 
ATOM     51  H   UNL A   1      43.140  27.869  31.855  1.00  0.00     0.167 HD
ATOM     52  C   UNL A   1      44.858  25.724  31.116  1.00  0.00     0.074 A 
ATOM     53  C   UNL A   1      45.409  24.593  30.399  1.00  0.00     0.031 C 
ATOM     54  C   UNL A   1      45.392  26.239  32.254  1.00  0.00     0.034 A 
BRANCH  41  55
ATOM     55  C   UNL A   1      42.238  31.062  34.572  1.00  0.00     0.023 A 
ATOM     56  C   UNL A   1      42.866  32.310  34.410  1.00  0.00     0.031 A 
ATOM     57  C   UNL A   1      41.530  30.836  35.765  1.00  0.00     0.131 A 
ATOM     58  C   UNL A   1      42.847  33.247  35.453  1.00  0.00     0.055 A 
ATOM     59  C   UNL A   1      41.438  31.808  36.763  1.00  0.00     0.041 A 
ATOM     60  F   UNL A   1      40.927  29.658  35.991  1.00  0.00    -0.206 F 
ATOM     61  C   UNL A   1      42.114  33.016  36.619  1.00  0.00     0.022 A 
BRANCH  58  62
ATOM     62  S   UNL A   1      43.925  34.701  35.331  1.00  0.00     0.124 S 
ATOM     63  O   UNL A   1      44.074  35.076  36.735  1.00  0.00    -0.237 OA
ATOM     64  O   UNL A   1      45.115  34.159  34.684  1.00  0.00    -0.237 OA
ATOM     65  O   UNL A   1      43.147  35.639  34.523  1.00  0.00    -0.744 OA
ENDBRANCH  58  62
ENDBRANCH  41  55
BRANCH  42  66
ATOM     66  C   UNL A   1      42.674  24.262  27.199  1.00  0.00     0.023 A 
ATOM     67  C   UNL A   1      42.028  23.018  27.276  1.00  0.00     0.031 A 
ATOM     68  C   UNL A   1      43.457  24.527  26.061  1.00  0.00     0.131 A 
ATOM     69  C   UNL A   1      42.218  22.065  26.262  1.00  0.00     0.055 A 
ATOM     70  C   UNL A   1      43.595  23.599  25.027  1.00  0.00     0.041 A 
ATOM     71  F   UNL A   1      44.093  25.702  25.932  1.00  0.00    -0.206 F 
ATOM     72  C   UNL A   1      42.986  22.353  25.132  1.00  0.00     0.022 A 
BRANCH  69  73
ATOM     73  S   UNL A   1      41.524  20.405  26.490  1.00  0.00     0.124 S 
ATOM     74  O   UNL A   1      40.093  20.670  26.425  1.00  0.00    -0.237 OA
ATOM     75  O   UNL A   1      42.097  19.681  25.359  1.00  0.00    -0.237 OA
ATOM     76  O   UNL A   1      42.028  20.003  27.802  1.00  0.00    -0.744 OA
ENDBRANCH  69  73
ENDBRANCH  42  66
BRANCH  54  77
ATOM     77  C   UNL A   1      46.602  25.538  32.824  1.00  0.00     0.023 A 
ATOM     78  C   UNL A   1      47.897  25.760  32.323  1.00  0.00     0.031 A 
ATOM     79  C   UNL A   1      46.451  24.619  33.878  1.00  0.00     0.131 A 
ATOM     80  C   UNL A   1      48.978  25.025  32.831  1.00  0.00     0.055 A 
ATOM     81  C   UNL A   1      47.540  23.942  34.426  1.00  0.00     0.041 A 
ATOM     82  F   UNL A   1      45.238  24.363  34.393  1.00  0.00    -0.206 F 
ATOM     83  C   UNL A   1      48.811  24.131  33.893  1.00  0.00     0.022 A 
BRANCH  80  84
ATOM     84  S   UNL A   1      50.591  25.168  32.012  1.00  0.00     0.124 S 
ATOM     85  O   UNL A   1      51.214  23.891  32.345  1.00  0.00    -0.237 OA
ATOM     86  O   UNL A   1      50.214  25.347  30.613  1.00  0.00    -0.237 OA
ATOM     87  O   UNL A   1      51.195  26.338  32.646  1.00  0.00    -0.744 OA
ENDBRANCH  80  84
ENDBRANCH  54  77
ENDBRANCH  28  29
ENDBRANCH  20  23
ENDBRANCH  18  19
ENDBRANCH  17  18
ENDBRANCH   1  17
TORSDOF 18
ENDMDL
