MODEL 1
REMARK VINA RESULT:     -11.5      0.000      0.000
REMARK SMILES CC[C@H](C)[NH+]1CCN(C(=O)CC(=O)NCCCNC(=O)c2ccc(-c3c4nc(c(-c5cc(S(=O)(=O)[O-])ccc5F)c5ccc([nH]5)c(-c5cc(S(=O)(=O)[O-])ccc5F)c5nc(c(-c6cc(S(=O)(=O)[O-])ccc6F)c6ccc3[nH]6)C=C5)C=C4)cc2)CC1
REMARK SMILES IDX 16 1 15 2 14 3 12 4 13 5 11 7 9 8 5 9 6 10 85 11 7 13 84 14
REMARK SMILES IDX 8 15 10 16 3 17 4 18 2 19 1 20 17 21 18 22 19 23 20 25 21 26
REMARK SMILES IDX 22 27 83 28 23 29 82 30 24 31 25 32 26 33 76 34 27 35 81 36
REMARK SMILES IDX 75 37 77 38 28 39 80 40 74 41 73 42 29 44 61 45 41 46 60 47
REMARK SMILES IDX 42 48 45 49 59 50 78 51 43 52 44 53 58 55 79 56 46 57 30 58
REMARK SMILES IDX 31 59 39 60 32 61 38 62 40 63 37 64 33 65 34 66 35 67 36 68
REMARK SMILES IDX 62 69 63 70 71 71 64 72 70 73 72 74 69 75 65 76 66 77 67 78
REMARK SMILES IDX 68 79 47 80 48 81 56 82 49 83 55 84 57 85 54 86 50 87 51 88
REMARK SMILES IDX 52 89 53 90
REMARK H PARENT 14 6 5 12 18 24 77 43 45 54
REMARK Flexibility Score: inf
ROOT
ATOM      1  C   UNL A   1      35.941  21.159  25.331  1.00  0.00     0.042 C 
ENDROOT
BRANCH   1   2
ATOM      2  C   UNL A   1      34.917  21.965  24.534  1.00  0.00     0.117 C 
BRANCH   2   3
ATOM      3  N   UNL A   1      33.594  21.366  24.581  1.00  0.00    -0.356 N 
ATOM      4  C   UNL A   1      32.611  21.514  25.510  1.00  0.00     0.229 C 
ATOM      5  O   UNL A   1      31.560  20.886  25.348  1.00  0.00    -0.275 OA
ATOM      6  H   UNL A   1      33.378  20.764  23.833  1.00  0.00     0.163 HD
BRANCH   4   7
ATOM      7  C   UNL A   1      32.774  22.461  26.666  1.00  0.00     0.200 C 
BRANCH   7   8
ATOM      8  C   UNL A   1      31.711  23.520  26.800  1.00  0.00     0.232 C 
ATOM      9  N   UNL A   1      32.450  27.601  25.686  1.00  0.00    -0.330 N 
ATOM     10  C   UNL A   1      31.287  27.172  26.479  1.00  0.00     0.284 C 
ATOM     11  C   UNL A   1      33.526  26.600  25.780  1.00  0.00     0.284 C 
ATOM     12  H   UNL A   1      32.741  28.470  26.133  1.00  0.00     0.348 HD
ATOM     13  C   UNL A   1      30.808  25.728  26.237  1.00  0.00     0.181 C 
ATOM     14  C   UNL A   1      33.083  25.166  25.440  1.00  0.00     0.181 C 
ATOM     15  N   UNL A   1      31.909  24.759  26.222  1.00  0.00    -0.331 N 
ATOM     16  O   UNL A   1      30.693  23.261  27.449  1.00  0.00    -0.274 OA
BRANCH   9  17
ATOM     17  C   UNL A   1      32.225  28.093  24.314  1.00  0.00     0.180 C 
ATOM     18  C   UNL A   1      30.963  28.919  24.032  1.00  0.00     0.075 C 
BRANCH  17  19
ATOM     19  C   UNL A   1      33.494  28.862  23.877  1.00  0.00     0.061 C 
ATOM     20  C   UNL A   1      34.004  28.529  22.481  1.00  0.00     0.010 C 
ENDBRANCH  17  19
ENDBRANCH   9  17
ENDBRANCH   7   8
ENDBRANCH   4   7
ENDBRANCH   2   3
ENDBRANCH   1   2
BRANCH   1  21
ATOM     21  C   UNL A   1      37.371  21.692  25.236  1.00  0.00     0.118 C 
BRANCH  21  22
ATOM     22  N   UNL A   1      38.372  20.701  25.612  1.00  0.00    -0.352 N 
ATOM     23  C   UNL A   1      39.602  20.855  26.207  1.00  0.00     0.251 C 
ATOM     24  H   UNL A   1      38.127  19.769  25.406  1.00  0.00     0.163 HD
ATOM     25  O   UNL A   1      40.362  19.895  26.265  1.00  0.00    -0.269 OA
BRANCH  23  26
ATOM     26  C   UNL A   1      40.018  22.169  26.745  1.00  0.00     0.039 A 
ATOM     27  C   UNL A   1      40.912  22.202  27.819  1.00  0.00     0.014 A 
ATOM     28  C   UNL A   1      39.530  23.360  26.206  1.00  0.00     0.014 A 
ATOM     29  C   UNL A   1      41.389  23.429  28.289  1.00  0.00     0.010 A 
ATOM     30  C   UNL A   1      40.054  24.580  26.630  1.00  0.00     0.010 A 
ATOM     31  C   UNL A   1      41.008  24.626  27.661  1.00  0.00    -0.014 A 
BRANCH  31  32
ATOM     32  C   UNL A   1      41.640  25.923  28.021  1.00  0.00     0.031 A 
ATOM     33  C   UNL A   1      40.849  26.995  28.715  1.00  0.00     0.074 A 
ATOM     34  C   UNL A   1      42.911  26.161  27.636  1.00  0.00     0.049 A 
ATOM     35  N   UNL A   1      41.196  28.224  29.001  1.00  0.00    -0.248 NA
ATOM     36  C   UNL A   1      39.480  26.646  29.120  1.00  0.00     0.031 C 
ATOM     37  C   UNL A   1      43.772  25.209  26.930  1.00  0.00     0.029 A 
ATOM     38  N   UNL A   1      43.697  27.281  27.766  1.00  0.00    -0.354 N 
ATOM     39  C   UNL A   1      40.088  28.801  29.611  1.00  0.00     0.074 A 
ATOM     40  C   UNL A   1      39.042  27.798  29.608  1.00  0.00     0.031 C 
ATOM     41  C   UNL A   1      44.966  25.777  26.703  1.00  0.00     0.029 A 
ATOM     42  C   UNL A   1      44.941  27.153  27.188  1.00  0.00     0.049 A 
ATOM     43  H   UNL A   1      43.400  28.097  28.228  1.00  0.00     0.167 HD
ATOM     44  C   UNL A   1      39.963  30.045  30.137  1.00  0.00     0.034 A 
ATOM     45  C   UNL A   1      45.938  28.048  27.037  1.00  0.00     0.034 A 
ATOM     46  C   UNL A   1      41.018  31.029  30.132  1.00  0.00     0.049 A 
ATOM     47  C   UNL A   1      45.750  29.444  27.575  1.00  0.00     0.074 A 
ATOM     48  C   UNL A   1      41.017  32.294  30.697  1.00  0.00     0.029 A 
ATOM     49  N   UNL A   1      42.255  30.872  29.520  1.00  0.00    -0.354 N 
ATOM     50  N   UNL A   1      44.716  29.953  28.202  1.00  0.00    -0.248 NA
ATOM     51  C   UNL A   1      46.863  30.384  27.386  1.00  0.00     0.031 C 
ATOM     52  C   UNL A   1      42.216  32.929  30.354  1.00  0.00     0.029 A 
ATOM     53  C   UNL A   1      43.003  32.034  29.649  1.00  0.00     0.049 A 
ATOM     54  H   UNL A   1      42.557  30.056  29.060  1.00  0.00     0.167 HD
ATOM     55  C   UNL A   1      45.064  31.268  28.501  1.00  0.00     0.074 A 
ATOM     56  C   UNL A   1      46.410  31.464  28.004  1.00  0.00     0.031 C 
ATOM     57  C   UNL A   1      44.337  32.226  29.131  1.00  0.00     0.034 A 
BRANCH  44  58
ATOM     58  C   UNL A   1      38.626  30.424  30.730  1.00  0.00     0.023 A 
ATOM     59  C   UNL A   1      37.642  31.085  29.975  1.00  0.00     0.031 A 
ATOM     60  C   UNL A   1      38.332  30.119  32.070  1.00  0.00     0.131 A 
ATOM     61  C   UNL A   1      36.439  31.478  30.583  1.00  0.00     0.055 A 
ATOM     62  C   UNL A   1      37.101  30.440  32.647  1.00  0.00     0.041 A 
ATOM     63  F   UNL A   1      39.239  29.506  32.847  1.00  0.00    -0.206 F 
ATOM     64  C   UNL A   1      36.152  31.137  31.906  1.00  0.00     0.022 A 
BRANCH  61  65
ATOM     65  S   UNL A   1      35.314  32.558  29.658  1.00  0.00     0.124 S 
ATOM     66  O   UNL A   1      36.173  33.705  29.375  1.00  0.00    -0.237 OA
ATOM     67  O   UNL A   1      34.954  31.731  28.512  1.00  0.00    -0.237 OA
ATOM     68  O   UNL A   1      34.233  32.818  30.606  1.00  0.00    -0.744 OA
ENDBRANCH  61  65
ENDBRANCH  44  58
BRANCH  45  69
ATOM     69  C   UNL A   1      47.187  27.673  26.313  1.00  0.00     0.023 A 
ATOM     70  C   UNL A   1      47.318  27.894  24.933  1.00  0.00     0.031 A 
ATOM     71  C   UNL A   1      48.253  27.043  26.982  1.00  0.00     0.131 A 
ATOM     72  C   UNL A   1      48.463  27.445  24.257  1.00  0.00     0.055 A 
ATOM     73  C   UNL A   1      49.417  26.653  26.316  1.00  0.00     0.041 A 
ATOM     74  F   UNL A   1      48.182  26.806  28.301  1.00  0.00    -0.206 F 
ATOM     75  C   UNL A   1      49.520  26.841  24.942  1.00  0.00     0.022 A 
BRANCH  72  76
ATOM     76  S   UNL A   1      48.508  27.573  22.448  1.00  0.00     0.124 S 
ATOM     77  O   UNL A   1      49.753  28.300  22.234  1.00  0.00    -0.237 OA
ATOM     78  O   UNL A   1      48.506  26.170  22.047  1.00  0.00    -0.237 OA
ATOM     79  O   UNL A   1      47.289  28.313  22.129  1.00  0.00    -0.744 OA
ENDBRANCH  72  76
ENDBRANCH  45  69
BRANCH  57  80
ATOM     80  C   UNL A   1      44.998  33.566  29.338  1.00  0.00     0.023 A 
ATOM     81  C   UNL A   1      44.853  34.612  28.411  1.00  0.00     0.031 A 
ATOM     82  C   UNL A   1      45.781  33.801  30.483  1.00  0.00     0.131 A 
ATOM     83  C   UNL A   1      45.518  35.830  28.621  1.00  0.00     0.055 A 
ATOM     84  C   UNL A   1      46.390  35.035  30.717  1.00  0.00     0.041 A 
ATOM     85  F   UNL A   1      45.959  32.837  31.400  1.00  0.00    -0.206 F 
ATOM     86  C   UNL A   1      46.269  36.055  29.777  1.00  0.00     0.022 A 
BRANCH  83  87
ATOM     87  S   UNL A   1      45.450  37.096  27.322  1.00  0.00     0.124 S 
ATOM     88  O   UNL A   1      44.040  37.071  26.949  1.00  0.00    -0.237 OA
ATOM     89  O   UNL A   1      45.902  38.292  28.026  1.00  0.00    -0.237 OA
ATOM     90  O   UNL A   1      46.371  36.592  26.306  1.00  0.00    -0.744 OA
ENDBRANCH  83  87
ENDBRANCH  57  80
ENDBRANCH  31  32
ENDBRANCH  23  26
ENDBRANCH  21  22
ENDBRANCH   1  21
TORSDOF 16
ENDMDL
MODEL 2
REMARK VINA RESULT:     -11.4      5.190     10.315
REMARK SMILES CC[C@H](C)[NH+]1CCN(C(=O)CC(=O)NCCCNC(=O)c2ccc(-c3c4nc(c(-c5cc(S(=O)(=O)[O-])ccc5F)c5ccc([nH]5)c(-c5cc(S(=O)(=O)[O-])ccc5F)c5nc(c(-c6cc(S(=O)(=O)[O-])ccc6F)c6ccc3[nH]6)C=C5)C=C4)cc2)CC1
REMARK SMILES IDX 16 1 15 2 14 3 12 4 13 5 11 7 9 8 5 9 6 10 85 11 7 13 84 14
REMARK SMILES IDX 8 15 10 16 3 17 4 18 2 19 1 20 17 21 18 22 19 23 20 25 21 26
REMARK SMILES IDX 22 27 83 28 23 29 82 30 24 31 25 32 26 33 76 34 27 35 81 36
REMARK SMILES IDX 75 37 77 38 28 39 80 40 74 41 73 42 29 44 61 45 41 46 60 47
REMARK SMILES IDX 42 48 45 49 59 50 78 51 43 52 44 53 58 55 79 56 46 57 30 58
REMARK SMILES IDX 31 59 39 60 32 61 38 62 40 63 37 64 33 65 34 66 35 67 36 68
REMARK SMILES IDX 62 69 63 70 71 71 64 72 70 73 72 74 69 75 65 76 66 77 67 78
REMARK SMILES IDX 68 79 47 80 48 81 56 82 49 83 55 84 57 85 54 86 50 87 51 88
REMARK SMILES IDX 52 89 53 90
REMARK H PARENT 14 6 5 12 18 24 77 43 45 54
REMARK Flexibility Score: inf
ROOT
ATOM      1  C   UNL A   1      31.552  28.917  25.733  1.00  0.00     0.042 C 
ENDROOT
BRANCH   1   2
ATOM      2  C   UNL A   1      32.292  29.209  24.429  1.00  0.00     0.117 C 
BRANCH   2   3
ATOM      3  N   UNL A   1      31.381  29.553  23.350  1.00  0.00    -0.356 N 
ATOM      4  C   UNL A   1      30.520  28.758  22.658  1.00  0.00     0.229 C 
ATOM      5  O   UNL A   1      29.846  29.274  21.762  1.00  0.00    -0.275 OA
ATOM      6  H   UNL A   1      31.388  30.499  23.079  1.00  0.00     0.163 HD
BRANCH   4   7
ATOM      7  C   UNL A   1      30.348  27.307  23.017  1.00  0.00     0.200 C 
BRANCH   7   8
ATOM      8  C   UNL A   1      31.314  26.353  22.363  1.00  0.00     0.232 C 
ATOM      9  N   UNL A   1      34.257  24.217  24.647  1.00  0.00    -0.330 N 
ATOM     10  C   UNL A   1      34.281  24.316  23.179  1.00  0.00     0.284 C 
ATOM     11  C   UNL A   1      33.458  25.315  25.216  1.00  0.00     0.284 C 
ATOM     12  H   UNL A   1      35.236  24.322  24.913  1.00  0.00     0.348 HD
ATOM     13  C   UNL A   1      32.912  24.499  22.498  1.00  0.00     0.181 C 
ATOM     14  C   UNL A   1      32.047  25.444  24.616  1.00  0.00     0.181 C 
ATOM     15  N   UNL A   1      32.085  25.520  23.151  1.00  0.00    -0.331 N 
ATOM     16  O   UNL A   1      31.412  26.357  21.132  1.00  0.00    -0.274 OA
BRANCH   9  17
ATOM     17  C   UNL A   1      33.975  22.907  25.260  1.00  0.00     0.180 C 
ATOM     18  C   UNL A   1      34.615  21.658  24.641  1.00  0.00     0.075 C 
BRANCH  17  19
ATOM     19  C   UNL A   1      34.315  23.010  26.765  1.00  0.00     0.061 C 
ATOM     20  C   UNL A   1      33.331  22.318  27.701  1.00  0.00     0.010 C 
ENDBRANCH  17  19
ENDBRANCH   9  17
ENDBRANCH   7   8
ENDBRANCH   4   7
ENDBRANCH   2   3
ENDBRANCH   1   2
BRANCH   1  21
ATOM     21  C   UNL A   1      32.151  29.601  26.962  1.00  0.00     0.118 C 
BRANCH  21  22
ATOM     22  N   UNL A   1      32.150  31.055  26.860  1.00  0.00    -0.352 N 
ATOM     23  C   UNL A   1      33.071  31.981  27.288  1.00  0.00     0.251 C 
ATOM     24  H   UNL A   1      31.360  31.435  26.410  1.00  0.00     0.163 HD
ATOM     25  O   UNL A   1      32.779  33.172  27.260  1.00  0.00    -0.269 OA
BRANCH  23  26
ATOM     26  C   UNL A   1      34.388  31.549  27.805  1.00  0.00     0.039 A 
ATOM     27  C   UNL A   1      35.382  32.513  27.999  1.00  0.00     0.014 A 
ATOM     28  C   UNL A   1      34.650  30.208  28.090  1.00  0.00     0.014 A 
ATOM     29  C   UNL A   1      36.605  32.145  28.568  1.00  0.00     0.010 A 
ATOM     30  C   UNL A   1      35.844  29.852  28.717  1.00  0.00     0.010 A 
ATOM     31  C   UNL A   1      36.824  30.822  28.984  1.00  0.00    -0.014 A 
BRANCH  31  32
ATOM     32  C   UNL A   1      38.039  30.446  29.756  1.00  0.00     0.031 A 
ATOM     33  C   UNL A   1      39.013  29.440  29.210  1.00  0.00     0.074 A 
ATOM     34  C   UNL A   1      38.210  30.952  30.995  1.00  0.00     0.049 A 
ATOM     35  N   UNL A   1      40.059  28.907  29.787  1.00  0.00    -0.248 NA
ATOM     36  C   UNL A   1      38.766  28.957  27.845  1.00  0.00     0.031 C 
ATOM     37  C   UNL A   1      37.317  31.913  31.645  1.00  0.00     0.029 A 
ATOM     38  N   UNL A   1      39.182  30.717  31.938  1.00  0.00    -0.354 N 
ATOM     39  C   UNL A   1      40.592  28.016  28.861  1.00  0.00     0.074 A 
ATOM     40  C   UNL A   1      39.721  28.049  27.704  1.00  0.00     0.031 C 
ATOM     41  C   UNL A   1      37.788  32.196  32.869  1.00  0.00     0.029 A 
ATOM     42  C   UNL A   1      38.980  31.393  33.121  1.00  0.00     0.049 A 
ATOM     43  H   UNL A   1      39.951  30.121  31.782  1.00  0.00     0.167 HD
ATOM     44  C   UNL A   1      41.710  27.254  28.965  1.00  0.00     0.034 A 
ATOM     45  C   UNL A   1      39.657  31.350  34.286  1.00  0.00     0.034 A 
ATOM     46  C   UNL A   1      42.565  27.237  30.127  1.00  0.00     0.049 A 
ATOM     47  C   UNL A   1      40.860  30.448  34.396  1.00  0.00     0.074 A 
ATOM     48  C   UNL A   1      43.757  26.554  30.307  1.00  0.00     0.029 A 
ATOM     49  N   UNL A   1      42.317  27.917  31.312  1.00  0.00    -0.354 N 
ATOM     50  N   UNL A   1      41.383  29.657  33.489  1.00  0.00    -0.248 NA
ATOM     51  C   UNL A   1      41.564  30.434  35.685  1.00  0.00     0.031 C 
ATOM     52  C   UNL A   1      44.182  26.753  31.626  1.00  0.00     0.029 A 
ATOM     53  C   UNL A   1      43.304  27.628  32.244  1.00  0.00     0.049 A 
ATOM     54  H   UNL A   1      41.552  28.516  31.469  1.00  0.00     0.167 HD
ATOM     55  C   UNL A   1      42.490  29.068  34.092  1.00  0.00     0.074 A 
ATOM     56  C   UNL A   1      42.571  29.612  35.433  1.00  0.00     0.031 C 
ATOM     57  C   UNL A   1      43.363  28.160  33.585  1.00  0.00     0.034 A 
BRANCH  44  58
ATOM     58  C   UNL A   1      42.052  26.351  27.804  1.00  0.00     0.023 A 
ATOM     59  C   UNL A   1      41.603  25.020  27.743  1.00  0.00     0.031 A 
ATOM     60  C   UNL A   1      42.839  26.828  26.741  1.00  0.00     0.131 A 
ATOM     61  C   UNL A   1      41.998  24.195  26.679  1.00  0.00     0.055 A 
ATOM     62  C   UNL A   1      43.162  26.026  25.644  1.00  0.00     0.041 A 
ATOM     63  F   UNL A   1      43.314  28.084  26.751  1.00  0.00    -0.206 F 
ATOM     64  C   UNL A   1      42.753  24.696  25.616  1.00  0.00     0.022 A 
BRANCH  61  65
ATOM     65  S   UNL A   1      41.625  22.423  26.773  1.00  0.00     0.124 S 
ATOM     66  O   UNL A   1      42.554  21.980  27.811  1.00  0.00    -0.237 OA
ATOM     67  O   UNL A   1      40.212  22.417  27.135  1.00  0.00    -0.237 OA
ATOM     68  O   UNL A   1      41.928  21.938  25.428  1.00  0.00    -0.744 OA
ENDBRANCH  61  65
ENDBRANCH  44  58
BRANCH  45  69
ATOM     69  C   UNL A   1      39.196  32.150  35.457  1.00  0.00     0.023 A 
ATOM     70  C   UNL A   1      39.633  33.470  35.650  1.00  0.00     0.031 A 
ATOM     71  C   UNL A   1      38.347  31.590  36.431  1.00  0.00     0.131 A 
ATOM     72  C   UNL A   1      39.262  34.168  36.810  1.00  0.00     0.055 A 
ATOM     73  C   UNL A   1      37.932  32.310  37.553  1.00  0.00     0.041 A 
ATOM     74  F   UNL A   1      37.899  30.331  36.298  1.00  0.00    -0.206 F 
ATOM     75  C   UNL A   1      38.402  33.603  37.754  1.00  0.00     0.022 A 
BRANCH  72  76
ATOM     76  S   UNL A   1      40.005  35.795  37.118  1.00  0.00     0.124 S 
ATOM     77  O   UNL A   1      39.281  36.230  38.306  1.00  0.00    -0.237 OA
ATOM     78  O   UNL A   1      41.410  35.454  37.310  1.00  0.00    -0.237 OA
ATOM     79  O   UNL A   1      39.707  36.540  35.896  1.00  0.00    -0.744 OA
ENDBRANCH  72  76
ENDBRANCH  45  69
BRANCH  57  80
ATOM     80  C   UNL A   1      44.496  27.720  34.480  1.00  0.00     0.023 A 
ATOM     81  C   UNL A   1      44.413  26.551  35.254  1.00  0.00     0.031 A 
ATOM     82  C   UNL A   1      45.677  28.480  34.554  1.00  0.00     0.131 A 
ATOM     83  C   UNL A   1      45.472  26.198  36.104  1.00  0.00     0.055 A 
ATOM     84  C   UNL A   1      46.752  28.091  35.354  1.00  0.00     0.041 A 
ATOM     85  F   UNL A   1      45.811  29.609  33.840  1.00  0.00    -0.206 F 
ATOM     86  C   UNL A   1      46.649  26.950  36.144  1.00  0.00     0.022 A 
BRANCH  83  87
ATOM     87  S   UNL A   1      45.262  24.780  37.217  1.00  0.00     0.124 S 
ATOM     88  O   UNL A   1      44.921  23.711  36.284  1.00  0.00    -0.237 OA
ATOM     89  O   UNL A   1      46.575  24.680  37.848  1.00  0.00    -0.237 OA
ATOM     90  O   UNL A   1      44.179  25.200  38.104  1.00  0.00    -0.744 OA
ENDBRANCH  83  87
ENDBRANCH  57  80
ENDBRANCH  31  32
ENDBRANCH  23  26
ENDBRANCH  21  22
ENDBRANCH   1  21
TORSDOF 16
ENDMDL
MODEL 3
REMARK VINA RESULT:     -11.4      5.249     10.503
REMARK SMILES CC[C@H](C)[NH+]1CCN(C(=O)CC(=O)NCCCNC(=O)c2ccc(-c3c4nc(c(-c5cc(S(=O)(=O)[O-])ccc5F)c5ccc([nH]5)c(-c5cc(S(=O)(=O)[O-])ccc5F)c5nc(c(-c6cc(S(=O)(=O)[O-])ccc6F)c6ccc3[nH]6)C=C5)C=C4)cc2)CC1
REMARK SMILES IDX 16 1 15 2 14 3 12 4 13 5 11 7 9 8 5 9 6 10 85 11 7 13 84 14
REMARK SMILES IDX 8 15 10 16 3 17 4 18 2 19 1 20 17 21 18 22 19 23 20 25 21 26
REMARK SMILES IDX 22 27 83 28 23 29 82 30 24 31 25 32 26 33 76 34 27 35 81 36
REMARK SMILES IDX 75 37 77 38 28 39 80 40 74 41 73 42 29 44 61 45 41 46 60 47
REMARK SMILES IDX 42 48 45 49 59 50 78 51 43 52 44 53 58 55 79 56 46 57 30 58
REMARK SMILES IDX 31 59 39 60 32 61 38 62 40 63 37 64 33 65 34 66 35 67 36 68
REMARK SMILES IDX 62 69 63 70 71 71 64 72 70 73 72 74 69 75 65 76 66 77 67 78
REMARK SMILES IDX 68 79 47 80 48 81 56 82 49 83 55 84 57 85 54 86 50 87 51 88
REMARK SMILES IDX 52 89 53 90
REMARK H PARENT 14 6 5 12 18 24 77 43 45 54
REMARK Flexibility Score: inf
ROOT
ATOM      1  C   UNL A   1      32.462  29.877  25.393  1.00  0.00     0.042 C 
ENDROOT
BRANCH   1   2
ATOM      2  C   UNL A   1      31.617  28.683  24.955  1.00  0.00     0.117 C 
BRANCH   2   3
ATOM      3  N   UNL A   1      30.657  29.041  23.924  1.00  0.00    -0.356 N 
ATOM      4  C   UNL A   1      30.390  28.425  22.740  1.00  0.00     0.229 C 
ATOM      5  O   UNL A   1      29.531  28.924  22.008  1.00  0.00    -0.275 OA
ATOM      6  H   UNL A   1      30.123  29.846  24.109  1.00  0.00     0.163 HD
BRANCH   4   7
ATOM      7  C   UNL A   1      31.076  27.141  22.364  1.00  0.00     0.200 C 
BRANCH   7   8
ATOM      8  C   UNL A   1      30.743  25.946  23.218  1.00  0.00     0.232 C 
ATOM      9  N   UNL A   1      33.320  22.515  23.389  1.00  0.00    -0.330 N 
ATOM     10  C   UNL A   1      31.940  22.522  23.899  1.00  0.00     0.284 C 
ATOM     11  C   UNL A   1      33.501  23.591  22.400  1.00  0.00     0.284 C 
ATOM     12  H   UNL A   1      33.406  21.606  22.935  1.00  0.00     0.348 HD
ATOM     13  C   UNL A   1      31.408  23.888  24.372  1.00  0.00     0.181 C 
ATOM     14  C   UNL A   1      33.068  24.982  22.897  1.00  0.00     0.181 C 
ATOM     15  N   UNL A   1      31.698  24.970  23.424  1.00  0.00    -0.331 N 
ATOM     16  O   UNL A   1      29.608  25.855  23.695  1.00  0.00    -0.274 OA
BRANCH   9  17
ATOM     17  C   UNL A   1      34.428  22.414  24.355  1.00  0.00     0.180 C 
ATOM     18  C   UNL A   1      34.567  21.125  25.175  1.00  0.00     0.075 C 
BRANCH  17  19
ATOM     19  C   UNL A   1      35.741  22.727  23.599  1.00  0.00     0.061 C 
ATOM     20  C   UNL A   1      37.007  22.176  24.243  1.00  0.00     0.010 C 
ENDBRANCH  17  19
ENDBRANCH   9  17
ENDBRANCH   7   8
ENDBRANCH   4   7
ENDBRANCH   2   3
ENDBRANCH   1   2
BRANCH   1  21
ATOM     21  C   UNL A   1      32.169  30.370  26.810  1.00  0.00     0.118 C 
BRANCH  21  22
ATOM     22  N   UNL A   1      32.197  31.822  26.923  1.00  0.00    -0.352 N 
ATOM     23  C   UNL A   1      33.121  32.655  27.510  1.00  0.00     0.251 C 
ATOM     24  H   UNL A   1      31.429  32.283  26.513  1.00  0.00     0.163 HD
ATOM     25  O   UNL A   1      32.852  33.843  27.649  1.00  0.00    -0.269 OA
BRANCH  23  26
ATOM     26  C   UNL A   1      34.414  32.122  27.993  1.00  0.00     0.039 A 
ATOM     27  C   UNL A   1      35.514  32.982  28.054  1.00  0.00     0.014 A 
ATOM     28  C   UNL A   1      34.549  30.787  28.377  1.00  0.00     0.014 A 
ATOM     29  C   UNL A   1      36.723  32.527  28.590  1.00  0.00     0.010 A 
ATOM     30  C   UNL A   1      35.733  30.351  28.970  1.00  0.00     0.010 A 
ATOM     31  C   UNL A   1      36.825  31.225  29.104  1.00  0.00    -0.014 A 
BRANCH  31  32
ATOM     32  C   UNL A   1      38.037  30.779  29.842  1.00  0.00     0.031 A 
ATOM     33  C   UNL A   1      38.974  29.771  29.239  1.00  0.00     0.074 A 
ATOM     34  C   UNL A   1      38.238  31.222  31.101  1.00  0.00     0.049 A 
ATOM     35  N   UNL A   1      40.011  29.181  29.778  1.00  0.00    -0.248 NA
ATOM     36  C   UNL A   1      38.697  29.357  27.856  1.00  0.00     0.031 C 
ATOM     37  C   UNL A   1      37.381  32.179  31.805  1.00  0.00     0.029 A 
ATOM     38  N   UNL A   1      39.213  30.917  32.019  1.00  0.00    -0.354 N 
ATOM     39  C   UNL A   1      40.505  28.318  28.806  1.00  0.00     0.074 A 
ATOM     40  C   UNL A   1      39.623  28.429  27.662  1.00  0.00     0.031 C 
ATOM     41  C   UNL A   1      37.875  32.392  33.034  1.00  0.00     0.029 A 
ATOM     42  C   UNL A   1      39.046  31.544  33.233  1.00  0.00     0.049 A 
ATOM     43  H   UNL A   1      39.962  30.307  31.826  1.00  0.00     0.167 HD
ATOM     44  C   UNL A   1      41.601  27.520  28.860  1.00  0.00     0.034 A 
ATOM     45  C   UNL A   1      39.734  31.429  34.387  1.00  0.00     0.034 A 
ATOM     46  C   UNL A   1      42.470  27.425  30.009  1.00  0.00     0.049 A 
ATOM     47  C   UNL A   1      40.911  30.488  34.440  1.00  0.00     0.074 A 
ATOM     48  C   UNL A   1      43.642  26.700  30.143  1.00  0.00     0.029 A 
ATOM     49  N   UNL A   1      42.256  28.058  31.227  1.00  0.00    -0.354 N 
ATOM     50  N   UNL A   1      41.399  29.724  33.492  1.00  0.00    -0.248 NA
ATOM     51  C   UNL A   1      41.629  30.395  35.718  1.00  0.00     0.031 C 
ATOM     52  C   UNL A   1      44.088  26.826  31.463  1.00  0.00     0.029 A 
ATOM     53  C   UNL A   1      43.245  27.698  32.132  1.00  0.00     0.049 A 
ATOM     54  H   UNL A   1      41.511  28.671  31.421  1.00  0.00     0.167 HD
ATOM     55  C   UNL A   1      42.496  29.076  34.054  1.00  0.00     0.074 A 
ATOM     56  C   UNL A   1      42.608  29.555  35.416  1.00  0.00     0.031 C 
ATOM     57  C   UNL A   1      43.335  28.167  33.494  1.00  0.00     0.034 A 
BRANCH  44  58
ATOM     58  C   UNL A   1      41.903  26.661  27.656  1.00  0.00     0.023 A 
ATOM     59  C   UNL A   1      41.512  25.312  27.591  1.00  0.00     0.031 A 
ATOM     60  C   UNL A   1      42.591  27.198  26.554  1.00  0.00     0.131 A 
ATOM     61  C   UNL A   1      41.869  24.531  26.481  1.00  0.00     0.055 A 
ATOM     62  C   UNL A   1      42.874  26.437  25.417  1.00  0.00     0.041 A 
ATOM     63  F   UNL A   1      43.008  28.475  26.565  1.00  0.00    -0.206 F 
ATOM     64  C   UNL A   1      42.524  25.091  25.383  1.00  0.00     0.022 A 
BRANCH  61  65
ATOM     65  S   UNL A   1      41.584  22.742  26.554  1.00  0.00     0.124 S 
ATOM     66  O   UNL A   1      42.205  22.396  27.831  1.00  0.00    -0.237 OA
ATOM     67  O   UNL A   1      40.130  22.652  26.505  1.00  0.00    -0.237 OA
ATOM     68  O   UNL A   1      42.282  22.236  25.374  1.00  0.00    -0.744 OA
ENDBRANCH  61  65
ENDBRANCH  44  58
BRANCH  45  69
ATOM     69  C   UNL A   1      39.311  32.188  35.599  1.00  0.00     0.023 A 
ATOM     70  C   UNL A   1      38.589  31.564  36.628  1.00  0.00     0.031 A 
ATOM     71  C   UNL A   1      39.581  33.563  35.725  1.00  0.00     0.131 A 
ATOM     72  C   UNL A   1      38.119  32.321  37.712  1.00  0.00     0.055 A 
ATOM     73  C   UNL A   1      39.163  34.300  36.835  1.00  0.00     0.041 A 
ATOM     74  F   UNL A   1      40.267  34.212  34.771  1.00  0.00    -0.206 F 
ATOM     75  C   UNL A   1      38.415  33.681  37.831  1.00  0.00     0.022 A 
BRANCH  72  76
ATOM     76  S   UNL A   1      37.026  31.522  38.919  1.00  0.00     0.124 S 
ATOM     77  O   UNL A   1      36.881  30.188  38.349  1.00  0.00    -0.237 OA
ATOM     78  O   UNL A   1      37.810  31.615  40.146  1.00  0.00    -0.237 OA
ATOM     79  O   UNL A   1      35.821  32.350  38.887  1.00  0.00    -0.744 OA
ENDBRANCH  72  76
ENDBRANCH  45  69
BRANCH  57  80
ATOM     80  C   UNL A   1      44.465  27.654  34.353  1.00  0.00     0.023 A 
ATOM     81  C   UNL A   1      44.338  26.479  35.115  1.00  0.00     0.031 A 
ATOM     82  C   UNL A   1      45.687  28.348  34.407  1.00  0.00     0.131 A 
ATOM     83  C   UNL A   1      45.398  26.057  35.931  1.00  0.00     0.055 A 
ATOM     84  C   UNL A   1      46.759  27.890  35.174  1.00  0.00     0.041 A 
ATOM     85  F   UNL A   1      45.863  29.478  33.705  1.00  0.00    -0.206 F 
ATOM     86  C   UNL A   1      46.614  26.744  35.951  1.00  0.00     0.022 A 
BRANCH  83  87
ATOM     87  S   UNL A   1      45.140  24.637  37.031  1.00  0.00     0.124 S 
ATOM     88  O   UNL A   1      46.473  24.444  37.593  1.00  0.00    -0.237 OA
ATOM     89  O   UNL A   1      44.126  25.136  37.955  1.00  0.00    -0.237 OA
ATOM     90  O   UNL A   1      44.688  23.582  36.127  1.00  0.00    -0.744 OA
ENDBRANCH  83  87
ENDBRANCH  57  80
ENDBRANCH  31  32
ENDBRANCH  23  26
ENDBRANCH  21  22
ENDBRANCH   1  21
TORSDOF 16
ENDMDL
