MODEL 1
REMARK VINA RESULT:     -10.5      0.000      0.000
REMARK SMILES C[NH2+]CC(=O)NC[C@H]1CC[C@H](C(=O)NCCCNC(=O)c2ccc(-c3c4nc(c(-c5cc(S(=O)(=O)[O-])ccc5F)c5ccc([nH]5)c(-c5cc(S(=O)(=O)[O-])ccc5F)c5nc(c(-c6cc(S(=O)(=O)[O-])ccc6F)c6ccc3[nH]6)C=C5)C=C4)cc2)O1
REMARK SMILES IDX 15 1 14 2 12 3 13 4 11 6 8 7 9 8 84 9 10 10 7 11 6 12 4 13
REMARK SMILES IDX 5 14 3 16 2 17 1 18 16 21 17 22 18 23 19 24 20 26 21 27
REMARK SMILES IDX 22 28 83 29 23 30 82 31 24 32 25 33 26 34 76 35 27 36 81 37
REMARK SMILES IDX 75 38 77 39 28 40 80 41 74 42 73 43 29 45 61 46 41 47 60 48
REMARK SMILES IDX 42 49 45 50 59 51 78 52 43 53 44 54 58 56 79 57 46 58 30 59
REMARK SMILES IDX 31 60 39 61 32 62 38 63 40 64 37 65 33 66 34 67 35 68 36 69
REMARK SMILES IDX 62 70 63 71 71 72 64 73 70 74 72 75 69 76 65 77 66 78 67 79
REMARK SMILES IDX 68 80 47 81 48 82 56 83 49 84 55 85 57 86 54 87 50 88 51 89
REMARK SMILES IDX 52 90 53 91
REMARK H PARENT 14 5 6 15 2 19 2 20 18 25 77 44 45 55
REMARK Flexibility Score: inf
ROOT
ATOM      1  C   UNL A   1      32.804  26.365  25.898  1.00  0.00     0.117 C 
ENDROOT
BRANCH   1   2
ATOM      2  N   UNL A   1      31.807  25.573  26.588  1.00  0.00    -0.354 N 
ATOM      3  C   UNL A   1      31.720  24.221  26.745  1.00  0.00     0.249 C 
ATOM      4  O   UNL A   1      30.777  23.786  27.414  1.00  0.00    -0.272 OA
ATOM      5  H   UNL A   1      31.082  26.090  27.008  1.00  0.00     0.163 HD
BRANCH   3   6
ATOM      6  C   UNL A   1      32.707  23.253  26.055  1.00  0.00     0.207 C 
ATOM      7  C   UNL A   1      33.393  21.027  26.316  1.00  0.00     0.138 C 
ATOM      8  C   UNL A   1      34.306  21.869  27.183  1.00  0.00     0.037 C 
ATOM      9  O   UNL A   1      32.304  21.884  25.923  1.00  0.00    -0.363 OA
ATOM     10  C   UNL A   1      34.083  23.282  26.706  1.00  0.00     0.045 C 
BRANCH   7  11
ATOM     11  C   UNL A   1      34.088  20.394  25.092  1.00  0.00     0.148 C 
BRANCH  11  12
ATOM     12  N   UNL A   1      33.178  19.648  24.243  1.00  0.00    -0.349 N 
ATOM     13  C   UNL A   1      33.241  18.385  23.748  1.00  0.00     0.275 C 
ATOM     14  O   UNL A   1      32.281  17.973  23.091  1.00  0.00    -0.269 OA
ATOM     15  H   UNL A   1      32.371  20.146  23.977  1.00  0.00     0.163 HD
BRANCH  13  16
ATOM     16  C   UNL A   1      34.491  17.520  23.938  1.00  0.00     0.361 C 
BRANCH  16  17
ATOM     17  N   UNL A   1      34.500  16.923  25.286  1.00  0.00    -0.341 N 
ATOM     18  C   UNL A   1      35.433  15.816  25.391  1.00  0.00     0.331 C 
ATOM     19  H   UNL A   1      34.764  17.639  25.961  1.00  0.00     0.346 HD
ATOM     20  H   UNL A   1      33.565  16.560  25.473  1.00  0.00     0.346 HD
ENDBRANCH  16  17
ENDBRANCH  13  16
ENDBRANCH  11  12
ENDBRANCH   7  11
ENDBRANCH   3   6
ENDBRANCH   1   2
BRANCH   1  21
ATOM     21  C   UNL A   1      32.685  27.851  26.221  1.00  0.00     0.042 C 
BRANCH  21  22
ATOM     22  C   UNL A   1      33.995  28.614  26.089  1.00  0.00     0.118 C 
BRANCH  22  23
ATOM     23  N   UNL A   1      33.870  29.979  26.576  1.00  0.00    -0.352 N 
ATOM     24  C   UNL A   1      34.568  30.647  27.550  1.00  0.00     0.251 C 
ATOM     25  H   UNL A   1      33.169  30.511  26.132  1.00  0.00     0.163 HD
ATOM     26  O   UNL A   1      34.101  31.693  27.992  1.00  0.00    -0.269 OA
BRANCH  24  27
ATOM     27  C   UNL A   1      35.854  30.127  28.074  1.00  0.00     0.039 A 
ATOM     28  C   UNL A   1      36.998  30.241  27.278  1.00  0.00     0.014 A 
ATOM     29  C   UNL A   1      35.932  29.466  29.302  1.00  0.00     0.014 A 
ATOM     30  C   UNL A   1      38.220  29.733  27.729  1.00  0.00     0.010 A 
ATOM     31  C   UNL A   1      37.164  29.036  29.788  1.00  0.00     0.010 A 
ATOM     32  C   UNL A   1      38.319  29.148  29.001  1.00  0.00    -0.014 A 
BRANCH  32  33
ATOM     33  C   UNL A   1      39.610  28.614  29.511  1.00  0.00     0.031 A 
ATOM     34  C   UNL A   1      40.333  29.333  30.621  1.00  0.00     0.074 A 
ATOM     35  C   UNL A   1      40.158  27.528  28.934  1.00  0.00     0.049 A 
ATOM     36  N   UNL A   1      41.511  29.093  31.134  1.00  0.00    -0.248 NA
ATOM     37  C   UNL A   1      39.650  30.497  31.207  1.00  0.00     0.031 C 
ATOM     38  C   UNL A   1      39.569  26.770  27.829  1.00  0.00     0.029 A 
ATOM     39  N   UNL A   1      41.340  26.878  29.187  1.00  0.00    -0.354 N 
ATOM     40  C   UNL A   1      41.722  30.087  32.085  1.00  0.00     0.074 A 
ATOM     41  C   UNL A   1      40.571  30.963  32.035  1.00  0.00     0.031 C 
ATOM     42  C   UNL A   1      40.382  25.750  27.512  1.00  0.00     0.029 A 
ATOM     43  C   UNL A   1      41.569  25.804  28.358  1.00  0.00     0.049 A 
ATOM     44  H   UNL A   1      41.965  27.154  29.896  1.00  0.00     0.167 HD
ATOM     45  C   UNL A   1      42.768  30.242  32.935  1.00  0.00     0.034 A 
ATOM     46  C   UNL A   1      42.623  24.968  28.280  1.00  0.00     0.034 A 
ATOM     47  C   UNL A   1      43.895  29.342  32.988  1.00  0.00     0.049 A 
ATOM     48  C   UNL A   1      43.774  25.159  29.234  1.00  0.00     0.074 A 
ATOM     49  C   UNL A   1      44.982  29.369  33.846  1.00  0.00     0.029 A 
ATOM     50  N   UNL A   1      44.082  28.253  32.146  1.00  0.00    -0.354 N 
ATOM     51  N   UNL A   1      43.937  26.080  30.156  1.00  0.00    -0.248 NA
ATOM     52  C   UNL A   1      44.875  24.192  29.147  1.00  0.00     0.031 C 
ATOM     53  C   UNL A   1      45.851  28.333  33.485  1.00  0.00     0.029 A 
ATOM     54  C   UNL A   1      45.275  27.616  32.448  1.00  0.00     0.049 A 
ATOM     55  H   UNL A   1      43.457  27.974  31.438  1.00  0.00     0.167 HD
ATOM     56  C   UNL A   1      45.146  25.783  30.778  1.00  0.00     0.074 A 
ATOM     57  C   UNL A   1      45.661  24.589  30.136  1.00  0.00     0.031 C 
ATOM     58  C   UNL A   1      45.774  26.432  31.791  1.00  0.00     0.034 A 
BRANCH  45  59
ATOM     59  C   UNL A   1      42.746  31.440  33.855  1.00  0.00     0.023 A 
ATOM     60  C   UNL A   1      42.196  31.370  35.147  1.00  0.00     0.031 A 
ATOM     61  C   UNL A   1      43.261  32.676  33.427  1.00  0.00     0.131 A 
ATOM     62  C   UNL A   1      42.101  32.529  35.933  1.00  0.00     0.055 A 
ATOM     63  C   UNL A   1      43.239  33.807  34.246  1.00  0.00     0.041 A 
ATOM     64  F   UNL A   1      43.783  32.811  32.198  1.00  0.00    -0.206 F 
ATOM     65  C   UNL A   1      42.643  33.742  35.502  1.00  0.00     0.022 A 
BRANCH  62  66
ATOM     66  S   UNL A   1      41.138  32.458  37.468  1.00  0.00     0.124 S 
ATOM     67  O   UNL A   1      41.989  31.623  38.311  1.00  0.00    -0.237 OA
ATOM     68  O   UNL A   1      41.042  33.863  37.847  1.00  0.00    -0.237 OA
ATOM     69  O   UNL A   1      39.881  31.836  37.055  1.00  0.00    -0.744 OA
ENDBRANCH  62  66
ENDBRANCH  45  59
BRANCH  46  70
ATOM     70  C   UNL A   1      42.649  23.880  27.261  1.00  0.00     0.023 A 
ATOM     71  C   UNL A   1      42.022  22.648  27.505  1.00  0.00     0.031 A 
ATOM     72  C   UNL A   1      43.335  24.042  26.045  1.00  0.00     0.131 A 
ATOM     73  C   UNL A   1      42.132  21.610  26.566  1.00  0.00     0.055 A 
ATOM     74  C   UNL A   1      43.400  23.023  25.093  1.00  0.00     0.041 A 
ATOM     75  F   UNL A   1      43.945  25.204  25.758  1.00  0.00    -0.206 F 
ATOM     76  C   UNL A   1      42.806  21.793  25.357  1.00  0.00     0.022 A 
BRANCH  73  77
ATOM     77  S   UNL A   1      41.445  19.984  26.987  1.00  0.00     0.124 S 
ATOM     78  O   UNL A   1      42.652  19.174  27.106  1.00  0.00    -0.237 OA
ATOM     79  O   UNL A   1      40.738  20.269  28.231  1.00  0.00    -0.237 OA
ATOM     80  O   UNL A   1      40.591  19.670  25.843  1.00  0.00    -0.744 OA
ENDBRANCH  73  77
ENDBRANCH  46  70
BRANCH  58  81
ATOM     81  C   UNL A   1      47.063  25.830  32.292  1.00  0.00     0.023 A 
ATOM     82  C   UNL A   1      47.100  24.996  33.422  1.00  0.00     0.031 A 
ATOM     83  C   UNL A   1      48.274  26.110  31.633  1.00  0.00     0.131 A 
ATOM     84  C   UNL A   1      48.331  24.514  33.894  1.00  0.00     0.055 A 
ATOM     85  C   UNL A   1      49.487  25.581  32.073  1.00  0.00     0.041 A 
ATOM     86  F   UNL A   1      48.294  26.901  30.549  1.00  0.00    -0.206 F 
ATOM     87  C   UNL A   1      49.521  24.788  33.217  1.00  0.00     0.022 A 
BRANCH  84  88
ATOM     88  S   UNL A   1      48.363  23.594  35.455  1.00  0.00     0.124 S 
ATOM     89  O   UNL A   1      49.564  22.778  35.302  1.00  0.00    -0.237 OA
ATOM     90  O   UNL A   1      48.442  24.662  36.447  1.00  0.00    -0.237 OA
ATOM     91  O   UNL A   1      47.104  22.852  35.443  1.00  0.00    -0.744 OA
ENDBRANCH  84  88
ENDBRANCH  58  81
ENDBRANCH  32  33
ENDBRANCH  24  27
ENDBRANCH  22  23
ENDBRANCH  21  22
ENDBRANCH   1  21
TORSDOF 17
ENDMDL
MODEL 2
REMARK VINA RESULT:     -10.5      3.755      9.017
REMARK SMILES C[NH2+]CC(=O)NC[C@H]1CC[C@H](C(=O)NCCCNC(=O)c2ccc(-c3c4nc(c(-c5cc(S(=O)(=O)[O-])ccc5F)c5ccc([nH]5)c(-c5cc(S(=O)(=O)[O-])ccc5F)c5nc(c(-c6cc(S(=O)(=O)[O-])ccc6F)c6ccc3[nH]6)C=C5)C=C4)cc2)O1
REMARK SMILES IDX 15 1 14 2 12 3 13 4 11 6 8 7 9 8 84 9 10 10 7 11 6 12 4 13
REMARK SMILES IDX 5 14 3 16 2 17 1 18 16 21 17 22 18 23 19 24 20 26 21 27
REMARK SMILES IDX 22 28 83 29 23 30 82 31 24 32 25 33 26 34 76 35 27 36 81 37
REMARK SMILES IDX 75 38 77 39 28 40 80 41 74 42 73 43 29 45 61 46 41 47 60 48
REMARK SMILES IDX 42 49 45 50 59 51 78 52 43 53 44 54 58 56 79 57 46 58 30 59
REMARK SMILES IDX 31 60 39 61 32 62 38 63 40 64 37 65 33 66 34 67 35 68 36 69
REMARK SMILES IDX 62 70 63 71 71 72 64 73 70 74 72 75 69 76 65 77 66 78 67 79
REMARK SMILES IDX 68 80 47 81 48 82 56 83 49 84 55 85 57 86 54 87 50 88 51 89
REMARK SMILES IDX 52 90 53 91
REMARK H PARENT 14 5 6 15 2 19 2 20 18 25 77 44 45 55
REMARK Flexibility Score: inf
ROOT
ATOM      1  C   UNL A   1      31.465  30.530  26.147  1.00  0.00     0.117 C 
ENDROOT
BRANCH   1   2
ATOM      2  N   UNL A   1      31.018  30.335  24.783  1.00  0.00    -0.354 N 
ATOM      3  C   UNL A   1      31.005  29.205  24.022  1.00  0.00     0.249 C 
ATOM      4  O   UNL A   1      30.537  29.292  22.882  1.00  0.00    -0.272 OA
ATOM      5  H   UNL A   1      30.672  31.142  24.339  1.00  0.00     0.163 HD
BRANCH   3   6
ATOM      6  C   UNL A   1      31.618  27.877  24.519  1.00  0.00     0.207 C 
ATOM      7  C   UNL A   1      32.773  26.063  23.585  1.00  0.00     0.138 C 
ATOM      8  C   UNL A   1      31.297  25.733  23.496  1.00  0.00     0.037 C 
ATOM      9  O   UNL A   1      32.856  27.459  23.928  1.00  0.00    -0.363 OA
ATOM     10  C   UNL A   1      30.633  26.721  24.421  1.00  0.00     0.045 C 
BRANCH   7  11
ATOM     11  C   UNL A   1      33.558  25.185  24.582  1.00  0.00     0.148 C 
BRANCH  11  12
ATOM     12  N   UNL A   1      34.668  24.480  23.969  1.00  0.00    -0.349 N 
ATOM     13  C   UNL A   1      34.724  23.298  23.303  1.00  0.00     0.275 C 
ATOM     14  O   UNL A   1      35.808  22.957  22.820  1.00  0.00    -0.269 OA
ATOM     15  H   UNL A   1      35.535  24.940  24.050  1.00  0.00     0.163 HD
BRANCH  13  16
ATOM     16  C   UNL A   1      33.501  22.380  23.211  1.00  0.00     0.361 C 
BRANCH  16  17
ATOM     17  N   UNL A   1      33.581  21.318  24.232  1.00  0.00    -0.341 N 
ATOM     18  C   UNL A   1      32.433  20.432  24.194  1.00  0.00     0.331 C 
ATOM     19  H   UNL A   1      34.424  20.769  24.070  1.00  0.00     0.346 HD
ATOM     20  H   UNL A   1      33.598  21.767  25.148  1.00  0.00     0.346 HD
ENDBRANCH  16  17
ENDBRANCH  13  16
ENDBRANCH  11  12
ENDBRANCH   7  11
ENDBRANCH   3   6
ENDBRANCH   1   2
BRANCH   1  21
ATOM     21  C   UNL A   1      31.468  32.002  26.548  1.00  0.00     0.042 C 
BRANCH  21  22
ATOM     22  C   UNL A   1      32.752  32.449  27.233  1.00  0.00     0.118 C 
BRANCH  22  23
ATOM     23  N   UNL A   1      32.686  33.847  27.630  1.00  0.00    -0.352 N 
ATOM     24  C   UNL A   1      33.312  34.514  28.654  1.00  0.00     0.251 C 
ATOM     25  H   UNL A   1      32.097  34.406  27.073  1.00  0.00     0.163 HD
ATOM     26  O   UNL A   1      32.887  35.619  28.979  1.00  0.00    -0.269 OA
BRANCH  24  27
ATOM     27  C   UNL A   1      34.470  33.924  29.367  1.00  0.00     0.039 A 
ATOM     28  C   UNL A   1      35.757  34.360  29.033  1.00  0.00     0.014 A 
ATOM     29  C   UNL A   1      34.311  32.899  30.303  1.00  0.00     0.014 A 
ATOM     30  C   UNL A   1      36.872  33.801  29.665  1.00  0.00     0.010 A 
ATOM     31  C   UNL A   1      35.415  32.403  30.993  1.00  0.00     0.010 A 
ATOM     32  C   UNL A   1      36.709  32.835  30.670  1.00  0.00    -0.014 A 
BRANCH  32  33
ATOM     33  C   UNL A   1      37.878  32.237  31.368  1.00  0.00     0.031 A 
ATOM     34  C   UNL A   1      38.668  31.140  30.703  1.00  0.00     0.074 A 
ATOM     35  C   UNL A   1      38.184  32.633  32.619  1.00  0.00     0.049 A 
ATOM     36  N   UNL A   1      39.650  30.420  31.179  1.00  0.00    -0.248 NA
ATOM     37  C   UNL A   1      38.277  30.787  29.329  1.00  0.00     0.031 C 
ATOM     38  C   UNL A   1      37.469  33.660  33.378  1.00  0.00     0.029 A 
ATOM     39  N   UNL A   1      39.168  32.213  33.477  1.00  0.00    -0.354 N 
ATOM     40  C   UNL A   1      39.979  29.514  30.175  1.00  0.00     0.074 A 
ATOM     41  C   UNL A   1      39.053  29.742  29.087  1.00  0.00     0.031 C 
ATOM     42  C   UNL A   1      38.049  33.802  34.581  1.00  0.00     0.029 A 
ATOM     43  C   UNL A   1      39.146  32.849  34.697  1.00  0.00     0.049 A 
ATOM     44  H   UNL A   1      39.828  31.521  33.242  1.00  0.00     0.167 HD
ATOM     45  C   UNL A   1      40.975  28.592  30.156  1.00  0.00     0.034 A 
ATOM     46  C   UNL A   1      39.915  32.672  35.789  1.00  0.00     0.034 A 
ATOM     47  C   UNL A   1      41.905  28.397  31.242  1.00  0.00     0.049 A 
ATOM     48  C   UNL A   1      41.015  31.642  35.745  1.00  0.00     0.074 A 
ATOM     49  C   UNL A   1      42.986  27.534  31.308  1.00  0.00     0.029 A 
ATOM     50  N   UNL A   1      41.865  29.075  32.454  1.00  0.00    -0.354 N 
ATOM     51  N   UNL A   1      41.339  30.822  34.771  1.00  0.00    -0.248 NA
ATOM     52  C   UNL A   1      41.860  31.523  36.940  1.00  0.00     0.031 C 
ATOM     53  C   UNL A   1      43.562  27.649  32.579  1.00  0.00     0.029 A 
ATOM     54  C   UNL A   1      42.885  28.633  33.282  1.00  0.00     0.049 A 
ATOM     55  H   UNL A   1      41.207  29.768  32.690  1.00  0.00     0.167 HD
ATOM     56  C   UNL A   1      42.446  30.112  35.228  1.00  0.00     0.074 A 
ATOM     57  C   UNL A   1      42.741  30.611  36.556  1.00  0.00     0.031 C 
ATOM     58  C   UNL A   1      43.158  29.139  34.605  1.00  0.00     0.034 A 
BRANCH  45  59
ATOM     59  C   UNL A   1      41.087  27.715  28.932  1.00  0.00     0.023 A 
ATOM     60  C   UNL A   1      42.108  27.898  27.982  1.00  0.00     0.031 A 
ATOM     61  C   UNL A   1      40.148  26.695  28.697  1.00  0.00     0.131 A 
ATOM     62  C   UNL A   1      42.119  27.130  26.806  1.00  0.00     0.055 A 
ATOM     63  C   UNL A   1      40.213  25.879  27.565  1.00  0.00     0.041 A 
ATOM     64  F   UNL A   1      39.140  26.483  29.557  1.00  0.00    -0.206 F 
ATOM     65  C   UNL A   1      41.193  26.104  26.604  1.00  0.00     0.022 A 
BRANCH  62  66
ATOM     66  S   UNL A   1      43.276  27.585  25.487  1.00  0.00     0.124 S 
ATOM     67  O   UNL A   1      42.364  28.032  24.437  1.00  0.00    -0.237 OA
ATOM     68  O   UNL A   1      44.083  28.624  26.117  1.00  0.00    -0.237 OA
ATOM     69  O   UNL A   1      43.979  26.336  25.201  1.00  0.00    -0.744 OA
ENDBRANCH  62  66
ENDBRANCH  45  59
BRANCH  46  70
ATOM     70  C   UNL A   1      39.674  33.477  37.021  1.00  0.00     0.023 A 
ATOM     71  C   UNL A   1      38.996  32.928  38.121  1.00  0.00     0.031 A 
ATOM     72  C   UNL A   1      40.084  34.820  37.102  1.00  0.00     0.131 A 
ATOM     73  C   UNL A   1      38.707  33.731  39.235  1.00  0.00     0.055 A 
ATOM     74  C   UNL A   1      39.837  35.599  38.233  1.00  0.00     0.041 A 
ATOM     75  F   UNL A   1      40.743  35.391  36.081  1.00  0.00    -0.206 F 
ATOM     76  C   UNL A   1      39.133  35.059  39.304  1.00  0.00     0.022 A 
BRANCH  73  77
ATOM     77  S   UNL A   1      37.690  33.032  40.566  1.00  0.00     0.124 S 
ATOM     78  O   UNL A   1      37.698  34.114  41.544  1.00  0.00    -0.237 OA
ATOM     79  O   UNL A   1      36.423  32.793  39.884  1.00  0.00    -0.237 OA
ATOM     80  O   UNL A   1      38.424  31.830  40.958  1.00  0.00    -0.744 OA
ENDBRANCH  73  77
ENDBRANCH  46  70
BRANCH  58  81
ATOM     81  C   UNL A   1      44.352  28.590  35.344  1.00  0.00     0.023 A 
ATOM     82  C   UNL A   1      44.262  27.438  36.145  1.00  0.00     0.031 A 
ATOM     83  C   UNL A   1      45.596  29.241  35.256  1.00  0.00     0.131 A 
ATOM     84  C   UNL A   1      45.382  27.003  36.870  1.00  0.00     0.055 A 
ATOM     85  C   UNL A   1      46.720  28.770  35.934  1.00  0.00     0.041 A 
ATOM     86  F   UNL A   1      45.737  30.345  34.505  1.00  0.00    -0.206 F 
ATOM     87  C   UNL A   1      46.614  27.653  36.757  1.00  0.00     0.022 A 
BRANCH  84  88
ATOM     88  S   UNL A   1      45.184  25.626  38.032  1.00  0.00     0.124 S 
ATOM     89  O   UNL A   1      45.418  26.276  39.317  1.00  0.00    -0.237 OA
ATOM     90  O   UNL A   1      43.813  25.195  37.777  1.00  0.00    -0.237 OA
ATOM     91  O   UNL A   1      46.217  24.678  37.619  1.00  0.00    -0.744 OA
ENDBRANCH  84  88
ENDBRANCH  58  81
ENDBRANCH  32  33
ENDBRANCH  24  27
ENDBRANCH  22  23
ENDBRANCH  21  22
ENDBRANCH   1  21
TORSDOF 17
ENDMDL
MODEL 3
REMARK VINA RESULT:     -10.4      2.291      3.144
REMARK SMILES C[NH2+]CC(=O)NC[C@H]1CC[C@H](C(=O)NCCCNC(=O)c2ccc(-c3c4nc(c(-c5cc(S(=O)(=O)[O-])ccc5F)c5ccc([nH]5)c(-c5cc(S(=O)(=O)[O-])ccc5F)c5nc(c(-c6cc(S(=O)(=O)[O-])ccc6F)c6ccc3[nH]6)C=C5)C=C4)cc2)O1
REMARK SMILES IDX 15 1 14 2 12 3 13 4 11 6 8 7 9 8 84 9 10 10 7 11 6 12 4 13
REMARK SMILES IDX 5 14 3 16 2 17 1 18 16 21 17 22 18 23 19 24 20 26 21 27
REMARK SMILES IDX 22 28 83 29 23 30 82 31 24 32 25 33 26 34 76 35 27 36 81 37
REMARK SMILES IDX 75 38 77 39 28 40 80 41 74 42 73 43 29 45 61 46 41 47 60 48
REMARK SMILES IDX 42 49 45 50 59 51 78 52 43 53 44 54 58 56 79 57 46 58 30 59
REMARK SMILES IDX 31 60 39 61 32 62 38 63 40 64 37 65 33 66 34 67 35 68 36 69
REMARK SMILES IDX 62 70 63 71 71 72 64 73 70 74 72 75 69 76 65 77 66 78 67 79
REMARK SMILES IDX 68 80 47 81 48 82 56 83 49 84 55 85 57 86 54 87 50 88 51 89
REMARK SMILES IDX 52 90 53 91
REMARK H PARENT 14 5 6 15 2 19 2 20 18 25 77 44 45 55
REMARK Flexibility Score: inf
ROOT
ATOM      1  C   UNL A   1      31.979  30.018  25.547  1.00  0.00     0.117 C 
ENDROOT
BRANCH   1   2
ATOM      2  N   UNL A   1      33.036  29.706  24.608  1.00  0.00    -0.354 N 
ATOM      3  C   UNL A   1      33.317  28.538  23.964  1.00  0.00     0.249 C 
ATOM      4  O   UNL A   1      34.268  28.536  23.176  1.00  0.00    -0.272 OA
ATOM      5  H   UNL A   1      33.645  30.452  24.403  1.00  0.00     0.163 HD
BRANCH   3   6
ATOM      6  C   UNL A   1      32.536  27.236  24.256  1.00  0.00     0.207 C 
ATOM      7  C   UNL A   1      30.820  26.550  25.697  1.00  0.00     0.138 C 
ATOM      8  C   UNL A   1      32.124  26.327  26.435  1.00  0.00     0.037 C 
ATOM      9  O   UNL A   1      31.138  27.357  24.547  1.00  0.00    -0.363 OA
ATOM     10  C   UNL A   1      33.183  26.420  25.366  1.00  0.00     0.045 C 
BRANCH   7  11
ATOM     11  C   UNL A   1      30.090  25.251  25.297  1.00  0.00     0.148 C 
BRANCH  11  12
ATOM     12  N   UNL A   1      29.672  24.457  26.438  1.00  0.00    -0.349 N 
ATOM     13  C   UNL A   1      30.039  23.217  26.852  1.00  0.00     0.275 C 
ATOM     14  O   UNL A   1      29.567  22.799  27.913  1.00  0.00    -0.269 OA
ATOM     15  H   UNL A   1      29.005  24.895  27.014  1.00  0.00     0.163 HD
BRANCH  13  16
ATOM     16  C   UNL A   1      30.954  22.333  25.998  1.00  0.00     0.361 C 
BRANCH  16  17
ATOM     17  N   UNL A   1      32.300  22.262  26.596  1.00  0.00    -0.341 N 
ATOM     18  C   UNL A   1      33.338  22.097  25.596  1.00  0.00     0.331 C 
ATOM     19  H   UNL A   1      32.476  23.124  27.113  1.00  0.00     0.346 HD
ATOM     20  H   UNL A   1      32.326  21.448  27.209  1.00  0.00     0.346 HD
ENDBRANCH  16  17
ENDBRANCH  13  16
ENDBRANCH  11  12
ENDBRANCH   7  11
ENDBRANCH   3   6
ENDBRANCH   1   2
BRANCH   1  21
ATOM     21  C   UNL A   1      32.402  29.778  26.993  1.00  0.00     0.042 C 
BRANCH  21  22
ATOM     22  C   UNL A   1      33.835  30.195  27.290  1.00  0.00     0.118 C 
BRANCH  22  23
ATOM     23  N   UNL A   1      33.899  31.551  27.814  1.00  0.00    -0.352 N 
ATOM     24  C   UNL A   1      34.715  32.100  28.772  1.00  0.00     0.251 C 
ATOM     25  H   UNL A   1      33.252  32.177  27.416  1.00  0.00     0.163 HD
ATOM     26  O   UNL A   1      34.399  33.182  29.259  1.00  0.00    -0.269 OA
BRANCH  24  27
ATOM     27  C   UNL A   1      35.948  31.411  29.225  1.00  0.00     0.039 A 
ATOM     28  C   UNL A   1      37.187  31.908  28.806  1.00  0.00     0.014 A 
ATOM     29  C   UNL A   1      35.896  30.245  29.993  1.00  0.00     0.014 A 
ATOM     30  C   UNL A   1      38.367  31.263  29.190  1.00  0.00     0.010 A 
ATOM     31  C   UNL A   1      37.073  29.653  30.445  1.00  0.00     0.010 A 
ATOM     32  C   UNL A   1      38.321  30.144  30.035  1.00  0.00    -0.014 A 
BRANCH  32  33
ATOM     33  C   UNL A   1      39.562  29.450  30.470  1.00  0.00     0.031 A 
ATOM     34  C   UNL A   1      40.302  29.932  31.692  1.00  0.00     0.074 A 
ATOM     35  C   UNL A   1      40.054  28.436  29.733  1.00  0.00     0.049 A 
ATOM     36  N   UNL A   1      41.449  29.534  32.176  1.00  0.00    -0.248 NA
ATOM     37  C   UNL A   1      39.680  31.030  32.448  1.00  0.00     0.031 C 
ATOM     38  C   UNL A   1      39.445  27.906  28.511  1.00  0.00     0.029 A 
ATOM     39  N   UNL A   1      41.185  27.676  29.895  1.00  0.00    -0.354 N 
ATOM     40  C   UNL A   1      41.699  30.347  33.279  1.00  0.00     0.074 A 
ATOM     41  C   UNL A   1      40.608  31.294  33.354  1.00  0.00     0.031 C 
ATOM     42  C   UNL A   1      40.199  26.898  28.046  1.00  0.00     0.029 A 
ATOM     43  C   UNL A   1      41.365  26.736  28.906  1.00  0.00     0.049 A 
ATOM     44  H   UNL A   1      41.808  27.792  30.648  1.00  0.00     0.167 HD
ATOM     45  C   UNL A   1      42.731  30.293  34.157  1.00  0.00     0.034 A 
ATOM     46  C   UNL A   1      42.366  25.855  28.710  1.00  0.00     0.034 A 
ATOM     47  C   UNL A   1      43.797  29.323  34.080  1.00  0.00     0.049 A 
ATOM     48  C   UNL A   1      43.503  25.813  29.698  1.00  0.00     0.074 A 
ATOM     49  C   UNL A   1      44.861  29.139  34.946  1.00  0.00     0.029 A 
ATOM     50  N   UNL A   1      43.935  28.372  33.076  1.00  0.00    -0.354 N 
ATOM     51  N   UNL A   1      43.701  26.561  30.759  1.00  0.00    -0.248 NA
ATOM     52  C   UNL A   1      44.541  24.800  29.472  1.00  0.00     0.031 C 
ATOM     53  C   UNL A   1      45.671  28.117  34.435  1.00  0.00     0.029 A 
ATOM     54  C   UNL A   1      45.077  27.616  33.288  1.00  0.00     0.049 A 
ATOM     55  H   UNL A   1      43.311  28.253  32.324  1.00  0.00     0.167 HD
ATOM     56  C   UNL A   1      44.873  26.087  31.342  1.00  0.00     0.074 A 
ATOM     57  C   UNL A   1      45.326  24.981  30.523  1.00  0.00     0.031 C 
ATOM     58  C   UNL A   1      45.516  26.522  32.456  1.00  0.00     0.034 A 
BRANCH  45  59
ATOM     59  C   UNL A   1      42.763  31.326  35.258  1.00  0.00     0.023 A 
ATOM     60  C   UNL A   1      43.334  32.596  35.064  1.00  0.00     0.031 A 
ATOM     61  C   UNL A   1      42.237  31.030  36.528  1.00  0.00     0.131 A 
ATOM     62  C   UNL A   1      43.437  33.491  36.141  1.00  0.00     0.055 A 
ATOM     63  C   UNL A   1      42.268  31.957  37.573  1.00  0.00     0.041 A 
ATOM     64  F   UNL A   1      41.695  29.829  36.781  1.00  0.00    -0.206 F 
ATOM     65  C   UNL A   1      42.885  33.190  37.387  1.00  0.00     0.022 A 
BRANCH  62  66
ATOM     66  S   UNL A   1      44.425  34.996  35.923  1.00  0.00     0.124 S 
ATOM     67  O   UNL A   1      43.389  35.995  35.675  1.00  0.00    -0.237 OA
ATOM     68  O   UNL A   1      45.124  35.103  37.198  1.00  0.00    -0.237 OA
ATOM     69  O   UNL A   1      45.271  34.687  34.772  1.00  0.00    -0.744 OA
ENDBRANCH  62  66
ENDBRANCH  45  59
BRANCH  46  70
ATOM     70  C   UNL A   1      42.348  24.945  27.529  1.00  0.00     0.023 A 
ATOM     71  C   UNL A   1      41.585  23.766  27.537  1.00  0.00     0.031 A 
ATOM     72  C   UNL A   1      43.124  25.220  26.389  1.00  0.00     0.131 A 
ATOM     73  C   UNL A   1      41.650  22.884  26.448  1.00  0.00     0.055 A 
ATOM     74  C   UNL A   1      43.146  24.363  25.287  1.00  0.00     0.041 A 
ATOM     75  F   UNL A   1      43.865  26.338  26.326  1.00  0.00    -0.206 F 
ATOM     76  C   UNL A   1      42.416  23.179  25.318  1.00  0.00     0.022 A 
BRANCH  73  77
ATOM     77  S   UNL A   1      40.778  21.297  26.564  1.00  0.00     0.124 S 
ATOM     78  O   UNL A   1      40.764  21.070  28.004  1.00  0.00    -0.237 OA
ATOM     79  O   UNL A   1      39.492  21.615  25.952  1.00  0.00    -0.237 OA
ATOM     80  O   UNL A   1      41.625  20.387  25.796  1.00  0.00    -0.744 OA
ENDBRANCH  73  77
ENDBRANCH  46  70
BRANCH  58  81
ATOM     81  C   UNL A   1      46.750  25.763  32.871  1.00  0.00     0.023 A 
ATOM     82  C   UNL A   1      46.688  24.685  33.770  1.00  0.00     0.031 A 
ATOM     83  C   UNL A   1      48.010  26.137  32.368  1.00  0.00     0.131 A 
ATOM     84  C   UNL A   1      47.871  24.051  34.183  1.00  0.00     0.055 A 
ATOM     85  C   UNL A   1      49.175  25.466  32.738  1.00  0.00     0.041 A 
ATOM     86  F   UNL A   1      48.125  27.160  31.507  1.00  0.00    -0.206 F 
ATOM     87  C   UNL A   1      49.111  24.425  33.660  1.00  0.00     0.022 A 
BRANCH  84  88
ATOM     88  S   UNL A   1      47.774  22.787  35.478  1.00  0.00     0.124 S 
ATOM     89  O   UNL A   1      48.752  21.806  35.019  1.00  0.00    -0.237 OA
ATOM     90  O   UNL A   1      48.138  23.537  36.676  1.00  0.00    -0.237 OA
ATOM     91  O   UNL A   1      46.381  22.347  35.424  1.00  0.00    -0.744 OA
ENDBRANCH  84  88
ENDBRANCH  58  81
ENDBRANCH  32  33
ENDBRANCH  24  27
ENDBRANCH  22  23
ENDBRANCH  21  22
ENDBRANCH   1  21
TORSDOF 17
ENDMDL
