MODEL 1
REMARK VINA RESULT:     -10.7      0.000      0.000
REMARK SMILES C[C@@H](CC(=O)NCCCNC(=O)c1ccc(-c2c3nc(c(-c4cc(S(=O)(=O)[O-])ccc4F)c4ccc([nH]4)c(-c4cc(S(=O)(=O)[O-])ccc4F)c4nc(c(-c5cc(S(=O)(=O)[O-])ccc5F)c5ccc2[nH]5)C=C4)C=C3)cc1)CC(=O)N1C[C@H](C)[C@@H](C)C1
REMARK SMILES IDX 8 1 7 2 6 3 4 4 5 5 3 7 2 8 1 9 76 10 77 11 78 12 79 13
REMARK SMILES IDX 80 14 85 15 81 16 83 17 82 18 84 19 9 20 10 21 11 22 12 24
REMARK SMILES IDX 13 25 14 26 75 27 15 28 74 29 16 30 17 31 18 32 68 33 19 34
REMARK SMILES IDX 73 35 67 36 69 37 20 38 72 39 66 40 65 41 21 43 53 44 33 45
REMARK SMILES IDX 52 46 34 47 37 48 51 49 70 50 35 51 36 52 50 54 71 55 38 56
REMARK SMILES IDX 22 57 23 58 31 59 24 60 30 61 32 62 29 63 25 64 26 65 27 66
REMARK SMILES IDX 28 67 54 68 55 69 63 70 56 71 62 72 64 73 61 74 57 75 58 76
REMARK SMILES IDX 59 77 60 78 39 79 40 80 48 81 41 82 47 83 49 84 46 85 42 86
REMARK SMILES IDX 43 87 44 88 45 89
REMARK H PARENT 6 6 10 23 69 42 37 53
REMARK Flexibility Score: inf
ROOT
ATOM      1  C   UNL A   1      33.667  28.276  25.900  1.00  0.00     0.042 C 
ENDROOT
BRANCH   1   2
ATOM      2  C   UNL A   1      33.173  29.216  24.802  1.00  0.00     0.117 C 
BRANCH   2   3
ATOM      3  N   UNL A   1      33.871  29.006  23.547  1.00  0.00    -0.356 N 
ATOM      4  C   UNL A   1      33.588  28.188  22.497  1.00  0.00     0.220 C 
ATOM      5  O   UNL A   1      34.373  28.176  21.546  1.00  0.00    -0.275 OA
ATOM      6  H   UNL A   1      34.688  29.545  23.438  1.00  0.00     0.163 HD
BRANCH   4   7
ATOM      7  C   UNL A   1      32.335  27.325  22.477  1.00  0.00     0.103 C 
BRANCH   7   8
ATOM      8  C   UNL A   1      32.458  25.849  22.934  1.00  0.00     0.004 C 
ATOM      9  C   UNL A   1      31.361  25.531  23.950  1.00  0.00     0.009 C 
BRANCH   8  10
ATOM     10  C   UNL A   1      33.881  25.467  23.365  1.00  0.00     0.104 C 
BRANCH  10  11
ATOM     11  C   UNL A   1      34.276  23.995  23.377  1.00  0.00     0.222 C 
ATOM     12  O   UNL A   1      33.661  23.161  22.719  1.00  0.00    -0.275 OA
ATOM     13  N   UNL A   1      35.458  23.716  24.047  1.00  0.00    -0.342 N 
ATOM     14  C   UNL A   1      36.442  22.792  23.494  1.00  0.00     0.123 C 
ATOM     15  C   UNL A   1      35.524  23.719  25.498  1.00  0.00     0.123 C 
ATOM     16  C   UNL A   1      36.975  21.996  24.691  1.00  0.00     0.010 C 
ATOM     17  C   UNL A   1      36.800  22.971  25.867  1.00  0.00     0.010 C 
ATOM     18  C   UNL A   1      36.164  20.712  24.880  1.00  0.00     0.010 C 
ATOM     19  C   UNL A   1      37.982  23.929  26.022  1.00  0.00     0.010 C 
ENDBRANCH  10  11
ENDBRANCH   8  10
ENDBRANCH   7   8
ENDBRANCH   4   7
ENDBRANCH   2   3
ENDBRANCH   1   2
BRANCH   1  20
ATOM     20  C   UNL A   1      33.383  28.742  27.324  1.00  0.00     0.118 C 
BRANCH  20  21
ATOM     21  N   UNL A   1      33.461  30.186  27.444  1.00  0.00    -0.352 N 
ATOM     22  C   UNL A   1      34.413  30.982  28.036  1.00  0.00     0.251 C 
ATOM     23  H   UNL A   1      32.711  30.675  27.035  1.00  0.00     0.163 HD
ATOM     24  O   UNL A   1      34.142  32.167  28.223  1.00  0.00    -0.269 OA
BRANCH  22  25
ATOM     25  C   UNL A   1      35.732  30.449  28.464  1.00  0.00     0.039 A 
ATOM     26  C   UNL A   1      35.815  29.801  29.702  1.00  0.00     0.014 A 
ATOM     27  C   UNL A   1      36.897  30.638  27.715  1.00  0.00     0.014 A 
ATOM     28  C   UNL A   1      37.042  29.312  30.165  1.00  0.00     0.010 A 
ATOM     29  C   UNL A   1      38.109  30.086  28.143  1.00  0.00     0.010 A 
ATOM     30  C   UNL A   1      38.199  29.425  29.379  1.00  0.00    -0.014 A 
BRANCH  30  31
ATOM     31  C   UNL A   1      39.504  28.874  29.841  1.00  0.00     0.031 A 
ATOM     32  C   UNL A   1      40.263  29.543  30.960  1.00  0.00     0.074 A 
ATOM     33  C   UNL A   1      40.038  27.803  29.219  1.00  0.00     0.049 A 
ATOM     34  N   UNL A   1      41.443  29.259  31.447  1.00  0.00    -0.248 NA
ATOM     35  C   UNL A   1      39.616  30.701  31.596  1.00  0.00     0.031 C 
ATOM     36  C   UNL A   1      39.421  27.082  28.103  1.00  0.00     0.029 A 
ATOM     37  N   UNL A   1      41.225  27.140  29.421  1.00  0.00    -0.354 N 
ATOM     38  C   UNL A   1      41.694  30.213  32.429  1.00  0.00     0.074 A 
ATOM     39  C   UNL A   1      40.557  31.110  32.434  1.00  0.00     0.031 C 
ATOM     40  C   UNL A   1      40.229  26.078  27.725  1.00  0.00     0.029 A 
ATOM     41  C   UNL A   1      41.439  26.104  28.540  1.00  0.00     0.049 A 
ATOM     42  H   UNL A   1      41.862  27.384  30.130  1.00  0.00     0.167 HD
ATOM     43  C   UNL A   1      42.762  30.322  33.258  1.00  0.00     0.034 A 
ATOM     44  C   UNL A   1      42.495  25.278  28.391  1.00  0.00     0.034 A 
ATOM     45  C   UNL A   1      43.875  29.403  33.262  1.00  0.00     0.049 A 
ATOM     46  C   UNL A   1      43.672  25.421  29.324  1.00  0.00     0.074 A 
ATOM     47  C   UNL A   1      44.965  29.374  34.116  1.00  0.00     0.029 A 
ATOM     48  N   UNL A   1      44.049  28.356  32.366  1.00  0.00    -0.354 N 
ATOM     49  N   UNL A   1      43.857  26.289  30.292  1.00  0.00    -0.248 NA
ATOM     50  C   UNL A   1      44.773  24.463  29.155  1.00  0.00     0.031 C 
ATOM     51  C   UNL A   1      45.830  28.360  33.692  1.00  0.00     0.029 A 
ATOM     52  C   UNL A   1      45.244  27.701  32.623  1.00  0.00     0.049 A 
ATOM     53  H   UNL A   1      43.416  28.114  31.652  1.00  0.00     0.167 HD
ATOM     54  C   UNL A   1      45.083  25.960  30.865  1.00  0.00     0.074 A 
ATOM     55  C   UNL A   1      45.581  24.805  30.147  1.00  0.00     0.031 C 
ATOM     56  C   UNL A   1      45.736  26.556  31.896  1.00  0.00     0.034 A 
BRANCH  43  57
ATOM     57  C   UNL A   1      42.796  31.494  34.211  1.00  0.00     0.023 A 
ATOM     58  C   UNL A   1      42.165  31.452  35.466  1.00  0.00     0.031 A 
ATOM     59  C   UNL A   1      43.472  32.675  33.855  1.00  0.00     0.131 A 
ATOM     60  C   UNL A   1      42.166  32.588  36.290  1.00  0.00     0.055 A 
ATOM     61  C   UNL A   1      43.535  33.776  34.713  1.00  0.00     0.041 A 
ATOM     62  F   UNL A   1      44.078  32.783  32.662  1.00  0.00    -0.206 F 
ATOM     63  C   UNL A   1      42.869  33.741  35.934  1.00  0.00     0.022 A 
BRANCH  60  64
ATOM     64  S   UNL A   1      41.129  32.581  37.779  1.00  0.00     0.124 S 
ATOM     65  O   UNL A   1      40.977  34.011  38.037  1.00  0.00    -0.237 OA
ATOM     66  O   UNL A   1      39.931  31.883  37.327  1.00  0.00    -0.237 OA
ATOM     67  O   UNL A   1      41.940  31.861  38.759  1.00  0.00    -0.744 OA
ENDBRANCH  60  64
ENDBRANCH  43  57
BRANCH  44  68
ATOM     68  C   UNL A   1      42.507  24.255  27.306  1.00  0.00     0.023 A 
ATOM     69  C   UNL A   1      41.947  22.982  27.500  1.00  0.00     0.031 A 
ATOM     70  C   UNL A   1      43.131  24.517  26.072  1.00  0.00     0.131 A 
ATOM     71  C   UNL A   1      42.068  22.003  26.502  1.00  0.00     0.055 A 
ATOM     72  C   UNL A   1      43.200  23.558  25.061  1.00  0.00     0.041 A 
ATOM     73  F   UNL A   1      43.677  25.720  25.829  1.00  0.00    -0.206 F 
ATOM     74  C   UNL A   1      42.681  22.286  25.278  1.00  0.00     0.022 A 
BRANCH  71  75
ATOM     75  S   UNL A   1      41.499  20.319  26.863  1.00  0.00     0.124 S 
ATOM     76  O   UNL A   1      41.008  19.886  25.559  1.00  0.00    -0.237 OA
ATOM     77  O   UNL A   1      42.724  19.681  27.331  1.00  0.00    -0.237 OA
ATOM     78  O   UNL A   1      40.472  20.518  27.882  1.00  0.00    -0.744 OA
ENDBRANCH  71  75
ENDBRANCH  44  68
BRANCH  56  79
ATOM     79  C   UNL A   1      47.040  25.933  32.334  1.00  0.00     0.023 A 
ATOM     80  C   UNL A   1      48.248  26.196  31.666  1.00  0.00     0.031 A 
ATOM     81  C   UNL A   1      47.069  25.055  33.432  1.00  0.00     0.131 A 
ATOM     82  C   UNL A   1      49.424  25.542  32.066  1.00  0.00     0.055 A 
ATOM     83  C   UNL A   1      48.254  24.456  33.864  1.00  0.00     0.041 A 
ATOM     84  F   UNL A   1      45.944  24.767  34.107  1.00  0.00    -0.206 F 
ATOM     85  C   UNL A   1      49.437  24.688  33.171  1.00  0.00     0.022 A 
BRANCH  82  86
ATOM     86  S   UNL A   1      50.923  25.753  31.064  1.00  0.00     0.124 S 
ATOM     87  O   UNL A   1      51.887  24.929  31.786  1.00  0.00    -0.237 OA
ATOM     88  O   UNL A   1      50.501  25.248  29.762  1.00  0.00    -0.237 OA
ATOM     89  O   UNL A   1      51.172  27.192  31.119  1.00  0.00    -0.744 OA
ENDBRANCH  82  86
ENDBRANCH  56  79
ENDBRANCH  30  31
ENDBRANCH  22  25
ENDBRANCH  20  21
ENDBRANCH   1  20
TORSDOF 16
ENDMDL
MODEL 2
REMARK VINA RESULT:     -10.7      5.039     10.807
REMARK SMILES C[C@@H](CC(=O)NCCCNC(=O)c1ccc(-c2c3nc(c(-c4cc(S(=O)(=O)[O-])ccc4F)c4ccc([nH]4)c(-c4cc(S(=O)(=O)[O-])ccc4F)c4nc(c(-c5cc(S(=O)(=O)[O-])ccc5F)c5ccc2[nH]5)C=C4)C=C3)cc1)CC(=O)N1C[C@H](C)[C@@H](C)C1
REMARK SMILES IDX 8 1 7 2 6 3 4 4 5 5 3 7 2 8 1 9 76 10 77 11 78 12 79 13
REMARK SMILES IDX 80 14 85 15 81 16 83 17 82 18 84 19 9 20 10 21 11 22 12 24
REMARK SMILES IDX 13 25 14 26 75 27 15 28 74 29 16 30 17 31 18 32 68 33 19 34
REMARK SMILES IDX 73 35 67 36 69 37 20 38 72 39 66 40 65 41 21 43 53 44 33 45
REMARK SMILES IDX 52 46 34 47 37 48 51 49 70 50 35 51 36 52 50 54 71 55 38 56
REMARK SMILES IDX 22 57 23 58 31 59 24 60 30 61 32 62 29 63 25 64 26 65 27 66
REMARK SMILES IDX 28 67 54 68 55 69 63 70 56 71 62 72 64 73 61 74 57 75 58 76
REMARK SMILES IDX 59 77 60 78 39 79 40 80 48 81 41 82 47 83 49 84 46 85 42 86
REMARK SMILES IDX 43 87 44 88 45 89
REMARK H PARENT 6 6 10 23 69 42 37 53
REMARK Flexibility Score: inf
ROOT
ATOM      1  C   UNL A   1      41.587  20.002  27.449  1.00  0.00     0.042 C 
ENDROOT
BRANCH   1   2
ATOM      2  C   UNL A   1      41.881  19.560  26.017  1.00  0.00     0.117 C 
BRANCH   2   3
ATOM      3  N   UNL A   1      43.064  18.721  25.935  1.00  0.00    -0.356 N 
ATOM      4  C   UNL A   1      44.266  18.934  25.337  1.00  0.00     0.220 C 
ATOM      5  O   UNL A   1      45.106  18.032  25.390  1.00  0.00    -0.275 OA
ATOM      6  H   UNL A   1      42.979  17.850  26.389  1.00  0.00     0.163 HD
BRANCH   4   7
ATOM      7  C   UNL A   1      44.584  20.247  24.637  1.00  0.00     0.103 C 
BRANCH   7   8
ATOM      8  C   UNL A   1      45.471  21.276  25.384  1.00  0.00     0.004 C 
ATOM      9  C   UNL A   1      44.690  21.878  26.551  1.00  0.00     0.009 C 
BRANCH   8  10
ATOM     10  C   UNL A   1      46.135  22.294  24.445  1.00  0.00     0.104 C 
BRANCH  10  11
ATOM     11  C   UNL A   1      45.706  23.754  24.522  1.00  0.00     0.222 C 
ATOM     12  O   UNL A   1      44.556  24.098  24.267  1.00  0.00    -0.275 OA
ATOM     13  N   UNL A   1      46.658  24.612  25.052  1.00  0.00    -0.342 N 
ATOM     14  C   UNL A   1      46.295  25.647  26.014  1.00  0.00     0.123 C 
ATOM     15  C   UNL A   1      47.820  25.021  24.282  1.00  0.00     0.123 C 
ATOM     16  C   UNL A   1      47.138  26.870  25.638  1.00  0.00     0.010 C 
ATOM     17  C   UNL A   1      48.384  26.251  24.984  1.00  0.00     0.010 C 
ATOM     18  C   UNL A   1      46.366  27.772  24.671  1.00  0.00     0.010 C 
ATOM     19  C   UNL A   1      49.458  25.868  26.003  1.00  0.00     0.010 C 
ENDBRANCH  10  11
ENDBRANCH   8  10
ENDBRANCH   7   8
ENDBRANCH   4   7
ENDBRANCH   2   3
ENDBRANCH   1   2
BRANCH   1  20
ATOM     20  C   UNL A   1      40.985  21.397  27.583  1.00  0.00     0.118 C 
BRANCH  20  21
ATOM     21  N   UNL A   1      39.892  21.604  26.650  1.00  0.00    -0.352 N 
ATOM     22  C   UNL A   1      39.152  22.730  26.379  1.00  0.00     0.251 C 
ATOM     23  H   UNL A   1      39.641  20.809  26.127  1.00  0.00     0.163 HD
ATOM     24  O   UNL A   1      38.119  22.601  25.725  1.00  0.00    -0.269 OA
BRANCH  22  25
ATOM     25  C   UNL A   1      39.554  24.074  26.868  1.00  0.00     0.039 A 
ATOM     26  C   UNL A   1      40.189  24.943  25.971  1.00  0.00     0.014 A 
ATOM     27  C   UNL A   1      39.392  24.469  28.198  1.00  0.00     0.014 A 
ATOM     28  C   UNL A   1      40.618  26.207  26.392  1.00  0.00     0.010 A 
ATOM     29  C   UNL A   1      39.756  25.759  28.601  1.00  0.00     0.010 A 
ATOM     30  C   UNL A   1      40.383  26.640  27.706  1.00  0.00    -0.014 A 
BRANCH  30  31
ATOM     31  C   UNL A   1      40.798  27.998  28.158  1.00  0.00     0.031 A 
ATOM     32  C   UNL A   1      42.256  28.385  28.172  1.00  0.00     0.074 A 
ATOM     33  C   UNL A   1      39.871  28.868  28.609  1.00  0.00     0.049 A 
ATOM     34  N   UNL A   1      42.817  29.487  28.600  1.00  0.00    -0.248 NA
ATOM     35  C   UNL A   1      43.209  27.390  27.658  1.00  0.00     0.031 C 
ATOM     36  C   UNL A   1      38.432  28.606  28.676  1.00  0.00     0.029 A 
ATOM     37  N   UNL A   1      39.997  30.141  29.111  1.00  0.00    -0.354 N 
ATOM     38  C   UNL A   1      44.188  29.311  28.432  1.00  0.00     0.074 A 
ATOM     39  C   UNL A   1      44.372  27.976  27.902  1.00  0.00     0.031 C 
ATOM     40  C   UNL A   1      37.810  29.683  29.184  1.00  0.00     0.029 A 
ATOM     41  C   UNL A   1      38.805  30.698  29.516  1.00  0.00     0.049 A 
ATOM     42  H   UNL A   1      40.859  30.610  29.175  1.00  0.00     0.167 HD
ATOM     43  C   UNL A   1      45.195  30.184  28.681  1.00  0.00     0.034 A 
ATOM     44  C   UNL A   1      38.540  31.883  30.103  1.00  0.00     0.034 A 
ATOM     45  C   UNL A   1      44.995  31.523  29.181  1.00  0.00     0.049 A 
ATOM     46  C   UNL A   1      39.679  32.836  30.371  1.00  0.00     0.074 A 
ATOM     47  C   UNL A   1      45.939  32.515  29.388  1.00  0.00     0.029 A 
ATOM     48  N   UNL A   1      43.772  32.057  29.564  1.00  0.00    -0.354 N 
ATOM     49  N   UNL A   1      40.961  32.675  30.140  1.00  0.00    -0.248 NA
ATOM     50  C   UNL A   1      39.332  34.135  30.963  1.00  0.00     0.031 C 
ATOM     51  C   UNL A   1      45.299  33.620  29.961  1.00  0.00     0.029 A 
ATOM     52  C   UNL A   1      43.943  33.350  30.039  1.00  0.00     0.049 A 
ATOM     53  H   UNL A   1      42.908  31.588  29.507  1.00  0.00     0.167 HD
ATOM     54  C   UNL A   1      41.568  33.866  30.532  1.00  0.00     0.074 A 
ATOM     55  C   UNL A   1      40.510  34.739  30.995  1.00  0.00     0.031 C 
ATOM     56  C   UNL A   1      42.882  34.209  30.507  1.00  0.00     0.034 A 
BRANCH  43  57
ATOM     57  C   UNL A   1      46.611  29.711  28.445  1.00  0.00     0.023 A 
ATOM     58  C   UNL A   1      47.255  28.821  29.322  1.00  0.00     0.031 A 
ATOM     59  C   UNL A   1      47.329  30.161  27.323  1.00  0.00     0.131 A 
ATOM     60  C   UNL A   1      48.593  28.462  29.099  1.00  0.00     0.055 A 
ATOM     61  C   UNL A   1      48.634  29.739  27.064  1.00  0.00     0.041 A 
ATOM     62  F   UNL A   1      46.774  31.027  26.459  1.00  0.00    -0.206 F 
ATOM     63  C   UNL A   1      49.279  28.893  27.961  1.00  0.00     0.022 A 
BRANCH  60  64
ATOM     64  S   UNL A   1      49.465  27.522  30.382  1.00  0.00     0.124 S 
ATOM     65  O   UNL A   1      49.458  26.175  29.815  1.00  0.00    -0.237 OA
ATOM     66  O   UNL A   1      50.762  28.186  30.434  1.00  0.00    -0.237 OA
ATOM     67  O   UNL A   1      48.625  27.696  31.566  1.00  0.00    -0.744 OA
ENDBRANCH  60  64
ENDBRANCH  43  57
BRANCH  44  68
ATOM     68  C   UNL A   1      37.146  32.235  30.501  1.00  0.00     0.023 A 
ATOM     69  C   UNL A   1      36.250  32.806  29.583  1.00  0.00     0.031 A 
ATOM     70  C   UNL A   1      36.706  32.057  31.826  1.00  0.00     0.131 A 
ATOM     71  C   UNL A   1      34.982  33.226  30.012  1.00  0.00     0.055 A 
ATOM     72  C   UNL A   1      35.424  32.426  32.234  1.00  0.00     0.041 A 
ATOM     73  F   UNL A   1      37.520  31.509  32.744  1.00  0.00    -0.206 F 
ATOM     74  C   UNL A   1      34.558  33.030  31.328  1.00  0.00     0.022 A 
BRANCH  71  75
ATOM     75  S   UNL A   1      33.925  34.127  28.844  1.00  0.00     0.124 S 
ATOM     76  O   UNL A   1      34.853  35.116  28.306  1.00  0.00    -0.237 OA
ATOM     77  O   UNL A   1      33.515  33.067  27.930  1.00  0.00    -0.237 OA
ATOM     78  O   UNL A   1      32.863  34.664  29.691  1.00  0.00    -0.744 OA
ENDBRANCH  71  75
ENDBRANCH  44  68
BRANCH  56  79
ATOM     79  C   UNL A   1      43.235  35.608  30.951  1.00  0.00     0.023 A 
ATOM     80  C   UNL A   1      43.397  36.658  30.031  1.00  0.00     0.031 A 
ATOM     81  C   UNL A   1      43.422  35.889  32.316  1.00  0.00     0.131 A 
ATOM     82  C   UNL A   1      43.793  37.927  30.482  1.00  0.00     0.055 A 
ATOM     83  C   UNL A   1      43.755  37.169  32.765  1.00  0.00     0.041 A 
ATOM     84  F   UNL A   1      43.281  34.923  33.238  1.00  0.00    -0.206 F 
ATOM     85  C   UNL A   1      43.955  38.193  31.845  1.00  0.00     0.022 A 
BRANCH  82  86
ATOM     86  S   UNL A   1      44.181  39.207  29.256  1.00  0.00     0.124 S 
ATOM     87  O   UNL A   1      44.211  38.439  28.016  1.00  0.00    -0.237 OA
ATOM     88  O   UNL A   1      43.062  40.133  29.407  1.00  0.00    -0.237 OA
ATOM     89  O   UNL A   1      45.475  39.724  29.698  1.00  0.00    -0.744 OA
ENDBRANCH  82  86
ENDBRANCH  56  79
ENDBRANCH  30  31
ENDBRANCH  22  25
ENDBRANCH  20  21
ENDBRANCH   1  20
TORSDOF 16
ENDMDL
MODEL 3
REMARK VINA RESULT:     -10.6      3.794      9.110
REMARK SMILES C[C@@H](CC(=O)NCCCNC(=O)c1ccc(-c2c3nc(c(-c4cc(S(=O)(=O)[O-])ccc4F)c4ccc([nH]4)c(-c4cc(S(=O)(=O)[O-])ccc4F)c4nc(c(-c5cc(S(=O)(=O)[O-])ccc5F)c5ccc2[nH]5)C=C4)C=C3)cc1)CC(=O)N1C[C@H](C)[C@@H](C)C1
REMARK SMILES IDX 8 1 7 2 6 3 4 4 5 5 3 7 2 8 1 9 76 10 77 11 78 12 79 13
REMARK SMILES IDX 80 14 85 15 81 16 83 17 82 18 84 19 9 20 10 21 11 22 12 24
REMARK SMILES IDX 13 25 14 26 75 27 15 28 74 29 16 30 17 31 18 32 68 33 19 34
REMARK SMILES IDX 73 35 67 36 69 37 20 38 72 39 66 40 65 41 21 43 53 44 33 45
REMARK SMILES IDX 52 46 34 47 37 48 51 49 70 50 35 51 36 52 50 54 71 55 38 56
REMARK SMILES IDX 22 57 23 58 31 59 24 60 30 61 32 62 29 63 25 64 26 65 27 66
REMARK SMILES IDX 28 67 54 68 55 69 63 70 56 71 62 72 64 73 61 74 57 75 58 76
REMARK SMILES IDX 59 77 60 78 39 79 40 80 48 81 41 82 47 83 49 84 46 85 42 86
REMARK SMILES IDX 43 87 44 88 45 89
REMARK H PARENT 6 6 10 23 69 42 37 53
REMARK Flexibility Score: inf
ROOT
ATOM      1  C   UNL A   1      31.147  32.064  26.618  1.00  0.00     0.042 C 
ENDROOT
BRANCH   1   2
ATOM      2  C   UNL A   1      31.188  30.920  25.606  1.00  0.00     0.117 C 
BRANCH   2   3
ATOM      3  N   UNL A   1      32.284  30.002  25.861  1.00  0.00    -0.356 N 
ATOM      4  C   UNL A   1      32.439  28.690  25.539  1.00  0.00     0.220 C 
ATOM      5  O   UNL A   1      33.471  28.123  25.906  1.00  0.00    -0.275 OA
ATOM      6  H   UNL A   1      33.042  30.397  26.352  1.00  0.00     0.163 HD
BRANCH   4   7
ATOM      7  C   UNL A   1      31.388  27.940  24.736  1.00  0.00     0.103 C 
BRANCH   7   8
ATOM      8  C   UNL A   1      31.478  26.393  24.679  1.00  0.00     0.004 C 
ATOM      9  C   UNL A   1      31.256  25.916  23.245  1.00  0.00     0.009 C 
BRANCH   8  10
ATOM     10  C   UNL A   1      30.614  25.699  25.742  1.00  0.00     0.104 C 
BRANCH  10  11
ATOM     11  C   UNL A   1      31.133  24.422  26.393  1.00  0.00     0.222 C 
ATOM     12  O   UNL A   1      30.450  23.785  27.189  1.00  0.00    -0.275 OA
ATOM     13  N   UNL A   1      32.345  23.967  25.894  1.00  0.00    -0.342 N 
ATOM     14  C   UNL A   1      32.566  22.552  25.617  1.00  0.00     0.123 C 
ATOM     15  C   UNL A   1      33.596  24.619  26.236  1.00  0.00     0.123 C 
ATOM     16  C   UNL A   1      34.007  22.269  26.059  1.00  0.00     0.010 C 
ATOM     17  C   UNL A   1      34.702  23.629  25.885  1.00  0.00     0.010 C 
ATOM     18  C   UNL A   1      34.033  21.788  27.512  1.00  0.00     0.010 C 
ATOM     19  C   UNL A   1      35.218  23.852  24.463  1.00  0.00     0.010 C 
ENDBRANCH  10  11
ENDBRANCH   8  10
ENDBRANCH   7   8
ENDBRANCH   4   7
ENDBRANCH   2   3
ENDBRANCH   1   2
BRANCH   1  20
ATOM     20  C   UNL A   1      32.511  32.553  27.094  1.00  0.00     0.118 C 
BRANCH  20  21
ATOM     21  N   UNL A   1      32.466  33.938  27.525  1.00  0.00    -0.352 N 
ATOM     22  C   UNL A   1      33.127  34.577  28.547  1.00  0.00     0.251 C 
ATOM     23  H   UNL A   1      31.864  34.514  27.000  1.00  0.00     0.163 HD
ATOM     24  O   UNL A   1      32.746  35.699  28.872  1.00  0.00    -0.269 OA
BRANCH  22  25
ATOM     25  C   UNL A   1      34.263  33.944  29.267  1.00  0.00     0.039 A 
ATOM     26  C   UNL A   1      35.563  34.354  28.946  1.00  0.00     0.014 A 
ATOM     27  C   UNL A   1      34.084  32.910  30.190  1.00  0.00     0.014 A 
ATOM     28  C   UNL A   1      36.667  33.763  29.571  1.00  0.00     0.010 A 
ATOM     29  C   UNL A   1      35.182  32.371  30.868  1.00  0.00     0.010 A 
ATOM     30  C   UNL A   1      36.489  32.783  30.560  1.00  0.00    -0.014 A 
BRANCH  30  31
ATOM     31  C   UNL A   1      37.653  32.175  31.264  1.00  0.00     0.031 A 
ATOM     32  C   UNL A   1      38.441  31.063  30.615  1.00  0.00     0.074 A 
ATOM     33  C   UNL A   1      37.971  32.581  32.509  1.00  0.00     0.049 A 
ATOM     34  N   UNL A   1      39.432  30.359  31.098  1.00  0.00    -0.248 NA
ATOM     35  C   UNL A   1      38.042  30.678  29.253  1.00  0.00     0.031 C 
ATOM     36  C   UNL A   1      37.270  33.625  33.260  1.00  0.00     0.029 A 
ATOM     37  N   UNL A   1      38.953  32.158  33.373  1.00  0.00    -0.354 N 
ATOM     38  C   UNL A   1      39.761  29.433  30.113  1.00  0.00     0.074 A 
ATOM     39  C   UNL A   1      38.831  29.640  29.023  1.00  0.00     0.031 C 
ATOM     40  C   UNL A   1      37.846  33.764  34.465  1.00  0.00     0.029 A 
ATOM     41  C   UNL A   1      38.930  32.796  34.594  1.00  0.00     0.049 A 
ATOM     42  H   UNL A   1      39.611  31.465  33.141  1.00  0.00     0.167 HD
ATOM     43  C   UNL A   1      40.755  28.509  30.111  1.00  0.00     0.034 A 
ATOM     44  C   UNL A   1      39.683  32.612  35.698  1.00  0.00     0.034 A 
ATOM     45  C   UNL A   1      41.694  28.333  31.193  1.00  0.00     0.049 A 
ATOM     46  C   UNL A   1      40.780  31.577  35.671  1.00  0.00     0.074 A 
ATOM     47  C   UNL A   1      42.787  27.485  31.255  1.00  0.00     0.029 A 
ATOM     48  N   UNL A   1      41.649  29.009  32.405  1.00  0.00    -0.354 N 
ATOM     49  N   UNL A   1      41.118  30.758  34.701  1.00  0.00    -0.248 NA
ATOM     50  C   UNL A   1      41.606  31.453  36.879  1.00  0.00     0.031 C 
ATOM     51  C   UNL A   1      43.358  27.595  32.528  1.00  0.00     0.029 A 
ATOM     52  C   UNL A   1      42.672  28.570  33.234  1.00  0.00     0.049 A 
ATOM     53  H   UNL A   1      40.988  29.699  32.643  1.00  0.00     0.167 HD
ATOM     54  C   UNL A   1      42.215  30.044  35.176  1.00  0.00     0.074 A 
ATOM     55  C   UNL A   1      42.492  30.542  36.507  1.00  0.00     0.031 C 
ATOM     56  C   UNL A   1      42.934  29.067  34.564  1.00  0.00     0.034 A 
BRANCH  43  57
ATOM     57  C   UNL A   1      40.860  27.592  28.914  1.00  0.00     0.023 A 
ATOM     58  C   UNL A   1      41.824  27.785  27.910  1.00  0.00     0.031 A 
ATOM     59  C   UNL A   1      39.976  26.506  28.776  1.00  0.00     0.131 A 
ATOM     60  C   UNL A   1      41.841  26.949  26.784  1.00  0.00     0.055 A 
ATOM     61  C   UNL A   1      40.048  25.631  27.690  1.00  0.00     0.041 A 
ATOM     62  F   UNL A   1      39.022  26.281  29.692  1.00  0.00    -0.206 F 
ATOM     63  C   UNL A   1      40.977  25.857  26.679  1.00  0.00     0.022 A 
BRANCH  60  64
ATOM     64  S   UNL A   1      42.926  27.384  25.396  1.00  0.00     0.124 S 
ATOM     65  O   UNL A   1      44.118  27.861  26.094  1.00  0.00    -0.237 OA
ATOM     66  O   UNL A   1      43.063  26.114  24.693  1.00  0.00    -0.237 OA
ATOM     67  O   UNL A   1      42.175  28.415  24.683  1.00  0.00    -0.744 OA
ENDBRANCH  60  64
ENDBRANCH  43  57
BRANCH  44  68
ATOM     68  C   UNL A   1      39.420  33.406  36.933  1.00  0.00     0.023 A 
ATOM     69  C   UNL A   1      40.093  34.614  37.178  1.00  0.00     0.031 A 
ATOM     70  C   UNL A   1      38.528  32.939  37.916  1.00  0.00     0.131 A 
ATOM     71  C   UNL A   1      39.906  35.284  38.397  1.00  0.00     0.055 A 
ATOM     72  C   UNL A   1      38.304  33.638  39.102  1.00  0.00     0.041 A 
ATOM     73  F   UNL A   1      37.852  31.793  37.730  1.00  0.00    -0.206 F 
ATOM     74  C   UNL A   1      39.007  34.811  39.356  1.00  0.00     0.022 A 
BRANCH  71  75
ATOM     75  S   UNL A   1      40.931  36.738  38.754  1.00  0.00     0.124 S 
ATOM     76  O   UNL A   1      39.922  37.770  38.960  1.00  0.00    -0.237 OA
ATOM     77  O   UNL A   1      41.659  36.307  39.943  1.00  0.00    -0.237 OA
ATOM     78  O   UNL A   1      41.741  36.888  37.548  1.00  0.00    -0.744 OA
ENDBRANCH  71  75
ENDBRANCH  44  68
BRANCH  56  79
ATOM     79  C   UNL A   1      44.117  28.510  35.317  1.00  0.00     0.023 A 
ATOM     80  C   UNL A   1      43.979  27.465  36.247  1.00  0.00     0.031 A 
ATOM     81  C   UNL A   1      45.402  29.043  35.108  1.00  0.00     0.131 A 
ATOM     82  C   UNL A   1      45.095  27.025  36.975  1.00  0.00     0.055 A 
ATOM     83  C   UNL A   1      46.519  28.559  35.790  1.00  0.00     0.041 A 
ATOM     84  F   UNL A   1      45.592  30.044  34.233  1.00  0.00    -0.206 F 
ATOM     85  C   UNL A   1      46.367  27.554  36.739  1.00  0.00     0.022 A 
BRANCH  82  86
ATOM     86  S   UNL A   1      44.849  25.812  38.301  1.00  0.00     0.124 S 
ATOM     87  O   UNL A   1      46.208  25.628  38.800  1.00  0.00    -0.237 OA
ATOM     88  O   UNL A   1      43.931  26.511  39.196  1.00  0.00    -0.237 OA
ATOM     89  O   UNL A   1      44.279  24.658  37.609  1.00  0.00    -0.744 OA
ENDBRANCH  82  86
ENDBRANCH  56  79
ENDBRANCH  30  31
ENDBRANCH  22  25
ENDBRANCH  20  21
ENDBRANCH   1  20
TORSDOF 16
ENDMDL
