MODEL 1
REMARK VINA RESULT:     -11.1      0.000      0.000
REMARK SMILES CC[C@@H](C)[C@@H](C)Nc1cccc(F)c1C(=O)NCCCNC(=O)c1ccc(-c2c3nc(c(-c4cc(S(=O)(=O)[O-])ccc4F)c4ccc([nH]4)c(-c4cc(S(=O)(=O)[O-])ccc4F)c4nc(c(-c5cc(S(=O)(=O)[O-])ccc5F)c5ccc2[nH]5)C=C4)C=C3)cc1
REMARK SMILES IDX 18 1 17 2 15 3 16 4 14 6 8 7 9 8 10 9 12 10 11 11 13 12 7 13
REMARK SMILES IDX 5 15 6 16 3 17 4 18 2 19 1 20 19 21 20 22 21 23 22 24 23 26
REMARK SMILES IDX 24 27 25 28 86 29 26 30 85 31 27 32 28 33 29 34 79 35 30 36
REMARK SMILES IDX 84 37 78 38 80 39 31 40 83 41 77 42 76 43 32 45 64 46 44 47
REMARK SMILES IDX 63 48 45 49 48 50 62 51 81 52 46 53 47 54 61 56 82 57 49 58
REMARK SMILES IDX 33 59 34 60 42 61 35 62 41 63 43 64 40 65 36 66 37 67 38 68
REMARK SMILES IDX 39 69 65 70 66 71 74 72 67 73 73 74 75 75 72 76 68 77 69 78
REMARK SMILES IDX 70 79 71 80 50 81 51 82 59 83 52 84 58 85 60 86 57 87 53 88
REMARK SMILES IDX 54 89 55 90 56 91
REMARK H PARENT 17 5 7 14 21 25 80 44 48 55
REMARK Flexibility Score: inf
ROOT
ATOM      1  C   UNL A   1      31.593  30.409  26.344  1.00  0.00     0.118 C 
ENDROOT
BRANCH   1   2
ATOM      2  N   UNL A   1      32.026  30.090  24.996  1.00  0.00    -0.352 N 
ATOM      3  C   UNL A   1      32.070  28.938  24.255  1.00  0.00     0.256 C 
ATOM      4  O   UNL A   1      32.624  29.048  23.155  1.00  0.00    -0.269 OA
ATOM      5  H   UNL A   1      32.363  30.875  24.506  1.00  0.00     0.163 HD
BRANCH   3   6
ATOM      6  C   UNL A   1      31.441  27.630  24.630  1.00  0.00     0.098 A 
ATOM      7  C   UNL A   1      30.187  27.289  24.037  1.00  0.00     0.050 A 
ATOM      8  C   UNL A   1      29.568  26.081  24.408  1.00  0.00     0.027 A 
ATOM      9  C   UNL A   1      30.153  25.210  25.324  1.00  0.00     0.005 A 
ATOM     10  C   UNL A   1      32.030  26.709  25.501  1.00  0.00     0.138 A 
ATOM     11  C   UNL A   1      31.388  25.526  25.867  1.00  0.00     0.040 A 
ATOM     12  F   UNL A   1      33.263  26.879  25.988  1.00  0.00    -0.206 F 
BRANCH   7  13
ATOM     13  N   UNL A   1      29.568  28.141  23.133  1.00  0.00    -0.382 N 
ATOM     14  H   UNL A   1      29.810  28.028  22.185  1.00  0.00     0.160 HD
BRANCH  13  15
ATOM     15  C   UNL A   1      28.600  29.182  23.435  1.00  0.00     0.079 C 
ATOM     16  C   UNL A   1      27.207  28.630  23.123  1.00  0.00     0.031 C 
BRANCH  15  17
ATOM     17  C   UNL A   1      28.951  30.454  22.604  1.00  0.00     0.008 C 
ATOM     18  C   UNL A   1      28.833  31.721  23.473  1.00  0.00     0.010 C 
BRANCH  17  19
ATOM     19  C   UNL A   1      28.054  30.565  21.352  1.00  0.00     0.002 C 
ATOM     20  C   UNL A   1      28.024  31.954  20.727  1.00  0.00     0.004 C 
ENDBRANCH  17  19
ENDBRANCH  15  17
ENDBRANCH  13  15
ENDBRANCH   7  13
ENDBRANCH   3   6
ENDBRANCH   1   2
BRANCH   1  21
ATOM     21  C   UNL A   1      31.535  31.927  26.541  1.00  0.00     0.042 C 
BRANCH  21  22
ATOM     22  C   UNL A   1      32.772  32.500  27.233  1.00  0.00     0.118 C 
BRANCH  22  23
ATOM     23  N   UNL A   1      32.578  33.887  27.629  1.00  0.00    -0.352 N 
ATOM     24  C   UNL A   1      33.128  34.592  28.672  1.00  0.00     0.251 C 
ATOM     25  H   UNL A   1      31.956  34.399  27.063  1.00  0.00     0.163 HD
ATOM     26  O   UNL A   1      32.639  35.672  28.986  1.00  0.00    -0.269 OA
BRANCH  24  27
ATOM     27  C   UNL A   1      34.292  34.059  29.417  1.00  0.00     0.039 A 
ATOM     28  C   UNL A   1      34.065  33.188  30.487  1.00  0.00     0.014 A 
ATOM     29  C   UNL A   1      35.597  34.451  29.104  1.00  0.00     0.014 A 
ATOM     30  C   UNL A   1      35.146  32.672  31.207  1.00  0.00     0.010 A 
ATOM     31  C   UNL A   1      36.677  33.885  29.779  1.00  0.00     0.010 A 
ATOM     32  C   UNL A   1      36.464  32.993  30.840  1.00  0.00    -0.014 A 
BRANCH  32  33
ATOM     33  C   UNL A   1      37.627  32.407  31.556  1.00  0.00     0.031 A 
ATOM     34  C   UNL A   1      38.427  31.299  30.926  1.00  0.00     0.074 A 
ATOM     35  C   UNL A   1      37.933  32.840  32.795  1.00  0.00     0.049 A 
ATOM     36  N   UNL A   1      39.414  30.603  31.428  1.00  0.00    -0.248 NA
ATOM     37  C   UNL A   1      38.052  30.909  29.557  1.00  0.00     0.031 C 
ATOM     38  C   UNL A   1      37.221  33.895  33.520  1.00  0.00     0.029 A 
ATOM     39  N   UNL A   1      38.921  32.451  33.665  1.00  0.00    -0.354 N 
ATOM     40  C   UNL A   1      39.770  29.686  30.445  1.00  0.00     0.074 A 
ATOM     41  C   UNL A   1      38.860  29.881  29.337  1.00  0.00     0.031 C 
ATOM     42  C   UNL A   1      37.818  34.094  34.706  1.00  0.00     0.029 A 
ATOM     43  C   UNL A   1      38.922  33.150  34.849  1.00  0.00     0.049 A 
ATOM     44  H   UNL A   1      39.569  31.740  33.460  1.00  0.00     0.167 HD
ATOM     45  C   UNL A   1      40.779  28.780  30.458  1.00  0.00     0.034 A 
ATOM     46  C   UNL A   1      39.713  33.039  35.935  1.00  0.00     0.034 A 
ATOM     47  C   UNL A   1      41.693  28.610  31.559  1.00  0.00     0.049 A 
ATOM     48  C   UNL A   1      40.804  32.002  35.941  1.00  0.00     0.074 A 
ATOM     49  C   UNL A   1      42.772  27.747  31.657  1.00  0.00     0.029 A 
ATOM     50  N   UNL A   1      41.639  29.316  32.754  1.00  0.00    -0.354 N 
ATOM     51  N   UNL A   1      41.123  31.138  35.006  1.00  0.00    -0.248 NA
ATOM     52  C   UNL A   1      41.639  31.923  37.147  1.00  0.00     0.031 C 
ATOM     53  C   UNL A   1      43.335  27.892  32.928  1.00  0.00     0.029 A 
ATOM     54  C   UNL A   1      42.650  28.892  33.601  1.00  0.00     0.049 A 
ATOM     55  H   UNL A   1      40.980  30.016  32.967  1.00  0.00     0.167 HD
ATOM     56  C   UNL A   1      42.208  30.425  35.503  1.00  0.00     0.074 A 
ATOM     57  C   UNL A   1      42.491  30.960  36.819  1.00  0.00     0.031 C 
ATOM     58  C   UNL A   1      42.911  29.423  34.917  1.00  0.00     0.034 A 
BRANCH  45  59
ATOM     59  C   UNL A   1      40.937  27.894  29.248  1.00  0.00     0.023 A 
ATOM     60  C   UNL A   1      41.912  28.156  28.270  1.00  0.00     0.031 A 
ATOM     61  C   UNL A   1      40.112  26.769  29.077  1.00  0.00     0.131 A 
ATOM     62  C   UNL A   1      42.003  27.332  27.137  1.00  0.00     0.055 A 
ATOM     63  C   UNL A   1      40.253  25.913  27.982  1.00  0.00     0.041 A 
ATOM     64  F   UNL A   1      39.154  26.480  29.972  1.00  0.00    -0.206 F 
ATOM     65  C   UNL A   1      41.198  26.198  27.000  1.00  0.00     0.022 A 
BRANCH  62  66
ATOM     66  S   UNL A   1      43.131  27.813  25.802  1.00  0.00     0.124 S 
ATOM     67  O   UNL A   1      44.187  26.812  25.935  1.00  0.00    -0.237 OA
ATOM     68  O   UNL A   1      42.289  27.699  24.617  1.00  0.00    -0.237 OA
ATOM     69  O   UNL A   1      43.522  29.175  26.158  1.00  0.00    -0.744 OA
ENDBRANCH  62  66
ENDBRANCH  45  59
BRANCH  46  70
ATOM     70  C   UNL A   1      39.498  33.936  37.103  1.00  0.00     0.023 A 
ATOM     71  C   UNL A   1      38.865  33.466  38.263  1.00  0.00     0.031 A 
ATOM     72  C   UNL A   1      39.946  35.269  37.083  1.00  0.00     0.131 A 
ATOM     73  C   UNL A   1      38.681  34.329  39.355  1.00  0.00     0.055 A 
ATOM     74  C   UNL A   1      39.794  36.112  38.184  1.00  0.00     0.041 A 
ATOM     75  F   UNL A   1      40.568  35.760  35.999  1.00  0.00    -0.206 F 
ATOM     76  C   UNL A   1      39.154  35.644  39.329  1.00  0.00     0.022 A 
BRANCH  73  77
ATOM     77  S   UNL A   1      37.802  33.711  40.816  1.00  0.00     0.124 S 
ATOM     78  O   UNL A   1      37.416  34.953  41.476  1.00  0.00    -0.237 OA
ATOM     79  O   UNL A   1      36.720  32.936  40.219  1.00  0.00    -0.237 OA
ATOM     80  O   UNL A   1      38.817  32.921  41.513  1.00  0.00    -0.744 OA
ENDBRANCH  73  77
ENDBRANCH  46  70
BRANCH  58  81
ATOM     81  C   UNL A   1      44.077  28.856  35.681  1.00  0.00     0.023 A 
ATOM     82  C   UNL A   1      45.379  29.355  35.513  1.00  0.00     0.031 A 
ATOM     83  C   UNL A   1      43.868  27.837  36.628  1.00  0.00     0.131 A 
ATOM     84  C   UNL A   1      46.432  28.816  36.267  1.00  0.00     0.055 A 
ATOM     85  C   UNL A   1      44.912  27.336  37.406  1.00  0.00     0.041 A 
ATOM     86  F   UNL A   1      42.641  27.330  36.825  1.00  0.00    -0.206 F 
ATOM     87  C   UNL A   1      46.203  27.823  37.225  1.00  0.00     0.022 A 
BRANCH  84  88
ATOM     88  S   UNL A   1      48.117  29.410  35.963  1.00  0.00     0.124 S 
ATOM     89  O   UNL A   1      48.116  30.692  36.658  1.00  0.00    -0.237 OA
ATOM     90  O   UNL A   1      48.935  28.361  36.563  1.00  0.00    -0.237 OA
ATOM     91  O   UNL A   1      48.194  29.494  34.505  1.00  0.00    -0.744 OA
ENDBRANCH  84  88
ENDBRANCH  58  81
ENDBRANCH  32  33
ENDBRANCH  24  27
ENDBRANCH  22  23
ENDBRANCH  21  22
ENDBRANCH   1  21
TORSDOF 17
ENDMDL
MODEL 2
REMARK VINA RESULT:     -11.1      5.577     10.723
REMARK SMILES CC[C@@H](C)[C@@H](C)Nc1cccc(F)c1C(=O)NCCCNC(=O)c1ccc(-c2c3nc(c(-c4cc(S(=O)(=O)[O-])ccc4F)c4ccc([nH]4)c(-c4cc(S(=O)(=O)[O-])ccc4F)c4nc(c(-c5cc(S(=O)(=O)[O-])ccc5F)c5ccc2[nH]5)C=C4)C=C3)cc1
REMARK SMILES IDX 18 1 17 2 15 3 16 4 14 6 8 7 9 8 10 9 12 10 11 11 13 12 7 13
REMARK SMILES IDX 5 15 6 16 3 17 4 18 2 19 1 20 19 21 20 22 21 23 22 24 23 26
REMARK SMILES IDX 24 27 25 28 86 29 26 30 85 31 27 32 28 33 29 34 79 35 30 36
REMARK SMILES IDX 84 37 78 38 80 39 31 40 83 41 77 42 76 43 32 45 64 46 44 47
REMARK SMILES IDX 63 48 45 49 48 50 62 51 81 52 46 53 47 54 61 56 82 57 49 58
REMARK SMILES IDX 33 59 34 60 42 61 35 62 41 63 43 64 40 65 36 66 37 67 38 68
REMARK SMILES IDX 39 69 65 70 66 71 74 72 67 73 73 74 75 75 72 76 68 77 69 78
REMARK SMILES IDX 70 79 71 80 50 81 51 82 59 83 52 84 58 85 60 86 57 87 53 88
REMARK SMILES IDX 54 89 55 90 56 91
REMARK H PARENT 17 5 7 14 21 25 80 44 48 55
REMARK Flexibility Score: inf
ROOT
ATOM      1  C   UNL A   1      35.105  24.323  24.642  1.00  0.00     0.118 C 
ENDROOT
BRANCH   1   2
ATOM      2  N   UNL A   1      34.160  24.586  23.572  1.00  0.00    -0.352 N 
ATOM      3  C   UNL A   1      32.804  24.435  23.437  1.00  0.00     0.256 C 
ATOM      4  O   UNL A   1      32.365  24.670  22.304  1.00  0.00    -0.269 OA
ATOM      5  H   UNL A   1      34.587  24.953  22.765  1.00  0.00     0.163 HD
BRANCH   3   6
ATOM      6  C   UNL A   1      31.844  24.107  24.540  1.00  0.00     0.098 A 
ATOM      7  C   UNL A   1      30.994  25.147  25.028  1.00  0.00     0.050 A 
ATOM      8  C   UNL A   1      30.114  24.861  26.088  1.00  0.00     0.027 A 
ATOM      9  C   UNL A   1      30.045  23.594  26.660  1.00  0.00     0.005 A 
ATOM     10  C   UNL A   1      31.710  22.832  25.096  1.00  0.00     0.138 A 
ATOM     11  C   UNL A   1      30.842  22.578  26.159  1.00  0.00     0.040 A 
ATOM     12  F   UNL A   1      32.358  21.770  24.606  1.00  0.00    -0.206 F 
BRANCH   7  13
ATOM     13  N   UNL A   1      31.050  26.426  24.491  1.00  0.00    -0.382 N 
ATOM     14  H   UNL A   1      30.991  26.495  23.511  1.00  0.00     0.160 HD
BRANCH  13  15
ATOM     15  C   UNL A   1      31.183  27.675  25.223  1.00  0.00     0.079 C 
ATOM     16  C   UNL A   1      31.567  28.765  24.219  1.00  0.00     0.031 C 
BRANCH  15  17
ATOM     17  C   UNL A   1      32.242  27.487  26.353  1.00  0.00     0.008 C 
ATOM     18  C   UNL A   1      31.819  28.245  27.625  1.00  0.00     0.010 C 
BRANCH  17  19
ATOM     19  C   UNL A   1      33.641  27.943  25.884  1.00  0.00     0.002 C 
ATOM     20  C   UNL A   1      34.313  28.946  26.813  1.00  0.00     0.004 C 
ENDBRANCH  17  19
ENDBRANCH  15  17
ENDBRANCH  13  15
ENDBRANCH   7  13
ENDBRANCH   3   6
ENDBRANCH   1   2
BRANCH   1  21
ATOM     21  C   UNL A   1      35.476  22.838  24.673  1.00  0.00     0.042 C 
BRANCH  21  22
ATOM     22  C   UNL A   1      35.931  22.351  26.049  1.00  0.00     0.118 C 
BRANCH  22  23
ATOM     23  N   UNL A   1      36.913  21.281  25.949  1.00  0.00    -0.352 N 
ATOM     24  C   UNL A   1      38.285  21.341  25.924  1.00  0.00     0.251 C 
ATOM     25  H   UNL A   1      36.535  20.374  25.889  1.00  0.00     0.163 HD
ATOM     26  O   UNL A   1      38.919  20.351  25.576  1.00  0.00    -0.269 OA
BRANCH  24  27
ATOM     27  C   UNL A   1      38.995  22.584  26.303  1.00  0.00     0.039 A 
ATOM     28  C   UNL A   1      40.042  22.505  27.227  1.00  0.00     0.014 A 
ATOM     29  C   UNL A   1      38.604  23.828  25.799  1.00  0.00     0.014 A 
ATOM     30  C   UNL A   1      40.728  23.664  27.603  1.00  0.00     0.010 A 
ATOM     31  C   UNL A   1      39.330  24.973  26.124  1.00  0.00     0.010 A 
ATOM     32  C   UNL A   1      40.398  24.903  27.032  1.00  0.00    -0.014 A 
BRANCH  32  33
ATOM     33  C   UNL A   1      41.155  26.136  27.375  1.00  0.00     0.031 A 
ATOM     34  C   UNL A   1      40.520  27.205  28.224  1.00  0.00     0.074 A 
ATOM     35  C   UNL A   1      42.396  26.313  26.883  1.00  0.00     0.049 A 
ATOM     36  N   UNL A   1      40.983  28.382  28.554  1.00  0.00    -0.248 NA
ATOM     37  C   UNL A   1      39.177  26.918  28.753  1.00  0.00     0.031 C 
ATOM     38  C   UNL A   1      43.112  25.359  26.033  1.00  0.00     0.029 A 
ATOM     39  N   UNL A   1      43.279  27.355  27.024  1.00  0.00    -0.354 N 
ATOM     40  C   UNL A   1      39.988  28.982  29.317  1.00  0.00     0.074 A 
ATOM     41  C   UNL A   1      38.875  28.058  29.359  1.00  0.00     0.031 C 
ATOM     42  C   UNL A   1      44.335  25.841  25.761  1.00  0.00     0.029 A 
ATOM     43  C   UNL A   1      44.474  27.160  26.372  1.00  0.00     0.049 A 
ATOM     44  H   UNL A   1      43.076  28.166  27.543  1.00  0.00     0.167 HD
ATOM     45  C   UNL A   1      40.010  30.183  29.945  1.00  0.00     0.034 A 
ATOM     46  C   UNL A   1      45.558  27.954  26.267  1.00  0.00     0.034 A 
ATOM     47  C   UNL A   1      41.134  31.086  29.914  1.00  0.00     0.049 A 
ATOM     48  C   UNL A   1      45.546  29.299  26.942  1.00  0.00     0.074 A 
ATOM     49  C   UNL A   1      41.272  32.310  30.547  1.00  0.00     0.029 A 
ATOM     50  N   UNL A   1      42.314  30.864  29.216  1.00  0.00    -0.354 N 
ATOM     51  N   UNL A   1      44.594  29.854  27.654  1.00  0.00    -0.248 NA
ATOM     52  C   UNL A   1      46.753  30.126  26.798  1.00  0.00     0.031 C 
ATOM     53  C   UNL A   1      42.509  32.852  30.187  1.00  0.00     0.029 A 
ATOM     54  C   UNL A   1      43.173  31.937  29.384  1.00  0.00     0.049 A 
ATOM     55  H   UNL A   1      42.510  30.062  28.680  1.00  0.00     0.167 HD
ATOM     56  C   UNL A   1      45.093  31.087  28.060  1.00  0.00     0.074 A 
ATOM     57  C   UNL A   1      46.431  31.195  27.516  1.00  0.00     0.031 C 
ATOM     58  C   UNL A   1      44.498  32.039  28.822  1.00  0.00     0.034 A 
BRANCH  45  59
ATOM     59  C   UNL A   1      38.776  30.596  30.706  1.00  0.00     0.023 A 
ATOM     60  C   UNL A   1      37.708  31.253  30.072  1.00  0.00     0.031 A 
ATOM     61  C   UNL A   1      38.661  30.319  32.080  1.00  0.00     0.131 A 
ATOM     62  C   UNL A   1      36.593  31.657  30.822  1.00  0.00     0.055 A 
ATOM     63  C   UNL A   1      37.520  30.663  32.807  1.00  0.00     0.041 A 
ATOM     64  F   UNL A   1      39.658  29.709  32.740  1.00  0.00    -0.206 F 
ATOM     65  C   UNL A   1      36.480  31.344  32.179  1.00  0.00     0.022 A 
BRANCH  62  66
ATOM     66  S   UNL A   1      35.328  32.676  30.017  1.00  0.00     0.124 S 
ATOM     67  O   UNL A   1      34.405  32.925  31.121  1.00  0.00    -0.237 OA
ATOM     68  O   UNL A   1      36.094  33.827  29.554  1.00  0.00    -0.237 OA
ATOM     69  O   UNL A   1      34.810  31.809  28.961  1.00  0.00    -0.744 OA
ENDBRANCH  62  66
ENDBRANCH  45  59
BRANCH  46  70
ATOM     70  C   UNL A   1      46.741  27.493  25.491  1.00  0.00     0.023 A 
ATOM     71  C   UNL A   1      46.900  27.851  24.143  1.00  0.00     0.031 A 
ATOM     72  C   UNL A   1      47.741  26.710  26.093  1.00  0.00     0.131 A 
ATOM     73  C   UNL A   1      48.029  27.411  23.434  1.00  0.00     0.055 A 
ATOM     74  C   UNL A   1      48.880  26.306  25.394  1.00  0.00     0.041 A 
ATOM     75  F   UNL A   1      47.639  26.354  27.384  1.00  0.00    -0.206 F 
ATOM     76  C   UNL A   1      49.026  26.653  24.054  1.00  0.00     0.022 A 
BRANCH  73  77
ATOM     77  S   UNL A   1      48.174  27.835  21.677  1.00  0.00     0.124 S 
ATOM     78  O   UNL A   1      48.285  26.517  21.062  1.00  0.00    -0.237 OA
ATOM     79  O   UNL A   1      46.930  28.557  21.431  1.00  0.00    -0.237 OA
ATOM     80  O   UNL A   1      49.385  28.654  21.624  1.00  0.00    -0.744 OA
ENDBRANCH  73  77
ENDBRANCH  46  70
BRANCH  58  81
ATOM     81  C   UNL A   1      45.299  33.273  29.139  1.00  0.00     0.023 A 
ATOM     82  C   UNL A   1      45.281  34.397  28.298  1.00  0.00     0.031 A 
ATOM     83  C   UNL A   1      46.047  33.340  30.329  1.00  0.00     0.131 A 
ATOM     84  C   UNL A   1      46.019  35.538  28.647  1.00  0.00     0.055 A 
ATOM     85  C   UNL A   1      46.743  34.492  30.692  1.00  0.00     0.041 A 
ATOM     86  F   UNL A   1      46.092  32.291  31.165  1.00  0.00    -0.206 F 
ATOM     87  C   UNL A   1      46.735  35.599  29.847  1.00  0.00     0.022 A 
BRANCH  84  88
ATOM     88  S   UNL A   1      46.058  36.939  27.498  1.00  0.00     0.124 S 
ATOM     89  O   UNL A   1      44.670  37.002  27.052  1.00  0.00    -0.237 OA
ATOM     90  O   UNL A   1      46.503  38.036  28.351  1.00  0.00    -0.237 OA
ATOM     91  O   UNL A   1      47.019  36.522  26.478  1.00  0.00    -0.744 OA
ENDBRANCH  84  88
ENDBRANCH  58  81
ENDBRANCH  32  33
ENDBRANCH  24  27
ENDBRANCH  22  23
ENDBRANCH  21  22
ENDBRANCH   1  21
TORSDOF 17
ENDMDL
MODEL 3
REMARK VINA RESULT:     -11.1      6.790     12.228
REMARK SMILES CC[C@@H](C)[C@@H](C)Nc1cccc(F)c1C(=O)NCCCNC(=O)c1ccc(-c2c3nc(c(-c4cc(S(=O)(=O)[O-])ccc4F)c4ccc([nH]4)c(-c4cc(S(=O)(=O)[O-])ccc4F)c4nc(c(-c5cc(S(=O)(=O)[O-])ccc5F)c5ccc2[nH]5)C=C4)C=C3)cc1
REMARK SMILES IDX 18 1 17 2 15 3 16 4 14 6 8 7 9 8 10 9 12 10 11 11 13 12 7 13
REMARK SMILES IDX 5 15 6 16 3 17 4 18 2 19 1 20 19 21 20 22 21 23 22 24 23 26
REMARK SMILES IDX 24 27 25 28 86 29 26 30 85 31 27 32 28 33 29 34 79 35 30 36
REMARK SMILES IDX 84 37 78 38 80 39 31 40 83 41 77 42 76 43 32 45 64 46 44 47
REMARK SMILES IDX 63 48 45 49 48 50 62 51 81 52 46 53 47 54 61 56 82 57 49 58
REMARK SMILES IDX 33 59 34 60 42 61 35 62 41 63 43 64 40 65 36 66 37 67 38 68
REMARK SMILES IDX 39 69 65 70 66 71 74 72 67 73 73 74 75 75 72 76 68 77 69 78
REMARK SMILES IDX 70 79 71 80 50 81 51 82 59 83 52 84 58 85 60 86 57 87 53 88
REMARK SMILES IDX 54 89 55 90 56 91
REMARK H PARENT 17 5 7 14 21 25 80 44 48 55
REMARK Flexibility Score: inf
ROOT
ATOM      1  C   UNL A   1      36.992  20.855  24.646  1.00  0.00     0.118 C 
ENDROOT
BRANCH   1   2
ATOM      2  N   UNL A   1      35.893  20.730  25.585  1.00  0.00    -0.352 N 
ATOM      3  C   UNL A   1      34.621  21.240  25.641  1.00  0.00     0.256 C 
ATOM      4  O   UNL A   1      34.006  20.989  26.684  1.00  0.00    -0.269 OA
ATOM      5  H   UNL A   1      36.107  20.151  26.352  1.00  0.00     0.163 HD
BRANCH   3   6
ATOM      6  C   UNL A   1      33.922  21.974  24.536  1.00  0.00     0.098 A 
ATOM      7  C   UNL A   1      32.864  21.306  23.846  1.00  0.00     0.050 A 
ATOM      8  C   UNL A   1      32.224  21.970  22.783  1.00  0.00     0.027 A 
ATOM      9  C   UNL A   1      32.587  23.258  22.400  1.00  0.00     0.005 A 
ATOM     10  C   UNL A   1      34.225  23.287  24.166  1.00  0.00     0.138 A 
ATOM     11  C   UNL A   1      33.587  23.917  23.096  1.00  0.00     0.040 A 
ATOM     12  F   UNL A   1      35.098  24.035  24.848  1.00  0.00    -0.206 F 
BRANCH   7  13
ATOM     13  N   UNL A   1      32.487  20.015  24.192  1.00  0.00    -0.382 N 
ATOM     14  H   UNL A   1      31.834  19.928  24.924  1.00  0.00     0.160 HD
BRANCH  13  15
ATOM     15  C   UNL A   1      32.952  18.779  23.587  1.00  0.00     0.079 C 
ATOM     16  C   UNL A   1      32.326  18.676  22.193  1.00  0.00     0.031 C 
BRANCH  15  17
ATOM     17  C   UNL A   1      32.567  17.587  24.516  1.00  0.00     0.008 C 
ATOM     18  C   UNL A   1      32.748  17.971  25.997  1.00  0.00     0.010 C 
BRANCH  17  19
ATOM     19  C   UNL A   1      33.391  16.326  24.174  1.00  0.00     0.002 C 
ATOM     20  C   UNL A   1      34.366  15.903  25.266  1.00  0.00     0.004 C 
ENDBRANCH  17  19
ENDBRANCH  15  17
ENDBRANCH  13  15
ENDBRANCH   7  13
ENDBRANCH   3   6
ENDBRANCH   1   2
BRANCH   1  21
ATOM     21  C   UNL A   1      38.043  19.771  24.907  1.00  0.00     0.042 C 
BRANCH  21  22
ATOM     22  C   UNL A   1      39.087  20.173  25.948  1.00  0.00     0.118 C 
BRANCH  22  23
ATOM     23  N   UNL A   1      40.171  19.205  26.030  1.00  0.00    -0.352 N 
ATOM     24  C   UNL A   1      41.529  19.403  26.097  1.00  0.00     0.251 C 
ATOM     25  H   UNL A   1      39.887  18.262  26.040  1.00  0.00     0.163 HD
ATOM     26  O   UNL A   1      42.281  18.454  25.900  1.00  0.00    -0.269 OA
BRANCH  24  27
ATOM     27  C   UNL A   1      42.085  20.743  26.394  1.00  0.00     0.039 A 
ATOM     28  C   UNL A   1      42.276  21.642  25.340  1.00  0.00     0.014 A 
ATOM     29  C   UNL A   1      42.469  21.099  27.691  1.00  0.00     0.014 A 
ATOM     30  C   UNL A   1      42.800  22.912  25.594  1.00  0.00     0.010 A 
ATOM     31  C   UNL A   1      42.931  22.388  27.953  1.00  0.00     0.010 A 
ATOM     32  C   UNL A   1      43.104  23.307  26.908  1.00  0.00    -0.014 A 
BRANCH  32  33
ATOM     33  C   UNL A   1      43.607  24.675  27.204  1.00  0.00     0.031 A 
ATOM     34  C   UNL A   1      42.674  25.728  27.737  1.00  0.00     0.074 A 
ATOM     35  C   UNL A   1      44.894  24.980  26.947  1.00  0.00     0.049 A 
ATOM     36  N   UNL A   1      42.903  26.994  27.970  1.00  0.00    -0.248 NA
ATOM     37  C   UNL A   1      41.294  25.303  28.025  1.00  0.00     0.031 C 
ATOM     38  C   UNL A   1      45.892  24.051  26.412  1.00  0.00     0.029 A 
ATOM     39  N   UNL A   1      45.587  26.155  27.101  1.00  0.00    -0.354 N 
ATOM     40  C   UNL A   1      41.697  27.522  28.420  1.00  0.00     0.074 A 
ATOM     41  C   UNL A   1      40.727  26.449  28.378  1.00  0.00     0.031 C 
ATOM     42  C   UNL A   1      47.074  24.680  26.319  1.00  0.00     0.029 A 
ATOM     43  C   UNL A   1      46.911  26.068  26.738  1.00  0.00     0.049 A 
ATOM     44  H   UNL A   1      45.176  26.982  27.441  1.00  0.00     0.167 HD
ATOM     45  C   UNL A   1      41.431  28.780  28.849  1.00  0.00     0.034 A 
ATOM     46  C   UNL A   1      47.883  27.002  26.731  1.00  0.00     0.034 A 
ATOM     47  C   UNL A   1      42.412  29.834  28.906  1.00  0.00     0.049 A 
ATOM     48  C   UNL A   1      47.556  28.401  27.178  1.00  0.00     0.074 A 
ATOM     49  C   UNL A   1      42.254  31.133  29.360  1.00  0.00     0.029 A 
ATOM     50  N   UNL A   1      43.734  29.714  28.499  1.00  0.00    -0.354 N 
ATOM     51  N   UNL A   1      46.409  28.885  27.594  1.00  0.00    -0.248 NA
ATOM     52  C   UNL A   1      48.651  29.380  27.153  1.00  0.00     0.031 C 
ATOM     53  C   UNL A   1      43.462  31.811  29.176  1.00  0.00     0.029 A 
ATOM     54  C   UNL A   1      44.395  30.919  28.669  1.00  0.00     0.049 A 
ATOM     55  H   UNL A   1      44.142  28.892  28.141  1.00  0.00     0.167 HD
ATOM     56  C   UNL A   1      46.648  30.220  27.899  1.00  0.00     0.074 A 
ATOM     57  C   UNL A   1      48.049  30.466  27.622  1.00  0.00     0.031 C 
ATOM     58  C   UNL A   1      45.787  31.155  28.373  1.00  0.00     0.034 A 
BRANCH  45  59
ATOM     59  C   UNL A   1      40.019  29.087  29.278  1.00  0.00     0.023 A 
ATOM     60  C   UNL A   1      39.654  29.116  30.635  1.00  0.00     0.031 A 
ATOM     61  C   UNL A   1      39.028  29.365  28.320  1.00  0.00     0.131 A 
ATOM     62  C   UNL A   1      38.321  29.367  30.995  1.00  0.00     0.055 A 
ATOM     63  C   UNL A   1      37.718  29.681  28.688  1.00  0.00     0.041 A 
ATOM     64  F   UNL A   1      39.316  29.334  27.009  1.00  0.00    -0.206 F 
ATOM     65  C   UNL A   1      37.357  29.674  30.032  1.00  0.00     0.022 A 
BRANCH  62  66
ATOM     66  S   UNL A   1      37.846  29.198  32.736  1.00  0.00     0.124 S 
ATOM     67  O   UNL A   1      38.968  29.846  33.410  1.00  0.00    -0.237 OA
ATOM     68  O   UNL A   1      36.573  29.909  32.788  1.00  0.00    -0.237 OA
ATOM     69  O   UNL A   1      37.759  27.753  32.930  1.00  0.00    -0.744 OA
ENDBRANCH  62  66
ENDBRANCH  45  59
BRANCH  46  70
ATOM     70  C   UNL A   1      49.256  26.638  26.285  1.00  0.00     0.023 A 
ATOM     71  C   UNL A   1      49.787  27.161  25.097  1.00  0.00     0.031 A 
ATOM     72  C   UNL A   1      50.063  25.783  27.055  1.00  0.00     0.131 A 
ATOM     73  C   UNL A   1      51.087  26.809  24.701  1.00  0.00     0.055 A 
ATOM     74  C   UNL A   1      51.369  25.466  26.676  1.00  0.00     0.041 A 
ATOM     75  F   UNL A   1      49.603  25.269  28.206  1.00  0.00    -0.206 F 
ATOM     76  C   UNL A   1      51.886  25.977  25.489  1.00  0.00     0.022 A 
BRANCH  73  77
ATOM     77  S   UNL A   1      51.722  27.450  23.127  1.00  0.00     0.124 S 
ATOM     78  O   UNL A   1      51.427  28.873  23.246  1.00  0.00    -0.237 OA
ATOM     79  O   UNL A   1      53.132  27.077  23.190  1.00  0.00    -0.237 OA
ATOM     80  O   UNL A   1      50.937  26.729  22.126  1.00  0.00    -0.744 OA
ENDBRANCH  73  77
ENDBRANCH  46  70
BRANCH  58  81
ATOM     81  C   UNL A   1      46.339  32.527  28.653  1.00  0.00     0.023 A 
ATOM     82  C   UNL A   1      46.313  33.541  27.682  1.00  0.00     0.031 A 
ATOM     83  C   UNL A   1      46.847  32.835  29.928  1.00  0.00     0.131 A 
ATOM     84  C   UNL A   1      46.810  34.815  27.994  1.00  0.00     0.055 A 
ATOM     85  C   UNL A   1      47.300  34.115  30.246  1.00  0.00     0.041 A 
ATOM     86  F   UNL A   1      46.890  31.899  30.889  1.00  0.00    -0.206 F 
ATOM     87  C   UNL A   1      47.286  35.113  29.275  1.00  0.00     0.022 A 
BRANCH  84  88
ATOM     88  S   UNL A   1      46.855  36.078  26.695  1.00  0.00     0.124 S 
ATOM     89  O   UNL A   1      46.744  37.311  27.468  1.00  0.00    -0.237 OA
ATOM     90  O   UNL A   1      48.148  35.837  26.063  1.00  0.00    -0.237 OA
ATOM     91  O   UNL A   1      45.694  35.759  25.865  1.00  0.00    -0.744 OA
ENDBRANCH  84  88
ENDBRANCH  58  81
ENDBRANCH  32  33
ENDBRANCH  24  27
ENDBRANCH  22  23
ENDBRANCH  21  22
ENDBRANCH   1  21
TORSDOF 17
ENDMDL
