MODEL 1
REMARK VINA RESULT:     -10.6      0.000      0.000
REMARK SMILES C[C@H](Cc1ccc(N)cc1)C(=O)NCCCNC(=O)c1ccc(-c2c3nc(c(-c4cc(S(=O)(=O)[O-])ccc4F)c4ccc([nH]4)c(-c4cc(S(=O)(=O)[O-])ccc4F)c4nc(c(-c5cc(S(=O)(=O)[O-])ccc5F)c5ccc2[nH]5)C=C4)C=C3)cc1
REMARK SMILES IDX 15 1 14 2 13 3 11 4 12 5 2 7 1 8 3 9 4 10 5 11 10 12 6 13
REMARK SMILES IDX 9 14 7 15 8 16 16 19 17 20 18 21 19 23 20 24 21 25 82 26
REMARK SMILES IDX 22 27 81 28 23 29 24 30 25 31 75 32 26 33 80 34 74 35 76 36
REMARK SMILES IDX 27 37 79 38 73 39 72 40 28 42 60 43 40 44 59 45 41 46 44 47
REMARK SMILES IDX 58 48 77 49 42 50 43 51 57 53 78 54 45 55 29 56 30 57 38 58
REMARK SMILES IDX 31 59 37 60 39 61 36 62 32 63 33 64 34 65 35 66 61 67 62 68
REMARK SMILES IDX 70 69 63 70 69 71 71 72 68 73 64 74 65 75 66 76 67 77 46 78
REMARK SMILES IDX 47 79 55 80 48 81 54 82 56 83 53 84 49 85 50 86 51 87 52 88
REMARK H PARENT 13 6 8 17 8 18 17 22 76 41 44 52
REMARK Flexibility Score: inf
ROOT
ATOM      1  C   UNL A   1      41.660  20.098  27.511  1.00  0.00     0.042 C 
ENDROOT
BRANCH   1   2
ATOM      2  C   UNL A   1      42.050  19.556  26.140  1.00  0.00     0.117 C 
BRANCH   2   3
ATOM      3  N   UNL A   1      43.257  18.756  26.227  1.00  0.00    -0.356 N 
ATOM      4  C   UNL A   1      44.387  18.748  25.479  1.00  0.00     0.223 C 
ATOM      5  O   UNL A   1      45.201  17.848  25.713  1.00  0.00    -0.275 OA
ATOM      6  H   UNL A   1      43.254  18.099  26.960  1.00  0.00     0.163 HD
BRANCH   4   7
ATOM      7  C   UNL A   1      44.714  19.816  24.438  1.00  0.00     0.079 C 
ATOM      8  C   UNL A   1      44.952  19.187  23.067  1.00  0.00     0.018 C 
BRANCH   7   9
ATOM      9  C   UNL A   1      45.664  20.939  24.924  1.00  0.00     0.048 C 
BRANCH   9  10
ATOM     10  C   UNL A   1      45.135  22.349  25.039  1.00  0.00    -0.047 A 
ATOM     11  C   UNL A   1      43.764  22.610  25.137  1.00  0.00     0.006 A 
ATOM     12  C   UNL A   1      46.009  23.440  25.072  1.00  0.00     0.006 A 
ATOM     13  C   UNL A   1      43.279  23.919  25.085  1.00  0.00     0.026 A 
ATOM     14  C   UNL A   1      45.520  24.750  25.019  1.00  0.00     0.026 A 
ATOM     15  C   UNL A   1      44.151  24.998  24.952  1.00  0.00     0.031 A 
BRANCH  15  16
ATOM     16  N   UNL A   1      43.668  26.293  24.888  1.00  0.00    -0.399 N 
ATOM     17  H   UNL A   1      43.143  26.660  25.635  1.00  0.00     0.156 HD
ATOM     18  H   UNL A   1      43.850  26.848  24.096  1.00  0.00     0.156 HD
ENDBRANCH  15  16
ENDBRANCH   9  10
ENDBRANCH   7   9
ENDBRANCH   4   7
ENDBRANCH   2   3
ENDBRANCH   1   2
BRANCH   1  19
ATOM     19  C   UNL A   1      41.091  21.509  27.475  1.00  0.00     0.118 C 
BRANCH  19  20
ATOM     20  N   UNL A   1      39.938  21.613  26.593  1.00  0.00    -0.352 N 
ATOM     21  C   UNL A   1      39.090  22.667  26.362  1.00  0.00     0.251 C 
ATOM     22  H   UNL A   1      39.735  20.798  26.079  1.00  0.00     0.163 HD
ATOM     23  O   UNL A   1      38.028  22.456  25.766  1.00  0.00    -0.269 OA
BRANCH  21  24
ATOM     24  C   UNL A   1      39.411  24.033  26.834  1.00  0.00     0.039 A 
ATOM     25  C   UNL A   1      39.152  24.370  28.167  1.00  0.00     0.014 A 
ATOM     26  C   UNL A   1      39.932  24.998  25.969  1.00  0.00     0.014 A 
ATOM     27  C   UNL A   1      39.487  25.641  28.646  1.00  0.00     0.010 A 
ATOM     28  C   UNL A   1      40.349  26.231  26.468  1.00  0.00     0.010 A 
ATOM     29  C   UNL A   1      40.132  26.568  27.811  1.00  0.00    -0.014 A 
BRANCH  29  30
ATOM     30  C   UNL A   1      40.584  27.893  28.317  1.00  0.00     0.031 A 
ATOM     31  C   UNL A   1      42.053  28.170  28.504  1.00  0.00     0.074 A 
ATOM     32  C   UNL A   1      39.672  28.817  28.681  1.00  0.00     0.049 A 
ATOM     33  N   UNL A   1      42.638  29.208  29.046  1.00  0.00    -0.248 NA
ATOM     34  C   UNL A   1      42.983  27.125  28.050  1.00  0.00     0.031 C 
ATOM     35  C   UNL A   1      38.219  28.657  28.577  1.00  0.00     0.029 A 
ATOM     36  N   UNL A   1      39.827  30.068  29.225  1.00  0.00    -0.354 N 
ATOM     37  C   UNL A   1      44.003  28.933  29.015  1.00  0.00     0.074 A 
ATOM     38  C   UNL A   1      44.148  27.606  28.455  1.00  0.00     0.031 C 
ATOM     39  C   UNL A   1      37.620  29.771  29.023  1.00  0.00     0.029 A 
ATOM     40  C   UNL A   1      38.637  30.704  29.498  1.00  0.00     0.049 A 
ATOM     41  H   UNL A   1      40.707  30.472  29.405  1.00  0.00     0.167 HD
ATOM     42  C   UNL A   1      45.037  29.723  29.397  1.00  0.00     0.034 A 
ATOM     43  C   UNL A   1      38.390  31.893  30.086  1.00  0.00     0.034 A 
ATOM     44  C   UNL A   1      44.874  31.050  29.939  1.00  0.00     0.049 A 
ATOM     45  C   UNL A   1      39.555  32.735  30.541  1.00  0.00     0.074 A 
ATOM     46  C   UNL A   1      45.853  31.959  30.302  1.00  0.00     0.029 A 
ATOM     47  N   UNL A   1      43.653  31.657  30.208  1.00  0.00    -0.354 N 
ATOM     48  N   UNL A   1      40.841  32.480  30.462  1.00  0.00    -0.248 NA
ATOM     49  C   UNL A   1      39.235  34.027  31.163  1.00  0.00     0.031 C 
ATOM     50  C   UNL A   1      45.229  33.082  30.856  1.00  0.00     0.029 A 
ATOM     51  C   UNL A   1      43.856  32.910  30.766  1.00  0.00     0.049 A 
ATOM     52  H   UNL A   1      42.773  31.256  30.028  1.00  0.00     0.167 HD
ATOM     53  C   UNL A   1      41.481  33.594  30.998  1.00  0.00     0.074 A 
ATOM     54  C   UNL A   1      40.442  34.527  31.381  1.00  0.00     0.031 C 
ATOM     55  C   UNL A   1      42.809  33.826  31.157  1.00  0.00     0.034 A 
BRANCH  42  56
ATOM     56  C   UNL A   1      46.432  29.157  29.265  1.00  0.00     0.023 A 
ATOM     57  C   UNL A   1      47.147  29.223  28.056  1.00  0.00     0.031 A 
ATOM     58  C   UNL A   1      47.050  28.521  30.358  1.00  0.00     0.131 A 
ATOM     59  C   UNL A   1      48.397  28.599  27.945  1.00  0.00     0.055 A 
ATOM     60  C   UNL A   1      48.332  27.976  30.264  1.00  0.00     0.041 A 
ATOM     61  F   UNL A   1      46.412  28.408  31.533  1.00  0.00    -0.206 F 
ATOM     62  C   UNL A   1      49.007  27.998  29.048  1.00  0.00     0.022 A 
BRANCH  59  63
ATOM     63  S   UNL A   1      49.147  28.453  26.300  1.00  0.00     0.124 S 
ATOM     64  O   UNL A   1      49.859  27.182  26.412  1.00  0.00    -0.237 OA
ATOM     65  O   UNL A   1      47.983  28.458  25.421  1.00  0.00    -0.237 OA
ATOM     66  O   UNL A   1      50.005  29.633  26.207  1.00  0.00    -0.744 OA
ENDBRANCH  59  63
ENDBRANCH  42  56
BRANCH  43  67
ATOM     67  C   UNL A   1      36.988  32.352  30.302  1.00  0.00     0.023 A 
ATOM     68  C   UNL A   1      36.290  33.039  29.296  1.00  0.00     0.031 A 
ATOM     69  C   UNL A   1      36.338  32.151  31.534  1.00  0.00     0.131 A 
ATOM     70  C   UNL A   1      35.004  33.541  29.554  1.00  0.00     0.055 A 
ATOM     71  C   UNL A   1      35.039  32.602  31.766  1.00  0.00     0.041 A 
ATOM     72  F   UNL A   1      36.958  31.498  32.529  1.00  0.00    -0.206 F 
ATOM     73  C   UNL A   1      34.369  33.315  30.777  1.00  0.00     0.022 A 
BRANCH  70  74
ATOM     74  S   UNL A   1      34.208  34.575  28.293  1.00  0.00     0.124 S 
ATOM     75  O   UNL A   1      35.065  34.345  27.136  1.00  0.00    -0.237 OA
ATOM     76  O   UNL A   1      32.870  33.996  28.228  1.00  0.00    -0.237 OA
ATOM     77  O   UNL A   1      34.276  35.919  28.864  1.00  0.00    -0.744 OA
ENDBRANCH  70  74
ENDBRANCH  43  67
BRANCH  55  78
ATOM     78  C   UNL A   1      43.209  35.160  31.737  1.00  0.00     0.023 A 
ATOM     79  C   UNL A   1      43.183  35.404  33.121  1.00  0.00     0.031 A 
ATOM     80  C   UNL A   1      43.619  36.205  30.889  1.00  0.00     0.131 A 
ATOM     81  C   UNL A   1      43.512  36.677  33.612  1.00  0.00     0.055 A 
ATOM     82  C   UNL A   1      44.004  37.450  31.388  1.00  0.00     0.041 A 
ATOM     83  F   UNL A   1      43.659  36.030  29.558  1.00  0.00    -0.206 F 
ATOM     84  C   UNL A   1      43.940  37.694  32.757  1.00  0.00     0.022 A 
BRANCH  81  85
ATOM     85  S   UNL A   1      43.293  37.011  35.381  1.00  0.00     0.124 S 
ATOM     86  O   UNL A   1      41.859  36.803  35.553  1.00  0.00    -0.237 OA
ATOM     87  O   UNL A   1      44.160  36.013  35.999  1.00  0.00    -0.237 OA
ATOM     88  O   UNL A   1      43.741  38.395  35.528  1.00  0.00    -0.744 OA
ENDBRANCH  81  85
ENDBRANCH  55  78
ENDBRANCH  29  30
ENDBRANCH  21  24
ENDBRANCH  19  20
ENDBRANCH   1  19
TORSDOF 16
ENDMDL
MODEL 2
REMARK VINA RESULT:     -10.6      5.994      9.425
REMARK SMILES C[C@H](Cc1ccc(N)cc1)C(=O)NCCCNC(=O)c1ccc(-c2c3nc(c(-c4cc(S(=O)(=O)[O-])ccc4F)c4ccc([nH]4)c(-c4cc(S(=O)(=O)[O-])ccc4F)c4nc(c(-c5cc(S(=O)(=O)[O-])ccc5F)c5ccc2[nH]5)C=C4)C=C3)cc1
REMARK SMILES IDX 15 1 14 2 13 3 11 4 12 5 2 7 1 8 3 9 4 10 5 11 10 12 6 13
REMARK SMILES IDX 9 14 7 15 8 16 16 19 17 20 18 21 19 23 20 24 21 25 82 26
REMARK SMILES IDX 22 27 81 28 23 29 24 30 25 31 75 32 26 33 80 34 74 35 76 36
REMARK SMILES IDX 27 37 79 38 73 39 72 40 28 42 60 43 40 44 59 45 41 46 44 47
REMARK SMILES IDX 58 48 77 49 42 50 43 51 57 53 78 54 45 55 29 56 30 57 38 58
REMARK SMILES IDX 31 59 37 60 39 61 36 62 32 63 33 64 34 65 35 66 61 67 62 68
REMARK SMILES IDX 70 69 63 70 69 71 71 72 68 73 64 74 65 75 66 76 67 77 46 78
REMARK SMILES IDX 47 79 55 80 48 81 54 82 56 83 53 84 49 85 50 86 51 87 52 88
REMARK H PARENT 13 6 8 17 8 18 17 22 76 41 44 52
REMARK Flexibility Score: inf
ROOT
ATOM      1  C   UNL A   1      31.831  28.222  26.330  1.00  0.00     0.042 C 
ENDROOT
BRANCH   1   2
ATOM      2  C   UNL A   1      32.397  26.809  26.412  1.00  0.00     0.117 C 
BRANCH   2   3
ATOM      3  N   UNL A   1      31.386  25.874  26.872  1.00  0.00    -0.356 N 
ATOM      4  C   UNL A   1      30.830  24.788  26.284  1.00  0.00     0.223 C 
ATOM      5  O   UNL A   1      29.882  24.260  26.876  1.00  0.00    -0.275 OA
ATOM      6  H   UNL A   1      31.041  26.065  27.774  1.00  0.00     0.163 HD
BRANCH   4   7
ATOM      7  C   UNL A   1      31.357  24.169  24.992  1.00  0.00     0.079 C 
ATOM      8  C   UNL A   1      32.881  24.077  25.012  1.00  0.00     0.018 C 
BRANCH   7   9
ATOM      9  C   UNL A   1      30.651  24.648  23.699  1.00  0.00     0.048 C 
BRANCH   9  10
ATOM     10  C   UNL A   1      30.688  26.116  23.343  1.00  0.00    -0.047 A 
ATOM     11  C   UNL A   1      29.587  26.949  23.564  1.00  0.00     0.006 A 
ATOM     12  C   UNL A   1      31.840  26.691  22.798  1.00  0.00     0.006 A 
ATOM     13  C   UNL A   1      29.576  28.263  23.090  1.00  0.00     0.026 A 
ATOM     14  C   UNL A   1      31.827  28.007  22.323  1.00  0.00     0.026 A 
ATOM     15  C   UNL A   1      30.670  28.780  22.400  1.00  0.00     0.031 A 
BRANCH  15  16
ATOM     16  N   UNL A   1      30.653  30.078  21.919  1.00  0.00    -0.399 N 
ATOM     17  H   UNL A   1      31.312  30.361  21.245  1.00  0.00     0.156 HD
ATOM     18  H   UNL A   1      29.982  30.717  22.250  1.00  0.00     0.156 HD
ENDBRANCH  15  16
ENDBRANCH   9  10
ENDBRANCH   7   9
ENDBRANCH   4   7
ENDBRANCH   2   3
ENDBRANCH   1   2
BRANCH   1  19
ATOM     19  C   UNL A   1      32.764  29.220  25.658  1.00  0.00     0.118 C 
BRANCH  19  20
ATOM     20  N   UNL A   1      32.447  30.595  26.017  1.00  0.00    -0.352 N 
ATOM     21  C   UNL A   1      33.016  31.421  26.952  1.00  0.00     0.251 C 
ATOM     22  H   UNL A   1      31.706  30.995  25.507  1.00  0.00     0.163 HD
ATOM     23  O   UNL A   1      32.425  32.460  27.266  1.00  0.00    -0.269 OA
BRANCH  21  24
ATOM     24  C   UNL A   1      34.301  31.079  27.603  1.00  0.00     0.039 A 
ATOM     25  C   UNL A   1      35.256  32.085  27.794  1.00  0.00     0.014 A 
ATOM     26  C   UNL A   1      34.593  29.771  27.995  1.00  0.00     0.014 A 
ATOM     27  C   UNL A   1      36.459  31.793  28.445  1.00  0.00     0.010 A 
ATOM     28  C   UNL A   1      35.750  29.501  28.724  1.00  0.00     0.010 A 
ATOM     29  C   UNL A   1      36.697  30.508  28.958  1.00  0.00    -0.014 A 
BRANCH  29  30
ATOM     30  C   UNL A   1      37.926  30.192  29.736  1.00  0.00     0.031 A 
ATOM     31  C   UNL A   1      38.942  29.226  29.184  1.00  0.00     0.074 A 
ATOM     32  C   UNL A   1      38.090  30.710  30.969  1.00  0.00     0.049 A 
ATOM     33  N   UNL A   1      40.008  28.728  29.756  1.00  0.00    -0.248 NA
ATOM     34  C   UNL A   1      38.708  28.733  27.818  1.00  0.00     0.031 C 
ATOM     35  C   UNL A   1      37.162  31.633  31.628  1.00  0.00     0.029 A 
ATOM     36  N   UNL A   1      39.084  30.527  31.897  1.00  0.00    -0.354 N 
ATOM     37  C   UNL A   1      40.562  27.849  28.829  1.00  0.00     0.074 A 
ATOM     38  C   UNL A   1      39.677  27.841  27.683  1.00  0.00     0.031 C 
ATOM     39  C   UNL A   1      37.640  31.949  32.841  1.00  0.00     0.029 A 
ATOM     40  C   UNL A   1      38.877  31.211  33.074  1.00  0.00     0.049 A 
ATOM     41  H   UNL A   1      39.873  29.959  31.737  1.00  0.00     0.167 HD
ATOM     42  C   UNL A   1      41.710  27.133  28.917  1.00  0.00     0.034 A 
ATOM     43  C   UNL A   1      39.588  31.224  34.221  1.00  0.00     0.034 A 
ATOM     44  C   UNL A   1      42.588  27.164  30.062  1.00  0.00     0.049 A 
ATOM     45  C   UNL A   1      40.838  30.386  34.311  1.00  0.00     0.074 A 
ATOM     46  C   UNL A   1      43.805  26.527  30.233  1.00  0.00     0.029 A 
ATOM     47  N   UNL A   1      42.340  27.862  31.238  1.00  0.00    -0.354 N 
ATOM     48  N   UNL A   1      41.372  29.597  33.407  1.00  0.00    -0.248 NA
ATOM     49  C   UNL A   1      41.585  30.445  35.575  1.00  0.00     0.031 C 
ATOM     50  C   UNL A   1      44.256  26.779  31.533  1.00  0.00     0.029 A 
ATOM     51  C   UNL A   1      43.361  27.640  32.149  1.00  0.00     0.049 A 
ATOM     52  H   UNL A   1      41.554  28.431  31.400  1.00  0.00     0.167 HD
ATOM     53  C   UNL A   1      42.531  29.088  33.986  1.00  0.00     0.074 A 
ATOM     54  C   UNL A   1      42.628  29.672  35.308  1.00  0.00     0.031 C 
ATOM     55  C   UNL A   1      43.437  28.218  33.471  1.00  0.00     0.034 A 
BRANCH  42  56
ATOM     56  C   UNL A   1      42.064  26.237  27.754  1.00  0.00     0.023 A 
ATOM     57  C   UNL A   1      41.630  24.901  27.689  1.00  0.00     0.031 A 
ATOM     58  C   UNL A   1      42.867  26.716  26.702  1.00  0.00     0.131 A 
ATOM     59  C   UNL A   1      42.062  24.071  26.644  1.00  0.00     0.055 A 
ATOM     60  C   UNL A   1      43.223  25.908  25.620  1.00  0.00     0.041 A 
ATOM     61  F   UNL A   1      43.330  27.976  26.715  1.00  0.00    -0.206 F 
ATOM     62  C   UNL A   1      42.835  24.573  25.594  1.00  0.00     0.022 A 
BRANCH  59  63
ATOM     63  S   UNL A   1      41.724  22.293  26.756  1.00  0.00     0.124 S 
ATOM     64  O   UNL A   1      40.309  22.284  27.117  1.00  0.00    -0.237 OA
ATOM     65  O   UNL A   1      42.043  21.826  25.411  1.00  0.00    -0.237 OA
ATOM     66  O   UNL A   1      42.631  21.836  27.807  1.00  0.00    -0.744 OA
ENDBRANCH  59  63
ENDBRANCH  42  56
BRANCH  43  67
ATOM     67  C   UNL A   1      39.128  32.034  35.386  1.00  0.00     0.023 A 
ATOM     68  C   UNL A   1      38.497  31.428  36.483  1.00  0.00     0.031 A 
ATOM     69  C   UNL A   1      39.273  33.434  35.400  1.00  0.00     0.131 A 
ATOM     70  C   UNL A   1      37.992  32.220  37.527  1.00  0.00     0.055 A 
ATOM     71  C   UNL A   1      38.820  34.211  36.466  1.00  0.00     0.041 A 
ATOM     72  F   UNL A   1      39.872  34.065  34.377  1.00  0.00    -0.206 F 
ATOM     73  C   UNL A   1      38.162  33.606  37.532  1.00  0.00     0.022 A 
BRANCH  70  74
ATOM     74  S   UNL A   1      37.028  31.418  38.837  1.00  0.00     0.124 S 
ATOM     75  O   UNL A   1      36.893  30.062  38.317  1.00  0.00    -0.237 OA
ATOM     76  O   UNL A   1      37.901  31.578  39.995  1.00  0.00    -0.237 OA
ATOM     77  O   UNL A   1      35.793  32.198  38.876  1.00  0.00    -0.744 OA
ENDBRANCH  70  74
ENDBRANCH  43  67
BRANCH  55  78
ATOM     78  C   UNL A   1      44.631  27.880  34.330  1.00  0.00     0.023 A 
ATOM     79  C   UNL A   1      44.633  26.770  35.191  1.00  0.00     0.031 A 
ATOM     80  C   UNL A   1      45.784  28.685  34.286  1.00  0.00     0.131 A 
ATOM     81  C   UNL A   1      45.744  26.523  36.011  1.00  0.00     0.055 A 
ATOM     82  C   UNL A   1      46.909  28.400  35.059  1.00  0.00     0.041 A 
ATOM     83  F   UNL A   1      45.836  29.762  33.484  1.00  0.00    -0.206 F 
ATOM     84  C   UNL A   1      46.889  27.320  35.936  1.00  0.00     0.022 A 
BRANCH  81  85
ATOM     85  S   UNL A   1      45.643  25.194  37.241  1.00  0.00     0.124 S 
ATOM     86  O   UNL A   1      44.680  24.286  36.626  1.00  0.00    -0.237 OA
ATOM     87  O   UNL A   1      47.021  24.717  37.301  1.00  0.00    -0.237 OA
ATOM     88  O   UNL A   1      45.172  25.875  38.446  1.00  0.00    -0.744 OA
ENDBRANCH  81  85
ENDBRANCH  55  78
ENDBRANCH  29  30
ENDBRANCH  21  24
ENDBRANCH  19  20
ENDBRANCH   1  19
TORSDOF 16
ENDMDL
MODEL 3
REMARK VINA RESULT:     -10.5      2.198      2.865
REMARK SMILES C[C@H](Cc1ccc(N)cc1)C(=O)NCCCNC(=O)c1ccc(-c2c3nc(c(-c4cc(S(=O)(=O)[O-])ccc4F)c4ccc([nH]4)c(-c4cc(S(=O)(=O)[O-])ccc4F)c4nc(c(-c5cc(S(=O)(=O)[O-])ccc5F)c5ccc2[nH]5)C=C4)C=C3)cc1
REMARK SMILES IDX 15 1 14 2 13 3 11 4 12 5 2 7 1 8 3 9 4 10 5 11 10 12 6 13
REMARK SMILES IDX 9 14 7 15 8 16 16 19 17 20 18 21 19 23 20 24 21 25 82 26
REMARK SMILES IDX 22 27 81 28 23 29 24 30 25 31 75 32 26 33 80 34 74 35 76 36
REMARK SMILES IDX 27 37 79 38 73 39 72 40 28 42 60 43 40 44 59 45 41 46 44 47
REMARK SMILES IDX 58 48 77 49 42 50 43 51 57 53 78 54 45 55 29 56 30 57 38 58
REMARK SMILES IDX 31 59 37 60 39 61 36 62 32 63 33 64 34 65 35 66 61 67 62 68
REMARK SMILES IDX 70 69 63 70 69 71 71 72 68 73 64 74 65 75 66 76 67 77 46 78
REMARK SMILES IDX 47 79 55 80 48 81 54 82 56 83 53 84 49 85 50 86 51 87 52 88
REMARK H PARENT 13 6 8 17 8 18 17 22 76 41 44 52
REMARK Flexibility Score: inf
ROOT
ATOM      1  C   UNL A   1      42.333  19.355  26.944  1.00  0.00     0.042 C 
ENDROOT
BRANCH   1   2
ATOM      2  C   UNL A   1      42.806  19.708  25.538  1.00  0.00     0.117 C 
BRANCH   2   3
ATOM      3  N   UNL A   1      44.244  19.901  25.511  1.00  0.00    -0.356 N 
ATOM      4  C   UNL A   1      45.009  20.999  25.725  1.00  0.00     0.223 C 
ATOM      5  O   UNL A   1      46.218  20.886  25.497  1.00  0.00    -0.275 OA
ATOM      6  H   UNL A   1      44.757  19.088  25.297  1.00  0.00     0.163 HD
BRANCH   4   7
ATOM      7  C   UNL A   1      44.461  22.309  26.285  1.00  0.00     0.079 C 
ATOM      8  C   UNL A   1      43.571  23.011  25.261  1.00  0.00     0.018 C 
BRANCH   7   9
ATOM      9  C   UNL A   1      45.475  23.150  27.100  1.00  0.00     0.048 C 
BRANCH   9  10
ATOM     10  C   UNL A   1      45.095  23.617  28.486  1.00  0.00    -0.047 A 
ATOM     11  C   UNL A   1      45.696  24.737  29.069  1.00  0.00     0.006 A 
ATOM     12  C   UNL A   1      44.110  22.950  29.220  1.00  0.00     0.006 A 
ATOM     13  C   UNL A   1      45.452  25.066  30.405  1.00  0.00     0.026 A 
ATOM     14  C   UNL A   1      43.869  23.280  30.558  1.00  0.00     0.026 A 
ATOM     15  C   UNL A   1      44.590  24.295  31.183  1.00  0.00     0.031 A 
BRANCH  15  16
ATOM     16  N   UNL A   1      44.360  24.615  32.509  1.00  0.00    -0.399 N 
ATOM     17  H   UNL A   1      43.529  25.075  32.767  1.00  0.00     0.156 HD
ATOM     18  H   UNL A   1      45.025  24.380  33.195  1.00  0.00     0.156 HD
ENDBRANCH  15  16
ENDBRANCH   9  10
ENDBRANCH   7   9
ENDBRANCH   4   7
ENDBRANCH   2   3
ENDBRANCH   1   2
BRANCH   1  19
ATOM     19  C   UNL A   1      41.264  20.293  27.486  1.00  0.00     0.118 C 
BRANCH  19  20
ATOM     20  N   UNL A   1      40.145  20.439  26.567  1.00  0.00    -0.352 N 
ATOM     21  C   UNL A   1      39.378  21.537  26.271  1.00  0.00     0.251 C 
ATOM     22  H   UNL A   1      39.901  19.619  26.080  1.00  0.00     0.163 HD
ATOM     23  O   UNL A   1      38.320  21.373  25.652  1.00  0.00    -0.269 OA
BRANCH  21  24
ATOM     24  C   UNL A   1      39.779  22.896  26.698  1.00  0.00     0.039 A 
ATOM     25  C   UNL A   1      40.698  23.036  27.744  1.00  0.00     0.014 A 
ATOM     26  C   UNL A   1      39.233  24.036  26.105  1.00  0.00     0.014 A 
ATOM     27  C   UNL A   1      41.124  24.309  28.136  1.00  0.00     0.010 A 
ATOM     28  C   UNL A   1      39.725  25.299  26.433  1.00  0.00     0.010 A 
ATOM     29  C   UNL A   1      40.676  25.451  27.452  1.00  0.00    -0.014 A 
BRANCH  29  30
ATOM     30  C   UNL A   1      41.182  26.811  27.785  1.00  0.00     0.031 A 
ATOM     31  C   UNL A   1      42.608  27.184  27.476  1.00  0.00     0.074 A 
ATOM     32  C   UNL A   1      40.383  27.681  28.435  1.00  0.00     0.049 A 
ATOM     33  N   UNL A   1      43.271  28.266  27.798  1.00  0.00    -0.248 NA
ATOM     34  C   UNL A   1      43.402  26.192  26.735  1.00  0.00     0.031 C 
ATOM     35  C   UNL A   1      38.992  27.428  28.818  1.00  0.00     0.029 A 
ATOM     36  N   UNL A   1      40.627  28.949  28.903  1.00  0.00    -0.354 N 
ATOM     37  C   UNL A   1      44.563  28.078  27.315  1.00  0.00     0.074 A 
ATOM     38  C   UNL A   1      44.602  26.752  26.733  1.00  0.00     0.031 C 
ATOM     39  C   UNL A   1      38.502  28.510  29.442  1.00  0.00     0.029 A 
ATOM     40  C   UNL A   1      39.556  29.513  29.557  1.00  0.00     0.049 A 
ATOM     41  H   UNL A   1      41.488  29.411  28.782  1.00  0.00     0.167 HD
ATOM     42  C   UNL A   1      45.611  28.938  27.336  1.00  0.00     0.034 A 
ATOM     43  C   UNL A   1      39.439  30.694  30.199  1.00  0.00     0.034 A 
ATOM     44  C   UNL A   1      45.550  30.261  27.908  1.00  0.00     0.049 A 
ATOM     45  C   UNL A   1      40.631  31.616  30.247  1.00  0.00     0.074 A 
ATOM     46  C   UNL A   1      46.532  31.237  27.930  1.00  0.00     0.029 A 
ATOM     47  N   UNL A   1      44.450  30.794  28.569  1.00  0.00    -0.354 N 
ATOM     48  N   UNL A   1      41.832  31.442  29.744  1.00  0.00    -0.248 NA
ATOM     49  C   UNL A   1      40.451  32.896  30.944  1.00  0.00     0.031 C 
ATOM     50  C   UNL A   1      46.054  32.327  28.664  1.00  0.00     0.029 A 
ATOM     51  C   UNL A   1      44.743  32.067  29.033  1.00  0.00     0.049 A 
ATOM     52  H   UNL A   1      43.588  30.335  28.689  1.00  0.00     0.167 HD
ATOM     53  C   UNL A   1      42.540  32.603  30.043  1.00  0.00     0.074 A 
ATOM     54  C   UNL A   1      41.628  33.475  30.753  1.00  0.00     0.031 C 
ATOM     55  C   UNL A   1      43.827  32.922  29.754  1.00  0.00     0.034 A 
BRANCH  42  56
ATOM     56  C   UNL A   1      46.917  28.460  26.748  1.00  0.00     0.023 A 
ATOM     57  C   UNL A   1      47.122  28.389  25.358  1.00  0.00     0.031 A 
ATOM     58  C   UNL A   1      47.969  28.045  27.586  1.00  0.00     0.131 A 
ATOM     59  C   UNL A   1      48.310  27.846  24.850  1.00  0.00     0.055 A 
ATOM     60  C   UNL A   1      49.183  27.585  27.072  1.00  0.00     0.041 A 
ATOM     61  F   UNL A   1      47.829  28.070  28.921  1.00  0.00    -0.206 F 
ATOM     62  C   UNL A   1      49.354  27.467  25.697  1.00  0.00     0.022 A 
BRANCH  59  63
ATOM     63  S   UNL A   1      48.412  27.501  23.071  1.00  0.00     0.124 S 
ATOM     64  O   UNL A   1      48.324  26.043  23.048  1.00  0.00    -0.237 OA
ATOM     65  O   UNL A   1      47.258  28.220  22.545  1.00  0.00    -0.237 OA
ATOM     66  O   UNL A   1      49.714  28.046  22.691  1.00  0.00    -0.744 OA
ENDBRANCH  59  63
ENDBRANCH  42  56
BRANCH  43  67
ATOM     67  C   UNL A   1      38.161  31.067  30.870  1.00  0.00     0.023 A 
ATOM     68  C   UNL A   1      37.164  31.776  30.180  1.00  0.00     0.031 A 
ATOM     69  C   UNL A   1      37.934  30.760  32.224  1.00  0.00     0.131 A 
ATOM     70  C   UNL A   1      36.007  32.195  30.858  1.00  0.00     0.055 A 
ATOM     71  C   UNL A   1      36.757  31.130  32.877  1.00  0.00     0.041 A 
ATOM     72  F   UNL A   1      38.852  30.082  32.930  1.00  0.00    -0.206 F 
ATOM     73  C   UNL A   1      35.791  31.865  32.197  1.00  0.00     0.022 A 
BRANCH  70  74
ATOM     74  S   UNL A   1      34.828  33.260  29.982  1.00  0.00     0.124 S 
ATOM     75  O   UNL A   1      35.720  34.166  29.268  1.00  0.00    -0.237 OA
ATOM     76  O   UNL A   1      34.100  32.295  29.164  1.00  0.00    -0.237 OA
ATOM     77  O   UNL A   1      34.053  33.868  31.063  1.00  0.00    -0.744 OA
ENDBRANCH  70  74
ENDBRANCH  43  67
BRANCH  55  78
ATOM     78  C   UNL A   1      44.308  34.289  30.174  1.00  0.00     0.023 A 
ATOM     79  C   UNL A   1      44.933  34.505  31.414  1.00  0.00     0.031 A 
ATOM     80  C   UNL A   1      44.134  35.393  29.320  1.00  0.00     0.131 A 
ATOM     81  C   UNL A   1      45.316  35.802  31.787  1.00  0.00     0.055 A 
ATOM     82  C   UNL A   1      44.572  36.670  29.670  1.00  0.00     0.041 A 
ATOM     83  F   UNL A   1      43.539  35.245  28.125  1.00  0.00    -0.206 F 
ATOM     84  C   UNL A   1      45.157  36.882  30.915  1.00  0.00     0.022 A 
BRANCH  81  85
ATOM     85  S   UNL A   1      45.951  36.076  33.463  1.00  0.00     0.124 S 
ATOM     86  O   UNL A   1      47.351  36.400  33.209  1.00  0.00    -0.237 OA
ATOM     87  O   UNL A   1      45.118  37.177  33.938  1.00  0.00    -0.237 OA
ATOM     88  O   UNL A   1      45.722  34.796  34.131  1.00  0.00    -0.744 OA
ENDBRANCH  81  85
ENDBRANCH  55  78
ENDBRANCH  29  30
ENDBRANCH  21  24
ENDBRANCH  19  20
ENDBRANCH   1  19
TORSDOF 16
ENDMDL
