MODEL 1
REMARK VINA RESULT:     -10.8      0.000      0.000
REMARK SMILES O=C(CN(CC(F)(F)F)C(=O)CC[C@H]1CCC[NH2+]C1)NCCCNC(=O)c1ccc(-c2c3nc(c(-c4cc(S(=O)(=O)[O-])ccc4F)c4ccc([nH]4)c(-c4cc(S(=O)(=O)[O-])ccc4F)c4nc(c(-c5cc(S(=O)(=O)[O-])ccc5F)c5ccc2[nH]5)C=C4)C=C3)cc1
REMARK SMILES IDX 21 1 20 2 1 3 2 4 3 6 4 7 5 8 6 9 7 10 8 11 9 12 10 13 11 14
REMARK SMILES IDX 12 15 13 16 14 17 15 18 19 19 16 20 18 21 17 22 22 25 23 26
REMARK SMILES IDX 24 27 25 28 26 30 27 31 28 32 89 33 29 34 88 35 30 36 31 37
REMARK SMILES IDX 32 38 82 39 33 40 87 41 81 42 83 43 34 44 86 45 80 46 79 47
REMARK SMILES IDX 35 49 67 50 47 51 66 52 48 53 51 54 65 55 84 56 49 57 50 58
REMARK SMILES IDX 64 60 85 61 52 62 36 63 37 64 45 65 38 66 44 67 46 68 43 69
REMARK SMILES IDX 39 70 40 71 41 72 42 73 68 74 69 75 77 76 70 77 76 78 78 79
REMARK SMILES IDX 75 80 71 81 72 82 73 83 74 84 53 85 54 86 62 87 55 88 61 89
REMARK SMILES IDX 63 90 60 91 56 92 57 93 58 94 59 95
REMARK H PARENT 20 5 18 23 18 24 24 29 83 48 51 59
REMARK Flexibility Score: inf
ROOT
ATOM      1  C   UNL A   1      32.517  27.473  26.886  1.00  0.00     0.117 C 
ENDROOT
BRANCH   1   2
ATOM      2  N   UNL A   1      33.319  26.644  26.006  1.00  0.00    -0.354 N 
ATOM      3  O   UNL A   1      31.906  24.842  26.067  1.00  0.00    -0.273 OA
ATOM      4  C   UNL A   1      32.843  25.439  25.537  1.00  0.00     0.239 C 
ATOM      5  H   UNL A   1      34.216  26.948  25.740  1.00  0.00     0.163 HD
BRANCH   4   6
ATOM      6  C   UNL A   1      33.626  24.789  24.378  1.00  0.00     0.219 C 
BRANCH   6   7
ATOM      7  N   UNL A   1      34.528  23.657  24.650  1.00  0.00    -0.324 N 
BRANCH   7   8
ATOM      8  C   UNL A   1      35.523  23.887  25.715  1.00  0.00     0.235 C 
BRANCH   8   9
ATOM      9  C   UNL A   1      36.976  23.496  25.437  1.00  0.00     0.406 C 
ATOM     10  F   UNL A   1      37.277  23.557  24.122  1.00  0.00    -0.169 F 
ATOM     11  F   UNL A   1      37.812  24.352  26.076  1.00  0.00    -0.169 F 
ATOM     12  F   UNL A   1      37.251  22.252  25.876  1.00  0.00    -0.169 F 
ENDBRANCH   8   9
ENDBRANCH   7   8
BRANCH   7  13
ATOM     13  C   UNL A   1      34.112  22.385  24.257  1.00  0.00     0.223 C 
ATOM     14  O   UNL A   1      33.659  22.190  23.128  1.00  0.00    -0.275 OA
BRANCH  13  15
ATOM     15  C   UNL A   1      34.252  21.190  25.207  1.00  0.00     0.101 C 
BRANCH  15  16
ATOM     16  C   UNL A   1      32.959  20.390  25.467  1.00  0.00     0.019 C 
BRANCH  16  17
ATOM     17  C   UNL A   1      32.974  18.973  24.878  1.00  0.00     0.045 C 
ATOM     18  C   UNL A   1      34.357  18.549  24.345  1.00  0.00     0.015 C 
ATOM     19  C   UNL A   1      32.511  17.866  25.834  1.00  0.00     0.264 C 
ATOM     20  C   UNL A   1      34.191  17.266  23.534  1.00  0.00     0.062 C 
ATOM     21  N   UNL A   1      32.279  16.657  25.034  1.00  0.00    -0.346 N 
ATOM     22  C   UNL A   1      33.481  16.180  24.342  1.00  0.00     0.260 C 
ATOM     23  H   UNL A   1      31.949  15.917  25.655  1.00  0.00     0.346 HD
ATOM     24  H   UNL A   1      31.594  16.894  24.318  1.00  0.00     0.346 HD
ENDBRANCH  16  17
ENDBRANCH  15  16
ENDBRANCH  13  15
ENDBRANCH   7  13
ENDBRANCH   6   7
ENDBRANCH   4   6
ENDBRANCH   1   2
BRANCH   1  25
ATOM     25  C   UNL A   1      31.815  28.628  26.183  1.00  0.00     0.042 C 
BRANCH  25  26
ATOM     26  C   UNL A   1      32.749  29.673  25.577  1.00  0.00     0.118 C 
BRANCH  26  27
ATOM     27  N   UNL A   1      32.515  31.016  26.092  1.00  0.00    -0.352 N 
ATOM     28  C   UNL A   1      33.151  31.745  27.064  1.00  0.00     0.251 C 
ATOM     29  H   UNL A   1      31.762  31.486  25.664  1.00  0.00     0.163 HD
ATOM     30  O   UNL A   1      32.643  32.816  27.414  1.00  0.00    -0.269 OA
BRANCH  28  31
ATOM     31  C   UNL A   1      34.400  31.284  27.712  1.00  0.00     0.039 A 
ATOM     32  C   UNL A   1      35.423  32.217  27.922  1.00  0.00     0.014 A 
ATOM     33  C   UNL A   1      34.613  29.948  28.065  1.00  0.00     0.014 A 
ATOM     34  C   UNL A   1      36.619  31.826  28.533  1.00  0.00     0.010 A 
ATOM     35  C   UNL A   1      35.775  29.577  28.748  1.00  0.00     0.010 A 
ATOM     36  C   UNL A   1      36.793  30.511  28.991  1.00  0.00    -0.014 A 
BRANCH  36  37
ATOM     37  C   UNL A   1      38.023  30.125  29.739  1.00  0.00     0.031 A 
ATOM     38  C   UNL A   1      38.277  30.635  31.134  1.00  0.00     0.074 A 
ATOM     39  C   UNL A   1      38.933  29.326  29.143  1.00  0.00     0.049 A 
ATOM     40  N   UNL A   1      39.286  30.391  31.934  1.00  0.00    -0.248 NA
ATOM     41  C   UNL A   1      37.281  31.559  31.693  1.00  0.00     0.031 C 
ATOM     42  C   UNL A   1      38.831  28.809  27.776  1.00  0.00     0.029 A 
ATOM     43  N   UNL A   1      40.116  28.804  29.605  1.00  0.00    -0.354 N 
ATOM     44  C   UNL A   1      39.049  31.133  33.086  1.00  0.00     0.074 A 
ATOM     45  C   UNL A   1      37.834  31.885  32.851  1.00  0.00     0.031 C 
ATOM     46  C   UNL A   1      39.881  28.012  27.527  1.00  0.00     0.029 A 
ATOM     47  C   UNL A   1      40.756  27.994  28.695  1.00  0.00     0.049 A 
ATOM     48  H   UNL A   1      40.472  28.991  30.503  1.00  0.00     0.167 HD
ATOM     49  C   UNL A   1      39.764  31.167  34.241  1.00  0.00     0.034 A 
ATOM     50  C   UNL A   1      41.916  27.314  28.785  1.00  0.00     0.034 A 
ATOM     51  C   UNL A   1      40.975  30.409  34.461  1.00  0.00     0.049 A 
ATOM     52  C   UNL A   1      42.695  27.373  30.074  1.00  0.00     0.074 A 
ATOM     53  C   UNL A   1      41.750  30.335  35.606  1.00  0.00     0.029 A 
ATOM     54  N   UNL A   1      41.597  29.603  33.515  1.00  0.00    -0.354 N 
ATOM     55  N   UNL A   1      42.424  28.033  31.176  1.00  0.00    -0.248 NA
ATOM     56  C   UNL A   1      43.926  26.576  30.135  1.00  0.00     0.031 C 
ATOM     57  C   UNL A   1      42.875  29.548  35.330  1.00  0.00     0.029 A 
ATOM     58  C   UNL A   1      42.759  29.054  34.041  1.00  0.00     0.049 A 
ATOM     59  H   UNL A   1      41.261  29.444  32.603  1.00  0.00     0.167 HD
ATOM     60  C   UNL A   1      43.437  27.703  32.074  1.00  0.00     0.074 A 
ATOM     61  C   UNL A   1      44.303  26.765  31.390  1.00  0.00     0.031 C 
ATOM     62  C   UNL A   1      43.632  28.135  33.347  1.00  0.00     0.034 A 
BRANCH  49  63
ATOM     63  C   UNL A   1      39.263  32.073  35.345  1.00  0.00     0.023 A 
ATOM     64  C   UNL A   1      39.695  33.407  35.462  1.00  0.00     0.031 A 
ATOM     65  C   UNL A   1      38.356  31.594  36.308  1.00  0.00     0.131 A 
ATOM     66  C   UNL A   1      39.281  34.187  36.553  1.00  0.00     0.055 A 
ATOM     67  C   UNL A   1      37.880  32.402  37.342  1.00  0.00     0.041 A 
ATOM     68  F   UNL A   1      37.922  30.323  36.266  1.00  0.00    -0.206 F 
ATOM     69  C   UNL A   1      38.356  33.704  37.479  1.00  0.00     0.022 A 
BRANCH  66  70
ATOM     70  S   UNL A   1      40.087  35.789  36.830  1.00  0.00     0.124 S 
ATOM     71  O   UNL A   1      39.638  36.551  35.668  1.00  0.00    -0.237 OA
ATOM     72  O   UNL A   1      39.535  36.202  38.117  1.00  0.00    -0.237 OA
ATOM     73  O   UNL A   1      41.510  35.461  36.839  1.00  0.00    -0.744 OA
ENDBRANCH  66  70
ENDBRANCH  49  63
BRANCH  50  74
ATOM     74  C   UNL A   1      42.416  26.513  27.630  1.00  0.00     0.023 A 
ATOM     75  C   UNL A   1      42.010  25.183  27.437  1.00  0.00     0.031 A 
ATOM     76  C   UNL A   1      43.346  27.054  26.724  1.00  0.00     0.131 A 
ATOM     77  C   UNL A   1      42.571  24.422  26.400  1.00  0.00     0.055 A 
ATOM     78  C   UNL A   1      43.856  26.312  25.657  1.00  0.00     0.041 A 
ATOM     79  F   UNL A   1      43.766  28.322  26.859  1.00  0.00    -0.206 F 
ATOM     80  C   UNL A   1      43.479  24.982  25.499  1.00  0.00     0.022 A 
BRANCH  77  81
ATOM     81  S   UNL A   1      42.165  22.657  26.300  1.00  0.00     0.124 S 
ATOM     82  O   UNL A   1      42.795  22.278  25.041  1.00  0.00    -0.237 OA
ATOM     83  O   UNL A   1      42.789  22.134  27.511  1.00  0.00    -0.237 OA
ATOM     84  O   UNL A   1      40.704  22.643  26.298  1.00  0.00    -0.744 OA
ENDBRANCH  77  81
ENDBRANCH  50  74
BRANCH  62  85
ATOM     85  C   UNL A   1      44.814  27.553  34.090  1.00  0.00     0.023 A 
ATOM     86  C   UNL A   1      44.716  26.351  34.815  1.00  0.00     0.031 A 
ATOM     87  C   UNL A   1      46.041  28.239  34.121  1.00  0.00     0.131 A 
ATOM     88  C   UNL A   1      45.790  25.923  35.611  1.00  0.00     0.055 A 
ATOM     89  C   UNL A   1      47.132  27.766  34.851  1.00  0.00     0.041 A 
ATOM     90  F   UNL A   1      46.198  29.392  33.451  1.00  0.00    -0.206 F 
ATOM     91  C   UNL A   1      47.004  26.614  35.620  1.00  0.00     0.022 A 
BRANCH  88  92
ATOM     92  S   UNL A   1      45.528  24.535  36.750  1.00  0.00     0.124 S 
ATOM     93  O   UNL A   1      46.896  24.166  37.098  1.00  0.00    -0.237 OA
ATOM     94  O   UNL A   1      44.742  25.149  37.814  1.00  0.00    -0.237 OA
ATOM     95  O   UNL A   1      44.811  23.555  35.936  1.00  0.00    -0.744 OA
ENDBRANCH  88  92
ENDBRANCH  62  85
ENDBRANCH  36  37
ENDBRANCH  28  31
ENDBRANCH  26  27
ENDBRANCH  25  26
ENDBRANCH   1  25
TORSDOF 20
ENDMDL
MODEL 2
REMARK VINA RESULT:     -10.7      2.551      3.126
REMARK SMILES O=C(CN(CC(F)(F)F)C(=O)CC[C@H]1CCC[NH2+]C1)NCCCNC(=O)c1ccc(-c2c3nc(c(-c4cc(S(=O)(=O)[O-])ccc4F)c4ccc([nH]4)c(-c4cc(S(=O)(=O)[O-])ccc4F)c4nc(c(-c5cc(S(=O)(=O)[O-])ccc5F)c5ccc2[nH]5)C=C4)C=C3)cc1
REMARK SMILES IDX 21 1 20 2 1 3 2 4 3 6 4 7 5 8 6 9 7 10 8 11 9 12 10 13 11 14
REMARK SMILES IDX 12 15 13 16 14 17 15 18 19 19 16 20 18 21 17 22 22 25 23 26
REMARK SMILES IDX 24 27 25 28 26 30 27 31 28 32 89 33 29 34 88 35 30 36 31 37
REMARK SMILES IDX 32 38 82 39 33 40 87 41 81 42 83 43 34 44 86 45 80 46 79 47
REMARK SMILES IDX 35 49 67 50 47 51 66 52 48 53 51 54 65 55 84 56 49 57 50 58
REMARK SMILES IDX 64 60 85 61 52 62 36 63 37 64 45 65 38 66 44 67 46 68 43 69
REMARK SMILES IDX 39 70 40 71 41 72 42 73 68 74 69 75 77 76 70 77 76 78 78 79
REMARK SMILES IDX 75 80 71 81 72 82 73 83 74 84 53 85 54 86 62 87 55 88 61 89
REMARK SMILES IDX 63 90 60 91 56 92 57 93 58 94 59 95
REMARK H PARENT 20 5 18 23 18 24 24 29 83 48 51 59
REMARK Flexibility Score: inf
ROOT
ATOM      1  C   UNL A   1      31.649  28.594  24.973  1.00  0.00     0.117 C 
ENDROOT
BRANCH   1   2
ATOM      2  N   UNL A   1      31.530  27.161  24.774  1.00  0.00    -0.354 N 
ATOM      3  O   UNL A   1      31.389  26.648  27.002  1.00  0.00    -0.273 OA
ATOM      4  C   UNL A   1      31.238  26.320  25.825  1.00  0.00     0.239 C 
ATOM      5  H   UNL A   1      31.659  26.785  23.874  1.00  0.00     0.163 HD
BRANCH   4   6
ATOM      6  C   UNL A   1      30.829  24.877  25.465  1.00  0.00     0.219 C 
BRANCH   6   7
ATOM      7  N   UNL A   1      31.867  23.846  25.289  1.00  0.00    -0.324 N 
BRANCH   7   8
ATOM      8  C   UNL A   1      32.939  24.189  24.333  1.00  0.00     0.235 C 
BRANCH   8   9
ATOM      9  C   UNL A   1      34.236  24.778  24.890  1.00  0.00     0.406 C 
ATOM     10  F   UNL A   1      35.313  24.030  24.570  1.00  0.00    -0.169 F 
ATOM     11  F   UNL A   1      34.441  26.013  24.368  1.00  0.00    -0.169 F 
ATOM     12  F   UNL A   1      34.193  24.903  26.231  1.00  0.00    -0.169 F 
ENDBRANCH   8   9
ENDBRANCH   7   8
BRANCH   7  13
ATOM     13  C   UNL A   1      32.022  22.899  26.300  1.00  0.00     0.223 C 
ATOM     14  O   UNL A   1      31.556  23.094  27.424  1.00  0.00    -0.275 OA
BRANCH  13  15
ATOM     15  C   UNL A   1      32.738  21.572  26.024  1.00  0.00     0.101 C 
BRANCH  15  16
ATOM     16  C   UNL A   1      32.161  20.733  24.865  1.00  0.00     0.019 C 
BRANCH  16  17
ATOM     17  C   UNL A   1      32.860  19.382  24.665  1.00  0.00     0.045 C 
ATOM     18  C   UNL A   1      32.459  18.676  23.355  1.00  0.00     0.015 C 
ATOM     19  C   UNL A   1      34.393  19.433  24.689  1.00  0.00     0.264 C 
ATOM     20  C   UNL A   1      32.977  17.240  23.400  1.00  0.00     0.062 C 
ATOM     21  N   UNL A   1      34.882  18.053  24.810  1.00  0.00    -0.346 N 
ATOM     22  C   UNL A   1      34.477  17.194  23.694  1.00  0.00     0.260 C 
ATOM     23  H   UNL A   1      35.901  18.073  24.850  1.00  0.00     0.346 HD
ATOM     24  H   UNL A   1      34.471  17.660  25.657  1.00  0.00     0.346 HD
ENDBRANCH  16  17
ENDBRANCH  15  16
ENDBRANCH  13  15
ENDBRANCH   7  13
ENDBRANCH   6   7
ENDBRANCH   4   6
ENDBRANCH   1   2
BRANCH   1  25
ATOM     25  C   UNL A   1      33.071  29.123  24.845  1.00  0.00     0.042 C 
BRANCH  25  26
ATOM     26  C   UNL A   1      33.793  29.346  26.172  1.00  0.00     0.118 C 
BRANCH  26  27
ATOM     27  N   UNL A   1      33.554  30.667  26.739  1.00  0.00    -0.352 N 
ATOM     28  C   UNL A   1      34.225  31.385  27.695  1.00  0.00     0.251 C 
ATOM     29  H   UNL A   1      32.767  31.128  26.367  1.00  0.00     0.163 HD
ATOM     30  O   UNL A   1      33.709  32.432  28.104  1.00  0.00    -0.269 OA
BRANCH  28  31
ATOM     31  C   UNL A   1      35.520  30.941  28.260  1.00  0.00     0.039 A 
ATOM     32  C   UNL A   1      35.534  29.805  29.077  1.00  0.00     0.014 A 
ATOM     33  C   UNL A   1      36.708  31.648  28.054  1.00  0.00     0.014 A 
ATOM     34  C   UNL A   1      36.734  29.350  29.630  1.00  0.00     0.010 A 
ATOM     35  C   UNL A   1      37.919  31.146  28.541  1.00  0.00     0.010 A 
ATOM     36  C   UNL A   1      37.948  29.991  29.335  1.00  0.00    -0.014 A 
BRANCH  36  37
ATOM     37  C   UNL A   1      39.239  29.439  29.837  1.00  0.00     0.031 A 
ATOM     38  C   UNL A   1      39.921  30.030  31.043  1.00  0.00     0.074 A 
ATOM     39  C   UNL A   1      39.813  28.409  29.181  1.00  0.00     0.049 A 
ATOM     40  N   UNL A   1      41.039  29.668  31.622  1.00  0.00    -0.248 NA
ATOM     41  C   UNL A   1      39.278  31.196  31.663  1.00  0.00     0.031 C 
ATOM     42  C   UNL A   1      39.280  27.781  27.968  1.00  0.00     0.029 A 
ATOM     43  N   UNL A   1      40.963  27.703  29.439  1.00  0.00    -0.354 N 
ATOM     44  C   UNL A   1      41.235  30.561  32.670  1.00  0.00     0.074 A 
ATOM     45  C   UNL A   1      40.153  31.521  32.602  1.00  0.00     0.031 C 
ATOM     46  C   UNL A   1      40.077  26.761  27.615  1.00  0.00     0.029 A 
ATOM     47  C   UNL A   1      41.200  26.686  28.543  1.00  0.00     0.049 A 
ATOM     48  H   UNL A   1      41.561  27.906  30.194  1.00  0.00     0.167 HD
ATOM     49  C   UNL A   1      42.212  30.568  33.614  1.00  0.00     0.034 A 
ATOM     50  C   UNL A   1      42.206  25.791  28.473  1.00  0.00     0.034 A 
ATOM     51  C   UNL A   1      43.286  29.602  33.669  1.00  0.00     0.049 A 
ATOM     52  C   UNL A   1      43.282  25.824  29.528  1.00  0.00     0.074 A 
ATOM     53  C   UNL A   1      44.299  29.490  34.606  1.00  0.00     0.029 A 
ATOM     54  N   UNL A   1      43.498  28.587  32.742  1.00  0.00    -0.354 N 
ATOM     55  N   UNL A   1      43.418  26.639  30.548  1.00  0.00    -0.248 NA
ATOM     56  C   UNL A   1      44.328  24.799  29.431  1.00  0.00     0.031 C 
ATOM     57  C   UNL A   1      45.160  28.461  34.208  1.00  0.00     0.029 A 
ATOM     58  C   UNL A   1      44.638  27.868  33.070  1.00  0.00     0.049 A 
ATOM     59  H   UNL A   1      42.920  28.406  31.965  1.00  0.00     0.167 HD
ATOM     60  C   UNL A   1      44.550  26.203  31.233  1.00  0.00     0.074 A 
ATOM     61  C   UNL A   1      45.036  25.037  30.524  1.00  0.00     0.031 C 
ATOM     62  C   UNL A   1      45.132  26.718  32.347  1.00  0.00     0.034 A 
BRANCH  49  63
ATOM     63  C   UNL A   1      42.174  31.671  34.649  1.00  0.00     0.023 A 
ATOM     64  C   UNL A   1      41.285  31.634  35.739  1.00  0.00     0.031 A 
ATOM     65  C   UNL A   1      43.025  32.786  34.539  1.00  0.00     0.131 A 
ATOM     66  C   UNL A   1      41.214  32.720  36.626  1.00  0.00     0.055 A 
ATOM     67  C   UNL A   1      43.010  33.823  35.474  1.00  0.00     0.041 A 
ATOM     68  F   UNL A   1      43.882  32.892  33.510  1.00  0.00    -0.206 F 
ATOM     69  C   UNL A   1      42.089  33.802  36.518  1.00  0.00     0.022 A 
BRANCH  66  70
ATOM     70  S   UNL A   1      39.858  32.769  37.831  1.00  0.00     0.124 S 
ATOM     71  O   UNL A   1      40.552  32.425  39.070  1.00  0.00    -0.237 OA
ATOM     72  O   UNL A   1      39.390  34.147  37.723  1.00  0.00    -0.237 OA
ATOM     73  O   UNL A   1      38.928  31.754  37.345  1.00  0.00    -0.744 OA
ENDBRANCH  66  70
ENDBRANCH  49  63
BRANCH  50  74
ATOM     74  C   UNL A   1      42.250  24.785  27.372  1.00  0.00     0.023 A 
ATOM     75  C   UNL A   1      41.473  23.617  27.424  1.00  0.00     0.031 A 
ATOM     76  C   UNL A   1      43.106  24.957  26.270  1.00  0.00     0.131 A 
ATOM     77  C   UNL A   1      41.606  22.641  26.424  1.00  0.00     0.055 A 
ATOM     78  C   UNL A   1      43.190  24.012  25.245  1.00  0.00     0.041 A 
ATOM     79  F   UNL A   1      43.868  26.058  26.167  1.00  0.00    -0.206 F 
ATOM     80  C   UNL A   1      42.448  22.838  25.327  1.00  0.00     0.022 A 
BRANCH  77  81
ATOM     81  S   UNL A   1      40.731  21.065  26.625  1.00  0.00     0.124 S 
ATOM     82  O   UNL A   1      41.569  20.159  25.850  1.00  0.00    -0.237 OA
ATOM     83  O   UNL A   1      40.761  20.885  28.073  1.00  0.00    -0.237 OA
ATOM     84  O   UNL A   1      39.411  21.334  26.059  1.00  0.00    -0.744 OA
ENDBRANCH  77  81
ENDBRANCH  50  74
BRANCH  62  85
ATOM     85  C   UNL A   1      46.341  25.984  32.884  1.00  0.00     0.023 A 
ATOM     86  C   UNL A   1      47.614  26.126  32.303  1.00  0.00     0.031 A 
ATOM     87  C   UNL A   1      46.207  25.085  33.957  1.00  0.00     0.131 A 
ATOM     88  C   UNL A   1      48.676  25.317  32.734  1.00  0.00     0.055 A 
ATOM     89  C   UNL A   1      47.286  24.341  34.435  1.00  0.00     0.041 A 
ATOM     90  F   UNL A   1      45.017  24.903  34.553  1.00  0.00    -0.206 F 
ATOM     91  C   UNL A   1      48.525  24.438  33.809  1.00  0.00     0.022 A 
BRANCH  88  92
ATOM     92  S   UNL A   1      50.218  25.322  31.776  1.00  0.00     0.124 S 
ATOM     93  O   UNL A   1      49.757  25.769  30.465  1.00  0.00    -0.237 OA
ATOM     94  O   UNL A   1      51.043  26.268  32.519  1.00  0.00    -0.237 OA
ATOM     95  O   UNL A   1      50.662  23.931  31.835  1.00  0.00    -0.744 OA
ENDBRANCH  88  92
ENDBRANCH  62  85
ENDBRANCH  36  37
ENDBRANCH  28  31
ENDBRANCH  26  27
ENDBRANCH  25  26
ENDBRANCH   1  25
TORSDOF 20
ENDMDL
MODEL 3
REMARK VINA RESULT:     -10.7      2.429      8.531
REMARK SMILES O=C(CN(CC(F)(F)F)C(=O)CC[C@H]1CCC[NH2+]C1)NCCCNC(=O)c1ccc(-c2c3nc(c(-c4cc(S(=O)(=O)[O-])ccc4F)c4ccc([nH]4)c(-c4cc(S(=O)(=O)[O-])ccc4F)c4nc(c(-c5cc(S(=O)(=O)[O-])ccc5F)c5ccc2[nH]5)C=C4)C=C3)cc1
REMARK SMILES IDX 21 1 20 2 1 3 2 4 3 6 4 7 5 8 6 9 7 10 8 11 9 12 10 13 11 14
REMARK SMILES IDX 12 15 13 16 14 17 15 18 19 19 16 20 18 21 17 22 22 25 23 26
REMARK SMILES IDX 24 27 25 28 26 30 27 31 28 32 89 33 29 34 88 35 30 36 31 37
REMARK SMILES IDX 32 38 82 39 33 40 87 41 81 42 83 43 34 44 86 45 80 46 79 47
REMARK SMILES IDX 35 49 67 50 47 51 66 52 48 53 51 54 65 55 84 56 49 57 50 58
REMARK SMILES IDX 64 60 85 61 52 62 36 63 37 64 45 65 38 66 44 67 46 68 43 69
REMARK SMILES IDX 39 70 40 71 41 72 42 73 68 74 69 75 77 76 70 77 76 78 78 79
REMARK SMILES IDX 75 80 71 81 72 82 73 83 74 84 53 85 54 86 62 87 55 88 61 89
REMARK SMILES IDX 63 90 60 91 56 92 57 93 58 94 59 95
REMARK H PARENT 20 5 18 23 18 24 24 29 83 48 51 59
REMARK Flexibility Score: inf
ROOT
ATOM      1  C   UNL A   1      32.630  26.898  26.456  1.00  0.00     0.117 C 
ENDROOT
BRANCH   1   2
ATOM      2  N   UNL A   1      33.580  26.298  25.537  1.00  0.00    -0.354 N 
ATOM      3  O   UNL A   1      33.013  24.133  26.029  1.00  0.00    -0.273 OA
ATOM      4  C   UNL A   1      33.565  24.944  25.284  1.00  0.00     0.239 C 
ATOM      5  H   UNL A   1      34.244  26.868  25.086  1.00  0.00     0.163 HD
BRANCH   4   6
ATOM      6  C   UNL A   1      34.391  24.455  24.077  1.00  0.00     0.219 C 
BRANCH   6   7
ATOM      7  N   UNL A   1      33.802  24.489  22.727  1.00  0.00    -0.324 N 
BRANCH   7   8
ATOM      8  C   UNL A   1      33.445  23.173  22.163  1.00  0.00     0.235 C 
BRANCH   8   9
ATOM      9  C   UNL A   1      32.547  22.255  22.994  1.00  0.00     0.406 C 
ATOM     10  F   UNL A   1      31.510  22.920  23.546  1.00  0.00    -0.169 F 
ATOM     11  F   UNL A   1      32.022  21.288  22.202  1.00  0.00    -0.169 F 
ATOM     12  F   UNL A   1      33.233  21.647  23.982  1.00  0.00    -0.169 F 
ENDBRANCH   8   9
ENDBRANCH   7   8
BRANCH   7  13
ATOM     13  C   UNL A   1      33.225  25.685  22.298  1.00  0.00     0.223 C 
ATOM     14  O   UNL A   1      33.911  26.697  22.147  1.00  0.00    -0.275 OA
BRANCH  13  15
ATOM     15  C   UNL A   1      31.731  25.753  21.962  1.00  0.00     0.101 C 
BRANCH  15  16
ATOM     16  C   UNL A   1      30.854  26.512  22.979  1.00  0.00     0.019 C 
BRANCH  16  17
ATOM     17  C   UNL A   1      30.264  27.821  22.438  1.00  0.00     0.045 C 
ATOM     18  C   UNL A   1      28.981  28.261  23.172  1.00  0.00     0.015 C 
ATOM     19  C   UNL A   1      31.217  29.022  22.458  1.00  0.00     0.264 C 
ATOM     20  C   UNL A   1      28.330  29.390  22.376  1.00  0.00     0.062 C 
ATOM     21  N   UNL A   1      30.621  30.077  21.627  1.00  0.00    -0.346 N 
ATOM     22  C   UNL A   1      29.315  30.530  22.115  1.00  0.00     0.260 C 
ATOM     23  H   UNL A   1      31.256  30.875  21.613  1.00  0.00     0.346 HD
ATOM     24  H   UNL A   1      30.475  29.683  20.698  1.00  0.00     0.346 HD
ENDBRANCH  16  17
ENDBRANCH  15  16
ENDBRANCH  13  15
ENDBRANCH   7  13
ENDBRANCH   6   7
ENDBRANCH   4   6
ENDBRANCH   1   2
BRANCH   1  25
ATOM     25  C   UNL A   1      31.992  28.181  25.939  1.00  0.00     0.042 C 
BRANCH  25  26
ATOM     26  C   UNL A   1      32.981  29.263  25.514  1.00  0.00     0.118 C 
BRANCH  26  27
ATOM     27  N   UNL A   1      32.560  30.605  25.897  1.00  0.00    -0.352 N 
ATOM     28  C   UNL A   1      33.008  31.458  26.873  1.00  0.00     0.251 C 
ATOM     29  H   UNL A   1      31.820  30.965  25.356  1.00  0.00     0.163 HD
ATOM     30  O   UNL A   1      32.362  32.491  27.084  1.00  0.00    -0.269 OA
BRANCH  28  31
ATOM     31  C   UNL A   1      34.214  31.174  27.684  1.00  0.00     0.039 A 
ATOM     32  C   UNL A   1      34.336  29.911  28.275  1.00  0.00     0.014 A 
ATOM     33  C   UNL A   1      35.197  32.138  27.928  1.00  0.00     0.014 A 
ATOM     34  C   UNL A   1      35.458  29.599  29.048  1.00  0.00     0.010 A 
ATOM     35  C   UNL A   1      36.356  31.799  28.632  1.00  0.00     0.010 A 
ATOM     36  C   UNL A   1      36.502  30.526  29.202  1.00  0.00    -0.014 A 
BRANCH  36  37
ATOM     37  C   UNL A   1      37.746  30.153  29.934  1.00  0.00     0.031 A 
ATOM     38  C   UNL A   1      38.770  29.240  29.312  1.00  0.00     0.074 A 
ATOM     39  C   UNL A   1      37.940  30.624  31.184  1.00  0.00     0.049 A 
ATOM     40  N   UNL A   1      39.912  28.822  29.800  1.00  0.00    -0.248 NA
ATOM     41  C   UNL A   1      38.459  28.705  27.979  1.00  0.00     0.031 C 
ATOM     42  C   UNL A   1      36.999  31.473  31.919  1.00  0.00     0.029 A 
ATOM     43  N   UNL A   1      38.990  30.464  32.055  1.00  0.00    -0.354 N 
ATOM     44  C   UNL A   1      40.453  27.975  28.839  1.00  0.00     0.074 A 
ATOM     45  C   UNL A   1      39.480  27.888  27.770  1.00  0.00     0.031 C 
ATOM     46  C   UNL A   1      37.532  31.793  33.108  1.00  0.00     0.029 A 
ATOM     47  C   UNL A   1      38.829  31.138  33.244  1.00  0.00     0.049 A 
ATOM     48  H   UNL A   1      39.782  29.918  31.848  1.00  0.00     0.167 HD
ATOM     49  C   UNL A   1      41.657  27.345  28.836  1.00  0.00     0.034 A 
ATOM     50  C   UNL A   1      39.631  31.223  34.324  1.00  0.00     0.034 A 
ATOM     51  C   UNL A   1      42.618  27.441  29.912  1.00  0.00     0.049 A 
ATOM     52  C   UNL A   1      40.959  30.509  34.300  1.00  0.00     0.074 A 
ATOM     53  C   UNL A   1      43.883  26.884  29.990  1.00  0.00     0.029 A 
ATOM     54  N   UNL A   1      42.420  28.130  31.103  1.00  0.00    -0.354 N 
ATOM     55  N   UNL A   1      41.481  29.761  33.356  1.00  0.00    -0.248 NA
ATOM     56  C   UNL A   1      41.814  30.673  35.482  1.00  0.00     0.031 C 
ATOM     57  C   UNL A   1      44.416  27.171  31.253  1.00  0.00     0.029 A 
ATOM     58  C   UNL A   1      43.524  27.986  31.931  1.00  0.00     0.049 A 
ATOM     59  H   UNL A   1      41.612  28.647  31.326  1.00  0.00     0.167 HD
ATOM     60  C   UNL A   1      42.741  29.391  33.819  1.00  0.00     0.074 A 
ATOM     61  C   UNL A   1      42.907  30.024  35.111  1.00  0.00     0.031 C 
ATOM     62  C   UNL A   1      43.676  28.602  33.229  1.00  0.00     0.034 A 
BRANCH  49  63
ATOM     63  C   UNL A   1      41.988  26.478  27.642  1.00  0.00     0.023 A 
ATOM     64  C   UNL A   1      41.586  25.132  27.569  1.00  0.00     0.031 A 
ATOM     65  C   UNL A   1      42.733  26.995  26.566  1.00  0.00     0.131 A 
ATOM     66  C   UNL A   1      41.993  24.333  26.488  1.00  0.00     0.055 A 
ATOM     67  C   UNL A   1      43.061  26.220  25.452  1.00  0.00     0.041 A 
ATOM     68  F   UNL A   1      43.166  28.267  26.584  1.00  0.00    -0.206 F 
ATOM     69  C   UNL A   1      42.704  24.874  25.416  1.00  0.00     0.022 A 
BRANCH  66  70
ATOM     70  S   UNL A   1      41.712  22.543  26.576  1.00  0.00     0.124 S 
ATOM     71  O   UNL A   1      42.453  22.069  25.409  1.00  0.00    -0.237 OA
ATOM     72  O   UNL A   1      42.280  22.199  27.876  1.00  0.00    -0.237 OA
ATOM     73  O   UNL A   1      40.261  22.417  26.477  1.00  0.00    -0.744 OA
ENDBRANCH  66  70
ENDBRANCH  49  63
BRANCH  50  74
ATOM     74  C   UNL A   1      39.213  32.012  35.519  1.00  0.00     0.023 A 
ATOM     75  C   UNL A   1      38.529  31.408  36.585  1.00  0.00     0.031 A 
ATOM     76  C   UNL A   1      39.452  33.396  35.591  1.00  0.00     0.131 A 
ATOM     77  C   UNL A   1      38.061  32.191  37.652  1.00  0.00     0.055 A 
ATOM     78  C   UNL A   1      39.038  34.161  36.683  1.00  0.00     0.041 A 
ATOM     79  F   UNL A   1      40.106  34.025  34.601  1.00  0.00    -0.206 F 
ATOM     80  C   UNL A   1      38.324  33.561  37.715  1.00  0.00     0.022 A 
BRANCH  77  81
ATOM     81  S   UNL A   1      37.018  31.408  38.913  1.00  0.00     0.124 S 
ATOM     82  O   UNL A   1      35.856  32.287  38.925  1.00  0.00    -0.237 OA
ATOM     83  O   UNL A   1      36.810  30.078  38.351  1.00  0.00    -0.237 OA
ATOM     84  O   UNL A   1      37.848  31.452  40.115  1.00  0.00    -0.744 OA
ENDBRANCH  77  81
ENDBRANCH  50  74
BRANCH  62  85
ATOM     85  C   UNL A   1      44.982  28.421  33.973  1.00  0.00     0.023 A 
ATOM     86  C   UNL A   1      45.171  27.376  34.895  1.00  0.00     0.031 A 
ATOM     87  C   UNL A   1      46.030  29.342  33.800  1.00  0.00     0.131 A 
ATOM     88  C   UNL A   1      46.339  27.330  35.673  1.00  0.00     0.055 A 
ATOM     89  C   UNL A   1      47.222  29.245  34.519  1.00  0.00     0.041 A 
ATOM     90  F   UNL A   1      45.909  30.363  32.936  1.00  0.00    -0.206 F 
ATOM     91  C   UNL A   1      47.374  28.248  35.478  1.00  0.00     0.022 A 
BRANCH  88  92
ATOM     92  S   UNL A   1      46.424  26.145  37.044  1.00  0.00     0.124 S 
ATOM     93  O   UNL A   1      45.608  26.800  38.061  1.00  0.00    -0.237 OA
ATOM     94  O   UNL A   1      45.857  24.940  36.449  1.00  0.00    -0.237 OA
ATOM     95  O   UNL A   1      47.852  26.075  37.348  1.00  0.00    -0.744 OA
ENDBRANCH  88  92
ENDBRANCH  62  85
ENDBRANCH  36  37
ENDBRANCH  28  31
ENDBRANCH  26  27
ENDBRANCH  25  26
ENDBRANCH   1  25
TORSDOF 20
ENDMDL
