MODEL 1
REMARK VINA RESULT:     -12.8      0.000      0.000
REMARK SMILES CC(C)C(=O)Nc1ccc2c([C@H](C(=O)NCCCNC(=O)c3ccc(-c4c5nc(c(-c6cc(S(=O)(=O)[O-])ccc6F)c6ccc([nH]6)c(-c6cc(S(=O)(=O)[O-])ccc6F)c6nc(c(-c7cc(S(=O)(=O)[O-])ccc7F)c7ccc4[nH]7)C=C6)C=C5)cc3)[NH+]3CC[NH+](CC(=O)N(C)C)CC3)c[nH]c2c1
REMARK SMILES IDX 17 1 16 2 15 3 13 4 14 5 12 7 11 8 7 9 8 10 100 11 9 12
REMARK SMILES IDX 99 13 10 14 98 15 97 16 6 18 4 19 5 20 2 22 1 23 3 24 85 25
REMARK SMILES IDX 86 26 96 27 87 29 95 30 88 31 89 33 90 34 91 35 92 36 93 37
REMARK SMILES IDX 94 38 18 39 19 40 20 41 21 43 22 44 23 45 84 46 24 47 83 48
REMARK SMILES IDX 25 49 26 50 27 51 77 52 28 53 82 54 76 55 78 56 29 57 81 58
REMARK SMILES IDX 75 59 74 60 30 62 62 63 42 64 61 65 43 66 46 67 60 68 79 69
REMARK SMILES IDX 44 70 45 71 59 73 80 74 47 75 31 76 32 77 40 78 33 79 39 80
REMARK SMILES IDX 41 81 38 82 34 83 35 84 36 85 37 86 63 87 64 88 72 89 65 90
REMARK SMILES IDX 71 91 73 92 70 93 66 94 67 95 68 96 69 97 48 98 49 99 57 100
REMARK SMILES IDX 50 101 56 102 58 103 55 104 51 105 52 106 53 107 54 108
REMARK H PARENT 15 6 98 17 6 21 85 28 88 32 19 42 78 61 46 72
REMARK Flexibility Score: inf
ROOT
ATOM      1  C   UNL A   1      31.840  29.137  26.872  1.00  0.00     0.042 C 
ENDROOT
BRANCH   1   2
ATOM      2  C   UNL A   1      32.136  27.642  27.149  1.00  0.00     0.118 C 
BRANCH   2   3
ATOM      3  N   UNL A   1      30.992  26.737  27.063  1.00  0.00    -0.351 N 
ATOM      4  C   UNL A   1      30.581  25.765  26.174  1.00  0.00     0.283 C 
ATOM      5  O   UNL A   1      29.524  25.198  26.480  1.00  0.00    -0.268 OA
ATOM      6  H   UNL A   1      30.367  26.847  27.816  1.00  0.00     0.163 HD
BRANCH   4   7
ATOM      7  C   UNL A   1      31.373  25.436  24.873  1.00  0.00     0.308 C 
BRANCH   7   8
ATOM      8  C   UNL A   1      31.888  26.642  24.087  1.00  0.00     0.044 A 
ATOM      9  C   UNL A   1      30.016  29.753  21.942  1.00  0.00     0.043 A 
ATOM     10  C   UNL A   1      29.164  28.778  22.447  1.00  0.00     0.027 A 
ATOM     11  C   UNL A   1      31.402  29.576  21.975  1.00  0.00     0.052 A 
ATOM     12  C   UNL A   1      29.668  27.690  23.163  1.00  0.00     0.013 A 
ATOM     13  C   UNL A   1      31.890  28.499  22.730  1.00  0.00     0.048 A 
ATOM     14  C   UNL A   1      31.059  27.576  23.364  1.00  0.00     0.009 A 
ATOM     15  N   UNL A   1      33.181  28.128  23.014  1.00  0.00    -0.361 N 
ATOM     16  C   UNL A   1      33.193  27.043  23.848  1.00  0.00     0.094 A 
ATOM     17  H   UNL A   1      33.985  28.579  22.666  1.00  0.00     0.166 HD
BRANCH   9  18
ATOM     18  N   UNL A   1      29.520  30.933  21.383  1.00  0.00    -0.326 N 
ATOM     19  C   UNL A   1      28.731  31.895  21.947  1.00  0.00     0.226 C 
ATOM     20  O   UNL A   1      28.330  32.806  21.210  1.00  0.00    -0.274 OA
ATOM     21  H   UNL A   1      29.776  31.095  20.446  1.00  0.00     0.169 HD
BRANCH  19  22
ATOM     22  C   UNL A   1      28.417  31.955  23.451  1.00  0.00     0.072 C 
ATOM     23  C   UNL A   1      27.199  31.149  23.883  1.00  0.00     0.018 C 
ATOM     24  C   UNL A   1      29.625  31.735  24.360  1.00  0.00     0.018 C 
ENDBRANCH  19  22
ENDBRANCH   9  18
ENDBRANCH   7   8
BRANCH   7  25
ATOM     25  N   UNL A   1      32.503  24.506  25.078  1.00  0.00    -0.312 N 
ATOM     26  C   UNL A   1      32.677  23.823  26.370  1.00  0.00     0.325 C 
ATOM     27  C   UNL A   1      32.755  23.601  23.975  1.00  0.00     0.325 C 
ATOM     28  H   UNL A   1      33.236  25.216  25.112  1.00  0.00     0.349 HD
ATOM     29  C   UNL A   1      32.160  22.366  26.492  1.00  0.00     0.325 C 
ATOM     30  C   UNL A   1      32.031  22.239  24.089  1.00  0.00     0.325 C 
ATOM     31  N   UNL A   1      32.294  21.497  25.313  1.00  0.00    -0.318 N 
ATOM     32  H   UNL A   1      31.559  20.796  25.408  1.00  0.00     0.348 HD
BRANCH  31  33
ATOM     33  C   UNL A   1      33.489  20.635  25.269  1.00  0.00     0.364 C 
BRANCH  33  34
ATOM     34  C   UNL A   1      33.224  19.175  24.884  1.00  0.00     0.277 C 
ATOM     35  O   UNL A   1      32.055  18.775  24.817  1.00  0.00    -0.268 OA
ATOM     36  N   UNL A   1      34.298  18.309  24.668  1.00  0.00    -0.344 N 
ATOM     37  C   UNL A   1      35.713  18.662  24.625  1.00  0.00     0.146 C 
ATOM     38  C   UNL A   1      34.010  16.892  24.513  1.00  0.00     0.146 C 
ENDBRANCH  33  34
ENDBRANCH  31  33
ENDBRANCH   7  25
ENDBRANCH   4   7
ENDBRANCH   2   3
ENDBRANCH   1   2
BRANCH   1  39
ATOM     39  C   UNL A   1      32.921  29.956  26.157  1.00  0.00     0.118 C 
BRANCH  39  40
ATOM     40  N   UNL A   1      32.887  31.347  26.556  1.00  0.00    -0.352 N 
ATOM     41  C   UNL A   1      33.659  32.026  27.470  1.00  0.00     0.251 C 
ATOM     42  H   UNL A   1      32.204  31.893  26.103  1.00  0.00     0.163 HD
ATOM     43  O   UNL A   1      33.248  33.112  27.876  1.00  0.00    -0.269 OA
BRANCH  41  44
ATOM     44  C   UNL A   1      34.956  31.498  27.978  1.00  0.00     0.039 A 
ATOM     45  C   UNL A   1      34.980  30.197  28.500  1.00  0.00     0.014 A 
ATOM     46  C   UNL A   1      36.106  32.289  28.080  1.00  0.00     0.014 A 
ATOM     47  C   UNL A   1      36.139  29.689  29.103  1.00  0.00     0.010 A 
ATOM     48  C   UNL A   1      37.279  31.764  28.650  1.00  0.00     0.010 A 
ATOM     49  C   UNL A   1      37.308  30.463  29.180  1.00  0.00    -0.014 A 
BRANCH  49  50
ATOM     50  C   UNL A   1      38.542  29.918  29.827  1.00  0.00     0.031 A 
ATOM     51  C   UNL A   1      38.966  30.383  31.199  1.00  0.00     0.074 A 
ATOM     52  C   UNL A   1      39.297  29.007  29.180  1.00  0.00     0.049 A 
ATOM     53  N   UNL A   1      40.020  30.045  31.901  1.00  0.00    -0.248 NA
ATOM     54  C   UNL A   1      38.097  31.366  31.860  1.00  0.00     0.031 C 
ATOM     55  C   UNL A   1      39.011  28.469  27.849  1.00  0.00     0.029 A 
ATOM     56  N   UNL A   1      40.461  28.374  29.548  1.00  0.00    -0.354 N 
ATOM     57  C   UNL A   1      39.951  30.781  33.081  1.00  0.00     0.074 A 
ATOM     58  C   UNL A   1      38.770  31.615  32.975  1.00  0.00     0.031 C 
ATOM     59  C   UNL A   1      39.960  27.580  27.520  1.00  0.00     0.029 A 
ATOM     60  C   UNL A   1      40.950  27.511  28.593  1.00  0.00     0.049 A 
ATOM     61  H   UNL A   1      40.904  28.524  30.414  1.00  0.00     0.167 HD
ATOM     62  C   UNL A   1      40.779  30.755  34.157  1.00  0.00     0.034 A 
ATOM     63  C   UNL A   1      42.071  26.760  28.571  1.00  0.00     0.034 A 
ATOM     64  C   UNL A   1      41.949  29.913  34.262  1.00  0.00     0.049 A 
ATOM     65  C   UNL A   1      43.002  26.784  29.757  1.00  0.00     0.074 A 
ATOM     66  C   UNL A   1      42.819  29.775  35.333  1.00  0.00     0.029 A 
ATOM     67  N   UNL A   1      42.426  29.077  33.262  1.00  0.00    -0.354 N 
ATOM     68  N   UNL A   1      42.895  27.456  30.879  1.00  0.00    -0.248 NA
ATOM     69  C   UNL A   1      44.202  25.939  29.675  1.00  0.00     0.031 C 
ATOM     70  C   UNL A   1      43.857  28.917  34.955  1.00  0.00     0.029 A 
ATOM     71  C   UNL A   1      43.595  28.452  33.676  1.00  0.00     0.049 A 
ATOM     72  H   UNL A   1      41.997  28.944  32.386  1.00  0.00     0.167 HD
ATOM     73  C   UNL A   1      43.997  27.087  31.649  1.00  0.00     0.074 A 
ATOM     74  C   UNL A   1      44.747  26.126  30.869  1.00  0.00     0.031 C 
ATOM     75  C   UNL A   1      44.350  27.503  32.892  1.00  0.00     0.034 A 
BRANCH  62  76
ATOM     76  C   UNL A   1      40.470  31.695  35.301  1.00  0.00     0.023 A 
ATOM     77  C   UNL A   1      39.462  31.416  36.241  1.00  0.00     0.031 A 
ATOM     78  C   UNL A   1      41.193  32.894  35.451  1.00  0.00     0.131 A 
ATOM     79  C   UNL A   1      39.157  32.352  37.240  1.00  0.00     0.055 A 
ATOM     80  C   UNL A   1      40.937  33.784  36.496  1.00  0.00     0.041 A 
ATOM     81  F   UNL A   1      42.157  33.225  34.577  1.00  0.00    -0.206 F 
ATOM     82  C   UNL A   1      39.903  33.523  37.390  1.00  0.00     0.022 A 
BRANCH  79  83
ATOM     83  S   UNL A   1      37.678  32.086  38.256  1.00  0.00     0.124 S 
ATOM     84  O   UNL A   1      38.190  32.358  39.598  1.00  0.00    -0.237 OA
ATOM     85  O   UNL A   1      36.745  33.073  37.717  1.00  0.00    -0.237 OA
ATOM     86  O   UNL A   1      37.329  30.693  38.000  1.00  0.00    -0.744 OA
ENDBRANCH  79  83
ENDBRANCH  62  76
BRANCH  63  87
ATOM     87  C   UNL A   1      42.399  25.931  27.374  1.00  0.00     0.023 A 
ATOM     88  C   UNL A   1      42.041  24.575  27.312  1.00  0.00     0.031 A 
ATOM     89  C   UNL A   1      43.124  26.472  26.297  1.00  0.00     0.131 A 
ATOM     90  C   UNL A   1      42.448  23.793  26.219  1.00  0.00     0.055 A 
ATOM     91  C   UNL A   1      43.480  25.703  25.187  1.00  0.00     0.041 A 
ATOM     92  F   UNL A   1      43.488  27.763  26.304  1.00  0.00    -0.206 F 
ATOM     93  C   UNL A   1      43.154  24.351  25.151  1.00  0.00     0.022 A 
BRANCH  90  94
ATOM     94  S   UNL A   1      42.115  22.010  26.254  1.00  0.00     0.124 S 
ATOM     95  O   UNL A   1      40.680  21.971  25.998  1.00  0.00    -0.237 OA
ATOM     96  O   UNL A   1      42.974  21.521  25.180  1.00  0.00    -0.237 OA
ATOM     97  O   UNL A   1      42.520  21.616  27.602  1.00  0.00    -0.744 OA
ENDBRANCH  90  94
ENDBRANCH  63  87
BRANCH  75  98
ATOM     98  C   UNL A   1      45.584  26.879  33.503  1.00  0.00     0.023 A 
ATOM     99  C   UNL A   1      45.531  25.667  34.212  1.00  0.00     0.031 A 
ATOM    100  C   UNL A   1      46.831  27.521  33.386  1.00  0.00     0.131 A 
ATOM    101  C   UNL A   1      46.690  25.162  34.823  1.00  0.00     0.055 A 
ATOM    102  C   UNL A   1      47.991  26.983  33.944  1.00  0.00     0.041 A 
ATOM    103  F   UNL A   1      46.942  28.683  32.723  1.00  0.00    -0.206 F 
ATOM    104  C   UNL A   1      47.923  25.803  34.679  1.00  0.00     0.022 A 
BRANCH 101 105
ATOM    105  S   UNL A   1      46.550  23.699  35.889  1.00  0.00     0.124 S 
ATOM    106  O   UNL A   1      47.352  22.718  35.166  1.00  0.00    -0.237 OA
ATOM    107  O   UNL A   1      47.111  24.177  37.149  1.00  0.00    -0.237 OA
ATOM    108  O   UNL A   1      45.113  23.430  35.914  1.00  0.00    -0.744 OA
ENDBRANCH 101 105
ENDBRANCH  75  98
ENDBRANCH  49  50
ENDBRANCH  41  44
ENDBRANCH  39  40
ENDBRANCH   1  39
TORSDOF 19
ENDMDL
MODEL 2
REMARK VINA RESULT:     -12.3      4.513     10.480
REMARK SMILES CC(C)C(=O)Nc1ccc2c([C@H](C(=O)NCCCNC(=O)c3ccc(-c4c5nc(c(-c6cc(S(=O)(=O)[O-])ccc6F)c6ccc([nH]6)c(-c6cc(S(=O)(=O)[O-])ccc6F)c6nc(c(-c7cc(S(=O)(=O)[O-])ccc7F)c7ccc4[nH]7)C=C6)C=C5)cc3)[NH+]3CC[NH+](CC(=O)N(C)C)CC3)c[nH]c2c1
REMARK SMILES IDX 17 1 16 2 15 3 13 4 14 5 12 7 11 8 7 9 8 10 100 11 9 12
REMARK SMILES IDX 99 13 10 14 98 15 97 16 6 18 4 19 5 20 2 22 1 23 3 24 85 25
REMARK SMILES IDX 86 26 96 27 87 29 95 30 88 31 89 33 90 34 91 35 92 36 93 37
REMARK SMILES IDX 94 38 18 39 19 40 20 41 21 43 22 44 23 45 84 46 24 47 83 48
REMARK SMILES IDX 25 49 26 50 27 51 77 52 28 53 82 54 76 55 78 56 29 57 81 58
REMARK SMILES IDX 75 59 74 60 30 62 62 63 42 64 61 65 43 66 46 67 60 68 79 69
REMARK SMILES IDX 44 70 45 71 59 73 80 74 47 75 31 76 32 77 40 78 33 79 39 80
REMARK SMILES IDX 41 81 38 82 34 83 35 84 36 85 37 86 63 87 64 88 72 89 65 90
REMARK SMILES IDX 71 91 73 92 70 93 66 94 67 95 68 96 69 97 48 98 49 99 57 100
REMARK SMILES IDX 50 101 56 102 58 103 55 104 51 105 52 106 53 107 54 108
REMARK H PARENT 15 6 98 17 6 21 85 28 88 32 19 42 78 61 46 72
REMARK Flexibility Score: inf
ROOT
ATOM      1  C   UNL A   1      35.907  22.828  25.811  1.00  0.00     0.042 C 
ENDROOT
BRANCH   1   2
ATOM      2  C   UNL A   1      34.998  24.080  25.881  1.00  0.00     0.118 C 
BRANCH   2   3
ATOM      3  N   UNL A   1      33.572  23.826  26.071  1.00  0.00    -0.351 N 
ATOM      4  C   UNL A   1      32.522  23.487  25.242  1.00  0.00     0.283 C 
ATOM      5  O   UNL A   1      31.435  23.345  25.817  1.00  0.00    -0.268 OA
ATOM      6  H   UNL A   1      33.295  23.918  27.011  1.00  0.00     0.163 HD
BRANCH   4   7
ATOM      7  C   UNL A   1      32.693  23.330  23.702  1.00  0.00     0.308 C 
BRANCH   7   8
ATOM      8  C   UNL A   1      32.348  21.954  23.132  1.00  0.00     0.044 A 
ATOM      9  C   UNL A   1      32.474  18.032  24.679  1.00  0.00     0.043 A 
ATOM     10  C   UNL A   1      32.975  19.022  25.516  1.00  0.00     0.027 A 
ATOM     11  C   UNL A   1      32.158  18.318  23.347  1.00  0.00     0.052 A 
ATOM     12  C   UNL A   1      32.999  20.358  25.110  1.00  0.00     0.013 A 
ATOM     13  C   UNL A   1      32.151  19.668  22.968  1.00  0.00     0.048 A 
ATOM     14  C   UNL A   1      32.521  20.702  23.829  1.00  0.00     0.009 A 
ATOM     15  N   UNL A   1      31.805  20.253  21.775  1.00  0.00    -0.361 N 
ATOM     16  C   UNL A   1      31.887  21.616  21.871  1.00  0.00     0.094 A 
ATOM     17  H   UNL A   1      31.537  19.761  20.965  1.00  0.00     0.166 HD
BRANCH   9  18
ATOM     18  N   UNL A   1      32.276  16.726  25.133  1.00  0.00    -0.326 N 
ATOM     19  C   UNL A   1      33.072  15.626  24.983  1.00  0.00     0.226 C 
ATOM     20  O   UNL A   1      32.627  14.543  25.386  1.00  0.00    -0.274 OA
ATOM     21  H   UNL A   1      31.442  16.576  25.633  1.00  0.00     0.169 HD
BRANCH  19  22
ATOM     22  C   UNL A   1      34.511  15.691  24.446  1.00  0.00     0.072 C 
ATOM     23  C   UNL A   1      34.671  16.446  23.132  1.00  0.00     0.018 C 
ATOM     24  C   UNL A   1      35.559  16.086  25.486  1.00  0.00     0.018 C 
ENDBRANCH  19  22
ENDBRANCH   9  18
ENDBRANCH   7   8
BRANCH   7  25
ATOM     25  N   UNL A   1      31.969  24.348  22.911  1.00  0.00    -0.312 N 
ATOM     26  C   UNL A   1      30.558  24.647  23.200  1.00  0.00     0.325 C 
ATOM     27  C   UNL A   1      32.715  25.564  22.655  1.00  0.00     0.325 C 
ATOM     28  H   UNL A   1      31.900  23.801  22.051  1.00  0.00     0.349 HD
ATOM     29  C   UNL A   1      30.246  25.888  24.076  1.00  0.00     0.325 C 
ATOM     30  C   UNL A   1      32.491  26.681  23.700  1.00  0.00     0.325 C 
ATOM     31  N   UNL A   1      31.103  27.071  23.905  1.00  0.00    -0.318 N 
ATOM     32  H   UNL A   1      31.055  27.571  24.792  1.00  0.00     0.348 HD
BRANCH  31  33
ATOM     33  C   UNL A   1      30.610  28.108  22.980  1.00  0.00     0.364 C 
BRANCH  33  34
ATOM     34  C   UNL A   1      30.306  29.465  23.628  1.00  0.00     0.277 C 
ATOM     35  O   UNL A   1      30.883  29.770  24.679  1.00  0.00    -0.268 OA
ATOM     36  N   UNL A   1      29.352  30.308  23.054  1.00  0.00    -0.344 N 
ATOM     37  C   UNL A   1      28.668  30.118  21.780  1.00  0.00     0.146 C 
ATOM     38  C   UNL A   1      28.942  31.483  23.806  1.00  0.00     0.146 C 
ENDBRANCH  33  34
ENDBRANCH  31  33
ENDBRANCH   7  25
ENDBRANCH   4   7
ENDBRANCH   2   3
ENDBRANCH   1   2
BRANCH   1  39
ATOM     39  C   UNL A   1      37.347  23.019  25.320  1.00  0.00     0.118 C 
BRANCH  39  40
ATOM     40  N   UNL A   1      38.254  22.084  25.950  1.00  0.00    -0.352 N 
ATOM     41  C   UNL A   1      39.498  22.288  26.499  1.00  0.00     0.251 C 
ATOM     42  H   UNL A   1      37.929  21.155  25.993  1.00  0.00     0.163 HD
ATOM     43  O   UNL A   1      40.213  21.304  26.686  1.00  0.00    -0.269 OA
BRANCH  41  44
ATOM     44  C   UNL A   1      40.004  23.640  26.867  1.00  0.00     0.039 A 
ATOM     45  C   UNL A   1      40.343  23.875  28.207  1.00  0.00     0.014 A 
ATOM     46  C   UNL A   1      40.024  24.711  25.967  1.00  0.00     0.014 A 
ATOM     47  C   UNL A   1      40.710  25.158  28.638  1.00  0.00     0.010 A 
ATOM     48  C   UNL A   1      40.429  25.988  26.393  1.00  0.00     0.010 A 
ATOM     49  C   UNL A   1      40.765  26.231  27.736  1.00  0.00    -0.014 A 
BRANCH  49  50
ATOM     50  C   UNL A   1      41.152  27.599  28.200  1.00  0.00     0.031 A 
ATOM     51  C   UNL A   1      42.598  28.031  28.215  1.00  0.00     0.074 A 
ATOM     52  C   UNL A   1      40.206  28.462  28.622  1.00  0.00     0.049 A 
ATOM     53  N   UNL A   1      43.122  29.165  28.612  1.00  0.00    -0.248 NA
ATOM     54  C   UNL A   1      43.584  27.054  27.731  1.00  0.00     0.031 C 
ATOM     55  C   UNL A   1      38.769  28.180  28.666  1.00  0.00     0.029 A 
ATOM     56  N   UNL A   1      40.303  29.748  29.099  1.00  0.00    -0.354 N 
ATOM     57  C   UNL A   1      44.498  29.037  28.440  1.00  0.00     0.074 A 
ATOM     58  C   UNL A   1      44.725  27.694  27.942  1.00  0.00     0.031 C 
ATOM     59  C   UNL A   1      38.123  29.263  29.126  1.00  0.00     0.029 A 
ATOM     60  C   UNL A   1      39.094  30.303  29.454  1.00  0.00     0.049 A 
ATOM     61  H   UNL A   1      41.159  30.228  29.179  1.00  0.00     0.167 HD
ATOM     62  C   UNL A   1      45.478  29.951  28.659  1.00  0.00     0.034 A 
ATOM     63  C   UNL A   1      38.797  31.503  29.995  1.00  0.00     0.034 A 
ATOM     64  C   UNL A   1      45.245  31.291  29.146  1.00  0.00     0.049 A 
ATOM     65  C   UNL A   1      39.907  32.485  30.275  1.00  0.00     0.074 A 
ATOM     66  C   UNL A   1      46.167  32.308  29.347  1.00  0.00     0.029 A 
ATOM     67  N   UNL A   1      44.011  31.804  29.522  1.00  0.00    -0.354 N 
ATOM     68  N   UNL A   1      41.196  32.357  30.066  1.00  0.00    -0.248 NA
ATOM     69  C   UNL A   1      39.518  33.777  30.857  1.00  0.00     0.031 C 
ATOM     70  C   UNL A   1      45.503  33.403  29.911  1.00  0.00     0.029 A 
ATOM     71  C   UNL A   1      44.153  33.103  29.989  1.00  0.00     0.049 A 
ATOM     72  H   UNL A   1      43.157  31.316  29.465  1.00  0.00     0.167 HD
ATOM     73  C   UNL A   1      41.766  33.567  30.460  1.00  0.00     0.074 A 
ATOM     74  C   UNL A   1      40.680  34.412  30.907  1.00  0.00     0.031 C 
ATOM     75  C   UNL A   1      43.071  33.943  30.446  1.00  0.00     0.034 A 
BRANCH  62  76
ATOM     76  C   UNL A   1      46.906  29.520  28.408  1.00  0.00     0.023 A 
ATOM     77  C   UNL A   1      47.692  28.931  29.415  1.00  0.00     0.031 A 
ATOM     78  C   UNL A   1      47.493  29.704  27.143  1.00  0.00     0.131 A 
ATOM     79  C   UNL A   1      49.036  28.616  29.162  1.00  0.00     0.055 A 
ATOM     80  C   UNL A   1      48.808  29.316  26.874  1.00  0.00     0.041 A 
ATOM     81  F   UNL A   1      46.800  30.275  26.145  1.00  0.00    -0.206 F 
ATOM     82  C   UNL A   1      49.592  28.781  27.891  1.00  0.00     0.022 A 
BRANCH  79  83
ATOM     83  S   UNL A   1      50.089  28.119  30.553  1.00  0.00     0.124 S 
ATOM     84  O   UNL A   1      51.330  28.830  30.251  1.00  0.00    -0.237 OA
ATOM     85  O   UNL A   1      49.337  28.610  31.706  1.00  0.00    -0.237 OA
ATOM     86  O   UNL A   1      50.163  26.668  30.428  1.00  0.00    -0.744 OA
ENDBRANCH  79  83
ENDBRANCH  62  76
BRANCH  63  87
ATOM     87  C   UNL A   1      37.385  31.848  30.334  1.00  0.00     0.023 A 
ATOM     88  C   UNL A   1      36.484  32.270  29.343  1.00  0.00     0.031 A 
ATOM     89  C   UNL A   1      36.932  31.811  31.665  1.00  0.00     0.131 A 
ATOM     90  C   UNL A   1      35.191  32.683  29.703  1.00  0.00     0.055 A 
ATOM     91  C   UNL A   1      35.628  32.171  32.010  1.00  0.00     0.041 A 
ATOM     92  F   UNL A   1      37.751  31.411  32.650  1.00  0.00    -0.206 F 
ATOM     93  C   UNL A   1      34.754  32.624  31.028  1.00  0.00     0.022 A 
BRANCH  90  94
ATOM     94  S   UNL A   1      34.114  33.381  28.421  1.00  0.00     0.124 S 
ATOM     95  O   UNL A   1      33.537  32.179  27.830  1.00  0.00    -0.237 OA
ATOM     96  O   UNL A   1      33.207  34.210  29.208  1.00  0.00    -0.237 OA
ATOM     97  O   UNL A   1      35.042  34.117  27.563  1.00  0.00    -0.744 OA
ENDBRANCH  90  94
ENDBRANCH  63  87
BRANCH  75  98
ATOM     98  C   UNL A   1      43.386  35.354  30.887  1.00  0.00     0.023 A 
ATOM     99  C   UNL A   1      43.503  36.411  29.969  1.00  0.00     0.031 A 
ATOM    100  C   UNL A   1      43.590  35.638  32.250  1.00  0.00     0.131 A 
ATOM    101  C   UNL A   1      43.867  37.692  30.417  1.00  0.00     0.055 A 
ATOM    102  C   UNL A   1      43.892  36.925  32.697  1.00  0.00     0.041 A 
ATOM    103  F   UNL A   1      43.496  34.668  33.173  1.00  0.00    -0.206 F 
ATOM    104  C   UNL A   1      44.045  37.959  31.777  1.00  0.00     0.022 A 
BRANCH 101 105
ATOM    105  S   UNL A   1      44.195  38.987  29.189  1.00  0.00     0.124 S 
ATOM    106  O   UNL A   1      44.039  38.261  27.933  1.00  0.00    -0.237 OA
ATOM    107  O   UNL A   1      43.159  39.971  29.489  1.00  0.00    -0.237 OA
ATOM    108  O   UNL A   1      45.559  39.412  29.495  1.00  0.00    -0.744 OA
ENDBRANCH 101 105
ENDBRANCH  75  98
ENDBRANCH  49  50
ENDBRANCH  41  44
ENDBRANCH  39  40
ENDBRANCH   1  39
TORSDOF 19
ENDMDL
MODEL 3
REMARK VINA RESULT:     -12.2      1.760      2.285
REMARK SMILES CC(C)C(=O)Nc1ccc2c([C@H](C(=O)NCCCNC(=O)c3ccc(-c4c5nc(c(-c6cc(S(=O)(=O)[O-])ccc6F)c6ccc([nH]6)c(-c6cc(S(=O)(=O)[O-])ccc6F)c6nc(c(-c7cc(S(=O)(=O)[O-])ccc7F)c7ccc4[nH]7)C=C6)C=C5)cc3)[NH+]3CC[NH+](CC(=O)N(C)C)CC3)c[nH]c2c1
REMARK SMILES IDX 17 1 16 2 15 3 13 4 14 5 12 7 11 8 7 9 8 10 100 11 9 12
REMARK SMILES IDX 99 13 10 14 98 15 97 16 6 18 4 19 5 20 2 22 1 23 3 24 85 25
REMARK SMILES IDX 86 26 96 27 87 29 95 30 88 31 89 33 90 34 91 35 92 36 93 37
REMARK SMILES IDX 94 38 18 39 19 40 20 41 21 43 22 44 23 45 84 46 24 47 83 48
REMARK SMILES IDX 25 49 26 50 27 51 77 52 28 53 82 54 76 55 78 56 29 57 81 58
REMARK SMILES IDX 75 59 74 60 30 62 62 63 42 64 61 65 43 66 46 67 60 68 79 69
REMARK SMILES IDX 44 70 45 71 59 73 80 74 47 75 31 76 32 77 40 78 33 79 39 80
REMARK SMILES IDX 41 81 38 82 34 83 35 84 36 85 37 86 63 87 64 88 72 89 65 90
REMARK SMILES IDX 71 91 73 92 70 93 66 94 67 95 68 96 69 97 48 98 49 99 57 100
REMARK SMILES IDX 50 101 56 102 58 103 55 104 51 105 52 106 53 107 54 108
REMARK H PARENT 15 6 98 17 6 21 85 28 88 32 19 42 78 61 46 72
REMARK Flexibility Score: inf
ROOT
ATOM      1  C   UNL A   1      33.095  27.916  26.776  1.00  0.00     0.042 C 
ENDROOT
BRANCH   1   2
ATOM      2  C   UNL A   1      31.589  28.146  26.500  1.00  0.00     0.118 C 
BRANCH   2   3
ATOM      3  N   UNL A   1      30.716  26.994  26.713  1.00  0.00    -0.351 N 
ATOM      4  C   UNL A   1      30.450  25.829  26.023  1.00  0.00     0.283 C 
ATOM      5  O   UNL A   1      29.627  25.082  26.568  1.00  0.00    -0.268 OA
ATOM      6  H   UNL A   1      30.194  27.066  27.545  1.00  0.00     0.163 HD
BRANCH   4   7
ATOM      7  C   UNL A   1      31.112  25.504  24.651  1.00  0.00     0.308 C 
BRANCH   7   8
ATOM      8  C   UNL A   1      31.376  26.703  23.740  1.00  0.00     0.044 A 
ATOM      9  C   UNL A   1      28.920  29.677  22.034  1.00  0.00     0.043 A 
ATOM     10  C   UNL A   1      28.253  28.687  22.746  1.00  0.00     0.027 A 
ATOM     11  C   UNL A   1      30.281  29.551  21.742  1.00  0.00     0.052 A 
ATOM     12  C   UNL A   1      28.958  27.641  23.346  1.00  0.00     0.013 A 
ATOM     13  C   UNL A   1      30.979  28.517  22.383  1.00  0.00     0.048 A 
ATOM     14  C   UNL A   1      30.360  27.584  23.214  1.00  0.00     0.009 A 
ATOM     15  N   UNL A   1      32.315  28.202  22.360  1.00  0.00    -0.361 N 
ATOM     16  C   UNL A   1      32.568  27.144  23.191  1.00  0.00     0.094 A 
ATOM     17  H   UNL A   1      32.994  28.671  21.823  1.00  0.00     0.166 HD
BRANCH   9  18
ATOM     18  N   UNL A   1      28.256  30.821  21.583  1.00  0.00    -0.326 N 
ATOM     19  C   UNL A   1      28.302  32.097  22.068  1.00  0.00     0.226 C 
ATOM     20  O   UNL A   1      27.534  32.926  21.561  1.00  0.00    -0.274 OA
ATOM     21  H   UNL A   1      27.671  30.688  20.804  1.00  0.00     0.169 HD
BRANCH  19  22
ATOM     22  C   UNL A   1      29.321  32.565  23.120  1.00  0.00     0.072 C 
ATOM     23  C   UNL A   1      29.332  34.067  23.376  1.00  0.00     0.018 C 
ATOM     24  C   UNL A   1      29.325  31.745  24.408  1.00  0.00     0.018 C 
ENDBRANCH  19  22
ENDBRANCH   9  18
ENDBRANCH   7   8
BRANCH   7  25
ATOM     25  N   UNL A   1      32.364  24.726  24.758  1.00  0.00    -0.312 N 
ATOM     26  C   UNL A   1      32.788  24.178  26.056  1.00  0.00     0.325 C 
ATOM     27  C   UNL A   1      32.577  23.765  23.695  1.00  0.00     0.325 C 
ATOM     28  H   UNL A   1      33.003  25.514  24.640  1.00  0.00     0.349 HD
ATOM     29  C   UNL A   1      32.473  22.688  26.350  1.00  0.00     0.325 C 
ATOM     30  C   UNL A   1      32.046  22.345  24.003  1.00  0.00     0.325 C 
ATOM     31  N   UNL A   1      32.556  21.743  25.227  1.00  0.00    -0.318 N 
ATOM     32  H   UNL A   1      31.931  20.975  25.471  1.00  0.00     0.348 HD
BRANCH  31  33
ATOM     33  C   UNL A   1      33.832  21.019  25.073  1.00  0.00     0.364 C 
BRANCH  33  34
ATOM     34  C   UNL A   1      35.033  21.663  25.776  1.00  0.00     0.277 C 
ATOM     35  O   UNL A   1      35.174  21.498  26.994  1.00  0.00    -0.268 OA
ATOM     36  N   UNL A   1      35.914  22.464  25.047  1.00  0.00    -0.344 N 
ATOM     37  C   UNL A   1      35.921  22.669  23.603  1.00  0.00     0.146 C 
ATOM     38  C   UNL A   1      36.914  23.222  25.784  1.00  0.00     0.146 C 
ENDBRANCH  33  34
ENDBRANCH  31  33
ENDBRANCH   7  25
ENDBRANCH   4   7
ENDBRANCH   2   3
ENDBRANCH   1   2
BRANCH   1  39
ATOM     39  C   UNL A   1      34.090  28.919  26.181  1.00  0.00     0.118 C 
BRANCH  39  40
ATOM     40  N   UNL A   1      33.872  30.255  26.693  1.00  0.00    -0.352 N 
ATOM     41  C   UNL A   1      34.480  30.915  27.735  1.00  0.00     0.251 C 
ATOM     42  H   UNL A   1      33.179  30.773  26.223  1.00  0.00     0.163 HD
ATOM     43  O   UNL A   1      33.920  31.911  28.191  1.00  0.00    -0.269 OA
BRANCH  41  44
ATOM     44  C   UNL A   1      35.775  30.470  28.325  1.00  0.00     0.039 A 
ATOM     45  C   UNL A   1      36.950  30.735  27.609  1.00  0.00     0.014 A 
ATOM     46  C   UNL A   1      35.849  29.689  29.482  1.00  0.00     0.014 A 
ATOM     47  C   UNL A   1      38.185  30.237  28.051  1.00  0.00     0.010 A 
ATOM     48  C   UNL A   1      37.093  29.222  29.945  1.00  0.00     0.010 A 
ATOM     49  C   UNL A   1      38.274  29.480  29.229  1.00  0.00    -0.014 A 
BRANCH  49  50
ATOM     50  C   UNL A   1      39.592  28.947  29.695  1.00  0.00     0.031 A 
ATOM     51  C   UNL A   1      40.336  29.607  30.830  1.00  0.00     0.074 A 
ATOM     52  C   UNL A   1      40.135  27.869  29.093  1.00  0.00     0.049 A 
ATOM     53  N   UNL A   1      41.502  29.303  31.347  1.00  0.00    -0.248 NA
ATOM     54  C   UNL A   1      39.690  30.769  31.456  1.00  0.00     0.031 C 
ATOM     55  C   UNL A   1      39.530  27.132  27.982  1.00  0.00     0.029 A 
ATOM     56  N   UNL A   1      41.318  27.206  29.323  1.00  0.00    -0.354 N 
ATOM     57  C   UNL A   1      41.736  30.240  32.350  1.00  0.00     0.074 A 
ATOM     58  C   UNL A   1      40.607  31.148  32.334  1.00  0.00     0.031 C 
ATOM     59  C   UNL A   1      40.335  26.114  27.640  1.00  0.00     0.029 A 
ATOM     60  C   UNL A   1      41.535  26.146  28.473  1.00  0.00     0.049 A 
ATOM     61  H   UNL A   1      41.950  27.466  30.031  1.00  0.00     0.167 HD
ATOM     62  C   UNL A   1      42.783  30.329  33.211  1.00  0.00     0.034 A 
ATOM     63  C   UNL A   1      42.582  25.301  28.362  1.00  0.00     0.034 A 
ATOM     64  C   UNL A   1      43.901  29.414  33.229  1.00  0.00     0.049 A 
ATOM     65  C   UNL A   1      43.755  25.449  29.298  1.00  0.00     0.074 A 
ATOM     66  C   UNL A   1      44.981  29.389  34.099  1.00  0.00     0.029 A 
ATOM     67  N   UNL A   1      44.098  28.372  32.333  1.00  0.00    -0.354 N 
ATOM     68  N   UNL A   1      43.937  26.317  30.265  1.00  0.00    -0.248 NA
ATOM     69  C   UNL A   1      44.861  24.495  29.131  1.00  0.00     0.031 C 
ATOM     70  C   UNL A   1      45.861  28.384  33.685  1.00  0.00     0.029 A 
ATOM     71  C   UNL A   1      45.296  27.726  32.605  1.00  0.00     0.049 A 
ATOM     72  H   UNL A   1      43.477  28.127  31.609  1.00  0.00     0.167 HD
ATOM     73  C   UNL A   1      45.163  25.990  30.843  1.00  0.00     0.074 A 
ATOM     74  C   UNL A   1      45.668  24.840  30.124  1.00  0.00     0.031 C 
ATOM     75  C   UNL A   1      45.806  26.586  31.879  1.00  0.00     0.034 A 
BRANCH  62  76
ATOM     76  C   UNL A   1      42.787  31.482  34.189  1.00  0.00     0.023 A 
ATOM     77  C   UNL A   1      42.115  31.412  35.423  1.00  0.00     0.031 A 
ATOM     78  C   UNL A   1      43.469  32.674  33.881  1.00  0.00     0.131 A 
ATOM     79  C   UNL A   1      42.080  32.533  36.267  1.00  0.00     0.055 A 
ATOM     80  C   UNL A   1      43.497  33.758  34.762  1.00  0.00     0.041 A 
ATOM     81  F   UNL A   1      44.116  32.809  32.713  1.00  0.00    -0.206 F 
ATOM     82  C   UNL A   1      42.787  33.697  35.957  1.00  0.00     0.022 A 
BRANCH  79  83
ATOM     83  S   UNL A   1      40.982  32.499  37.711  1.00  0.00     0.124 S 
ATOM     84  O   UNL A   1      40.739  33.924  37.929  1.00  0.00    -0.237 OA
ATOM     85  O   UNL A   1      39.843  31.726  37.220  1.00  0.00    -0.237 OA
ATOM     86  O   UNL A   1      41.783  31.845  38.739  1.00  0.00    -0.744 OA
ENDBRANCH  79  83
ENDBRANCH  62  76
BRANCH  63  87
ATOM     87  C   UNL A   1      42.590  24.246  27.307  1.00  0.00     0.023 A 
ATOM     88  C   UNL A   1      41.808  23.087  27.435  1.00  0.00     0.031 A 
ATOM     89  C   UNL A   1      43.424  24.357  26.179  1.00  0.00     0.131 A 
ATOM     90  C   UNL A   1      41.909  22.065  26.478  1.00  0.00     0.055 A 
ATOM     91  C   UNL A   1      43.480  23.361  25.202  1.00  0.00     0.041 A 
ATOM     92  F   UNL A   1      44.189  25.446  26.006  1.00  0.00    -0.206 F 
ATOM     93  C   UNL A   1      42.730  22.200  25.357  1.00  0.00     0.022 A 
BRANCH  90  94
ATOM     94  S   UNL A   1      41.013  20.514  26.766  1.00  0.00     0.124 S 
ATOM     95  O   UNL A   1      41.909  19.537  26.159  1.00  0.00    -0.237 OA
ATOM     96  O   UNL A   1      40.921  20.484  28.222  1.00  0.00    -0.237 OA
ATOM     97  O   UNL A   1      39.746  20.720  26.067  1.00  0.00    -0.744 OA
ENDBRANCH  90  94
ENDBRANCH  63  87
BRANCH  75  98
ATOM     98  C   UNL A   1      47.112  25.969  32.327  1.00  0.00     0.023 A 
ATOM     99  C   UNL A   1      47.168  25.008  33.350  1.00  0.00     0.031 A 
ATOM    100  C   UNL A   1      48.322  26.365  31.727  1.00  0.00     0.131 A 
ATOM    101  C   UNL A   1      48.410  24.514  33.781  1.00  0.00     0.055 A 
ATOM    102  C   UNL A   1      49.548  25.827  32.118  1.00  0.00     0.041 A 
ATOM    103  F   UNL A   1      48.330  27.283  30.747  1.00  0.00    -0.206 F 
ATOM    104  C   UNL A   1      49.599  24.905  33.159  1.00  0.00     0.022 A 
BRANCH 101 105
ATOM    105  S   UNL A   1      48.462  23.421  35.228  1.00  0.00     0.124 S 
ATOM    106  O   UNL A   1      49.628  23.924  35.947  1.00  0.00    -0.237 OA
ATOM    107  O   UNL A   1      47.168  23.673  35.856  1.00  0.00    -0.237 OA
ATOM    108  O   UNL A   1      48.619  22.089  34.647  1.00  0.00    -0.744 OA
ENDBRANCH 101 105
ENDBRANCH  75  98
ENDBRANCH  49  50
ENDBRANCH  41  44
ENDBRANCH  39  40
ENDBRANCH   1  39
TORSDOF 19
ENDMDL
