MODEL 1
REMARK VINA RESULT:     -12.5      0.000      0.000
REMARK SMILES C[C@@H](NC(=O)CN1C(=O)/C(=C/c2ccccc2F)SC1=S)C(=O)NCCCNC(=O)c1ccc(-c2c3nc(c(-c4cc(S(=O)(=O)[O-])ccc4F)c4ccc([nH]4)c(-c4cc(S(=O)(=O)[O-])ccc4F)c4nc(c(-c5cc(S(=O)(=O)[O-])ccc5F)c5ccc2[nH]5)C=C4)C=C3)cc1
REMARK SMILES IDX 25 1 24 2 22 3 23 4 2 6 1 7 3 8 4 9 5 11 6 12 7 13 8 14
REMARK SMILES IDX 20 15 9 16 10 17 19 18 21 19 11 20 12 21 13 22 17 23 14 24
REMARK SMILES IDX 16 25 18 26 15 27 26 28 27 29 28 30 29 31 30 33 31 34 32 35
REMARK SMILES IDX 93 36 33 37 92 38 34 39 35 40 36 41 86 42 37 43 91 44 85 45
REMARK SMILES IDX 87 46 38 47 90 48 84 49 83 50 39 52 71 53 51 54 70 55 52 56
REMARK SMILES IDX 55 57 69 58 88 59 53 60 54 61 68 63 89 64 56 65 40 66 41 67
REMARK SMILES IDX 49 68 42 69 48 70 50 71 47 72 43 73 44 74 45 75 46 76 72 77
REMARK SMILES IDX 73 78 81 79 74 80 80 81 82 82 79 83 75 84 76 85 77 86 78 87
REMARK SMILES IDX 57 88 58 89 66 90 59 91 65 92 67 93 64 94 60 95 61 96 62 97
REMARK SMILES IDX 63 98
REMARK H PARENT 24 5 3 10 28 32 87 51 55 62
REMARK Flexibility Score: inf
ROOT
ATOM      1  C   UNL A   1      32.164  30.029  26.389  1.00  0.00     0.117 C 
ENDROOT
BRANCH   1   2
ATOM      2  N   UNL A   1      32.625  29.744  25.038  1.00  0.00    -0.354 N 
ATOM      3  C   UNL A   1      31.978  29.181  23.976  1.00  0.00     0.242 C 
ATOM      4  O   UNL A   1      32.643  28.898  22.975  1.00  0.00    -0.273 OA
ATOM      5  H   UNL A   1      33.559  30.000  24.861  1.00  0.00     0.163 HD
BRANCH   3   6
ATOM      6  C   UNL A   1      30.520  28.731  24.077  1.00  0.00     0.168 C 
ATOM      7  C   UNL A   1      29.745  29.812  23.310  1.00  0.00     0.041 C 
BRANCH   6   8
ATOM      8  N   UNL A   1      30.253  27.399  23.545  1.00  0.00    -0.343 N 
ATOM      9  C   UNL A   1      30.186  26.186  24.166  1.00  0.00     0.240 C 
ATOM     10  H   UNL A   1      30.094  27.370  22.574  1.00  0.00     0.164 HD
ATOM     11  O   UNL A   1      29.872  25.232  23.445  1.00  0.00    -0.273 OA
BRANCH   9  12
ATOM     12  C   UNL A   1      30.460  25.977  25.673  1.00  0.00     0.227 C 
BRANCH  12  13
ATOM     13  N   UNL A   1      31.502  25.013  26.062  1.00  0.00    -0.283 N 
ATOM     14  C   UNL A   1      32.825  25.408  26.080  1.00  0.00     0.266 C 
ATOM     15  C   UNL A   1      31.275  23.776  26.628  1.00  0.00     0.148 C 
ATOM     16  O   UNL A   1      33.219  26.575  26.033  1.00  0.00    -0.268 OA
ATOM     17  C   UNL A   1      33.720  24.221  26.199  1.00  0.00     0.081 C 
ATOM     18  S   UNL A   1      32.824  22.991  26.973  1.00  0.00    -0.054 SA
ATOM     19  S   UNL A   1      29.809  23.060  26.970  1.00  0.00    -0.052 S 
ATOM     20  C   UNL A   1      34.920  24.196  25.593  1.00  0.00     0.032 C 
BRANCH  20  21
ATOM     21  C   UNL A   1      35.878  23.103  25.301  1.00  0.00     0.012 A 
ATOM     22  C   UNL A   1      35.405  21.838  24.940  1.00  0.00     0.011 A 
ATOM     23  C   UNL A   1      37.245  23.207  25.606  1.00  0.00     0.130 A 
ATOM     24  C   UNL A   1      36.281  20.742  24.850  1.00  0.00     0.001 A 
ATOM     25  C   UNL A   1      38.134  22.138  25.463  1.00  0.00     0.040 A 
ATOM     26  F   UNL A   1      37.720  24.322  26.171  1.00  0.00    -0.206 F 
ATOM     27  C   UNL A   1      37.647  20.895  25.089  1.00  0.00     0.003 A 
ENDBRANCH  20  21
ENDBRANCH  12  13
ENDBRANCH   9  12
ENDBRANCH   6   8
ENDBRANCH   3   6
ENDBRANCH   1   2
BRANCH   1  28
ATOM     28  C   UNL A   1      31.769  31.492  26.574  1.00  0.00     0.042 C 
BRANCH  28  29
ATOM     29  C   UNL A   1      32.851  32.359  27.216  1.00  0.00     0.118 C 
BRANCH  29  30
ATOM     30  N   UNL A   1      32.453  33.716  27.518  1.00  0.00    -0.352 N 
ATOM     31  C   UNL A   1      33.063  34.559  28.421  1.00  0.00     0.251 C 
ATOM     32  H   UNL A   1      31.674  34.071  27.032  1.00  0.00     0.163 HD
ATOM     33  O   UNL A   1      32.622  35.690  28.618  1.00  0.00    -0.269 OA
BRANCH  31  34
ATOM     34  C   UNL A   1      34.228  34.076  29.198  1.00  0.00     0.039 A 
ATOM     35  C   UNL A   1      34.002  33.297  30.331  1.00  0.00     0.014 A 
ATOM     36  C   UNL A   1      35.535  34.381  28.814  1.00  0.00     0.014 A 
ATOM     37  C   UNL A   1      35.090  32.786  31.047  1.00  0.00     0.010 A 
ATOM     38  C   UNL A   1      36.622  33.839  29.504  1.00  0.00     0.010 A 
ATOM     39  C   UNL A   1      36.410  33.026  30.624  1.00  0.00    -0.014 A 
BRANCH  39  40
ATOM     40  C   UNL A   1      37.564  32.381  31.305  1.00  0.00     0.031 A 
ATOM     41  C   UNL A   1      38.295  31.226  30.676  1.00  0.00     0.074 A 
ATOM     42  C   UNL A   1      37.930  32.820  32.526  1.00  0.00     0.049 A 
ATOM     43  N   UNL A   1      39.302  30.535  31.148  1.00  0.00    -0.248 NA
ATOM     44  C   UNL A   1      37.830  30.781  29.354  1.00  0.00     0.031 C 
ATOM     45  C   UNL A   1      37.283  33.913  33.255  1.00  0.00     0.029 A 
ATOM     46  N   UNL A   1      38.934  32.411  33.367  1.00  0.00    -0.354 N 
ATOM     47  C   UNL A   1      39.598  29.579  30.184  1.00  0.00     0.074 A 
ATOM     48  C   UNL A   1      38.630  29.748  29.119  1.00  0.00     0.031 C 
ATOM     49  C   UNL A   1      37.930  34.113  34.413  1.00  0.00     0.029 A 
ATOM     50  C   UNL A   1      39.007  33.134  34.534  1.00  0.00     0.049 A 
ATOM     51  H   UNL A   1      39.546  31.669  33.154  1.00  0.00     0.167 HD
ATOM     52  C   UNL A   1      40.594  28.659  30.177  1.00  0.00     0.034 A 
ATOM     53  C   UNL A   1      39.840  33.025  35.588  1.00  0.00     0.034 A 
ATOM     54  C   UNL A   1      41.560  28.500  31.238  1.00  0.00     0.049 A 
ATOM     55  C   UNL A   1      40.911  31.968  35.577  1.00  0.00     0.074 A 
ATOM     56  C   UNL A   1      42.631  27.624  31.299  1.00  0.00     0.029 A 
ATOM     57  N   UNL A   1      41.573  29.223  32.422  1.00  0.00    -0.354 N 
ATOM     58  N   UNL A   1      41.181  31.083  34.647  1.00  0.00    -0.248 NA
ATOM     59  C   UNL A   1      41.785  31.893  36.754  1.00  0.00     0.031 C 
ATOM     60  C   UNL A   1      43.250  27.772  32.543  1.00  0.00     0.029 A 
ATOM     61  C   UNL A   1      42.611  28.789  33.233  1.00  0.00     0.049 A 
ATOM     62  H   UNL A   1      40.937  29.939  32.653  1.00  0.00     0.167 HD
ATOM     63  C   UNL A   1      42.270  30.358  35.121  1.00  0.00     0.074 A 
ATOM     64  C   UNL A   1      42.611  30.913  36.415  1.00  0.00     0.031 C 
ATOM     65  C   UNL A   1      42.930  29.330  34.532  1.00  0.00     0.034 A 
BRANCH  52  66
ATOM     66  C   UNL A   1      40.691  27.733  28.990  1.00  0.00     0.023 A 
ATOM     67  C   UNL A   1      41.626  27.952  27.963  1.00  0.00     0.031 A 
ATOM     68  C   UNL A   1      39.871  26.594  28.906  1.00  0.00     0.131 A 
ATOM     69  C   UNL A   1      41.692  27.064  26.879  1.00  0.00     0.055 A 
ATOM     70  C   UNL A   1      39.984  25.682  27.856  1.00  0.00     0.041 A 
ATOM     71  F   UNL A   1      38.953  26.344  29.853  1.00  0.00    -0.206 F 
ATOM     72  C   UNL A   1      40.895  25.918  26.830  1.00  0.00     0.022 A 
BRANCH  69  73
ATOM     73  S   UNL A   1      42.792  27.463  25.493  1.00  0.00     0.124 S 
ATOM     74  O   UNL A   1      42.839  26.190  24.780  1.00  0.00    -0.237 OA
ATOM     75  O   UNL A   1      42.079  28.544  24.824  1.00  0.00    -0.237 OA
ATOM     76  O   UNL A   1      44.040  27.853  26.147  1.00  0.00    -0.744 OA
ENDBRANCH  69  73
ENDBRANCH  52  66
BRANCH  53  77
ATOM     77  C   UNL A   1      39.682  33.939  36.753  1.00  0.00     0.023 A 
ATOM     78  C   UNL A   1      39.104  33.492  37.949  1.00  0.00     0.031 A 
ATOM     79  C   UNL A   1      40.118  35.275  36.684  1.00  0.00     0.131 A 
ATOM     80  C   UNL A   1      38.958  34.379  39.027  1.00  0.00     0.055 A 
ATOM     81  C   UNL A   1      40.007  36.142  37.770  1.00  0.00     0.041 A 
ATOM     82  F   UNL A   1      40.690  35.743  35.562  1.00  0.00    -0.206 F 
ATOM     83  C   UNL A   1      39.417  35.697  38.949  1.00  0.00     0.022 A 
BRANCH  80  84
ATOM     84  S   UNL A   1      38.135  33.793  40.533  1.00  0.00     0.124 S 
ATOM     85  O   UNL A   1      37.888  35.045  41.240  1.00  0.00    -0.237 OA
ATOM     86  O   UNL A   1      36.960  33.116  39.995  1.00  0.00    -0.237 OA
ATOM     87  O   UNL A   1      39.131  32.915  41.143  1.00  0.00    -0.744 OA
ENDBRANCH  80  84
ENDBRANCH  53  77
BRANCH  65  88
ATOM     88  C   UNL A   1      44.102  28.740  35.274  1.00  0.00     0.023 A 
ATOM     89  C   UNL A   1      43.939  27.680  36.182  1.00  0.00     0.031 A 
ATOM     90  C   UNL A   1      45.403  29.219  35.039  1.00  0.00     0.131 A 
ATOM     91  C   UNL A   1      45.056  27.152  36.846  1.00  0.00     0.055 A 
ATOM     92  C   UNL A   1      46.516  28.658  35.666  1.00  0.00     0.041 A 
ATOM     93  F   UNL A   1      45.614  30.230  34.181  1.00  0.00    -0.206 F 
ATOM     94  C   UNL A   1      46.345  27.622  36.581  1.00  0.00     0.022 A 
BRANCH  91  95
ATOM     95  S   UNL A   1      44.799  25.864  38.096  1.00  0.00     0.124 S 
ATOM     96  O   UNL A   1      44.132  24.822  37.323  1.00  0.00    -0.237 OA
ATOM     97  O   UNL A   1      46.162  25.565  38.526  1.00  0.00    -0.237 OA
ATOM     98  O   UNL A   1      43.965  26.521  39.100  1.00  0.00    -0.744 OA
ENDBRANCH  91  95
ENDBRANCH  65  88
ENDBRANCH  39  40
ENDBRANCH  31  34
ENDBRANCH  29  30
ENDBRANCH  28  29
ENDBRANCH   1  28
TORSDOF 17
ENDMDL
MODEL 2
REMARK VINA RESULT:     -12.1      1.601      2.034
REMARK SMILES C[C@@H](NC(=O)CN1C(=O)/C(=C/c2ccccc2F)SC1=S)C(=O)NCCCNC(=O)c1ccc(-c2c3nc(c(-c4cc(S(=O)(=O)[O-])ccc4F)c4ccc([nH]4)c(-c4cc(S(=O)(=O)[O-])ccc4F)c4nc(c(-c5cc(S(=O)(=O)[O-])ccc5F)c5ccc2[nH]5)C=C4)C=C3)cc1
REMARK SMILES IDX 25 1 24 2 22 3 23 4 2 6 1 7 3 8 4 9 5 11 6 12 7 13 8 14
REMARK SMILES IDX 20 15 9 16 10 17 19 18 21 19 11 20 12 21 13 22 17 23 14 24
REMARK SMILES IDX 16 25 18 26 15 27 26 28 27 29 28 30 29 31 30 33 31 34 32 35
REMARK SMILES IDX 93 36 33 37 92 38 34 39 35 40 36 41 86 42 37 43 91 44 85 45
REMARK SMILES IDX 87 46 38 47 90 48 84 49 83 50 39 52 71 53 51 54 70 55 52 56
REMARK SMILES IDX 55 57 69 58 88 59 53 60 54 61 68 63 89 64 56 65 40 66 41 67
REMARK SMILES IDX 49 68 42 69 48 70 50 71 47 72 43 73 44 74 45 75 46 76 72 77
REMARK SMILES IDX 73 78 81 79 74 80 80 81 82 82 79 83 75 84 76 85 77 86 78 87
REMARK SMILES IDX 57 88 58 89 66 90 59 91 65 92 67 93 64 94 60 95 61 96 62 97
REMARK SMILES IDX 63 98
REMARK H PARENT 24 5 3 10 28 32 87 51 55 62
REMARK Flexibility Score: inf
ROOT
ATOM      1  C   UNL A   1      32.257  29.776  26.127  1.00  0.00     0.117 C 
ENDROOT
BRANCH   1   2
ATOM      2  N   UNL A   1      33.092  29.784  24.933  1.00  0.00    -0.354 N 
ATOM      3  C   UNL A   1      32.970  29.102  23.757  1.00  0.00     0.242 C 
ATOM      4  O   UNL A   1      33.905  29.161  22.953  1.00  0.00    -0.273 OA
ATOM      5  H   UNL A   1      33.874  30.380  24.984  1.00  0.00     0.163 HD
BRANCH   3   6
ATOM      6  C   UNL A   1      31.809  28.138  23.509  1.00  0.00     0.168 C 
ATOM      7  C   UNL A   1      30.709  29.028  22.913  1.00  0.00     0.041 C 
BRANCH   6   8
ATOM      8  N   UNL A   1      32.124  27.014  22.635  1.00  0.00    -0.343 N 
ATOM      9  C   UNL A   1      32.778  25.843  22.885  1.00  0.00     0.240 C 
ATOM     10  H   UNL A   1      31.811  27.117  21.707  1.00  0.00     0.164 HD
ATOM     11  O   UNL A   1      32.832  25.047  21.941  1.00  0.00    -0.273 OA
BRANCH   9  12
ATOM     12  C   UNL A   1      33.410  25.488  24.250  1.00  0.00     0.227 C 
BRANCH  12  13
ATOM     13  N   UNL A   1      33.215  24.126  24.773  1.00  0.00    -0.283 N 
ATOM     14  C   UNL A   1      34.279  23.247  24.804  1.00  0.00     0.266 C 
ATOM     15  C   UNL A   1      32.097  23.682  25.448  1.00  0.00     0.148 C 
ATOM     16  O   UNL A   1      35.463  23.560  24.659  1.00  0.00    -0.268 OA
ATOM     17  C   UNL A   1      33.801  21.861  25.074  1.00  0.00     0.081 C 
ATOM     18  S   UNL A   1      32.330  21.994  25.929  1.00  0.00    -0.054 SA
ATOM     19  S   UNL A   1      30.708  24.533  25.801  1.00  0.00    -0.052 S 
ATOM     20  C   UNL A   1      34.412  20.798  24.521  1.00  0.00     0.032 C 
BRANCH  20  21
ATOM     21  C   UNL A   1      34.023  19.376  24.376  1.00  0.00     0.012 A 
ATOM     22  C   UNL A   1      34.918  18.366  24.740  1.00  0.00     0.011 A 
ATOM     23  C   UNL A   1      32.880  18.983  23.659  1.00  0.00     0.130 A 
ATOM     24  C   UNL A   1      34.650  17.021  24.431  1.00  0.00     0.001 A 
ATOM     25  C   UNL A   1      32.574  17.645  23.399  1.00  0.00     0.040 A 
ATOM     26  F   UNL A   1      32.101  19.908  23.087  1.00  0.00    -0.206 F 
ATOM     27  C   UNL A   1      33.469  16.658  23.782  1.00  0.00     0.003 A 
ENDBRANCH  20  21
ENDBRANCH  12  13
ENDBRANCH   9  12
ENDBRANCH   6   8
ENDBRANCH   3   6
ENDBRANCH   1   2
BRANCH   1  28
ATOM     28  C   UNL A   1      31.795  31.176  26.525  1.00  0.00     0.042 C 
BRANCH  28  29
ATOM     29  C   UNL A   1      32.880  32.034  27.175  1.00  0.00     0.118 C 
BRANCH  29  30
ATOM     30  N   UNL A   1      32.503  33.405  27.439  1.00  0.00    -0.352 N 
ATOM     31  C   UNL A   1      33.122  34.262  28.322  1.00  0.00     0.251 C 
ATOM     32  H   UNL A   1      31.732  33.759  26.939  1.00  0.00     0.163 HD
ATOM     33  O   UNL A   1      32.699  35.404  28.487  1.00  0.00    -0.269 OA
BRANCH  31  34
ATOM     34  C   UNL A   1      34.275  33.780  29.118  1.00  0.00     0.039 A 
ATOM     35  C   UNL A   1      34.042  32.899  30.172  1.00  0.00     0.014 A 
ATOM     36  C   UNL A   1      35.580  34.187  28.828  1.00  0.00     0.014 A 
ATOM     37  C   UNL A   1      35.123  32.391  30.901  1.00  0.00     0.010 A 
ATOM     38  C   UNL A   1      36.662  33.651  29.528  1.00  0.00     0.010 A 
ATOM     39  C   UNL A   1      36.445  32.738  30.567  1.00  0.00    -0.014 A 
BRANCH  39  40
ATOM     40  C   UNL A   1      37.601  32.102  31.253  1.00  0.00     0.031 A 
ATOM     41  C   UNL A   1      38.374  30.984  30.608  1.00  0.00     0.074 A 
ATOM     42  C   UNL A   1      37.932  32.516  32.494  1.00  0.00     0.049 A 
ATOM     43  N   UNL A   1      39.389  30.305  31.081  1.00  0.00    -0.248 NA
ATOM     44  C   UNL A   1      37.947  30.565  29.265  1.00  0.00     0.031 C 
ATOM     45  C   UNL A   1      37.242  33.571  33.239  1.00  0.00     0.029 A 
ATOM     46  N   UNL A   1      38.929  32.108  33.343  1.00  0.00    -0.354 N 
ATOM     47  C   UNL A   1      39.728  29.384  30.097  1.00  0.00     0.074 A 
ATOM     48  C   UNL A   1      38.777  29.559  29.017  1.00  0.00     0.031 C 
ATOM     49  C   UNL A   1      37.862  33.754  34.415  1.00  0.00     0.029 A 
ATOM     50  C   UNL A   1      38.960  32.800  34.531  1.00  0.00     0.049 A 
ATOM     51  H   UNL A   1      39.563  31.388  33.122  1.00  0.00     0.167 HD
ATOM     52  C   UNL A   1      40.748  28.490  30.085  1.00  0.00     0.034 A 
ATOM     53  C   UNL A   1      39.774  32.682  35.599  1.00  0.00     0.034 A 
ATOM     54  C   UNL A   1      41.695  28.325  31.161  1.00  0.00     0.049 A 
ATOM     55  C   UNL A   1      40.872  31.652  35.580  1.00  0.00     0.074 A 
ATOM     56  C   UNL A   1      42.787  27.475  31.220  1.00  0.00     0.029 A 
ATOM     57  N   UNL A   1      41.667  29.014  32.364  1.00  0.00    -0.354 N 
ATOM     58  N   UNL A   1      41.183  30.801  34.632  1.00  0.00    -0.248 NA
ATOM     59  C   UNL A   1      41.724  31.566  36.773  1.00  0.00     0.031 C 
ATOM     60  C   UNL A   1      43.377  27.603  32.481  1.00  0.00     0.029 A 
ATOM     61  C   UNL A   1      42.699  28.584  33.185  1.00  0.00     0.049 A 
ATOM     62  H   UNL A   1      41.008  29.708  32.602  1.00  0.00     0.167 HD
ATOM     63  C   UNL A   1      42.281  30.090  35.108  1.00  0.00     0.074 A 
ATOM     64  C   UNL A   1      42.581  30.616  36.424  1.00  0.00     0.031 C 
ATOM     65  C   UNL A   1      42.978  29.095  34.504  1.00  0.00     0.034 A 
BRANCH  52  66
ATOM     66  C   UNL A   1      40.892  27.601  28.875  1.00  0.00     0.023 A 
ATOM     67  C   UNL A   1      41.888  27.830  27.911  1.00  0.00     0.031 A 
ATOM     68  C   UNL A   1      40.053  26.485  28.708  1.00  0.00     0.131 A 
ATOM     69  C   UNL A   1      41.997  26.977  26.803  1.00  0.00     0.055 A 
ATOM     70  C   UNL A   1      40.206  25.605  27.635  1.00  0.00     0.041 A 
ATOM     71  F   UNL A   1      39.077  26.227  29.592  1.00  0.00    -0.206 F 
ATOM     72  C   UNL A   1      41.178  25.852  26.670  1.00  0.00     0.022 A 
BRANCH  69  73
ATOM     73  S   UNL A   1      43.182  27.394  25.495  1.00  0.00     0.124 S 
ATOM     74  O   UNL A   1      42.360  28.206  24.603  1.00  0.00    -0.237 OA
ATOM     75  O   UNL A   1      44.224  28.104  26.227  1.00  0.00    -0.237 OA
ATOM     76  O   UNL A   1      43.575  26.091  24.961  1.00  0.00    -0.744 OA
ENDBRANCH  69  73
ENDBRANCH  52  66
BRANCH  53  77
ATOM     77  C   UNL A   1      39.570  33.558  36.785  1.00  0.00     0.023 A 
ATOM     78  C   UNL A   1      38.987  33.061  37.959  1.00  0.00     0.031 A 
ATOM     79  C   UNL A   1      39.967  34.907  36.759  1.00  0.00     0.131 A 
ATOM     80  C   UNL A   1      38.797  33.913  39.057  1.00  0.00     0.055 A 
ATOM     81  C   UNL A   1      39.812  35.741  37.867  1.00  0.00     0.041 A 
ATOM     82  F   UNL A   1      40.542  35.424  35.661  1.00  0.00    -0.206 F 
ATOM     83  C   UNL A   1      39.217  35.246  39.023  1.00  0.00     0.022 A 
BRANCH  80  84
ATOM     84  S   UNL A   1      37.967  33.262  40.532  1.00  0.00     0.124 S 
ATOM     85  O   UNL A   1      38.090  34.382  41.459  1.00  0.00    -0.237 OA
ATOM     86  O   UNL A   1      36.625  32.987  40.031  1.00  0.00    -0.237 OA
ATOM     87  O   UNL A   1      38.756  32.079  40.871  1.00  0.00    -0.744 OA
ENDBRANCH  80  84
ENDBRANCH  53  77
BRANCH  65  88
ATOM     88  C   UNL A   1      44.150  28.515  35.254  1.00  0.00     0.023 A 
ATOM     89  C   UNL A   1      43.984  27.477  36.186  1.00  0.00     0.031 A 
ATOM     90  C   UNL A   1      45.453  28.979  35.001  1.00  0.00     0.131 A 
ATOM     91  C   UNL A   1      45.101  26.956  36.857  1.00  0.00     0.055 A 
ATOM     92  C   UNL A   1      46.566  28.424  35.636  1.00  0.00     0.041 A 
ATOM     93  F   UNL A   1      45.666  29.969  34.119  1.00  0.00    -0.206 F 
ATOM     94  C   UNL A   1      46.392  27.411  36.575  1.00  0.00     0.022 A 
BRANCH  91  95
ATOM     95  S   UNL A   1      44.842  25.699  38.137  1.00  0.00     0.124 S 
ATOM     96  O   UNL A   1      44.248  26.483  39.215  1.00  0.00    -0.237 OA
ATOM     97  O   UNL A   1      43.953  24.751  37.473  1.00  0.00    -0.237 OA
ATOM     98  O   UNL A   1      46.189  25.198  38.405  1.00  0.00    -0.744 OA
ENDBRANCH  91  95
ENDBRANCH  65  88
ENDBRANCH  39  40
ENDBRANCH  31  34
ENDBRANCH  29  30
ENDBRANCH  28  29
ENDBRANCH   1  28
TORSDOF 17
ENDMDL
MODEL 3
REMARK VINA RESULT:     -11.8      3.608      8.303
REMARK SMILES C[C@@H](NC(=O)CN1C(=O)/C(=C/c2ccccc2F)SC1=S)C(=O)NCCCNC(=O)c1ccc(-c2c3nc(c(-c4cc(S(=O)(=O)[O-])ccc4F)c4ccc([nH]4)c(-c4cc(S(=O)(=O)[O-])ccc4F)c4nc(c(-c5cc(S(=O)(=O)[O-])ccc5F)c5ccc2[nH]5)C=C4)C=C3)cc1
REMARK SMILES IDX 25 1 24 2 22 3 23 4 2 6 1 7 3 8 4 9 5 11 6 12 7 13 8 14
REMARK SMILES IDX 20 15 9 16 10 17 19 18 21 19 11 20 12 21 13 22 17 23 14 24
REMARK SMILES IDX 16 25 18 26 15 27 26 28 27 29 28 30 29 31 30 33 31 34 32 35
REMARK SMILES IDX 93 36 33 37 92 38 34 39 35 40 36 41 86 42 37 43 91 44 85 45
REMARK SMILES IDX 87 46 38 47 90 48 84 49 83 50 39 52 71 53 51 54 70 55 52 56
REMARK SMILES IDX 55 57 69 58 88 59 53 60 54 61 68 63 89 64 56 65 40 66 41 67
REMARK SMILES IDX 49 68 42 69 48 70 50 71 47 72 43 73 44 74 45 75 46 76 72 77
REMARK SMILES IDX 73 78 81 79 74 80 80 81 82 82 79 83 75 84 76 85 77 86 78 87
REMARK SMILES IDX 57 88 58 89 66 90 59 91 65 92 67 93 64 94 60 95 61 96 62 97
REMARK SMILES IDX 63 98
REMARK H PARENT 24 5 3 10 28 32 87 51 55 62
REMARK Flexibility Score: inf
ROOT
ATOM      1  C   UNL A   1      31.639  29.953  25.502  1.00  0.00     0.117 C 
ENDROOT
BRANCH   1   2
ATOM      2  N   UNL A   1      31.027  30.043  24.183  1.00  0.00    -0.354 N 
ATOM      3  C   UNL A   1      30.679  29.067  23.294  1.00  0.00     0.242 C 
ATOM      4  O   UNL A   1      30.319  29.412  22.166  1.00  0.00    -0.273 OA
ATOM      5  H   UNL A   1      30.833  30.960  23.883  1.00  0.00     0.163 HD
BRANCH   3   6
ATOM      6  C   UNL A   1      30.905  27.586  23.605  1.00  0.00     0.168 C 
ATOM      7  C   UNL A   1      29.523  26.949  23.404  1.00  0.00     0.041 C 
BRANCH   6   8
ATOM      8  N   UNL A   1      31.921  26.938  22.783  1.00  0.00    -0.343 N 
ATOM      9  C   UNL A   1      32.965  26.129  23.125  1.00  0.00     0.240 C 
ATOM     10  H   UNL A   1      31.840  27.114  21.818  1.00  0.00     0.164 HD
ATOM     11  O   UNL A   1      33.622  25.675  22.182  1.00  0.00    -0.273 OA
BRANCH   9  12
ATOM     12  C   UNL A   1      33.326  25.764  24.584  1.00  0.00     0.227 C 
BRANCH  12  13
ATOM     13  N   UNL A   1      33.129  24.373  25.021  1.00  0.00    -0.283 N 
ATOM     14  C   UNL A   1      34.188  23.487  24.978  1.00  0.00     0.266 C 
ATOM     15  C   UNL A   1      32.018  23.892  25.683  1.00  0.00     0.148 C 
ATOM     16  O   UNL A   1      35.371  23.802  24.836  1.00  0.00    -0.268 OA
ATOM     17  C   UNL A   1      33.705  22.090  25.167  1.00  0.00     0.081 C 
ATOM     18  S   UNL A   1      32.247  22.175  26.050  1.00  0.00    -0.054 SA
ATOM     19  S   UNL A   1      30.640  24.727  26.110  1.00  0.00    -0.052 S 
ATOM     20  C   UNL A   1      34.301  21.061  24.537  1.00  0.00     0.032 C 
BRANCH  20  21
ATOM     21  C   UNL A   1      33.899  19.653  24.306  1.00  0.00     0.012 A 
ATOM     22  C   UNL A   1      34.779  18.615  24.626  1.00  0.00     0.011 A 
ATOM     23  C   UNL A   1      32.764  19.313  23.552  1.00  0.00     0.130 A 
ATOM     24  C   UNL A   1      34.503  17.292  24.238  1.00  0.00     0.001 A 
ATOM     25  C   UNL A   1      32.449  17.995  23.213  1.00  0.00     0.040 A 
ATOM     26  F   UNL A   1      32.003  20.277  23.022  1.00  0.00    -0.206 F 
ATOM     27  C   UNL A   1      33.329  16.978  23.553  1.00  0.00     0.003 A 
ENDBRANCH  20  21
ENDBRANCH  12  13
ENDBRANCH   9  12
ENDBRANCH   6   8
ENDBRANCH   3   6
ENDBRANCH   1   2
BRANCH   1  28
ATOM     28  C   UNL A   1      33.069  29.422  25.446  1.00  0.00     0.042 C 
BRANCH  28  29
ATOM     29  C   UNL A   1      33.864  29.621  26.736  1.00  0.00     0.118 C 
BRANCH  29  30
ATOM     30  N   UNL A   1      33.650  30.888  27.401  1.00  0.00    -0.352 N 
ATOM     31  C   UNL A   1      34.497  31.480  28.312  1.00  0.00     0.251 C 
ATOM     32  H   UNL A   1      32.822  31.372  27.181  1.00  0.00     0.163 HD
ATOM     33  O   UNL A   1      34.201  32.551  28.837  1.00  0.00    -0.269 OA
BRANCH  31  34
ATOM     34  C   UNL A   1      35.749  30.789  28.699  1.00  0.00     0.039 A 
ATOM     35  C   UNL A   1      36.930  31.118  28.036  1.00  0.00     0.014 A 
ATOM     36  C   UNL A   1      35.767  29.827  29.711  1.00  0.00     0.014 A 
ATOM     37  C   UNL A   1      38.132  30.516  28.422  1.00  0.00     0.010 A 
ATOM     38  C   UNL A   1      36.971  29.254  30.126  1.00  0.00     0.010 A 
ATOM     39  C   UNL A   1      38.170  29.601  29.491  1.00  0.00    -0.014 A 
BRANCH  39  40
ATOM     40  C   UNL A   1      39.461  29.058  29.990  1.00  0.00     0.031 A 
ATOM     41  C   UNL A   1      40.149  29.655  31.187  1.00  0.00     0.074 A 
ATOM     42  C   UNL A   1      40.037  28.034  29.327  1.00  0.00     0.049 A 
ATOM     43  N   UNL A   1      41.291  29.317  31.733  1.00  0.00    -0.248 NA
ATOM     44  C   UNL A   1      39.479  30.782  31.849  1.00  0.00     0.031 C 
ATOM     45  C   UNL A   1      39.484  27.387  28.135  1.00  0.00     0.029 A 
ATOM     46  N   UNL A   1      41.207  27.355  29.560  1.00  0.00    -0.354 N 
ATOM     47  C   UNL A   1      41.475  30.182  32.805  1.00  0.00     0.074 A 
ATOM     48  C   UNL A   1      40.348  31.094  32.802  1.00  0.00     0.031 C 
ATOM     49  C   UNL A   1      40.292  26.381  27.767  1.00  0.00     0.029 A 
ATOM     50  C   UNL A   1      41.444  26.340  28.663  1.00  0.00     0.049 A 
ATOM     51  H   UNL A   1      41.818  27.574  30.300  1.00  0.00     0.167 HD
ATOM     52  C   UNL A   1      42.478  30.202  33.717  1.00  0.00     0.034 A 
ATOM     53  C   UNL A   1      42.472  25.474  28.564  1.00  0.00     0.034 A 
ATOM     54  C   UNL A   1      43.593  29.287  33.719  1.00  0.00     0.049 A 
ATOM     55  C   UNL A   1      43.596  25.545  29.563  1.00  0.00     0.074 A 
ATOM     56  C   UNL A   1      44.635  29.204  34.628  1.00  0.00     0.029 A 
ATOM     57  N   UNL A   1      43.819  28.302  32.769  1.00  0.00    -0.354 N 
ATOM     58  N   UNL A   1      43.743  26.363  30.578  1.00  0.00    -0.248 NA
ATOM     59  C   UNL A   1      44.691  24.579  29.402  1.00  0.00     0.031 C 
ATOM     60  C   UNL A   1      45.522  28.215  34.193  1.00  0.00     0.029 A 
ATOM     61  C   UNL A   1      45.000  27.630  33.050  1.00  0.00     0.049 A 
ATOM     62  H   UNL A   1      43.228  28.108  32.005  1.00  0.00     0.167 HD
ATOM     63  C   UNL A   1      44.939  25.997  31.188  1.00  0.00     0.074 A 
ATOM     64  C   UNL A   1      45.470  24.881  30.432  1.00  0.00     0.031 C 
ATOM     65  C   UNL A   1      45.537  26.535  32.280  1.00  0.00     0.034 A 
BRANCH  52  66
ATOM     66  C   UNL A   1      42.431  31.259  34.793  1.00  0.00     0.023 A 
ATOM     67  C   UNL A   1      43.013  32.524  34.604  1.00  0.00     0.031 A 
ATOM     68  C   UNL A   1      41.757  31.014  36.002  1.00  0.00     0.131 A 
ATOM     69  C   UNL A   1      42.942  33.485  35.625  1.00  0.00     0.055 A 
ATOM     70  C   UNL A   1      41.636  31.995  36.988  1.00  0.00     0.041 A 
ATOM     71  F   UNL A   1      41.193  29.820  36.239  1.00  0.00    -0.206 F 
ATOM     72  C   UNL A   1      42.237  33.237  36.806  1.00  0.00     0.022 A 
BRANCH  69  73
ATOM     73  S   UNL A   1      43.842  35.045  35.417  1.00  0.00     0.124 S 
ATOM     74  O   UNL A   1      44.047  35.075  33.971  1.00  0.00    -0.237 OA
ATOM     75  O   UNL A   1      42.905  36.026  35.950  1.00  0.00    -0.237 OA
ATOM     76  O   UNL A   1      45.055  34.849  36.209  1.00  0.00    -0.744 OA
ENDBRANCH  69  73
ENDBRANCH  52  66
BRANCH  53  77
ATOM     77  C   UNL A   1      42.491  24.471  27.464  1.00  0.00     0.023 A 
ATOM     78  C   UNL A   1      41.718  23.303  27.539  1.00  0.00     0.031 A 
ATOM     79  C   UNL A   1      43.277  24.676  26.316  1.00  0.00     0.131 A 
ATOM     80  C   UNL A   1      41.763  22.370  26.492  1.00  0.00     0.055 A 
ATOM     81  C   UNL A   1      43.289  23.764  25.261  1.00  0.00     0.041 A 
ATOM     82  F   UNL A   1      44.022  25.786  26.195  1.00  0.00    -0.206 F 
ATOM     83  C   UNL A   1      42.533  22.599  25.348  1.00  0.00     0.022 A 
BRANCH  80  84
ATOM     84  S   UNL A   1      40.817  20.832  26.653  1.00  0.00     0.124 S 
ATOM     85  O   UNL A   1      40.831  20.626  28.097  1.00  0.00    -0.237 OA
ATOM     86  O   UNL A   1      39.532  21.201  26.069  1.00  0.00    -0.237 OA
ATOM     87  O   UNL A   1      41.597  19.871  25.876  1.00  0.00    -0.744 OA
ENDBRANCH  80  84
ENDBRANCH  53  77
BRANCH  65  88
ATOM     88  C   UNL A   1      46.833  25.917  32.738  1.00  0.00     0.023 A 
ATOM     89  C   UNL A   1      46.856  24.852  33.653  1.00  0.00     0.031 A 
ATOM     90  C   UNL A   1      48.058  26.375  32.221  1.00  0.00     0.131 A 
ATOM     91  C   UNL A   1      48.082  24.297  34.049  1.00  0.00     0.055 A 
ATOM     92  C   UNL A   1      49.272  25.788  32.581  1.00  0.00     0.041 A 
ATOM     93  F   UNL A   1      48.092  27.390  31.343  1.00  0.00    -0.206 F 
ATOM     94  C   UNL A   1      49.288  24.747  33.505  1.00  0.00     0.022 A 
BRANCH  91  95
ATOM     95  S   UNL A   1      48.085  23.002  35.317  1.00  0.00     0.124 S 
ATOM     96  O   UNL A   1      46.677  22.948  35.697  1.00  0.00    -0.237 OA
ATOM     97  O   UNL A   1      48.593  21.845  34.586  1.00  0.00    -0.237 OA
ATOM     98  O   UNL A   1      48.984  23.528  36.343  1.00  0.00    -0.744 OA
ENDBRANCH  91  95
ENDBRANCH  65  88
ENDBRANCH  39  40
ENDBRANCH  31  34
ENDBRANCH  29  30
ENDBRANCH  28  29
ENDBRANCH   1  28
TORSDOF 17
ENDMDL
