MODEL 1
REMARK VINA RESULT:     -12.5      0.000      0.000
REMARK SMILES Cc1ccc(C(C)C)c(OCC(=O)Nc2nc(CC(=O)NCCCNC(=O)c3ccc(-c4c5nc(c(-c6cc(S(=O)(=O)[O-])ccc6F)c6ccc([nH]6)c(-c6cc(S(=O)(=O)[O-])ccc6F)c6nc(c(-c7cc(S(=O)(=O)[O-])ccc7F)c7ccc4[nH]7)C=C6)C=C5)cc3)cs2)c1
REMARK SMILES IDX 19 1 20 2 21 3 18 5 17 6 15 7 16 8 92 9 91 10 14 11 12 12
REMARK SMILES IDX 13 13 11 15 10 16 9 17 1 18 2 19 3 20 93 21 4 22 5 23 6 24
REMARK SMILES IDX 7 25 8 26 22 27 23 28 24 29 25 30 26 31 27 33 28 34 29 35
REMARK SMILES IDX 90 36 30 37 89 38 31 39 32 40 33 41 83 42 34 43 88 44 82 45
REMARK SMILES IDX 84 46 35 47 87 48 81 49 80 50 36 52 68 53 48 54 67 55 49 56
REMARK SMILES IDX 52 57 66 58 85 59 50 60 51 61 65 63 86 64 53 65 37 66 38 67
REMARK SMILES IDX 46 68 39 69 45 70 47 71 44 72 40 73 41 74 42 75 43 76 69 77
REMARK SMILES IDX 70 78 78 79 71 80 77 81 79 82 76 83 72 84 73 85 74 86 75 87
REMARK SMILES IDX 54 88 55 89 63 90 56 91 62 92 64 93 61 94 57 95 58 96 59 97
REMARK SMILES IDX 60 98
REMARK H PARENT 21 4 14 14 25 32 84 51 52 62
REMARK Flexibility Score: inf
ROOT
ATOM      1  C   UNL A   1      34.600  22.636  26.751  1.00  0.00     0.226 C 
ATOM      2  O   UNL A   1      33.984  21.768  27.372  1.00  0.00    -0.275 OA
ATOM      3  N   UNL A   1      35.901  22.406  26.391  1.00  0.00    -0.356 N 
ATOM      4  H   UNL A   1      36.290  21.560  26.711  1.00  0.00     0.163 HD
ENDROOT
BRANCH   1   5
ATOM      5  C   UNL A   1      33.938  23.964  26.417  1.00  0.00     0.157 C 
BRANCH   5   6
ATOM      6  C   UNL A   1      33.037  23.831  25.235  1.00  0.00     0.063 A 
ATOM      7  C   UNL A   1      32.625  24.026  23.085  1.00  0.00     0.189 A 
ATOM      8  N   UNL A   1      33.584  23.948  23.964  1.00  0.00    -0.224 NA
ATOM      9  S   UNL A   1      31.036  23.812  23.667  1.00  0.00    -0.105 S 
ATOM     10  C   UNL A   1      31.664  23.651  25.254  1.00  0.00     0.093 A 
BRANCH   7  11
ATOM     11  N   UNL A   1      32.702  24.282  21.754  1.00  0.00    -0.299 N 
ATOM     12  C   UNL A   1      32.960  25.484  21.171  1.00  0.00     0.264 C 
ATOM     13  O   UNL A   1      32.933  25.532  19.934  1.00  0.00    -0.271 OA
ATOM     14  H   UNL A   1      32.558  23.520  21.147  1.00  0.00     0.172 HD
BRANCH  12  15
ATOM     15  C   UNL A   1      33.398  26.713  21.993  1.00  0.00     0.329 C 
BRANCH  15  16
ATOM     16  O   UNL A   1      32.470  27.732  22.312  1.00  0.00    -0.483 OA
BRANCH  16  17
ATOM     17  C   UNL A   1      32.449  28.272  23.568  1.00  0.00     0.123 A 
ATOM     18  C   UNL A   1      34.621  28.808  26.660  1.00  0.00     0.044 C 
ATOM     19  C   UNL A   1      33.458  28.844  25.716  1.00  0.00    -0.047 A 
ATOM     20  C   UNL A   1      32.308  29.555  26.059  1.00  0.00     0.004 A 
ATOM     21  C   UNL A   1      33.513  28.194  24.476  1.00  0.00     0.050 A 
ATOM     22  C   UNL A   1      31.224  29.601  25.186  1.00  0.00     0.008 A 
ATOM     23  C   UNL A   1      31.275  28.969  23.931  1.00  0.00    -0.003 A 
BRANCH  23  24
ATOM     24  C   UNL A   1      30.063  29.041  23.005  1.00  0.00     0.017 C 
ATOM     25  C   UNL A   1      29.133  27.843  23.218  1.00  0.00     0.012 C 
ATOM     26  C   UNL A   1      29.260  30.339  23.168  1.00  0.00     0.012 C 
ENDBRANCH  23  24
ENDBRANCH  16  17
ENDBRANCH  15  16
ENDBRANCH  12  15
ENDBRANCH   7  11
ENDBRANCH   5   6
ENDBRANCH   1   5
BRANCH   3  27
ATOM     27  C   UNL A   1      36.785  23.248  25.597  1.00  0.00     0.117 C 
BRANCH  27  28
ATOM     28  C   UNL A   1      38.182  22.674  25.396  1.00  0.00     0.042 C 
BRANCH  28  29
ATOM     29  C   UNL A   1      38.965  22.543  26.692  1.00  0.00     0.118 C 
BRANCH  29  30
ATOM     30  N   UNL A   1      40.405  22.770  26.584  1.00  0.00    -0.352 N 
ATOM     31  C   UNL A   1      41.101  23.978  26.574  1.00  0.00     0.251 C 
ATOM     32  H   UNL A   1      40.958  21.959  26.508  1.00  0.00     0.163 HD
ATOM     33  O   UNL A   1      42.299  24.017  26.391  1.00  0.00    -0.269 OA
BRANCH  31  34
ATOM     34  C   UNL A   1      40.353  25.223  26.894  1.00  0.00     0.039 A 
ATOM     35  C   UNL A   1      40.611  26.366  26.129  1.00  0.00     0.014 A 
ATOM     36  C   UNL A   1      39.636  25.315  28.079  1.00  0.00     0.014 A 
ATOM     37  C   UNL A   1      40.379  27.622  26.688  1.00  0.00     0.010 A 
ATOM     38  C   UNL A   1      39.555  26.545  28.693  1.00  0.00     0.010 A 
ATOM     39  C   UNL A   1      39.971  27.697  28.018  1.00  0.00    -0.014 A 
BRANCH  39  40
ATOM     40  C   UNL A   1      40.085  28.899  28.837  1.00  0.00     0.031 A 
ATOM     41  C   UNL A   1      39.009  29.914  28.851  1.00  0.00     0.074 A 
ATOM     42  C   UNL A   1      41.128  29.034  29.686  1.00  0.00     0.049 A 
ATOM     43  N   UNL A   1      39.184  31.150  29.174  1.00  0.00    -0.248 NA
ATOM     44  C   UNL A   1      37.636  29.620  28.459  1.00  0.00     0.031 C 
ATOM     45  C   UNL A   1      41.244  29.970  30.801  1.00  0.00     0.029 A 
ATOM     46  N   UNL A   1      42.394  28.471  29.582  1.00  0.00    -0.354 N 
ATOM     47  C   UNL A   1      37.942  31.717  29.350  1.00  0.00     0.074 A 
ATOM     48  C   UNL A   1      37.016  30.750  28.810  1.00  0.00     0.031 C 
ATOM     49  C   UNL A   1      42.538  30.100  31.132  1.00  0.00     0.029 A 
ATOM     50  C   UNL A   1      43.313  29.367  30.148  1.00  0.00     0.049 A 
ATOM     51  H   UNL A   1      42.609  27.598  29.182  1.00  0.00     0.167 HD
ATOM     52  C   UNL A   1      37.826  32.867  30.073  1.00  0.00     0.034 A 
ATOM     53  C   UNL A   1      44.330  29.896  29.406  1.00  0.00     0.034 A 
ATOM     54  C   UNL A   1      39.134  33.346  30.526  1.00  0.00     0.049 A 
ATOM     55  C   UNL A   1      44.258  31.400  29.271  1.00  0.00     0.074 A 
ATOM     56  C   UNL A   1      39.778  33.291  31.753  1.00  0.00     0.029 A 
ATOM     57  N   UNL A   1      40.088  33.751  29.599  1.00  0.00    -0.354 N 
ATOM     58  N   UNL A   1      43.192  32.108  29.527  1.00  0.00    -0.248 NA
ATOM     59  C   UNL A   1      45.376  32.225  28.827  1.00  0.00     0.031 C 
ATOM     60  C   UNL A   1      41.136  33.642  31.553  1.00  0.00     0.029 A 
ATOM     61  C   UNL A   1      41.314  33.931  30.211  1.00  0.00     0.049 A 
ATOM     62  H   UNL A   1      39.915  33.891  28.641  1.00  0.00     0.167 HD
ATOM     63  C   UNL A   1      43.444  33.436  29.284  1.00  0.00     0.074 A 
ATOM     64  C   UNL A   1      44.834  33.456  28.862  1.00  0.00     0.031 C 
ATOM     65  C   UNL A   1      42.473  34.388  29.451  1.00  0.00     0.034 A 
BRANCH  52  66
ATOM     66  C   UNL A   1      36.526  33.395  30.652  1.00  0.00     0.023 A 
ATOM     67  C   UNL A   1      35.633  34.082  29.802  1.00  0.00     0.031 A 
ATOM     68  C   UNL A   1      36.120  33.311  31.997  1.00  0.00     0.131 A 
ATOM     69  C   UNL A   1      34.493  34.741  30.299  1.00  0.00     0.055 A 
ATOM     70  C   UNL A   1      35.013  34.008  32.506  1.00  0.00     0.041 A 
ATOM     71  F   UNL A   1      36.731  32.503  32.873  1.00  0.00    -0.206 F 
ATOM     72  C   UNL A   1      34.201  34.743  31.657  1.00  0.00     0.022 A 
BRANCH  69  73
ATOM     73  S   UNL A   1      33.398  35.595  29.135  1.00  0.00     0.124 S 
ATOM     74  O   UNL A   1      32.712  34.483  28.484  1.00  0.00    -0.237 OA
ATOM     75  O   UNL A   1      32.590  36.424  30.022  1.00  0.00    -0.237 OA
ATOM     76  O   UNL A   1      34.325  36.333  28.278  1.00  0.00    -0.744 OA
ENDBRANCH  69  73
ENDBRANCH  52  66
BRANCH  53  77
ATOM     77  C   UNL A   1      44.846  28.952  28.375  1.00  0.00     0.023 A 
ATOM     78  C   UNL A   1      45.648  27.884  28.828  1.00  0.00     0.031 A 
ATOM     79  C   UNL A   1      44.240  28.833  27.117  1.00  0.00     0.131 A 
ATOM     80  C   UNL A   1      45.695  26.681  28.108  1.00  0.00     0.055 A 
ATOM     81  C   UNL A   1      44.338  27.649  26.373  1.00  0.00     0.041 A 
ATOM     82  F   UNL A   1      43.433  29.798  26.652  1.00  0.00    -0.206 F 
ATOM     83  C   UNL A   1      45.031  26.551  26.888  1.00  0.00     0.022 A 
BRANCH  80  84
ATOM     84  S   UNL A   1      46.426  25.228  28.919  1.00  0.00     0.124 S 
ATOM     85  O   UNL A   1      46.065  25.446  30.316  1.00  0.00    -0.237 OA
ATOM     86  O   UNL A   1      45.744  24.122  28.248  1.00  0.00    -0.237 OA
ATOM     87  O   UNL A   1      47.849  25.339  28.614  1.00  0.00    -0.744 OA
ENDBRANCH  80  84
ENDBRANCH  53  77
BRANCH  65  88
ATOM     88  C   UNL A   1      42.534  35.848  29.028  1.00  0.00     0.023 A 
ATOM     89  C   UNL A   1      43.223  36.841  29.737  1.00  0.00     0.031 A 
ATOM     90  C   UNL A   1      41.925  36.286  27.820  1.00  0.00     0.131 A 
ATOM     91  C   UNL A   1      43.233  38.182  29.304  1.00  0.00     0.055 A 
ATOM     92  C   UNL A   1      41.993  37.604  27.356  1.00  0.00     0.041 A 
ATOM     93  F   UNL A   1      41.245  35.451  27.021  1.00  0.00    -0.206 F 
ATOM     94  C   UNL A   1      42.639  38.568  28.108  1.00  0.00     0.022 A 
BRANCH  91  95
ATOM     95  S   UNL A   1      43.999  39.424  30.379  1.00  0.00     0.124 S 
ATOM     96  O   UNL A   1      42.845  40.220  30.790  1.00  0.00    -0.237 OA
ATOM     97  O   UNL A   1      44.604  38.603  31.423  1.00  0.00    -0.237 OA
ATOM     98  O   UNL A   1      44.945  40.109  29.500  1.00  0.00    -0.744 OA
ENDBRANCH  91  95
ENDBRANCH  65  88
ENDBRANCH  39  40
ENDBRANCH  31  34
ENDBRANCH  29  30
ENDBRANCH  28  29
ENDBRANCH  27  28
ENDBRANCH   3  27
TORSDOF 19
ENDMDL
MODEL 2
REMARK VINA RESULT:     -12.3      1.870      2.177
REMARK SMILES Cc1ccc(C(C)C)c(OCC(=O)Nc2nc(CC(=O)NCCCNC(=O)c3ccc(-c4c5nc(c(-c6cc(S(=O)(=O)[O-])ccc6F)c6ccc([nH]6)c(-c6cc(S(=O)(=O)[O-])ccc6F)c6nc(c(-c7cc(S(=O)(=O)[O-])ccc7F)c7ccc4[nH]7)C=C6)C=C5)cc3)cs2)c1
REMARK SMILES IDX 19 1 20 2 21 3 18 5 17 6 15 7 16 8 92 9 91 10 14 11 12 12
REMARK SMILES IDX 13 13 11 15 10 16 9 17 1 18 2 19 3 20 93 21 4 22 5 23 6 24
REMARK SMILES IDX 7 25 8 26 22 27 23 28 24 29 25 30 26 31 27 33 28 34 29 35
REMARK SMILES IDX 90 36 30 37 89 38 31 39 32 40 33 41 83 42 34 43 88 44 82 45
REMARK SMILES IDX 84 46 35 47 87 48 81 49 80 50 36 52 68 53 48 54 67 55 49 56
REMARK SMILES IDX 52 57 66 58 85 59 50 60 51 61 65 63 86 64 53 65 37 66 38 67
REMARK SMILES IDX 46 68 39 69 45 70 47 71 44 72 40 73 41 74 42 75 43 76 69 77
REMARK SMILES IDX 70 78 78 79 71 80 77 81 79 82 76 83 72 84 73 85 74 86 75 87
REMARK SMILES IDX 54 88 55 89 63 90 56 91 62 92 64 93 61 94 57 95 58 96 59 97
REMARK SMILES IDX 60 98
REMARK H PARENT 21 4 14 14 25 32 84 51 52 62
REMARK Flexibility Score: inf
ROOT
ATOM      1  C   UNL A   1      34.653  22.614  26.748  1.00  0.00     0.226 C 
ATOM      2  O   UNL A   1      34.068  21.766  27.425  1.00  0.00    -0.275 OA
ATOM      3  N   UNL A   1      35.959  22.403  26.393  1.00  0.00    -0.356 N 
ATOM      4  H   UNL A   1      36.375  21.590  26.760  1.00  0.00     0.163 HD
ENDROOT
BRANCH   1   5
ATOM      5  C   UNL A   1      33.947  23.898  26.340  1.00  0.00     0.157 C 
BRANCH   5   6
ATOM      6  C   UNL A   1      33.116  23.688  25.118  1.00  0.00     0.063 A 
ATOM      7  C   UNL A   1      32.808  23.804  22.945  1.00  0.00     0.189 A 
ATOM      8  N   UNL A   1      33.723  23.799  23.873  1.00  0.00    -0.224 NA
ATOM      9  S   UNL A   1      31.204  23.524  23.451  1.00  0.00    -0.105 S 
ATOM     10  C   UNL A   1      31.755  23.438  25.072  1.00  0.00     0.093 A 
BRANCH   7  11
ATOM     11  N   UNL A   1      32.942  24.029  21.612  1.00  0.00    -0.299 N 
ATOM     12  C   UNL A   1      32.883  25.232  20.982  1.00  0.00     0.264 C 
ATOM     13  O   UNL A   1      32.971  25.230  19.746  1.00  0.00    -0.271 OA
ATOM     14  H   UNL A   1      33.099  23.240  21.044  1.00  0.00     0.172 HD
BRANCH  12  15
ATOM     15  C   UNL A   1      32.840  26.562  21.760  1.00  0.00     0.329 C 
BRANCH  15  16
ATOM     16  O   UNL A   1      31.641  27.003  22.365  1.00  0.00    -0.483 OA
BRANCH  16  17
ATOM     17  C   UNL A   1      31.684  27.821  23.461  1.00  0.00     0.123 A 
ATOM     18  C   UNL A   1      33.739  28.570  26.588  1.00  0.00     0.044 C 
ATOM     19  C   UNL A   1      32.679  28.645  25.532  1.00  0.00    -0.047 A 
ATOM     20  C   UNL A   1      31.728  29.664  25.575  1.00  0.00     0.004 A 
ATOM     21  C   UNL A   1      32.641  27.721  24.479  1.00  0.00     0.050 A 
ATOM     22  C   UNL A   1      30.742  29.746  24.595  1.00  0.00     0.008 A 
ATOM     23  C   UNL A   1      30.704  28.836  23.524  1.00  0.00    -0.003 A 
BRANCH  23  24
ATOM     24  C   UNL A   1      29.604  28.961  22.473  1.00  0.00     0.017 C 
ATOM     25  C   UNL A   1      28.219  28.769  23.096  1.00  0.00     0.012 C 
ATOM     26  C   UNL A   1      29.639  30.300  21.723  1.00  0.00     0.012 C 
ENDBRANCH  23  24
ENDBRANCH  16  17
ENDBRANCH  15  16
ENDBRANCH  12  15
ENDBRANCH   7  11
ENDBRANCH   5   6
ENDBRANCH   1   5
BRANCH   3  27
ATOM     27  C   UNL A   1      36.810  23.223  25.542  1.00  0.00     0.117 C 
BRANCH  27  28
ATOM     28  C   UNL A   1      38.108  22.546  25.119  1.00  0.00     0.042 C 
BRANCH  28  29
ATOM     29  C   UNL A   1      38.842  21.888  26.276  1.00  0.00     0.118 C 
BRANCH  29  30
ATOM     30  N   UNL A   1      40.291  22.079  26.293  1.00  0.00    -0.352 N 
ATOM     31  C   UNL A   1      41.015  23.261  26.441  1.00  0.00     0.251 C 
ATOM     32  H   UNL A   1      40.829  21.261  26.186  1.00  0.00     0.163 HD
ATOM     33  O   UNL A   1      42.224  23.279  26.349  1.00  0.00    -0.269 OA
BRANCH  31  34
ATOM     34  C   UNL A   1      40.276  24.496  26.815  1.00  0.00     0.039 A 
ATOM     35  C   UNL A   1      40.601  25.688  26.157  1.00  0.00     0.014 A 
ATOM     36  C   UNL A   1      39.494  24.516  27.962  1.00  0.00     0.014 A 
ATOM     37  C   UNL A   1      40.364  26.903  26.798  1.00  0.00     0.010 A 
ATOM     38  C   UNL A   1      39.404  25.696  28.664  1.00  0.00     0.010 A 
ATOM     39  C   UNL A   1      39.881  26.886  28.105  1.00  0.00    -0.014 A 
BRANCH  39  40
ATOM     40  C   UNL A   1      39.973  28.018  29.021  1.00  0.00     0.031 A 
ATOM     41  C   UNL A   1      39.039  29.160  28.913  1.00  0.00     0.074 A 
ATOM     42  C   UNL A   1      40.841  27.973  30.056  1.00  0.00     0.049 A 
ATOM     43  N   UNL A   1      39.288  30.344  29.357  1.00  0.00    -0.248 NA
ATOM     44  C   UNL A   1      37.742  29.065  28.253  1.00  0.00     0.031 C 
ATOM     45  C   UNL A   1      40.846  28.826  31.242  1.00  0.00     0.029 A 
ATOM     46  N   UNL A   1      42.029  27.260  30.146  1.00  0.00    -0.354 N 
ATOM     47  C   UNL A   1      38.110  31.055  29.342  1.00  0.00     0.074 A 
ATOM     48  C   UNL A   1      37.200  30.245  28.569  1.00  0.00     0.031 C 
ATOM     49  C   UNL A   1      42.058  28.772  31.815  1.00  0.00     0.029 A 
ATOM     50  C   UNL A   1      42.919  27.999  30.939  1.00  0.00     0.049 A 
ATOM     51  H   UNL A   1      42.216  26.389  29.727  1.00  0.00     0.167 HD
ATOM     52  C   UNL A   1      37.990  32.170  30.118  1.00  0.00     0.034 A 
ATOM     53  C   UNL A   1      44.114  28.433  30.441  1.00  0.00     0.034 A 
ATOM     54  C   UNL A   1      39.232  32.454  30.840  1.00  0.00     0.049 A 
ATOM     55  C   UNL A   1      44.243  29.939  30.411  1.00  0.00     0.074 A 
ATOM     56  C   UNL A   1      39.616  32.252  32.157  1.00  0.00     0.029 A 
ATOM     57  N   UNL A   1      40.388  32.783  30.140  1.00  0.00    -0.354 N 
ATOM     58  N   UNL A   1      43.237  30.763  30.518  1.00  0.00    -0.248 NA
ATOM     59  C   UNL A   1      45.513  30.637  30.246  1.00  0.00     0.031 C 
ATOM     60  C   UNL A   1      41.019  32.436  32.240  1.00  0.00     0.029 A 
ATOM     61  C   UNL A   1      41.485  32.771  30.979  1.00  0.00     0.049 A 
ATOM     62  H   UNL A   1      40.420  32.994  29.180  1.00  0.00     0.167 HD
ATOM     63  C   UNL A   1      43.682  32.059  30.428  1.00  0.00     0.074 A 
ATOM     64  C   UNL A   1      45.120  31.923  30.274  1.00  0.00     0.031 C 
ATOM     65  C   UNL A   1      42.814  33.117  30.485  1.00  0.00     0.034 A 
BRANCH  52  66
ATOM     66  C   UNL A   1      36.672  32.828  30.485  1.00  0.00     0.023 A 
ATOM     67  C   UNL A   1      35.941  33.493  29.477  1.00  0.00     0.031 A 
ATOM     68  C   UNL A   1      36.102  32.888  31.770  1.00  0.00     0.131 A 
ATOM     69  C   UNL A   1      34.802  34.264  29.773  1.00  0.00     0.055 A 
ATOM     70  C   UNL A   1      34.997  33.696  32.078  1.00  0.00     0.041 A 
ATOM     71  F   UNL A   1      36.542  32.123  32.777  1.00  0.00    -0.206 F 
ATOM     72  C   UNL A   1      34.349  34.404  31.079  1.00  0.00     0.022 A 
BRANCH  69  73
ATOM     73  S   UNL A   1      33.920  35.081  28.416  1.00  0.00     0.124 S 
ATOM     74  O   UNL A   1      32.530  34.983  28.848  1.00  0.00    -0.237 OA
ATOM     75  O   UNL A   1      34.508  36.415  28.424  1.00  0.00    -0.237 OA
ATOM     76  O   UNL A   1      34.262  34.265  27.251  1.00  0.00    -0.744 OA
ENDBRANCH  69  73
ENDBRANCH  52  66
BRANCH  53  77
ATOM     77  C   UNL A   1      44.706  27.487  29.454  1.00  0.00     0.023 A 
ATOM     78  C   UNL A   1      44.157  27.488  28.155  1.00  0.00     0.031 A 
ATOM     79  C   UNL A   1      45.991  26.954  29.625  1.00  0.00     0.131 A 
ATOM     80  C   UNL A   1      44.944  27.119  27.054  1.00  0.00     0.055 A 
ATOM     81  C   UNL A   1      46.753  26.531  28.527  1.00  0.00     0.041 A 
ATOM     82  F   UNL A   1      46.581  26.963  30.829  1.00  0.00    -0.206 F 
ATOM     83  C   UNL A   1      46.247  26.653  27.231  1.00  0.00     0.022 A 
BRANCH  80  84
ATOM     84  S   UNL A   1      44.318  27.498  25.391  1.00  0.00     0.124 S 
ATOM     85  O   UNL A   1      45.527  27.941  24.704  1.00  0.00    -0.237 OA
ATOM     86  O   UNL A   1      43.775  26.209  24.963  1.00  0.00    -0.237 OA
ATOM     87  O   UNL A   1      43.315  28.532  25.625  1.00  0.00    -0.744 OA
ENDBRANCH  80  84
ENDBRANCH  53  77
BRANCH  65  88
ATOM     88  C   UNL A   1      43.123  34.578  30.194  1.00  0.00     0.023 A 
ATOM     89  C   UNL A   1      42.880  35.199  28.962  1.00  0.00     0.031 A 
ATOM     90  C   UNL A   1      43.634  35.433  31.207  1.00  0.00     0.131 A 
ATOM     91  C   UNL A   1      43.199  36.554  28.744  1.00  0.00     0.055 A 
ATOM     92  C   UNL A   1      43.887  36.795  31.011  1.00  0.00     0.041 A 
ATOM     93  F   UNL A   1      43.901  34.993  32.445  1.00  0.00    -0.206 F 
ATOM     94  C   UNL A   1      43.684  37.363  29.767  1.00  0.00     0.022 A 
BRANCH  91  95
ATOM     95  S   UNL A   1      43.017  37.220  27.069  1.00  0.00     0.124 S 
ATOM     96  O   UNL A   1      41.953  38.205  27.251  1.00  0.00    -0.237 OA
ATOM     97  O   UNL A   1      44.344  37.764  26.803  1.00  0.00    -0.237 OA
ATOM     98  O   UNL A   1      42.651  36.053  26.269  1.00  0.00    -0.744 OA
ENDBRANCH  91  95
ENDBRANCH  65  88
ENDBRANCH  39  40
ENDBRANCH  31  34
ENDBRANCH  29  30
ENDBRANCH  28  29
ENDBRANCH  27  28
ENDBRANCH   3  27
TORSDOF 19
ENDMDL
MODEL 3
REMARK VINA RESULT:     -12.2      3.922      9.603
REMARK SMILES Cc1ccc(C(C)C)c(OCC(=O)Nc2nc(CC(=O)NCCCNC(=O)c3ccc(-c4c5nc(c(-c6cc(S(=O)(=O)[O-])ccc6F)c6ccc([nH]6)c(-c6cc(S(=O)(=O)[O-])ccc6F)c6nc(c(-c7cc(S(=O)(=O)[O-])ccc7F)c7ccc4[nH]7)C=C6)C=C5)cc3)cs2)c1
REMARK SMILES IDX 19 1 20 2 21 3 18 5 17 6 15 7 16 8 92 9 91 10 14 11 12 12
REMARK SMILES IDX 13 13 11 15 10 16 9 17 1 18 2 19 3 20 93 21 4 22 5 23 6 24
REMARK SMILES IDX 7 25 8 26 22 27 23 28 24 29 25 30 26 31 27 33 28 34 29 35
REMARK SMILES IDX 90 36 30 37 89 38 31 39 32 40 33 41 83 42 34 43 88 44 82 45
REMARK SMILES IDX 84 46 35 47 87 48 81 49 80 50 36 52 68 53 48 54 67 55 49 56
REMARK SMILES IDX 52 57 66 58 85 59 50 60 51 61 65 63 86 64 53 65 37 66 38 67
REMARK SMILES IDX 46 68 39 69 45 70 47 71 44 72 40 73 41 74 42 75 43 76 69 77
REMARK SMILES IDX 70 78 78 79 71 80 77 81 79 82 76 83 72 84 73 85 74 86 75 87
REMARK SMILES IDX 54 88 55 89 63 90 56 91 62 92 64 93 61 94 57 95 58 96 59 97
REMARK SMILES IDX 60 98
REMARK H PARENT 21 4 14 14 25 32 84 51 52 62
REMARK Flexibility Score: inf
ROOT
ATOM      1  C   UNL A   1      32.086  28.574  27.200  1.00  0.00     0.226 C 
ATOM      2  O   UNL A   1      31.229  28.094  27.946  1.00  0.00    -0.275 OA
ATOM      3  N   UNL A   1      33.393  28.594  27.608  1.00  0.00    -0.356 N 
ATOM      4  H   UNL A   1      33.561  28.267  28.521  1.00  0.00     0.163 HD
ENDROOT
BRANCH   1   5
ATOM      5  C   UNL A   1      31.694  29.169  25.857  1.00  0.00     0.157 C 
BRANCH   5   6
ATOM      6  C   UNL A   1      31.404  28.097  24.860  1.00  0.00     0.063 A 
ATOM      7  C   UNL A   1      31.726  27.126  22.915  1.00  0.00     0.189 A 
ATOM      8  N   UNL A   1      32.258  27.948  23.775  1.00  0.00    -0.224 NA
ATOM      9  S   UNL A   1      30.277  26.360  23.386  1.00  0.00    -0.105 S 
ATOM     10  C   UNL A   1      30.318  27.237  24.858  1.00  0.00     0.093 A 
BRANCH   7  11
ATOM     11  N   UNL A   1      32.149  26.802  21.666  1.00  0.00    -0.299 N 
ATOM     12  C   UNL A   1      32.782  25.657  21.294  1.00  0.00     0.264 C 
ATOM     13  O   UNL A   1      33.143  25.567  20.113  1.00  0.00    -0.271 OA
ATOM     14  H   UNL A   1      31.979  27.463  20.956  1.00  0.00     0.172 HD
BRANCH  12  15
ATOM     15  C   UNL A   1      32.936  24.459  22.253  1.00  0.00     0.329 C 
BRANCH  15  16
ATOM     16  O   UNL A   1      33.979  24.432  23.208  1.00  0.00    -0.483 OA
BRANCH  16  17
ATOM     17  C   UNL A   1      33.745  23.950  24.467  1.00  0.00     0.123 A 
ATOM     18  C   UNL A   1      30.928  23.085  26.892  1.00  0.00     0.044 C 
ATOM     19  C   UNL A   1      32.296  23.256  26.304  1.00  0.00    -0.047 A 
ATOM     20  C   UNL A   1      33.413  22.809  27.008  1.00  0.00     0.004 A 
ATOM     21  C   UNL A   1      32.472  23.838  25.042  1.00  0.00     0.050 A 
ATOM     22  C   UNL A   1      34.688  22.957  26.468  1.00  0.00     0.008 A 
ATOM     23  C   UNL A   1      34.877  23.523  25.195  1.00  0.00    -0.003 A 
BRANCH  23  24
ATOM     24  C   UNL A   1      36.293  23.670  24.642  1.00  0.00     0.017 C 
ATOM     25  C   UNL A   1      37.332  23.628  25.765  1.00  0.00     0.012 C 
ATOM     26  C   UNL A   1      36.640  22.606  23.591  1.00  0.00     0.012 C 
ENDBRANCH  23  24
ENDBRANCH  16  17
ENDBRANCH  15  16
ENDBRANCH  12  15
ENDBRANCH   7  11
ENDBRANCH   5   6
ENDBRANCH   1   5
BRANCH   3  27
ATOM     27  C   UNL A   1      34.567  29.036  26.867  1.00  0.00     0.117 C 
BRANCH  27  28
ATOM     28  C   UNL A   1      35.061  30.425  27.250  1.00  0.00     0.042 C 
BRANCH  28  29
ATOM     29  C   UNL A   1      34.597  30.865  28.628  1.00  0.00     0.118 C 
BRANCH  29  30
ATOM     30  N   UNL A   1      33.956  32.178  28.688  1.00  0.00    -0.352 N 
ATOM     31  C   UNL A   1      34.414  33.347  29.294  1.00  0.00     0.251 C 
ATOM     32  H   UNL A   1      33.082  32.244  28.240  1.00  0.00     0.163 HD
ATOM     33  O   UNL A   1      33.730  34.347  29.337  1.00  0.00    -0.269 OA
BRANCH  31  34
ATOM     34  C   UNL A   1      35.811  33.374  29.803  1.00  0.00     0.039 A 
ATOM     35  C   UNL A   1      36.823  33.806  28.938  1.00  0.00     0.014 A 
ATOM     36  C   UNL A   1      36.127  32.734  30.994  1.00  0.00     0.014 A 
ATOM     37  C   UNL A   1      38.128  33.360  29.145  1.00  0.00     0.010 A 
ATOM     38  C   UNL A   1      37.375  32.164  31.111  1.00  0.00     0.010 A 
ATOM     39  C   UNL A   1      38.365  32.437  30.162  1.00  0.00    -0.014 A 
BRANCH  39  40
ATOM     40  C   UNL A   1      39.553  31.593  30.233  1.00  0.00     0.031 A 
ATOM     41  C   UNL A   1      39.574  30.257  29.599  1.00  0.00     0.074 A 
ATOM     42  C   UNL A   1      40.689  32.080  30.779  1.00  0.00     0.049 A 
ATOM     43  N   UNL A   1      40.364  29.300  29.951  1.00  0.00    -0.248 NA
ATOM     44  C   UNL A   1      38.667  29.873  28.524  1.00  0.00     0.031 C 
ATOM     45  C   UNL A   1      42.038  31.537  30.644  1.00  0.00     0.029 A 
ATOM     46  N   UNL A   1      40.818  33.073  31.741  1.00  0.00    -0.354 N 
ATOM     47  C   UNL A   1      40.307  28.329  28.978  1.00  0.00     0.074 A 
ATOM     48  C   UNL A   1      39.176  28.693  28.159  1.00  0.00     0.031 C 
ATOM     49  C   UNL A   1      42.806  32.019  31.633  1.00  0.00     0.029 A 
ATOM     50  C   UNL A   1      41.944  32.775  32.523  1.00  0.00     0.049 A 
ATOM     51  H   UNL A   1      40.224  33.850  31.857  1.00  0.00     0.167 HD
ATOM     52  C   UNL A   1      41.316  27.416  28.882  1.00  0.00     0.034 A 
ATOM     53  C   UNL A   1      41.833  32.560  33.867  1.00  0.00     0.034 A 
ATOM     54  C   UNL A   1      42.322  27.621  29.926  1.00  0.00     0.049 A 
ATOM     55  C   UNL A   1      42.240  31.166  34.290  1.00  0.00     0.074 A 
ATOM     56  C   UNL A   1      43.584  28.196  29.911  1.00  0.00     0.029 A 
ATOM     57  N   UNL A   1      41.984  27.451  31.264  1.00  0.00    -0.354 N 
ATOM     58  N   UNL A   1      42.363  30.159  33.470  1.00  0.00    -0.248 NA
ATOM     59  C   UNL A   1      42.529  30.794  35.670  1.00  0.00     0.031 C 
ATOM     60  C   UNL A   1      43.993  28.396  31.253  1.00  0.00     0.029 A 
ATOM     61  C   UNL A   1      42.992  27.923  32.084  1.00  0.00     0.049 A 
ATOM     62  H   UNL A   1      41.145  27.051  31.583  1.00  0.00     0.167 HD
ATOM     63  C   UNL A   1      42.719  29.030  34.167  1.00  0.00     0.074 A 
ATOM     64  C   UNL A   1      42.826  29.488  35.541  1.00  0.00     0.031 C 
ATOM     65  C   UNL A   1      42.887  27.826  33.536  1.00  0.00     0.034 A 
BRANCH  52  66
ATOM     66  C   UNL A   1      41.576  26.543  27.668  1.00  0.00     0.023 A 
ATOM     67  C   UNL A   1      41.482  25.141  27.807  1.00  0.00     0.031 A 
ATOM     68  C   UNL A   1      41.956  26.988  26.388  1.00  0.00     0.131 A 
ATOM     69  C   UNL A   1      41.869  24.265  26.776  1.00  0.00     0.055 A 
ATOM     70  C   UNL A   1      42.392  26.120  25.376  1.00  0.00     0.041 A 
ATOM     71  F   UNL A   1      41.866  28.276  26.031  1.00  0.00    -0.206 F 
ATOM     72  C   UNL A   1      42.365  24.749  25.572  1.00  0.00     0.022 A 
BRANCH  69  73
ATOM     73  S   UNL A   1      41.710  22.479  27.039  1.00  0.00     0.124 S 
ATOM     74  O   UNL A   1      42.792  22.207  27.979  1.00  0.00    -0.237 OA
ATOM     75  O   UNL A   1      40.354  22.362  27.560  1.00  0.00    -0.237 OA
ATOM     76  O   UNL A   1      41.904  21.922  25.700  1.00  0.00    -0.744 OA
ENDBRANCH  69  73
ENDBRANCH  52  66
BRANCH  53  77
ATOM     77  C   UNL A   1      40.766  33.386  34.498  1.00  0.00     0.023 A 
ATOM     78  C   UNL A   1      39.685  32.697  35.087  1.00  0.00     0.031 A 
ATOM     79  C   UNL A   1      40.998  34.709  34.897  1.00  0.00     0.131 A 
ATOM     80  C   UNL A   1      38.978  33.271  36.154  1.00  0.00     0.055 A 
ATOM     81  C   UNL A   1      40.250  35.300  35.925  1.00  0.00     0.041 A 
ATOM     82  F   UNL A   1      42.035  35.401  34.402  1.00  0.00    -0.206 F 
ATOM     83  C   UNL A   1      39.264  34.565  36.587  1.00  0.00     0.022 A 
BRANCH  80  84
ATOM     84  S   UNL A   1      37.863  32.202  37.112  1.00  0.00     0.124 S 
ATOM     85  O   UNL A   1      36.654  33.014  37.188  1.00  0.00    -0.237 OA
ATOM     86  O   UNL A   1      37.780  31.008  36.271  1.00  0.00    -0.237 OA
ATOM     87  O   UNL A   1      38.569  32.007  38.375  1.00  0.00    -0.744 OA
ENDBRANCH  80  84
ENDBRANCH  53  77
BRANCH  65  88
ATOM     88  C   UNL A   1      43.071  26.464  34.188  1.00  0.00     0.023 A 
ATOM     89  C   UNL A   1      44.291  25.776  34.233  1.00  0.00     0.031 A 
ATOM     90  C   UNL A   1      41.996  25.823  34.860  1.00  0.00     0.131 A 
ATOM     91  C   UNL A   1      44.400  24.509  34.840  1.00  0.00     0.055 A 
ATOM     92  C   UNL A   1      42.121  24.596  35.521  1.00  0.00     0.041 A 
ATOM     93  F   UNL A   1      40.770  26.363  34.922  1.00  0.00    -0.206 F 
ATOM     94  C   UNL A   1      43.328  23.921  35.502  1.00  0.00     0.022 A 
BRANCH  91  95
ATOM     95  S   UNL A   1      45.973  23.620  34.691  1.00  0.00     0.124 S 
ATOM     96  O   UNL A   1      46.444  23.608  36.074  1.00  0.00    -0.237 OA
ATOM     97  O   UNL A   1      45.552  22.329  34.156  1.00  0.00    -0.237 OA
ATOM     98  O   UNL A   1      46.755  24.448  33.775  1.00  0.00    -0.744 OA
ENDBRANCH  91  95
ENDBRANCH  65  88
ENDBRANCH  39  40
ENDBRANCH  31  34
ENDBRANCH  29  30
ENDBRANCH  28  29
ENDBRANCH  27  28
ENDBRANCH   3  27
TORSDOF 19
ENDMDL
