MODEL 1
REMARK VINA RESULT:     -10.8      0.000      0.000
REMARK SMILES NS(=O)(=O)c1ccc(-n2nc(C(=O)NCCCNC(=O)c3ccc(-c4c5nc(c(-c6cc(S(=O)(=O)[O-])ccc6F)c6ccc([nH]6)c(-c6cc(S(=O)(=O)[O-])ccc6F)c6nc(c(-c7cc(S(=O)(=O)[O-])ccc7F)c7ccc4[nH]7)C=C6)C=C5)cc3)c(Cl)c2-c2ccc(Cl)cc2)cc1
REMARK SMILES IDX 16 1 15 2 14 3 12 4 13 5 11 7 9 8 10 9 86 10 84 11 85 12
REMARK SMILES IDX 8 13 5 14 6 15 95 16 7 17 94 18 2 19 3 20 4 21 1 22 87 25
REMARK SMILES IDX 88 26 93 27 89 28 92 29 90 30 91 31 17 32 18 33 19 34 20 36
REMARK SMILES IDX 21 37 22 38 83 39 23 40 82 41 24 42 25 43 26 44 76 45 27 46
REMARK SMILES IDX 81 47 75 48 77 49 28 50 80 51 74 52 73 53 29 55 61 56 41 57
REMARK SMILES IDX 60 58 42 59 45 60 59 61 78 62 43 63 44 64 58 66 79 67 46 68
REMARK SMILES IDX 30 69 31 70 39 71 32 72 38 73 40 74 37 75 33 76 34 77 35 78
REMARK SMILES IDX 36 79 62 80 63 81 71 82 64 83 70 84 72 85 69 86 65 87 66 88
REMARK SMILES IDX 67 89 68 90 47 91 48 92 56 93 49 94 55 95 57 96 54 97 50 98
REMARK SMILES IDX 51 99 52 100 53 101
REMARK H PARENT 14 6 1 23 1 24 18 35 77 54 45 65
REMARK Flexibility Score: inf
ROOT
ATOM      1  C   UNL A   1      34.450  33.188  32.081  1.00  0.00     0.042 C 
ENDROOT
BRANCH   1   2
ATOM      2  C   UNL A   1      35.400  34.129  32.835  1.00  0.00     0.118 C 
BRANCH   2   3
ATOM      3  N   UNL A   1      36.490  34.610  31.988  1.00  0.00    -0.351 N 
ATOM      4  C   UNL A   1      37.860  34.638  32.183  1.00  0.00     0.273 C 
ATOM      5  O   UNL A   1      38.553  34.996  31.230  1.00  0.00    -0.267 OA
ATOM      6  H   UNL A   1      36.197  34.981  31.125  1.00  0.00     0.163 HD
BRANCH   4   7
ATOM      7  C   UNL A   1      38.455  34.172  33.447  1.00  0.00     0.169 A 
ATOM      8  N   UNL A   1      38.916  34.170  35.543  1.00  0.00    -0.231 N 
ATOM      9  N   UNL A   1      38.065  34.696  34.635  1.00  0.00    -0.160 NA
ATOM     10  C   UNL A   1      39.891  33.395  34.956  1.00  0.00     0.094 A 
ATOM     11  C   UNL A   1      39.388  33.143  33.699  1.00  0.00     0.100 A 
ATOM     12  Cl  UNL A   1      39.846  31.811  32.756  1.00  0.00    -0.079 Cl
BRANCH   8  13
ATOM     13  C   UNL A   1      38.679  34.268  36.929  1.00  0.00     0.065 A 
ATOM     14  C   UNL A   1      38.586  34.174  39.696  1.00  0.00     0.082 A 
ATOM     15  C   UNL A   1      37.866  33.230  38.954  1.00  0.00     0.024 A 
ATOM     16  C   UNL A   1      39.315  35.186  39.061  1.00  0.00     0.024 A 
ATOM     17  C   UNL A   1      37.895  33.289  37.557  1.00  0.00     0.030 A 
ATOM     18  C   UNL A   1      39.383  35.220  37.670  1.00  0.00     0.030 A 
BRANCH  14  19
ATOM     19  S   UNL A   1      38.626  34.130  41.463  1.00  0.00     0.238 S 
ATOM     20  O   UNL A   1      39.898  34.687  41.902  1.00  0.00    -0.207 OA
ATOM     21  O   UNL A   1      38.154  32.850  41.898  1.00  0.00    -0.207 OA
BRANCH  19  22
ATOM     22  N   UNL A   1      37.474  35.247  41.955  1.00  0.00    -0.225 NA
ATOM     23  H   UNL A   1      37.148  35.777  41.147  1.00  0.00     0.137 HD
ATOM     24  H   UNL A   1      37.888  35.884  42.636  1.00  0.00     0.137 HD
ENDBRANCH  19  22
ENDBRANCH  14  19
ENDBRANCH   8  13
BRANCH  10  25
ATOM     25  C   UNL A   1      41.024  32.733  35.582  1.00  0.00     0.002 A 
ATOM     26  C   UNL A   1      42.300  33.288  35.405  1.00  0.00     0.012 A 
ATOM     27  C   UNL A   1      40.889  31.441  36.097  1.00  0.00     0.012 A 
ATOM     28  C   UNL A   1      43.436  32.532  35.691  1.00  0.00     0.021 A 
ATOM     29  C   UNL A   1      42.026  30.685  36.377  1.00  0.00     0.021 A 
ATOM     30  C   UNL A   1      43.293  31.226  36.154  1.00  0.00     0.041 A 
ATOM     31  Cl  UNL A   1      44.690  30.253  36.403  1.00  0.00    -0.084 Cl
ENDBRANCH  10  25
ENDBRANCH   4   7
ENDBRANCH   2   3
ENDBRANCH   1   2
BRANCH   1  32
ATOM     32  C   UNL A   1      35.143  32.187  31.190  1.00  0.00     0.118 C 
BRANCH  32  33
ATOM     33  N   UNL A   1      35.053  32.493  29.757  1.00  0.00    -0.352 N 
ATOM     34  C   UNL A   1      35.985  32.201  28.760  1.00  0.00     0.251 C 
ATOM     35  H   UNL A   1      34.237  32.959  29.464  1.00  0.00     0.163 HD
ATOM     36  O   UNL A   1      35.976  32.820  27.702  1.00  0.00    -0.269 OA
BRANCH  34  37
ATOM     37  C   UNL A   1      36.981  31.138  29.012  1.00  0.00     0.039 A 
ATOM     38  C   UNL A   1      36.814  29.781  28.710  1.00  0.00     0.014 A 
ATOM     39  C   UNL A   1      38.191  31.572  29.500  1.00  0.00     0.014 A 
ATOM     40  C   UNL A   1      37.899  28.922  28.921  1.00  0.00     0.010 A 
ATOM     41  C   UNL A   1      39.282  30.859  29.143  1.00  0.00     0.010 A 
ATOM     42  C   UNL A   1      39.146  29.493  29.185  1.00  0.00    -0.014 A 
BRANCH  42  43
ATOM     43  C   UNL A   1      40.398  28.791  29.412  1.00  0.00     0.031 A 
ATOM     44  C   UNL A   1      40.682  28.570  30.845  1.00  0.00     0.074 A 
ATOM     45  C   UNL A   1      40.990  28.056  28.437  1.00  0.00     0.049 A 
ATOM     46  N   UNL A   1      41.456  29.265  31.610  1.00  0.00    -0.248 NA
ATOM     47  C   UNL A   1      39.798  27.646  31.581  1.00  0.00     0.031 C 
ATOM     48  C   UNL A   1      40.554  27.831  27.050  1.00  0.00     0.029 A 
ATOM     49  N   UNL A   1      42.069  27.235  28.525  1.00  0.00    -0.354 N 
ATOM     50  C   UNL A   1      41.386  28.638  32.847  1.00  0.00     0.074 A 
ATOM     51  C   UNL A   1      40.132  27.942  32.838  1.00  0.00     0.031 C 
ATOM     52  C   UNL A   1      41.218  26.773  26.525  1.00  0.00     0.029 A 
ATOM     53  C   UNL A   1      42.225  26.330  27.473  1.00  0.00     0.049 A 
ATOM     54  H   UNL A   1      42.699  27.274  29.281  1.00  0.00     0.167 HD
ATOM     55  C   UNL A   1      42.505  28.433  33.601  1.00  0.00     0.034 A 
ATOM     56  C   UNL A   1      43.083  25.270  27.437  1.00  0.00     0.034 A 
ATOM     57  C   UNL A   1      43.628  29.174  33.041  1.00  0.00     0.049 A 
ATOM     58  C   UNL A   1      44.118  25.544  28.477  1.00  0.00     0.074 A 
ATOM     59  C   UNL A   1      43.832  30.496  32.685  1.00  0.00     0.029 A 
ATOM     60  N   UNL A   1      44.596  28.465  32.353  1.00  0.00    -0.354 N 
ATOM     61  N   UNL A   1      44.943  26.558  28.415  1.00  0.00    -0.248 NA
ATOM     62  C   UNL A   1      43.870  25.036  29.821  1.00  0.00     0.031 C 
ATOM     63  C   UNL A   1      44.509  30.435  31.430  1.00  0.00     0.029 A 
ATOM     64  C   UNL A   1      44.796  29.097  31.149  1.00  0.00     0.049 A 
ATOM     65  H   UNL A   1      45.059  27.656  32.668  1.00  0.00     0.167 HD
ATOM     66  C   UNL A   1      44.976  27.081  29.701  1.00  0.00     0.074 A 
ATOM     67  C   UNL A   1      44.354  26.053  30.541  1.00  0.00     0.031 C 
ATOM     68  C   UNL A   1      45.196  28.413  29.930  1.00  0.00     0.034 A 
BRANCH  55  69
ATOM     69  C   UNL A   1      42.725  27.258  34.545  1.00  0.00     0.023 A 
ATOM     70  C   UNL A   1      43.635  26.280  34.104  1.00  0.00     0.031 A 
ATOM     71  C   UNL A   1      41.949  26.890  35.668  1.00  0.00     0.131 A 
ATOM     72  C   UNL A   1      43.610  24.976  34.621  1.00  0.00     0.055 A 
ATOM     73  C   UNL A   1      41.972  25.606  36.223  1.00  0.00     0.041 A 
ATOM     74  F   UNL A   1      41.083  27.708  36.270  1.00  0.00    -0.206 F 
ATOM     75  C   UNL A   1      42.771  24.624  35.670  1.00  0.00     0.022 A 
BRANCH  72  76
ATOM     76  S   UNL A   1      44.551  23.708  33.742  1.00  0.00     0.124 S 
ATOM     77  O   UNL A   1      45.675  24.490  33.236  1.00  0.00    -0.237 OA
ATOM     78  O   UNL A   1      44.852  22.765  34.815  1.00  0.00    -0.237 OA
ATOM     79  O   UNL A   1      43.611  23.230  32.733  1.00  0.00    -0.744 OA
ENDBRANCH  72  76
ENDBRANCH  55  69
BRANCH  56  80
ATOM     80  C   UNL A   1      42.843  23.918  26.833  1.00  0.00     0.023 A 
ATOM     81  C   UNL A   1      43.752  23.284  25.952  1.00  0.00     0.031 A 
ATOM     82  C   UNL A   1      41.785  23.113  27.314  1.00  0.00     0.131 A 
ATOM     83  C   UNL A   1      43.576  21.920  25.592  1.00  0.00     0.055 A 
ATOM     84  C   UNL A   1      41.616  21.772  26.957  1.00  0.00     0.041 A 
ATOM     85  F   UNL A   1      40.916  23.578  28.225  1.00  0.00    -0.206 F 
ATOM     86  C   UNL A   1      42.517  21.165  26.099  1.00  0.00     0.022 A 
BRANCH  83  87
ATOM     87  S   UNL A   1      44.780  21.066  24.514  1.00  0.00     0.124 S 
ATOM     88  O   UNL A   1      44.194  19.737  24.388  1.00  0.00    -0.237 OA
ATOM     89  O   UNL A   1      44.774  21.895  23.315  1.00  0.00    -0.237 OA
ATOM     90  O   UNL A   1      46.025  21.116  25.283  1.00  0.00    -0.744 OA
ENDBRANCH  83  87
ENDBRANCH  56  80
BRANCH  68  91
ATOM     91  C   UNL A   1      45.695  29.292  28.796  1.00  0.00     0.023 A 
ATOM     92  C   UNL A   1      44.973  30.352  28.196  1.00  0.00     0.031 A 
ATOM     93  C   UNL A   1      47.041  29.131  28.419  1.00  0.00     0.131 A 
ATOM     94  C   UNL A   1      45.609  31.196  27.259  1.00  0.00     0.055 A 
ATOM     95  C   UNL A   1      47.670  29.981  27.510  1.00  0.00     0.041 A 
ATOM     96  F   UNL A   1      47.791  28.161  28.970  1.00  0.00    -0.206 F 
ATOM     97  C   UNL A   1      46.954  31.015  26.923  1.00  0.00     0.022 A 
BRANCH  94  98
ATOM     98  S   UNL A   1      44.696  32.547  26.441  1.00  0.00     0.124 S 
ATOM     99  O   UNL A   1      45.721  33.231  25.663  1.00  0.00    -0.237 OA
ATOM    100  O   UNL A   1      43.684  31.826  25.673  1.00  0.00    -0.237 OA
ATOM    101  O   UNL A   1      44.163  33.325  27.562  1.00  0.00    -0.744 OA
ENDBRANCH  94  98
ENDBRANCH  68  91
ENDBRANCH  42  43
ENDBRANCH  34  37
ENDBRANCH  32  33
ENDBRANCH   1  32
TORSDOF 17
ENDMDL
MODEL 2
REMARK VINA RESULT:     -10.6      2.842      4.495
REMARK SMILES NS(=O)(=O)c1ccc(-n2nc(C(=O)NCCCNC(=O)c3ccc(-c4c5nc(c(-c6cc(S(=O)(=O)[O-])ccc6F)c6ccc([nH]6)c(-c6cc(S(=O)(=O)[O-])ccc6F)c6nc(c(-c7cc(S(=O)(=O)[O-])ccc7F)c7ccc4[nH]7)C=C6)C=C5)cc3)c(Cl)c2-c2ccc(Cl)cc2)cc1
REMARK SMILES IDX 16 1 15 2 14 3 12 4 13 5 11 7 9 8 10 9 86 10 84 11 85 12
REMARK SMILES IDX 8 13 5 14 6 15 95 16 7 17 94 18 2 19 3 20 4 21 1 22 87 25
REMARK SMILES IDX 88 26 93 27 89 28 92 29 90 30 91 31 17 32 18 33 19 34 20 36
REMARK SMILES IDX 21 37 22 38 83 39 23 40 82 41 24 42 25 43 26 44 76 45 27 46
REMARK SMILES IDX 81 47 75 48 77 49 28 50 80 51 74 52 73 53 29 55 61 56 41 57
REMARK SMILES IDX 60 58 42 59 45 60 59 61 78 62 43 63 44 64 58 66 79 67 46 68
REMARK SMILES IDX 30 69 31 70 39 71 32 72 38 73 40 74 37 75 33 76 34 77 35 78
REMARK SMILES IDX 36 79 62 80 63 81 71 82 64 83 70 84 72 85 69 86 65 87 66 88
REMARK SMILES IDX 67 89 68 90 47 91 48 92 56 93 49 94 55 95 57 96 54 97 50 98
REMARK SMILES IDX 51 99 52 100 53 101
REMARK H PARENT 14 6 1 23 1 24 18 35 77 54 45 65
REMARK Flexibility Score: inf
ROOT
ATOM      1  C   UNL A   1      35.822  31.952  32.562  1.00  0.00     0.042 C 
ENDROOT
BRANCH   1   2
ATOM      2  C   UNL A   1      36.783  30.756  32.497  1.00  0.00     0.118 C 
BRANCH   2   3
ATOM      3  N   UNL A   1      37.266  30.362  33.818  1.00  0.00    -0.351 N 
ATOM      4  C   UNL A   1      38.345  30.797  34.569  1.00  0.00     0.273 C 
ATOM      5  O   UNL A   1      38.438  30.363  35.719  1.00  0.00    -0.267 OA
ATOM      6  H   UNL A   1      36.728  29.662  34.253  1.00  0.00     0.163 HD
BRANCH   4   7
ATOM      7  C   UNL A   1      39.282  31.800  34.038  1.00  0.00     0.169 A 
ATOM      8  N   UNL A   1      40.616  32.724  32.633  1.00  0.00    -0.231 N 
ATOM      9  N   UNL A   1      39.640  31.795  32.730  1.00  0.00    -0.160 NA
ATOM     10  C   UNL A   1      40.950  33.259  33.856  1.00  0.00     0.094 A 
ATOM     11  C   UNL A   1      39.886  32.914  34.660  1.00  0.00     0.100 A 
ATOM     12  Cl  UNL A   1      39.463  33.757  36.068  1.00  0.00    -0.079 Cl
BRANCH   8  13
ATOM     13  C   UNL A   1      41.069  33.201  31.386  1.00  0.00     0.065 A 
ATOM     14  C   UNL A   1      42.222  34.433  29.189  1.00  0.00     0.082 A 
ATOM     15  C   UNL A   1      41.027  34.943  29.712  1.00  0.00     0.024 A 
ATOM     16  C   UNL A   1      42.816  33.289  29.733  1.00  0.00     0.024 A 
ATOM     17  C   UNL A   1      40.432  34.309  30.808  1.00  0.00     0.030 A 
ATOM     18  C   UNL A   1      42.251  32.682  30.852  1.00  0.00     0.030 A 
BRANCH  14  19
ATOM     19  S   UNL A   1      43.047  35.212  27.833  1.00  0.00     0.238 S 
ATOM     20  O   UNL A   1      43.645  34.172  27.008  1.00  0.00    -0.207 OA
ATOM     21  O   UNL A   1      43.797  36.324  28.334  1.00  0.00    -0.207 OA
BRANCH  19  22
ATOM     22  N   UNL A   1      41.821  35.859  26.888  1.00  0.00    -0.225 NA
ATOM     23  H   UNL A   1      40.918  35.533  27.234  1.00  0.00     0.137 HD
ATOM     24  H   UNL A   1      41.943  35.560  25.921  1.00  0.00     0.137 HD
ENDBRANCH  19  22
ENDBRANCH  14  19
ENDBRANCH   8  13
BRANCH  10  25
ATOM     25  C   UNL A   1      41.998  34.215  34.173  1.00  0.00     0.002 A 
ATOM     26  C   UNL A   1      41.702  35.583  34.076  1.00  0.00     0.012 A 
ATOM     27  C   UNL A   1      43.325  33.794  34.289  1.00  0.00     0.012 A 
ATOM     28  C   UNL A   1      42.734  36.520  34.041  1.00  0.00     0.021 A 
ATOM     29  C   UNL A   1      44.356  34.732  34.248  1.00  0.00     0.021 A 
ATOM     30  C   UNL A   1      44.057  36.087  34.104  1.00  0.00     0.041 A 
ATOM     31  Cl  UNL A   1      45.334  37.230  33.949  1.00  0.00    -0.084 Cl
ENDBRANCH  10  25
ENDBRANCH   4   7
ENDBRANCH   2   3
ENDBRANCH   1   2
BRANCH   1  32
ATOM     32  C   UNL A   1      35.676  32.703  31.262  1.00  0.00     0.118 C 
BRANCH  32  33
ATOM     33  N   UNL A   1      34.927  31.979  30.228  1.00  0.00    -0.352 N 
ATOM     34  C   UNL A   1      35.435  31.307  29.116  1.00  0.00     0.251 C 
ATOM     35  H   UNL A   1      33.948  31.966  30.332  1.00  0.00     0.163 HD
ATOM     36  O   UNL A   1      34.717  31.072  28.150  1.00  0.00    -0.269 OA
BRANCH  34  37
ATOM     37  C   UNL A   1      36.854  30.892  29.128  1.00  0.00     0.039 A 
ATOM     38  C   UNL A   1      37.953  31.757  29.167  1.00  0.00     0.014 A 
ATOM     39  C   UNL A   1      37.067  29.534  29.197  1.00  0.00     0.014 A 
ATOM     40  C   UNL A   1      39.231  31.192  29.276  1.00  0.00     0.010 A 
ATOM     41  C   UNL A   1      38.177  29.124  29.846  1.00  0.00     0.010 A 
ATOM     42  C   UNL A   1      39.323  29.833  29.582  1.00  0.00    -0.014 A 
BRANCH  42  43
ATOM     43  C   UNL A   1      40.540  29.058  29.760  1.00  0.00     0.031 A 
ATOM     44  C   UNL A   1      40.807  28.722  31.174  1.00  0.00     0.074 A 
ATOM     45  C   UNL A   1      41.102  28.369  28.735  1.00  0.00     0.049 A 
ATOM     46  N   UNL A   1      41.609  29.322  31.988  1.00  0.00    -0.248 NA
ATOM     47  C   UNL A   1      39.877  27.789  31.840  1.00  0.00     0.031 C 
ATOM     48  C   UNL A   1      40.662  28.265  27.335  1.00  0.00     0.029 A 
ATOM     49  N   UNL A   1      42.140  27.494  28.764  1.00  0.00    -0.354 N 
ATOM     50  C   UNL A   1      41.503  28.611  33.176  1.00  0.00     0.074 A 
ATOM     51  C   UNL A   1      40.219  27.977  33.115  1.00  0.00     0.031 C 
ATOM     52  C   UNL A   1      41.279  27.219  26.735  1.00  0.00     0.029 A 
ATOM     53  C   UNL A   1      42.259  26.662  27.650  1.00  0.00     0.049 A 
ATOM     54  H   UNL A   1      42.768  27.448  29.522  1.00  0.00     0.167 HD
ATOM     55  C   UNL A   1      42.608  28.300  33.915  1.00  0.00     0.034 A 
ATOM     56  C   UNL A   1      43.068  25.567  27.538  1.00  0.00     0.034 A 
ATOM     57  C   UNL A   1      43.766  29.026  33.412  1.00  0.00     0.049 A 
ATOM     58  C   UNL A   1      44.109  25.717  28.597  1.00  0.00     0.074 A 
ATOM     59  C   UNL A   1      44.033  30.359  33.153  1.00  0.00     0.029 A 
ATOM     60  N   UNL A   1      44.704  28.325  32.675  1.00  0.00    -0.354 N 
ATOM     61  N   UNL A   1      44.981  26.693  28.610  1.00  0.00    -0.248 NA
ATOM     62  C   UNL A   1      43.831  25.126  29.901  1.00  0.00     0.031 C 
ATOM     63  C   UNL A   1      44.713  30.358  31.897  1.00  0.00     0.029 A 
ATOM     64  C   UNL A   1      44.938  29.032  31.521  1.00  0.00     0.049 A 
ATOM     65  H   UNL A   1      45.127  27.474  32.932  1.00  0.00     0.167 HD
ATOM     66  C   UNL A   1      45.032  27.120  29.931  1.00  0.00     0.074 A 
ATOM     67  C   UNL A   1      44.359  26.064  30.693  1.00  0.00     0.031 C 
ATOM     68  C   UNL A   1      45.312  28.420  30.255  1.00  0.00     0.034 A 
BRANCH  55  69
ATOM     69  C   UNL A   1      42.769  27.051  34.772  1.00  0.00     0.023 A 
ATOM     70  C   UNL A   1      43.639  26.068  34.265  1.00  0.00     0.031 A 
ATOM     71  C   UNL A   1      41.967  26.636  35.860  1.00  0.00     0.131 A 
ATOM     72  C   UNL A   1      43.552  24.732  34.685  1.00  0.00     0.055 A 
ATOM     73  C   UNL A   1      41.930  25.315  36.320  1.00  0.00     0.041 A 
ATOM     74  F   UNL A   1      41.133  27.446  36.516  1.00  0.00    -0.206 F 
ATOM     75  C   UNL A   1      42.690  24.342  35.701  1.00  0.00     0.022 A 
BRANCH  72  76
ATOM     76  S   UNL A   1      44.445  23.492  33.720  1.00  0.00     0.124 S 
ATOM     77  O   UNL A   1      45.617  24.252  33.297  1.00  0.00    -0.237 OA
ATOM     78  O   UNL A   1      44.676  22.451  34.717  1.00  0.00    -0.237 OA
ATOM     79  O   UNL A   1      43.502  23.146  32.662  1.00  0.00    -0.744 OA
ENDBRANCH  72  76
ENDBRANCH  55  69
BRANCH  56  80
ATOM     80  C   UNL A   1      42.768  24.276  26.837  1.00  0.00     0.023 A 
ATOM     81  C   UNL A   1      43.700  23.600  26.013  1.00  0.00     0.031 A 
ATOM     82  C   UNL A   1      41.597  23.554  27.168  1.00  0.00     0.131 A 
ATOM     83  C   UNL A   1      43.438  22.279  25.561  1.00  0.00     0.055 A 
ATOM     84  C   UNL A   1      41.344  22.254  26.720  1.00  0.00     0.041 A 
ATOM     85  F   UNL A   1      40.687  24.057  28.016  1.00  0.00    -0.206 F 
ATOM     86  C   UNL A   1      42.268  21.606  25.919  1.00  0.00     0.022 A 
BRANCH  83  87
ATOM     87  S   UNL A   1      44.662  21.365  24.556  1.00  0.00     0.124 S 
ATOM     88  O   UNL A   1      44.129  20.008  24.579  1.00  0.00    -0.237 OA
ATOM     89  O   UNL A   1      44.607  22.065  23.278  1.00  0.00    -0.237 OA
ATOM     90  O   UNL A   1      45.914  21.544  25.295  1.00  0.00    -0.744 OA
ENDBRANCH  83  87
ENDBRANCH  56  80
BRANCH  68  91
ATOM     91  C   UNL A   1      45.857  29.354  29.189  1.00  0.00     0.023 A 
ATOM     92  C   UNL A   1      47.204  29.418  28.760  1.00  0.00     0.031 A 
ATOM     93  C   UNL A   1      44.912  30.108  28.469  1.00  0.00     0.131 A 
ATOM     94  C   UNL A   1      47.553  30.217  27.648  1.00  0.00     0.055 A 
ATOM     95  C   UNL A   1      45.258  30.877  27.359  1.00  0.00     0.041 A 
ATOM     96  F   UNL A   1      43.612  30.071  28.807  1.00  0.00    -0.206 F 
ATOM     97  C   UNL A   1      46.582  30.938  26.947  1.00  0.00     0.022 A 
BRANCH  94  98
ATOM     98  S   UNL A   1      49.286  30.350  27.094  1.00  0.00     0.124 S 
ATOM     99  O   UNL A   1      49.444  29.219  26.188  1.00  0.00    -0.237 OA
ATOM    100  O   UNL A   1      49.321  31.674  26.477  1.00  0.00    -0.237 OA
ATOM    101  O   UNL A   1      50.050  30.244  28.339  1.00  0.00    -0.744 OA
ENDBRANCH  94  98
ENDBRANCH  68  91
ENDBRANCH  42  43
ENDBRANCH  34  37
ENDBRANCH  32  33
ENDBRANCH   1  32
TORSDOF 17
ENDMDL
MODEL 3
REMARK VINA RESULT:     -10.3      4.951     11.377
REMARK SMILES NS(=O)(=O)c1ccc(-n2nc(C(=O)NCCCNC(=O)c3ccc(-c4c5nc(c(-c6cc(S(=O)(=O)[O-])ccc6F)c6ccc([nH]6)c(-c6cc(S(=O)(=O)[O-])ccc6F)c6nc(c(-c7cc(S(=O)(=O)[O-])ccc7F)c7ccc4[nH]7)C=C6)C=C5)cc3)c(Cl)c2-c2ccc(Cl)cc2)cc1
REMARK SMILES IDX 16 1 15 2 14 3 12 4 13 5 11 7 9 8 10 9 86 10 84 11 85 12
REMARK SMILES IDX 8 13 5 14 6 15 95 16 7 17 94 18 2 19 3 20 4 21 1 22 87 25
REMARK SMILES IDX 88 26 93 27 89 28 92 29 90 30 91 31 17 32 18 33 19 34 20 36
REMARK SMILES IDX 21 37 22 38 83 39 23 40 82 41 24 42 25 43 26 44 76 45 27 46
REMARK SMILES IDX 81 47 75 48 77 49 28 50 80 51 74 52 73 53 29 55 61 56 41 57
REMARK SMILES IDX 60 58 42 59 45 60 59 61 78 62 43 63 44 64 58 66 79 67 46 68
REMARK SMILES IDX 30 69 31 70 39 71 32 72 38 73 40 74 37 75 33 76 34 77 35 78
REMARK SMILES IDX 36 79 62 80 63 81 71 82 64 83 70 84 72 85 69 86 65 87 66 88
REMARK SMILES IDX 67 89 68 90 47 91 48 92 56 93 49 94 55 95 57 96 54 97 50 98
REMARK SMILES IDX 51 99 52 100 53 101
REMARK H PARENT 14 6 1 23 1 24 18 35 77 54 45 65
REMARK Flexibility Score: inf
ROOT
ATOM      1  C   UNL A   1      33.668  37.109  31.972  1.00  0.00     0.042 C 
ENDROOT
BRANCH   1   2
ATOM      2  C   UNL A   1      33.302  36.132  30.846  1.00  0.00     0.118 C 
BRANCH   2   3
ATOM      3  N   UNL A   1      33.695  36.631  29.530  1.00  0.00    -0.351 N 
ATOM      4  C   UNL A   1      34.237  35.990  28.429  1.00  0.00     0.273 C 
ATOM      5  O   UNL A   1      34.356  36.654  27.398  1.00  0.00    -0.267 OA
ATOM      6  H   UNL A   1      33.551  37.596  29.405  1.00  0.00     0.163 HD
BRANCH   4   7
ATOM      7  C   UNL A   1      34.568  34.556  28.474  1.00  0.00     0.169 A 
ATOM      8  N   UNL A   1      34.251  32.439  28.318  1.00  0.00    -0.231 N 
ATOM      9  N   UNL A   1      33.720  33.630  27.962  1.00  0.00    -0.160 NA
ATOM     10  C   UNL A   1      35.365  32.582  29.115  1.00  0.00     0.094 A 
ATOM     11  C   UNL A   1      35.732  33.896  28.922  1.00  0.00     0.100 A 
ATOM     12  Cl  UNL A   1      37.305  34.475  29.171  1.00  0.00    -0.079 Cl
BRANCH   8  13
ATOM     13  C   UNL A   1      33.804  31.226  27.755  1.00  0.00     0.065 A 
ATOM     14  C   UNL A   1      33.070  29.026  26.241  1.00  0.00     0.082 A 
ATOM     15  C   UNL A   1      32.144  30.056  26.447  1.00  0.00     0.024 A 
ATOM     16  C   UNL A   1      34.341  29.074  26.822  1.00  0.00     0.024 A 
ATOM     17  C   UNL A   1      32.506  31.158  27.229  1.00  0.00     0.030 A 
ATOM     18  C   UNL A   1      34.721  30.190  27.564  1.00  0.00     0.030 A 
BRANCH  14  19
ATOM     19  S   UNL A   1      32.690  27.627  25.228  1.00  0.00     0.238 S 
ATOM     20  O   UNL A   1      32.394  26.501  26.103  1.00  0.00    -0.207 OA
ATOM     21  O   UNL A   1      33.657  27.552  24.174  1.00  0.00    -0.207 OA
BRANCH  19  22
ATOM     22  N   UNL A   1      31.226  28.000  24.497  1.00  0.00    -0.225 NA
ATOM     23  H   UNL A   1      30.467  27.857  25.164  1.00  0.00     0.137 HD
ATOM     24  H   UNL A   1      31.087  27.396  23.688  1.00  0.00     0.137 HD
ENDBRANCH  19  22
ENDBRANCH  14  19
ENDBRANCH   8  13
BRANCH  10  25
ATOM     25  C   UNL A   1      36.158  31.548  29.760  1.00  0.00     0.002 A 
ATOM     26  C   UNL A   1      35.838  31.188  31.078  1.00  0.00     0.012 A 
ATOM     27  C   UNL A   1      37.369  31.135  29.197  1.00  0.00     0.012 A 
ATOM     28  C   UNL A   1      36.750  30.465  31.845  1.00  0.00     0.021 A 
ATOM     29  C   UNL A   1      38.281  30.417  29.968  1.00  0.00     0.021 A 
ATOM     30  C   UNL A   1      37.976  30.102  31.293  1.00  0.00     0.041 A 
ATOM     31  Cl  UNL A   1      39.147  29.306  32.270  1.00  0.00    -0.084 Cl
ENDBRANCH  10  25
ENDBRANCH   4   7
ENDBRANCH   2   3
ENDBRANCH   1   2
BRANCH   1  32
ATOM     32  C   UNL A   1      34.047  36.445  33.272  1.00  0.00     0.118 C 
BRANCH  32  33
ATOM     33  N   UNL A   1      33.586  35.057  33.397  1.00  0.00    -0.352 N 
ATOM     34  C   UNL A   1      34.358  33.894  33.382  1.00  0.00     0.251 C 
ATOM     35  H   UNL A   1      32.616  34.931  33.504  1.00  0.00     0.163 HD
ATOM     36  O   UNL A   1      33.844  32.812  33.120  1.00  0.00    -0.269 OA
BRANCH  34  37
ATOM     37  C   UNL A   1      35.801  34.000  33.682  1.00  0.00     0.039 A 
ATOM     38  C   UNL A   1      36.415  33.591  34.872  1.00  0.00     0.014 A 
ATOM     39  C   UNL A   1      36.584  34.458  32.648  1.00  0.00     0.014 A 
ATOM     40  C   UNL A   1      37.811  33.670  34.953  1.00  0.00     0.010 A 
ATOM     41  C   UNL A   1      37.846  33.984  32.583  1.00  0.00     0.010 A 
ATOM     42  C   UNL A   1      38.522  33.914  33.777  1.00  0.00    -0.014 A 
BRANCH  42  43
ATOM     43  C   UNL A   1      39.966  34.013  33.634  1.00  0.00     0.031 A 
ATOM     44  C   UNL A   1      40.461  33.422  32.373  1.00  0.00     0.074 A 
ATOM     45  C   UNL A   1      40.692  34.913  34.344  1.00  0.00     0.049 A 
ATOM     46  N   UNL A   1      40.979  32.251  32.204  1.00  0.00    -0.248 NA
ATOM     47  C   UNL A   1      40.089  34.092  31.113  1.00  0.00     0.031 C 
ATOM     48  C   UNL A   1      40.236  35.895  35.340  1.00  0.00     0.029 A 
ATOM     49  N   UNL A   1      42.008  35.229  34.226  1.00  0.00    -0.354 N 
ATOM     50  C   UNL A   1      41.288  32.195  30.851  1.00  0.00     0.074 A 
ATOM     51  C   UNL A   1      40.411  33.145  30.231  1.00  0.00     0.031 C 
ATOM     52  C   UNL A   1      41.201  36.824  35.546  1.00  0.00     0.029 A 
ATOM     53  C   UNL A   1      42.393  36.435  34.814  1.00  0.00     0.049 A 
ATOM     54  H   UNL A   1      42.648  34.647  33.756  1.00  0.00     0.167 HD
ATOM     55  C   UNL A   1      42.471  31.669  30.417  1.00  0.00     0.034 A 
ATOM     56  C   UNL A   1      43.589  37.073  34.647  1.00  0.00     0.034 A 
ATOM     57  C   UNL A   1      43.151  30.995  31.514  1.00  0.00     0.049 A 
ATOM     58  C   UNL A   1      44.537  36.040  34.136  1.00  0.00     0.074 A 
ATOM     59  C   UNL A   1      42.785  30.014  32.421  1.00  0.00     0.029 A 
ATOM     60  N   UNL A   1      44.241  31.623  32.089  1.00  0.00    -0.354 N 
ATOM     61  N   UNL A   1      44.891  34.988  34.831  1.00  0.00    -0.248 NA
ATOM     62  C   UNL A   1      44.648  35.885  32.691  1.00  0.00     0.031 C 
ATOM     63  C   UNL A   1      43.297  30.468  33.674  1.00  0.00     0.029 A 
ATOM     64  C   UNL A   1      44.052  31.621  33.450  1.00  0.00     0.049 A 
ATOM     65  H   UNL A   1      45.013  32.002  31.609  1.00  0.00     0.167 HD
ATOM     66  C   UNL A   1      44.851  33.928  33.934  1.00  0.00     0.074 A 
ATOM     67  C   UNL A   1      44.770  34.556  32.613  1.00  0.00     0.031 C 
ATOM     68  C   UNL A   1      44.557  32.654  34.341  1.00  0.00     0.034 A 
BRANCH  55  69
ATOM     69  C   UNL A   1      43.228  32.119  29.174  1.00  0.00     0.023 A 
ATOM     70  C   UNL A   1      43.686  31.091  28.331  1.00  0.00     0.031 A 
ATOM     71  C   UNL A   1      43.757  33.400  28.896  1.00  0.00     0.131 A 
ATOM     72  C   UNL A   1      44.739  31.303  27.428  1.00  0.00     0.055 A 
ATOM     73  C   UNL A   1      44.763  33.622  27.949  1.00  0.00     0.041 A 
ATOM     74  F   UNL A   1      43.389  34.509  29.542  1.00  0.00    -0.206 F 
ATOM     75  C   UNL A   1      45.295  32.562  27.241  1.00  0.00     0.022 A 
BRANCH  72  76
ATOM     76  S   UNL A   1      45.496  29.850  26.667  1.00  0.00     0.124 S 
ATOM     77  O   UNL A   1      46.230  29.288  27.797  1.00  0.00    -0.237 OA
ATOM     78  O   UNL A   1      44.323  29.103  26.223  1.00  0.00    -0.237 OA
ATOM     79  O   UNL A   1      46.318  30.416  25.602  1.00  0.00    -0.744 OA
ENDBRANCH  72  76
ENDBRANCH  55  69
BRANCH  56  80
ATOM     80  C   UNL A   1      43.833  38.550  34.554  1.00  0.00     0.023 A 
ATOM     81  C   UNL A   1      43.419  39.342  33.456  1.00  0.00     0.031 A 
ATOM     82  C   UNL A   1      44.290  39.257  35.690  1.00  0.00     0.131 A 
ATOM     83  C   UNL A   1      43.479  40.760  33.527  1.00  0.00     0.055 A 
ATOM     84  C   UNL A   1      44.347  40.653  35.755  1.00  0.00     0.041 A 
ATOM     85  F   UNL A   1      44.620  38.616  36.822  1.00  0.00    -0.206 F 
ATOM     86  C   UNL A   1      43.933  41.413  34.675  1.00  0.00     0.022 A 
BRANCH  83  87
ATOM     87  S   UNL A   1      42.881  41.800  32.147  1.00  0.00     0.124 S 
ATOM     88  O   UNL A   1      41.497  41.362  32.007  1.00  0.00    -0.237 OA
ATOM     89  O   UNL A   1      43.088  43.150  32.657  1.00  0.00    -0.237 OA
ATOM     90  O   UNL A   1      43.757  41.428  31.034  1.00  0.00    -0.744 OA
ENDBRANCH  83  87
ENDBRANCH  56  80
BRANCH  68  91
ATOM     91  C   UNL A   1      44.553  32.326  35.823  1.00  0.00     0.023 A 
ATOM     92  C   UNL A   1      43.498  32.602  36.725  1.00  0.00     0.031 A 
ATOM     93  C   UNL A   1      45.626  31.550  36.301  1.00  0.00     0.131 A 
ATOM     94  C   UNL A   1      43.550  32.104  38.046  1.00  0.00     0.055 A 
ATOM     95  C   UNL A   1      45.662  31.042  37.598  1.00  0.00     0.041 A 
ATOM     96  F   UNL A   1      46.647  31.229  35.489  1.00  0.00    -0.206 F 
ATOM     97  C   UNL A   1      44.625  31.321  38.478  1.00  0.00     0.022 A 
BRANCH  94  98
ATOM     98  S   UNL A   1      42.224  32.475  39.243  1.00  0.00     0.124 S 
ATOM     99  O   UNL A   1      42.472  33.863  39.610  1.00  0.00    -0.237 OA
ATOM    100  O   UNL A   1      41.014  32.224  38.464  1.00  0.00    -0.237 OA
ATOM    101  O   UNL A   1      42.460  31.510  40.320  1.00  0.00    -0.744 OA
ENDBRANCH  94  98
ENDBRANCH  68  91
ENDBRANCH  42  43
ENDBRANCH  34  37
ENDBRANCH  32  33
ENDBRANCH   1  32
TORSDOF 17
ENDMDL
