MODEL 1
REMARK VINA RESULT:     -12.0      0.000      0.000
REMARK SMILES O=C(NCCCNC(=O)C1(CCc2ccccn2)CCCCC1)c1ccc(-c2c3nc(c(-c4cc(S(=O)(=O)[O-])ccc4F)c4ccc([nH]4)c(-c4cc(S(=O)(=O)[O-])ccc4F)c4nc(c(-c5cc(S(=O)(=O)[O-])ccc5F)c5ccc2[nH]5)C=C4)C=C3)cc1
REMARK SMILES IDX 5 1 4 2 3 3 1 4 2 5 24 7 25 8 86 9 26 10 85 11 27 12 28 13
REMARK SMILES IDX 29 14 79 15 30 16 84 17 78 18 80 19 31 20 83 21 77 22 76 23
REMARK SMILES IDX 32 25 64 26 44 27 63 28 45 29 48 30 62 31 81 32 46 33 47 34
REMARK SMILES IDX 61 36 82 37 49 38 33 39 34 40 42 41 35 42 41 43 43 44 40 45
REMARK SMILES IDX 36 46 37 47 38 48 39 49 65 50 66 51 74 52 67 53 73 54 75 55
REMARK SMILES IDX 72 56 68 57 69 58 70 59 71 60 50 61 51 62 59 63 52 64 58 65
REMARK SMILES IDX 60 66 57 67 53 68 54 69 55 70 56 71 6 72 7 73 8 74 9 76
REMARK SMILES IDX 10 77 19 78 23 79 20 80 22 81 21 82 11 83 12 84 13 85 14 86
REMARK SMILES IDX 18 87 15 88 17 89 16 90
REMARK H PARENT 3 6 80 24 48 35 7 75
REMARK Flexibility Score: inf
ROOT
ATOM      1  C   UNL A   1      31.839  31.432  26.699  1.00  0.00     0.042 C 
ENDROOT
BRANCH   1   2
ATOM      2  C   UNL A   1      32.986  32.147  27.390  1.00  0.00     0.118 C 
BRANCH   2   3
ATOM      3  N   UNL A   1      32.732  33.577  27.599  1.00  0.00    -0.352 N 
ATOM      4  O   UNL A   1      32.904  35.582  28.631  1.00  0.00    -0.269 OA
ATOM      5  C   UNL A   1      33.295  34.424  28.523  1.00  0.00     0.251 C 
ATOM      6  H   UNL A   1      32.069  33.985  26.996  1.00  0.00     0.163 HD
BRANCH   5   7
ATOM      7  C   UNL A   1      34.353  33.893  29.398  1.00  0.00     0.039 A 
ATOM      8  C   UNL A   1      35.683  34.194  29.109  1.00  0.00     0.014 A 
ATOM      9  C   UNL A   1      34.025  33.010  30.429  1.00  0.00     0.014 A 
ATOM     10  C   UNL A   1      36.685  33.455  29.708  1.00  0.00     0.010 A 
ATOM     11  C   UNL A   1      35.048  32.363  31.124  1.00  0.00     0.010 A 
ATOM     12  C   UNL A   1      36.384  32.550  30.739  1.00  0.00    -0.014 A 
BRANCH  12  13
ATOM     13  C   UNL A   1      37.513  31.873  31.420  1.00  0.00     0.031 A 
ATOM     14  C   UNL A   1      38.357  30.852  30.711  1.00  0.00     0.074 A 
ATOM     15  C   UNL A   1      37.814  32.276  32.671  1.00  0.00     0.049 A 
ATOM     16  N   UNL A   1      39.402  30.203  31.155  1.00  0.00    -0.248 NA
ATOM     17  C   UNL A   1      37.975  30.503  29.334  1.00  0.00     0.031 C 
ATOM     18  C   UNL A   1      37.047  33.264  33.439  1.00  0.00     0.029 A 
ATOM     19  N   UNL A   1      38.856  31.956  33.497  1.00  0.00    -0.354 N 
ATOM     20  C   UNL A   1      39.790  29.351  30.126  1.00  0.00     0.074 A 
ATOM     21  C   UNL A   1      38.853  29.552  29.040  1.00  0.00     0.031 C 
ATOM     22  C   UNL A   1      37.691  33.533  34.581  1.00  0.00     0.029 A 
ATOM     23  C   UNL A   1      38.858  32.669  34.674  1.00  0.00     0.049 A 
ATOM     24  H   UNL A   1      39.537  31.282  33.273  1.00  0.00     0.167 HD
ATOM     25  C   UNL A   1      40.833  28.484  30.100  1.00  0.00     0.034 A 
ATOM     26  C   UNL A   1      39.696  32.618  35.725  1.00  0.00     0.034 A 
ATOM     27  C   UNL A   1      41.757  28.313  31.199  1.00  0.00     0.049 A 
ATOM     28  C   UNL A   1      40.847  31.655  35.661  1.00  0.00     0.074 A 
ATOM     29  C   UNL A   1      42.838  27.455  31.296  1.00  0.00     0.029 A 
ATOM     30  N   UNL A   1      41.710  29.024  32.394  1.00  0.00    -0.354 N 
ATOM     31  N   UNL A   1      41.175  30.831  34.692  1.00  0.00    -0.248 NA
ATOM     32  C   UNL A   1      41.733  31.612  36.826  1.00  0.00     0.031 C 
ATOM     33  C   UNL A   1      43.413  27.611  32.563  1.00  0.00     0.029 A 
ATOM     34  C   UNL A   1      42.731  28.611  33.237  1.00  0.00     0.049 A 
ATOM     35  H   UNL A   1      41.047  29.718  32.610  1.00  0.00     0.167 HD
ATOM     36  C   UNL A   1      42.305  30.159  35.139  1.00  0.00     0.074 A 
ATOM     37  C   UNL A   1      42.628  30.716  36.440  1.00  0.00     0.031 C 
ATOM     38  C   UNL A   1      43.005  29.161  34.543  1.00  0.00     0.034 A 
BRANCH  25  39
ATOM     39  C   UNL A   1      40.996  27.620  28.871  1.00  0.00     0.023 A 
ATOM     40  C   UNL A   1      42.011  27.853  27.927  1.00  0.00     0.031 A 
ATOM     41  C   UNL A   1      40.114  26.549  28.638  1.00  0.00     0.131 A 
ATOM     42  C   UNL A   1      42.088  27.058  26.770  1.00  0.00     0.055 A 
ATOM     43  C   UNL A   1      40.237  25.721  27.520  1.00  0.00     0.041 A 
ATOM     44  F   UNL A   1      39.112  26.293  29.493  1.00  0.00    -0.206 F 
ATOM     45  C   UNL A   1      41.223  25.979  26.573  1.00  0.00     0.022 A 
BRANCH  42  46
ATOM     46  S   UNL A   1      43.269  27.519  25.472  1.00  0.00     0.124 S 
ATOM     47  O   UNL A   1      43.963  28.647  26.089  1.00  0.00    -0.237 OA
ATOM     48  O   UNL A   1      44.053  26.299  25.310  1.00  0.00    -0.237 OA
ATOM     49  O   UNL A   1      42.416  27.866  24.338  1.00  0.00    -0.744 OA
ENDBRANCH  42  46
ENDBRANCH  25  39
BRANCH  26  50
ATOM     50  C   UNL A   1      39.441  33.457  36.929  1.00  0.00     0.023 A 
ATOM     51  C   UNL A   1      38.855  32.919  38.084  1.00  0.00     0.031 A 
ATOM     52  C   UNL A   1      39.775  34.825  36.935  1.00  0.00     0.131 A 
ATOM     53  C   UNL A   1      38.588  33.750  39.183  1.00  0.00     0.055 A 
ATOM     54  C   UNL A   1      39.561  35.633  38.051  1.00  0.00     0.041 A 
ATOM     55  F   UNL A   1      40.343  35.390  35.858  1.00  0.00    -0.206 F 
ATOM     56  C   UNL A   1      38.952  35.098  39.180  1.00  0.00     0.022 A 
BRANCH  53  57
ATOM     57  S   UNL A   1      37.675  33.062  40.591  1.00  0.00     0.124 S 
ATOM     58  O   UNL A   1      37.990  34.016  41.648  1.00  0.00    -0.237 OA
ATOM     59  O   UNL A   1      36.302  33.082  40.096  1.00  0.00    -0.237 OA
ATOM     60  O   UNL A   1      38.258  31.733  40.756  1.00  0.00    -0.744 OA
ENDBRANCH  53  57
ENDBRANCH  26  50
BRANCH  38  61
ATOM     61  C   UNL A   1      44.180  28.627  35.320  1.00  0.00     0.023 A 
ATOM     62  C   UNL A   1      44.034  27.545  36.205  1.00  0.00     0.031 A 
ATOM     63  C   UNL A   1      45.437  29.248  35.226  1.00  0.00     0.131 A 
ATOM     64  C   UNL A   1      45.107  27.164  37.020  1.00  0.00     0.055 A 
ATOM     65  C   UNL A   1      46.520  28.822  35.997  1.00  0.00     0.041 A 
ATOM     66  F   UNL A   1      45.626  30.287  34.397  1.00  0.00    -0.206 F 
ATOM     67  C   UNL A   1      46.353  27.788  36.914  1.00  0.00     0.022 A 
BRANCH  64  68
ATOM     68  S   UNL A   1      44.815  25.921  38.309  1.00  0.00     0.124 S 
ATOM     69  O   UNL A   1      43.863  25.027  37.659  1.00  0.00    -0.237 OA
ATOM     70  O   UNL A   1      46.152  25.379  38.528  1.00  0.00    -0.237 OA
ATOM     71  O   UNL A   1      44.273  26.701  39.421  1.00  0.00    -0.744 OA
ENDBRANCH  64  68
ENDBRANCH  38  61
ENDBRANCH  12  13
ENDBRANCH   5   7
ENDBRANCH   2   3
ENDBRANCH   1   2
BRANCH   1  72
ATOM     72  C   UNL A   1      32.235  30.031  26.293  1.00  0.00     0.117 C 
BRANCH  72  73
ATOM     73  N   UNL A   1      32.971  29.967  25.055  1.00  0.00    -0.356 N 
ATOM     74  C   UNL A   1      33.187  28.950  24.183  1.00  0.00     0.226 C 
ATOM     75  H   UNL A   1      33.395  30.817  24.795  1.00  0.00     0.163 HD
ATOM     76  O   UNL A   1      33.643  29.289  23.084  1.00  0.00    -0.274 OA
BRANCH  74  77
ATOM     77  C   UNL A   1      32.910  27.454  24.521  1.00  0.00     0.050 C 
ATOM     78  C   UNL A   1      33.483  26.682  23.272  1.00  0.00     0.017 C 
ATOM     79  C   UNL A   1      33.713  26.982  25.766  1.00  0.00     0.017 C 
ATOM     80  C   UNL A   1      33.639  25.176  23.444  1.00  0.00     0.001 C 
ATOM     81  C   UNL A   1      33.938  25.474  25.895  1.00  0.00     0.001 C 
ATOM     82  C   UNL A   1      34.525  24.866  24.636  1.00  0.00     0.000 C 
BRANCH  77  83
ATOM     83  C   UNL A   1      31.379  27.125  24.594  1.00  0.00     0.023 C 
BRANCH  83  84
ATOM     84  C   UNL A   1      30.542  26.878  23.319  1.00  0.00     0.057 C 
BRANCH  84  85
ATOM     85  C   UNL A   1      29.657  28.015  22.859  1.00  0.00     0.040 A 
ATOM     86  C   UNL A   1      28.295  28.021  23.170  1.00  0.00     0.024 A 
ATOM     87  N   UNL A   1      30.232  29.022  22.166  1.00  0.00    -0.261 NA
ATOM     88  C   UNL A   1      27.536  29.148  22.858  1.00  0.00     0.003 A 
ATOM     89  C   UNL A   1      29.476  30.103  21.876  1.00  0.00     0.111 A 
ATOM     90  C   UNL A   1      28.139  30.219  22.213  1.00  0.00     0.020 A 
ENDBRANCH  84  85
ENDBRANCH  83  84
ENDBRANCH  77  83
ENDBRANCH  74  77
ENDBRANCH  72  73
ENDBRANCH   1  72
TORSDOF 16
ENDMDL
MODEL 2
REMARK VINA RESULT:     -12.0      2.448      8.577
REMARK SMILES O=C(NCCCNC(=O)C1(CCc2ccccn2)CCCCC1)c1ccc(-c2c3nc(c(-c4cc(S(=O)(=O)[O-])ccc4F)c4ccc([nH]4)c(-c4cc(S(=O)(=O)[O-])ccc4F)c4nc(c(-c5cc(S(=O)(=O)[O-])ccc5F)c5ccc2[nH]5)C=C4)C=C3)cc1
REMARK SMILES IDX 5 1 4 2 3 3 1 4 2 5 24 7 25 8 86 9 26 10 85 11 27 12 28 13
REMARK SMILES IDX 29 14 79 15 30 16 84 17 78 18 80 19 31 20 83 21 77 22 76 23
REMARK SMILES IDX 32 25 64 26 44 27 63 28 45 29 48 30 62 31 81 32 46 33 47 34
REMARK SMILES IDX 61 36 82 37 49 38 33 39 34 40 42 41 35 42 41 43 43 44 40 45
REMARK SMILES IDX 36 46 37 47 38 48 39 49 65 50 66 51 74 52 67 53 73 54 75 55
REMARK SMILES IDX 72 56 68 57 69 58 70 59 71 60 50 61 51 62 59 63 52 64 58 65
REMARK SMILES IDX 60 66 57 67 53 68 54 69 55 70 56 71 6 72 7 73 8 74 9 76
REMARK SMILES IDX 10 77 19 78 23 79 20 80 22 81 21 82 11 83 12 84 13 85 14 86
REMARK SMILES IDX 18 87 15 88 17 89 16 90
REMARK H PARENT 3 6 80 24 48 35 7 75
REMARK Flexibility Score: inf
ROOT
ATOM      1  C   UNL A   1      33.467  29.056  23.979  1.00  0.00     0.042 C 
ENDROOT
BRANCH   1   2
ATOM      2  C   UNL A   1      33.202  29.036  25.473  1.00  0.00     0.118 C 
BRANCH   2   3
ATOM      3  N   UNL A   1      32.652  30.299  25.979  1.00  0.00    -0.352 N 
ATOM      4  O   UNL A   1      32.548  32.130  27.302  1.00  0.00    -0.269 OA
ATOM      5  C   UNL A   1      33.182  31.153  26.916  1.00  0.00     0.251 C 
ATOM      6  H   UNL A   1      31.787  30.571  25.596  1.00  0.00     0.163 HD
BRANCH   5   7
ATOM      7  C   UNL A   1      34.512  30.842  27.465  1.00  0.00     0.039 A 
ATOM      8  C   UNL A   1      34.770  29.550  27.922  1.00  0.00     0.014 A 
ATOM      9  C   UNL A   1      35.453  31.862  27.627  1.00  0.00     0.014 A 
ATOM     10  C   UNL A   1      35.873  29.328  28.722  1.00  0.00     0.010 A 
ATOM     11  C   UNL A   1      36.633  31.596  28.325  1.00  0.00     0.010 A 
ATOM     12  C   UNL A   1      36.830  30.339  28.914  1.00  0.00    -0.014 A 
BRANCH  12  13
ATOM     13  C   UNL A   1      38.049  30.002  29.688  1.00  0.00     0.031 A 
ATOM     14  C   UNL A   1      38.225  30.459  31.109  1.00  0.00     0.074 A 
ATOM     15  C   UNL A   1      38.952  29.193  29.102  1.00  0.00     0.049 A 
ATOM     16  N   UNL A   1      39.211  30.213  31.932  1.00  0.00    -0.248 NA
ATOM     17  C   UNL A   1      37.167  31.307  31.679  1.00  0.00     0.031 C 
ATOM     18  C   UNL A   1      38.863  28.702  27.721  1.00  0.00     0.029 A 
ATOM     19  N   UNL A   1      40.085  28.601  29.588  1.00  0.00    -0.354 N 
ATOM     20  C   UNL A   1      38.911  30.895  33.106  1.00  0.00     0.074 A 
ATOM     21  C   UNL A   1      37.656  31.582  32.881  1.00  0.00     0.031 C 
ATOM     22  C   UNL A   1      39.844  27.817  27.503  1.00  0.00     0.029 A 
ATOM     23  C   UNL A   1      40.688  27.753  28.687  1.00  0.00     0.049 A 
ATOM     24  H   UNL A   1      40.435  28.764  30.493  1.00  0.00     0.167 HD
ATOM     25  C   UNL A   1      39.623  30.938  34.259  1.00  0.00     0.034 A 
ATOM     26  C   UNL A   1      41.811  27.019  28.793  1.00  0.00     0.034 A 
ATOM     27  C   UNL A   1      40.870  30.232  34.455  1.00  0.00     0.049 A 
ATOM     28  C   UNL A   1      42.571  27.081  30.087  1.00  0.00     0.074 A 
ATOM     29  C   UNL A   1      41.689  30.213  35.570  1.00  0.00     0.029 A 
ATOM     30  N   UNL A   1      41.474  29.411  33.509  1.00  0.00    -0.354 N 
ATOM     31  N   UNL A   1      42.288  27.762  31.174  1.00  0.00    -0.248 NA
ATOM     32  C   UNL A   1      43.796  26.283  30.166  1.00  0.00     0.031 C 
ATOM     33  C   UNL A   1      42.809  29.424  35.282  1.00  0.00     0.029 A 
ATOM     34  C   UNL A   1      42.661  28.897  34.009  1.00  0.00     0.049 A 
ATOM     35  H   UNL A   1      41.112  29.223  32.613  1.00  0.00     0.167 HD
ATOM     36  C   UNL A   1      43.313  27.482  32.068  1.00  0.00     0.074 A 
ATOM     37  C   UNL A   1      44.187  26.529  31.407  1.00  0.00     0.031 C 
ATOM     38  C   UNL A   1      43.529  27.977  33.313  1.00  0.00     0.034 A 
BRANCH  25  39
ATOM     39  C   UNL A   1      39.101  31.815  35.374  1.00  0.00     0.023 A 
ATOM     40  C   UNL A   1      38.491  31.278  36.520  1.00  0.00     0.031 A 
ATOM     41  C   UNL A   1      39.210  33.215  35.281  1.00  0.00     0.131 A 
ATOM     42  C   UNL A   1      37.969  32.135  37.504  1.00  0.00     0.055 A 
ATOM     43  C   UNL A   1      38.750  34.060  36.293  1.00  0.00     0.041 A 
ATOM     44  F   UNL A   1      39.764  33.785  34.200  1.00  0.00    -0.206 F 
ATOM     45  C   UNL A   1      38.116  33.522  37.409  1.00  0.00     0.022 A 
BRANCH  42  46
ATOM     46  S   UNL A   1      37.000  31.420  38.861  1.00  0.00     0.124 S 
ATOM     47  O   UNL A   1      37.915  31.572  39.990  1.00  0.00    -0.237 OA
ATOM     48  O   UNL A   1      35.813  32.269  38.884  1.00  0.00    -0.237 OA
ATOM     49  O   UNL A   1      36.772  30.042  38.432  1.00  0.00    -0.744 OA
ENDBRANCH  42  46
ENDBRANCH  25  39
BRANCH  26  50
ATOM     50  C   UNL A   1      42.298  26.222  27.634  1.00  0.00     0.023 A 
ATOM     51  C   UNL A   1      41.937  24.877  27.468  1.00  0.00     0.031 A 
ATOM     52  C   UNL A   1      43.149  26.799  26.672  1.00  0.00     0.131 A 
ATOM     53  C   UNL A   1      42.452  24.144  26.387  1.00  0.00     0.055 A 
ATOM     54  C   UNL A   1      43.611  26.083  25.567  1.00  0.00     0.041 A 
ATOM     55  F   UNL A   1      43.522  28.084  26.779  1.00  0.00    -0.206 F 
ATOM     56  C   UNL A   1      43.272  24.742  25.428  1.00  0.00     0.022 A 
BRANCH  53  57
ATOM     57  S   UNL A   1      42.104  22.367  26.298  1.00  0.00     0.124 S 
ATOM     58  O   UNL A   1      42.650  21.890  27.565  1.00  0.00    -0.237 OA
ATOM     59  O   UNL A   1      40.650  22.351  26.180  1.00  0.00    -0.237 OA
ATOM     60  O   UNL A   1      42.830  21.938  25.106  1.00  0.00    -0.744 OA
ENDBRANCH  53  57
ENDBRANCH  26  50
BRANCH  38  61
ATOM     61  C   UNL A   1      44.767  27.481  34.013  1.00  0.00     0.023 A 
ATOM     62  C   UNL A   1      44.733  26.328  34.817  1.00  0.00     0.031 A 
ATOM     63  C   UNL A   1      45.969  28.202  33.931  1.00  0.00     0.131 A 
ATOM     64  C   UNL A   1      45.859  25.972  35.569  1.00  0.00     0.055 A 
ATOM     65  C   UNL A   1      47.107  27.807  34.636  1.00  0.00     0.041 A 
ATOM     66  F   UNL A   1      46.051  29.312  33.179  1.00  0.00    -0.206 F 
ATOM     67  C   UNL A   1      47.050  26.697  35.475  1.00  0.00     0.022 A 
BRANCH  64  68
ATOM     68  S   UNL A   1      45.707  24.619  36.767  1.00  0.00     0.124 S 
ATOM     69  O   UNL A   1      45.006  23.602  35.989  1.00  0.00    -0.237 OA
ATOM     70  O   UNL A   1      47.100  24.328  37.088  1.00  0.00    -0.237 OA
ATOM     71  O   UNL A   1      44.930  25.210  37.856  1.00  0.00    -0.744 OA
ENDBRANCH  64  68
ENDBRANCH  38  61
ENDBRANCH  12  13
ENDBRANCH   5   7
ENDBRANCH   2   3
ENDBRANCH   1   2
BRANCH   1  72
ATOM     72  C   UNL A   1      32.419  28.266  23.227  1.00  0.00     0.117 C 
BRANCH  72  73
ATOM     73  N   UNL A   1      32.927  27.580  22.066  1.00  0.00    -0.356 N 
ATOM     74  C   UNL A   1      33.044  26.259  21.777  1.00  0.00     0.226 C 
ATOM     75  H   UNL A   1      33.247  28.178  21.352  1.00  0.00     0.163 HD
ATOM     76  O   UNL A   1      33.278  26.001  20.590  1.00  0.00    -0.274 OA
BRANCH  74  77
ATOM     77  C   UNL A   1      32.921  25.131  22.844  1.00  0.00     0.050 C 
ATOM     78  C   UNL A   1      31.367  25.001  23.067  1.00  0.00     0.017 C 
ATOM     79  C   UNL A   1      33.427  23.763  22.304  1.00  0.00     0.017 C 
ATOM     80  C   UNL A   1      30.911  23.764  23.830  1.00  0.00     0.001 C 
ATOM     81  C   UNL A   1      32.905  22.517  23.021  1.00  0.00     0.001 C 
ATOM     82  C   UNL A   1      31.393  22.504  23.135  1.00  0.00     0.000 C 
BRANCH  77  83
ATOM     83  C   UNL A   1      33.545  25.535  24.225  1.00  0.00     0.023 C 
BRANCH  83  84
ATOM     84  C   UNL A   1      34.777  24.804  24.802  1.00  0.00     0.057 C 
BRANCH  84  85
ATOM     85  C   UNL A   1      34.502  23.662  25.754  1.00  0.00     0.040 A 
ATOM     86  C   UNL A   1      33.384  23.692  26.592  1.00  0.00     0.024 A 
ATOM     87  N   UNL A   1      35.355  22.614  25.747  1.00  0.00    -0.261 NA
ATOM     88  C   UNL A   1      33.079  22.565  27.353  1.00  0.00     0.003 A 
ATOM     89  C   UNL A   1      35.037  21.533  26.492  1.00  0.00     0.111 A 
ATOM     90  C   UNL A   1      33.911  21.455  27.291  1.00  0.00     0.020 A 
ENDBRANCH  84  85
ENDBRANCH  83  84
ENDBRANCH  77  83
ENDBRANCH  74  77
ENDBRANCH  72  73
ENDBRANCH   1  72
TORSDOF 16
ENDMDL
MODEL 3
REMARK VINA RESULT:     -12.0      6.253     12.227
REMARK SMILES O=C(NCCCNC(=O)C1(CCc2ccccn2)CCCCC1)c1ccc(-c2c3nc(c(-c4cc(S(=O)(=O)[O-])ccc4F)c4ccc([nH]4)c(-c4cc(S(=O)(=O)[O-])ccc4F)c4nc(c(-c5cc(S(=O)(=O)[O-])ccc5F)c5ccc2[nH]5)C=C4)C=C3)cc1
REMARK SMILES IDX 5 1 4 2 3 3 1 4 2 5 24 7 25 8 86 9 26 10 85 11 27 12 28 13
REMARK SMILES IDX 29 14 79 15 30 16 84 17 78 18 80 19 31 20 83 21 77 22 76 23
REMARK SMILES IDX 32 25 64 26 44 27 63 28 45 29 48 30 62 31 81 32 46 33 47 34
REMARK SMILES IDX 61 36 82 37 49 38 33 39 34 40 42 41 35 42 41 43 43 44 40 45
REMARK SMILES IDX 36 46 37 47 38 48 39 49 65 50 66 51 74 52 67 53 73 54 75 55
REMARK SMILES IDX 72 56 68 57 69 58 70 59 71 60 50 61 51 62 59 63 52 64 58 65
REMARK SMILES IDX 60 66 57 67 53 68 54 69 55 70 56 71 6 72 7 73 8 74 9 76
REMARK SMILES IDX 10 77 19 78 23 79 20 80 22 81 21 82 11 83 12 84 13 85 14 86
REMARK SMILES IDX 18 87 15 88 17 89 16 90
REMARK H PARENT 3 6 80 24 48 35 7 75
REMARK Flexibility Score: inf
ROOT
ATOM      1  C   UNL A   1      38.116  20.150  25.035  1.00  0.00     0.042 C 
ENDROOT
BRANCH   1   2
ATOM      2  C   UNL A   1      39.333  20.500  25.872  1.00  0.00     0.118 C 
BRANCH   2   3
ATOM      3  N   UNL A   1      40.265  19.378  26.032  1.00  0.00    -0.352 N 
ATOM      4  O   UNL A   1      42.280  18.373  26.245  1.00  0.00    -0.269 OA
ATOM      5  C   UNL A   1      41.625  19.411  26.222  1.00  0.00     0.251 C 
ATOM      6  H   UNL A   1      39.861  18.481  25.999  1.00  0.00     0.163 HD
BRANCH   5   7
ATOM      7  C   UNL A   1      42.275  20.724  26.363  1.00  0.00     0.039 A 
ATOM      8  C   UNL A   1      42.402  21.283  27.635  1.00  0.00     0.014 A 
ATOM      9  C   UNL A   1      42.650  21.441  25.224  1.00  0.00     0.014 A 
ATOM     10  C   UNL A   1      42.705  22.625  27.752  1.00  0.00     0.010 A 
ATOM     11  C   UNL A   1      43.083  22.761  25.361  1.00  0.00     0.010 A 
ATOM     12  C   UNL A   1      43.072  23.375  26.622  1.00  0.00    -0.014 A 
BRANCH  12  13
ATOM     13  C   UNL A   1      43.496  24.780  26.830  1.00  0.00     0.031 A 
ATOM     14  C   UNL A   1      42.567  25.798  27.426  1.00  0.00     0.074 A 
ATOM     15  C   UNL A   1      44.778  25.089  26.550  1.00  0.00     0.049 A 
ATOM     16  N   UNL A   1      42.800  27.054  27.709  1.00  0.00    -0.248 NA
ATOM     17  C   UNL A   1      41.197  25.359  27.736  1.00  0.00     0.031 C 
ATOM     18  C   UNL A   1      45.753  24.160  25.965  1.00  0.00     0.029 A 
ATOM     19  N   UNL A   1      45.498  26.233  26.758  1.00  0.00    -0.354 N 
ATOM     20  C   UNL A   1      41.605  27.565  28.204  1.00  0.00     0.074 A 
ATOM     21  C   UNL A   1      40.641  26.485  28.164  1.00  0.00     0.031 C 
ATOM     22  C   UNL A   1      46.959  24.741  25.945  1.00  0.00     0.029 A 
ATOM     23  C   UNL A   1      46.826  26.111  26.419  1.00  0.00     0.049 A 
ATOM     24  H   UNL A   1      45.106  27.061  27.115  1.00  0.00     0.167 HD
ATOM     25  C   UNL A   1      41.347  28.820  28.647  1.00  0.00     0.034 A 
ATOM     26  C   UNL A   1      47.826  27.011  26.464  1.00  0.00     0.034 A 
ATOM     27  C   UNL A   1      42.336  29.874  28.682  1.00  0.00     0.049 A 
ATOM     28  C   UNL A   1      47.509  28.388  26.969  1.00  0.00     0.074 A 
ATOM     29  C   UNL A   1      42.188  31.187  29.092  1.00  0.00     0.029 A 
ATOM     30  N   UNL A   1      43.664  29.730  28.296  1.00  0.00    -0.354 N 
ATOM     31  N   UNL A   1      46.362  28.862  27.399  1.00  0.00    -0.248 NA
ATOM     32  C   UNL A   1      48.614  29.349  26.992  1.00  0.00     0.031 C 
ATOM     33  C   UNL A   1      43.409  31.848  28.908  1.00  0.00     0.029 A 
ATOM     34  C   UNL A   1      44.339  30.932  28.443  1.00  0.00     0.049 A 
ATOM     35  H   UNL A   1      44.066  28.895  27.965  1.00  0.00     0.167 HD
ATOM     36  C   UNL A   1      46.605  30.188  27.734  1.00  0.00     0.074 A 
ATOM     37  C   UNL A   1      48.021  30.416  27.505  1.00  0.00     0.031 C 
ATOM     38  C   UNL A   1      45.742  31.138  28.172  1.00  0.00     0.034 A 
BRANCH  25  39
ATOM     39  C   UNL A   1      39.932  29.135  29.077  1.00  0.00     0.023 A 
ATOM     40  C   UNL A   1      39.559  29.184  30.431  1.00  0.00     0.031 A 
ATOM     41  C   UNL A   1      38.939  29.382  28.111  1.00  0.00     0.131 A 
ATOM     42  C   UNL A   1      38.219  29.424  30.781  1.00  0.00     0.055 A 
ATOM     43  C   UNL A   1      37.623  29.686  28.467  1.00  0.00     0.041 A 
ATOM     44  F   UNL A   1      39.232  29.326  26.803  1.00  0.00    -0.206 F 
ATOM     45  C   UNL A   1      37.254  29.699  29.808  1.00  0.00     0.022 A 
BRANCH  42  46
ATOM     46  S   UNL A   1      37.729  29.268  32.521  1.00  0.00     0.124 S 
ATOM     47  O   UNL A   1      36.391  29.854  32.505  1.00  0.00    -0.237 OA
ATOM     48  O   UNL A   1      37.792  27.827  32.739  1.00  0.00    -0.237 OA
ATOM     49  O   UNL A   1      38.736  30.051  33.234  1.00  0.00    -0.744 OA
ENDBRANCH  42  46
ENDBRANCH  25  39
BRANCH  26  50
ATOM     50  C   UNL A   1      49.183  26.648  25.970  1.00  0.00     0.023 A 
ATOM     51  C   UNL A   1      49.652  27.099  24.726  1.00  0.00     0.031 A 
ATOM     52  C   UNL A   1      50.033  25.830  26.738  1.00  0.00     0.131 A 
ATOM     53  C   UNL A   1      50.920  26.700  24.273  1.00  0.00     0.055 A 
ATOM     54  C   UNL A   1      51.314  25.485  26.308  1.00  0.00     0.041 A 
ATOM     55  F   UNL A   1      49.636  25.375  27.937  1.00  0.00    -0.206 F 
ATOM     56  C   UNL A   1      51.759  25.910  25.062  1.00  0.00     0.022 A 
BRANCH  53  57
ATOM     57  S   UNL A   1      51.424  27.157  22.592  1.00  0.00     0.124 S 
ATOM     58  O   UNL A   1      52.649  26.383  22.425  1.00  0.00    -0.237 OA
ATOM     59  O   UNL A   1      50.276  26.720  21.805  1.00  0.00    -0.237 OA
ATOM     60  O   UNL A   1      51.607  28.604  22.675  1.00  0.00    -0.744 OA
ENDBRANCH  53  57
ENDBRANCH  26  50
BRANCH  38  61
ATOM     61  C   UNL A   1      46.334  32.501  28.420  1.00  0.00     0.023 A 
ATOM     62  C   UNL A   1      46.527  33.411  27.367  1.00  0.00     0.031 A 
ATOM     63  C   UNL A   1      46.771  32.865  29.705  1.00  0.00     0.131 A 
ATOM     64  C   UNL A   1      47.210  34.611  27.600  1.00  0.00     0.055 A 
ATOM     65  C   UNL A   1      47.397  34.089  29.943  1.00  0.00     0.041 A 
ATOM     66  F   UNL A   1      46.612  32.028  30.743  1.00  0.00    -0.206 F 
ATOM     67  C   UNL A   1      47.636  34.961  28.884  1.00  0.00     0.022 A 
BRANCH  64  68
ATOM     68  S   UNL A   1      47.642  35.651  26.179  1.00  0.00     0.124 S 
ATOM     69  O   UNL A   1      47.475  34.726  25.063  1.00  0.00    -0.237 OA
ATOM     70  O   UNL A   1      46.660  36.726  26.269  1.00  0.00    -0.237 OA
ATOM     71  O   UNL A   1      49.023  36.049  26.453  1.00  0.00    -0.744 OA
ENDBRANCH  64  68
ENDBRANCH  38  61
ENDBRANCH  12  13
ENDBRANCH   5   7
ENDBRANCH   2   3
ENDBRANCH   1   2
BRANCH   1  72
ATOM     72  C   UNL A   1      37.170  21.324  24.929  1.00  0.00     0.117 C 
BRANCH  72  73
ATOM     73  N   UNL A   1      36.315  21.492  26.077  1.00  0.00    -0.356 N 
ATOM     74  C   UNL A   1      34.998  21.803  26.186  1.00  0.00     0.226 C 
ATOM     75  H   UNL A   1      36.769  21.356  26.941  1.00  0.00     0.163 HD
ATOM     76  O   UNL A   1      34.505  21.613  27.305  1.00  0.00    -0.274 OA
BRANCH  74  77
ATOM     77  C   UNL A   1      34.151  22.379  25.012  1.00  0.00     0.050 C 
ATOM     78  C   UNL A   1      33.019  23.198  25.742  1.00  0.00     0.017 C 
ATOM     79  C   UNL A   1      34.964  23.383  24.146  1.00  0.00     0.017 C 
ATOM     80  C   UNL A   1      32.209  24.135  24.855  1.00  0.00     0.001 C 
ATOM     81  C   UNL A   1      34.149  24.377  23.318  1.00  0.00     0.001 C 
ATOM     82  C   UNL A   1      33.122  25.121  24.150  1.00  0.00     0.000 C 
BRANCH  77  83
ATOM     83  C   UNL A   1      33.435  21.260  24.179  1.00  0.00     0.023 C 
BRANCH  83  84
ATOM     84  C   UNL A   1      32.516  20.215  24.847  1.00  0.00     0.057 C 
BRANCH  84  85
ATOM     85  C   UNL A   1      33.006  18.784  24.848  1.00  0.00     0.040 A 
ATOM     86  C   UNL A   1      34.311  18.483  24.447  1.00  0.00     0.024 A 
ATOM     87  N   UNL A   1      32.154  17.824  25.268  1.00  0.00    -0.261 NA
ATOM     88  C   UNL A   1      34.779  17.178  24.594  1.00  0.00     0.003 A 
ATOM     89  C   UNL A   1      32.631  16.568  25.403  1.00  0.00     0.111 A 
ATOM     90  C   UNL A   1      33.930  16.202  25.097  1.00  0.00     0.020 A 
ENDBRANCH  84  85
ENDBRANCH  83  84
ENDBRANCH  77  83
ENDBRANCH  74  77
ENDBRANCH  72  73
ENDBRANCH   1  72
TORSDOF 16
ENDMDL
