MODEL 1
REMARK VINA RESULT:     -12.4      0.000      0.000
REMARK SMILES NS(=O)(=O)c1ccc(/N=N/c2ccc(O)c(C(=O)NCCCNC(=O)c3ccc(-c4c5nc(c(-c6cc(S(=O)(=O)[O-])ccc6F)c6ccc([nH]6)c(-c6cc(S(=O)(=O)[O-])ccc6F)c6nc(c(-c7cc(S(=O)(=O)[O-])ccc7F)c7ccc4[nH]7)C=C6)C=C5)cc3)c2)cc1
REMARK SMILES IDX 20 1 19 2 17 3 18 4 16 6 11 7 12 8 89 9 13 10 14 11 10 12
REMARK SMILES IDX 9 13 8 14 5 15 6 16 91 17 7 18 90 19 2 20 3 21 4 22 1 23
REMARK SMILES IDX 15 26 21 28 22 29 23 30 24 31 25 33 26 34 27 35 88 36 28 37
REMARK SMILES IDX 87 38 29 39 30 40 31 41 81 42 32 43 86 44 80 45 82 46 33 47
REMARK SMILES IDX 85 48 79 49 78 50 34 52 66 53 46 54 65 55 47 56 50 57 64 58
REMARK SMILES IDX 83 59 48 60 49 61 63 63 84 64 51 65 35 66 36 67 44 68 37 69
REMARK SMILES IDX 43 70 45 71 42 72 38 73 39 74 40 75 41 76 67 77 68 78 76 79
REMARK SMILES IDX 69 80 75 81 77 82 74 83 70 84 71 85 72 86 73 87 52 88 53 89
REMARK SMILES IDX 61 90 54 91 60 92 62 93 59 94 55 95 56 96 57 97 58 98
REMARK H PARENT 19 5 1 24 1 25 15 27 23 32 82 51 50 62
REMARK Flexibility Score: inf
ROOT
ATOM      1  C   UNL A   1      35.434  21.436  26.402  1.00  0.00     0.118 C 
ENDROOT
BRANCH   1   2
ATOM      2  N   UNL A   1      34.365  21.800  27.330  1.00  0.00    -0.352 N 
ATOM      3  C   UNL A   1      33.123  22.366  27.159  1.00  0.00     0.255 C 
ATOM      4  O   UNL A   1      32.446  22.605  28.163  1.00  0.00    -0.269 OA
ATOM      5  H   UNL A   1      34.578  21.597  28.269  1.00  0.00     0.163 HD
BRANCH   3   6
ATOM      6  C   UNL A   1      32.569  22.775  25.842  1.00  0.00     0.083 A 
ATOM      7  C   UNL A   1      31.735  24.532  24.352  1.00  0.00     0.087 A 
ATOM      8  C   UNL A   1      31.205  23.548  23.512  1.00  0.00     0.034 A 
ATOM      9  C   UNL A   1      32.509  24.109  25.447  1.00  0.00     0.048 A 
ATOM     10  C   UNL A   1      31.419  22.191  23.785  1.00  0.00     0.049 A 
ATOM     11  C   UNL A   1      32.079  21.810  24.954  1.00  0.00     0.128 A 
BRANCH   7  12
ATOM     12  N   UNL A   1      31.434  25.903  24.116  1.00  0.00    -0.151 NA
ATOM     13  N   UNL A   1      30.222  26.115  24.337  1.00  0.00    -0.151 NA
BRANCH  13  14
ATOM     14  C   UNL A   1      29.746  27.386  23.990  1.00  0.00     0.086 A 
ATOM     15  C   UNL A   1      28.763  29.788  22.933  1.00  0.00     0.082 A 
ATOM     16  C   UNL A   1      27.937  28.665  22.973  1.00  0.00     0.024 A 
ATOM     17  C   UNL A   1      30.076  29.724  23.410  1.00  0.00     0.024 A 
ATOM     18  C   UNL A   1      28.434  27.472  23.500  1.00  0.00     0.031 A 
ATOM     19  C   UNL A   1      30.562  28.523  23.939  1.00  0.00     0.031 A 
BRANCH  15  20
ATOM     20  S   UNL A   1      28.162  31.292  22.221  1.00  0.00     0.238 S 
ATOM     21  O   UNL A   1      27.229  31.915  23.134  1.00  0.00    -0.207 OA
ATOM     22  O   UNL A   1      27.870  31.070  20.829  1.00  0.00    -0.207 OA
BRANCH  20  23
ATOM     23  N   UNL A   1      29.530  32.268  22.263  1.00  0.00    -0.225 NA
ATOM     24  H   UNL A   1      29.582  32.742  23.164  1.00  0.00     0.137 HD
ATOM     25  H   UNL A   1      29.476  32.962  21.516  1.00  0.00     0.137 HD
ENDBRANCH  20  23
ENDBRANCH  15  20
ENDBRANCH  13  14
ENDBRANCH   7  12
BRANCH  11  26
ATOM     26  O   UNL A   1      32.218  20.464  25.163  1.00  0.00    -0.507 OA
ATOM     27  H   UNL A   1      31.829  19.854  24.567  1.00  0.00     0.293 HD
ENDBRANCH  11  26
ENDBRANCH   3   6
ENDBRANCH   1   2
BRANCH   1  28
ATOM     28  C   UNL A   1      36.067  22.617  25.683  1.00  0.00     0.042 C 
BRANCH  28  29
ATOM     29  C   UNL A   1      37.254  22.267  24.804  1.00  0.00     0.118 C 
BRANCH  29  30
ATOM     30  N   UNL A   1      38.147  21.293  25.420  1.00  0.00    -0.352 N 
ATOM     31  C   UNL A   1      39.314  21.462  26.128  1.00  0.00     0.251 C 
ATOM     32  H   UNL A   1      37.867  20.355  25.310  1.00  0.00     0.163 HD
ATOM     33  O   UNL A   1      40.019  20.482  26.353  1.00  0.00    -0.269 OA
BRANCH  31  34
ATOM     34  C   UNL A   1      39.732  22.804  26.594  1.00  0.00     0.039 A 
ATOM     35  C   UNL A   1      40.594  22.909  27.692  1.00  0.00     0.014 A 
ATOM     36  C   UNL A   1      39.264  23.961  25.972  1.00  0.00     0.014 A 
ATOM     37  C   UNL A   1      41.043  24.168  28.103  1.00  0.00     0.010 A 
ATOM     38  C   UNL A   1      39.801  25.199  26.306  1.00  0.00     0.010 A 
ATOM     39  C   UNL A   1      40.690  25.321  27.383  1.00  0.00    -0.014 A 
BRANCH  39  40
ATOM     40  C   UNL A   1      41.219  26.662  27.747  1.00  0.00     0.031 A 
ATOM     41  C   UNL A   1      42.651  27.016  27.437  1.00  0.00     0.074 A 
ATOM     42  C   UNL A   1      40.434  27.532  28.414  1.00  0.00     0.049 A 
ATOM     43  N   UNL A   1      43.326  28.090  27.756  1.00  0.00    -0.248 NA
ATOM     44  C   UNL A   1      43.437  26.012  26.702  1.00  0.00     0.031 C 
ATOM     45  C   UNL A   1      39.044  27.287  28.806  1.00  0.00     0.029 A 
ATOM     46  N   UNL A   1      40.690  28.796  28.887  1.00  0.00    -0.354 N 
ATOM     47  C   UNL A   1      44.614  27.886  27.272  1.00  0.00     0.074 A 
ATOM     48  C   UNL A   1      44.644  26.555  26.707  1.00  0.00     0.031 C 
ATOM     49  C   UNL A   1      38.563  28.375  29.428  1.00  0.00     0.029 A 
ATOM     50  C   UNL A   1      39.621  29.373  29.535  1.00  0.00     0.049 A 
ATOM     51  H   UNL A   1      41.558  29.246  28.774  1.00  0.00     0.167 HD
ATOM     52  C   UNL A   1      45.666  28.742  27.272  1.00  0.00     0.034 A 
ATOM     53  C   UNL A   1      39.512  30.562  30.159  1.00  0.00     0.034 A 
ATOM     54  C   UNL A   1      45.615  30.069  27.832  1.00  0.00     0.049 A 
ATOM     55  C   UNL A   1      40.709  31.480  30.183  1.00  0.00     0.074 A 
ATOM     56  C   UNL A   1      46.604  31.036  27.846  1.00  0.00     0.029 A 
ATOM     57  N   UNL A   1      44.517  30.616  28.484  1.00  0.00    -0.354 N 
ATOM     58  N   UNL A   1      41.907  31.290  29.677  1.00  0.00    -0.248 NA
ATOM     59  C   UNL A   1      40.538  32.777  30.850  1.00  0.00     0.031 C 
ATOM     60  C   UNL A   1      46.135  32.134  28.575  1.00  0.00     0.029 A 
ATOM     61  C   UNL A   1      44.819  31.893  28.934  1.00  0.00     0.049 A 
ATOM     62  H   UNL A   1      43.651  30.165  28.607  1.00  0.00     0.167 HD
ATOM     63  C   UNL A   1      42.617  32.459  29.935  1.00  0.00     0.074 A 
ATOM     64  C   UNL A   1      41.709  33.352  30.624  1.00  0.00     0.031 C 
ATOM     65  C   UNL A   1      43.903  32.770  29.627  1.00  0.00     0.034 A 
BRANCH  52  66
ATOM     66  C   UNL A   1      46.964  28.254  26.668  1.00  0.00     0.023 A 
ATOM     67  C   UNL A   1      47.184  28.270  25.279  1.00  0.00     0.031 A 
ATOM     68  C   UNL A   1      47.990  27.753  27.488  1.00  0.00     0.131 A 
ATOM     69  C   UNL A   1      48.363  27.725  24.749  1.00  0.00     0.055 A 
ATOM     70  C   UNL A   1      49.198  27.295  26.960  1.00  0.00     0.041 A 
ATOM     71  F   UNL A   1      47.832  27.689  28.820  1.00  0.00    -0.206 F 
ATOM     72  C   UNL A   1      49.384  27.265  25.581  1.00  0.00     0.022 A 
BRANCH  69  73
ATOM     73  S   UNL A   1      48.477  27.491  22.954  1.00  0.00     0.124 S 
ATOM     74  O   UNL A   1      47.282  28.190  22.490  1.00  0.00    -0.237 OA
ATOM     75  O   UNL A   1      49.752  28.121  22.633  1.00  0.00    -0.237 OA
ATOM     76  O   UNL A   1      48.441  26.039  22.794  1.00  0.00    -0.744 OA
ENDBRANCH  69  73
ENDBRANCH  52  66
BRANCH  53  77
ATOM     77  C   UNL A   1      38.237  30.954  30.830  1.00  0.00     0.023 A 
ATOM     78  C   UNL A   1      37.220  31.618  30.124  1.00  0.00     0.031 A 
ATOM     79  C   UNL A   1      38.037  30.722  32.203  1.00  0.00     0.131 A 
ATOM     80  C   UNL A   1      36.080  32.077  30.803  1.00  0.00     0.055 A 
ATOM     81  C   UNL A   1      36.871  31.119  32.859  1.00  0.00     0.041 A 
ATOM     82  F   UNL A   1      38.975  30.092  32.929  1.00  0.00    -0.206 F 
ATOM     83  C   UNL A   1      35.891  31.816  32.162  1.00  0.00     0.022 A 
BRANCH  80  84
ATOM     84  S   UNL A   1      34.898  33.121  29.906  1.00  0.00     0.124 S 
ATOM     85  O   UNL A   1      35.781  34.113  29.301  1.00  0.00    -0.237 OA
ATOM     86  O   UNL A   1      34.283  32.167  28.990  1.00  0.00    -0.237 OA
ATOM     87  O   UNL A   1      34.023  33.627  30.960  1.00  0.00    -0.744 OA
ENDBRANCH  80  84
ENDBRANCH  53  77
BRANCH  65  88
ATOM     88  C   UNL A   1      44.383  34.155  29.989  1.00  0.00     0.023 A 
ATOM     89  C   UNL A   1      44.183  35.257  29.139  1.00  0.00     0.031 A 
ATOM     90  C   UNL A   1      45.058  34.373  31.204  1.00  0.00     0.131 A 
ATOM     91  C   UNL A   1      44.707  36.512  29.487  1.00  0.00     0.055 A 
ATOM     92  C   UNL A   1      45.512  35.637  31.579  1.00  0.00     0.041 A 
ATOM     93  F   UNL A   1      45.282  33.356  32.053  1.00  0.00    -0.206 F 
ATOM     94  C   UNL A   1      45.350  36.713  30.711  1.00  0.00     0.022 A 
BRANCH  91  95
ATOM     95  S   UNL A   1      44.628  37.854  28.271  1.00  0.00     0.124 S 
ATOM     96  O   UNL A   1      45.600  38.803  28.804  1.00  0.00    -0.237 OA
ATOM     97  O   UNL A   1      45.008  37.179  27.034  1.00  0.00    -0.237 OA
ATOM     98  O   UNL A   1      43.235  38.292  28.334  1.00  0.00    -0.744 OA
ENDBRANCH  91  95
ENDBRANCH  65  88
ENDBRANCH  39  40
ENDBRANCH  31  34
ENDBRANCH  29  30
ENDBRANCH  28  29
ENDBRANCH   1  28
TORSDOF 18
ENDMDL
MODEL 2
REMARK VINA RESULT:     -12.4      5.811      9.269
REMARK SMILES NS(=O)(=O)c1ccc(/N=N/c2ccc(O)c(C(=O)NCCCNC(=O)c3ccc(-c4c5nc(c(-c6cc(S(=O)(=O)[O-])ccc6F)c6ccc([nH]6)c(-c6cc(S(=O)(=O)[O-])ccc6F)c6nc(c(-c7cc(S(=O)(=O)[O-])ccc7F)c7ccc4[nH]7)C=C6)C=C5)cc3)c2)cc1
REMARK SMILES IDX 20 1 19 2 17 3 18 4 16 6 11 7 12 8 89 9 13 10 14 11 10 12
REMARK SMILES IDX 9 13 8 14 5 15 6 16 91 17 7 18 90 19 2 20 3 21 4 22 1 23
REMARK SMILES IDX 15 26 21 28 22 29 23 30 24 31 25 33 26 34 27 35 88 36 28 37
REMARK SMILES IDX 87 38 29 39 30 40 31 41 81 42 32 43 86 44 80 45 82 46 33 47
REMARK SMILES IDX 85 48 79 49 78 50 34 52 66 53 46 54 65 55 47 56 50 57 64 58
REMARK SMILES IDX 83 59 48 60 49 61 63 63 84 64 51 65 35 66 36 67 44 68 37 69
REMARK SMILES IDX 43 70 45 71 42 72 38 73 39 74 40 75 41 76 67 77 68 78 76 79
REMARK SMILES IDX 69 80 75 81 77 82 74 83 70 84 71 85 72 86 73 87 52 88 53 89
REMARK SMILES IDX 61 90 54 91 60 92 62 93 59 94 55 95 56 96 57 97 58 98
REMARK H PARENT 19 5 1 24 1 25 15 27 23 32 82 51 50 62
REMARK Flexibility Score: inf
ROOT
ATOM      1  C   UNL A   1      31.789  30.367  25.846  1.00  0.00     0.118 C 
ENDROOT
BRANCH   1   2
ATOM      2  N   UNL A   1      30.830  30.128  24.769  1.00  0.00    -0.352 N 
ATOM      3  C   UNL A   1      30.763  29.198  23.756  1.00  0.00     0.255 C 
ATOM      4  O   UNL A   1      29.835  29.279  22.948  1.00  0.00    -0.269 OA
ATOM      5  H   UNL A   1      30.077  30.761  24.769  1.00  0.00     0.163 HD
BRANCH   3   6
ATOM      6  C   UNL A   1      31.783  28.140  23.530  1.00  0.00     0.083 A 
ATOM      7  C   UNL A   1      32.462  25.791  23.676  1.00  0.00     0.087 A 
ATOM      8  C   UNL A   1      33.786  26.174  23.449  1.00  0.00     0.034 A 
ATOM      9  C   UNL A   1      31.470  26.785  23.596  1.00  0.00     0.048 A 
ATOM     10  C   UNL A   1      34.103  27.513  23.186  1.00  0.00     0.049 A 
ATOM     11  C   UNL A   1      33.108  28.490  23.247  1.00  0.00     0.128 A 
BRANCH   7  12
ATOM     12  N   UNL A   1      32.164  24.446  24.032  1.00  0.00    -0.151 NA
ATOM     13  N   UNL A   1      33.223  23.787  24.122  1.00  0.00    -0.151 NA
BRANCH  13  14
ATOM     14  C   UNL A   1      33.075  22.406  24.307  1.00  0.00     0.086 A 
ATOM     15  C   UNL A   1      33.166  19.622  24.616  1.00  0.00     0.082 A 
ATOM     16  C   UNL A   1      33.795  20.439  25.554  1.00  0.00     0.024 A 
ATOM     17  C   UNL A   1      32.495  20.178  23.521  1.00  0.00     0.024 A 
ATOM     18  C   UNL A   1      33.746  21.825  25.393  1.00  0.00     0.031 A 
ATOM     19  C   UNL A   1      32.451  21.570  23.372  1.00  0.00     0.031 A 
BRANCH  15  20
ATOM     20  S   UNL A   1      33.262  17.864  24.781  1.00  0.00     0.238 S 
ATOM     21  O   UNL A   1      32.581  17.458  25.991  1.00  0.00    -0.207 OA
ATOM     22  O   UNL A   1      34.594  17.431  24.445  1.00  0.00    -0.207 OA
BRANCH  20  23
ATOM     23  N   UNL A   1      32.271  17.340  23.527  1.00  0.00    -0.225 NA
ATOM     24  H   UNL A   1      31.297  17.525  23.764  1.00  0.00     0.137 HD
ATOM     25  H   UNL A   1      32.403  16.339  23.385  1.00  0.00     0.137 HD
ENDBRANCH  20  23
ENDBRANCH  15  20
ENDBRANCH  13  14
ENDBRANCH   7  12
BRANCH  11  26
ATOM     26  O   UNL A   1      33.507  29.779  23.010  1.00  0.00    -0.507 OA
ATOM     27  H   UNL A   1      33.374  30.439  23.662  1.00  0.00     0.293 HD
ENDBRANCH  11  26
ENDBRANCH   3   6
ENDBRANCH   1   2
BRANCH   1  28
ATOM     28  C   UNL A   1      31.545  31.648  26.626  1.00  0.00     0.042 C 
BRANCH  28  29
ATOM     29  C   UNL A   1      32.791  32.276  27.225  1.00  0.00     0.118 C 
BRANCH  29  30
ATOM     30  N   UNL A   1      32.618  33.689  27.540  1.00  0.00    -0.352 N 
ATOM     31  C   UNL A   1      33.192  34.470  28.516  1.00  0.00     0.251 C 
ATOM     32  H   UNL A   1      31.984  34.164  26.956  1.00  0.00     0.163 HD
ATOM     33  O   UNL A   1      32.721  35.583  28.738  1.00  0.00    -0.269 OA
BRANCH  31  34
ATOM     34  C   UNL A   1      34.342  33.978  29.306  1.00  0.00     0.039 A 
ATOM     35  C   UNL A   1      34.112  33.126  30.393  1.00  0.00     0.014 A 
ATOM     36  C   UNL A   1      35.647  34.367  29.000  1.00  0.00     0.014 A 
ATOM     37  C   UNL A   1      35.195  32.607  31.109  1.00  0.00     0.010 A 
ATOM     38  C   UNL A   1      36.724  33.759  29.636  1.00  0.00     0.010 A 
ATOM     39  C   UNL A   1      36.512  32.879  30.707  1.00  0.00    -0.014 A 
BRANCH  39  40
ATOM     40  C   UNL A   1      37.682  32.275  31.397  1.00  0.00     0.031 A 
ATOM     41  C   UNL A   1      38.422  31.126  30.760  1.00  0.00     0.074 A 
ATOM     42  C   UNL A   1      38.034  32.712  32.623  1.00  0.00     0.049 A 
ATOM     43  N   UNL A   1      39.400  30.403  31.241  1.00  0.00    -0.248 NA
ATOM     44  C   UNL A   1      37.977  30.714  29.420  1.00  0.00     0.031 C 
ATOM     45  C   UNL A   1      37.368  33.789  33.360  1.00  0.00     0.029 A 
ATOM     46  N   UNL A   1      39.034  32.304  33.472  1.00  0.00    -0.354 N 
ATOM     47  C   UNL A   1      39.679  29.448  30.269  1.00  0.00     0.074 A 
ATOM     48  C   UNL A   1      38.715  29.636  29.207  1.00  0.00     0.031 C 
ATOM     49  C   UNL A   1      37.997  33.978  34.530  1.00  0.00     0.029 A 
ATOM     50  C   UNL A   1      39.072  33.000  34.660  1.00  0.00     0.049 A 
ATOM     51  H   UNL A   1      39.664  31.581  33.252  1.00  0.00     0.167 HD
ATOM     52  C   UNL A   1      40.666  28.519  30.251  1.00  0.00     0.034 A 
ATOM     53  C   UNL A   1      39.868  32.854  35.737  1.00  0.00     0.034 A 
ATOM     54  C   UNL A   1      41.624  28.352  31.315  1.00  0.00     0.049 A 
ATOM     55  C   UNL A   1      40.933  31.785  35.710  1.00  0.00     0.074 A 
ATOM     56  C   UNL A   1      42.693  27.475  31.381  1.00  0.00     0.029 A 
ATOM     57  N   UNL A   1      41.628  29.071  32.503  1.00  0.00    -0.354 N 
ATOM     58  N   UNL A   1      41.214  30.921  34.761  1.00  0.00    -0.248 NA
ATOM     59  C   UNL A   1      41.796  31.678  36.893  1.00  0.00     0.031 C 
ATOM     60  C   UNL A   1      43.291  27.607  32.639  1.00  0.00     0.029 A 
ATOM     61  C   UNL A   1      42.657  28.632  33.322  1.00  0.00     0.049 A 
ATOM     62  H   UNL A   1      40.993  29.787  32.731  1.00  0.00     0.167 HD
ATOM     63  C   UNL A   1      42.308  30.194  35.221  1.00  0.00     0.074 A 
ATOM     64  C   UNL A   1      42.646  30.734  36.521  1.00  0.00     0.031 C 
ATOM     65  C   UNL A   1      42.978  29.176  34.621  1.00  0.00     0.034 A 
BRANCH  52  66
ATOM     66  C   UNL A   1      40.740  27.600  29.051  1.00  0.00     0.023 A 
ATOM     67  C   UNL A   1      41.682  27.798  28.026  1.00  0.00     0.031 A 
ATOM     68  C   UNL A   1      39.847  26.522  28.922  1.00  0.00     0.131 A 
ATOM     69  C   UNL A   1      41.660  26.981  26.886  1.00  0.00     0.055 A 
ATOM     70  C   UNL A   1      39.890  25.657  27.827  1.00  0.00     0.041 A 
ATOM     71  F   UNL A   1      38.909  26.294  29.855  1.00  0.00    -0.206 F 
ATOM     72  C   UNL A   1      40.791  25.894  26.792  1.00  0.00     0.022 A 
BRANCH  69  73
ATOM     73  S   UNL A   1      42.684  27.452  25.465  1.00  0.00     0.124 S 
ATOM     74  O   UNL A   1      42.647  26.234  24.660  1.00  0.00    -0.237 OA
ATOM     75  O   UNL A   1      41.964  28.599  24.923  1.00  0.00    -0.237 OA
ATOM     76  O   UNL A   1      43.982  27.756  26.063  1.00  0.00    -0.744 OA
ENDBRANCH  69  73
ENDBRANCH  52  66
BRANCH  53  77
ATOM     77  C   UNL A   1      39.689  33.721  36.939  1.00  0.00     0.023 A 
ATOM     78  C   UNL A   1      39.080  33.227  38.105  1.00  0.00     0.031 A 
ATOM     79  C   UNL A   1      40.072  35.074  36.923  1.00  0.00     0.131 A 
ATOM     80  C   UNL A   1      38.820  34.091  39.180  1.00  0.00     0.055 A 
ATOM     81  C   UNL A   1      39.874  35.913  38.021  1.00  0.00     0.041 A 
ATOM     82  F   UNL A   1      40.658  35.601  35.835  1.00  0.00    -0.206 F 
ATOM     83  C   UNL A   1      39.229  35.426  39.152  1.00  0.00     0.022 A 
BRANCH  80  84
ATOM     84  S   UNL A   1      37.836  33.472  40.572  1.00  0.00     0.124 S 
ATOM     85  O   UNL A   1      36.705  32.859  39.884  1.00  0.00    -0.237 OA
ATOM     86  O   UNL A   1      38.767  32.555  41.219  1.00  0.00    -0.237 OA
ATOM     87  O   UNL A   1      37.523  34.680  41.332  1.00  0.00    -0.744 OA
ENDBRANCH  80  84
ENDBRANCH  53  77
BRANCH  65  88
ATOM     88  C   UNL A   1      44.177  28.617  35.349  1.00  0.00     0.023 A 
ATOM     89  C   UNL A   1      44.066  27.551  36.257  1.00  0.00     0.031 A 
ATOM     90  C   UNL A   1      45.454  29.169  35.132  1.00  0.00     0.131 A 
ATOM     91  C   UNL A   1      45.199  27.110  36.960  1.00  0.00     0.055 A 
ATOM     92  C   UNL A   1      46.588  28.679  35.778  1.00  0.00     0.041 A 
ATOM     93  F   UNL A   1      45.619  30.193  34.279  1.00  0.00    -0.206 F 
ATOM     94  C   UNL A   1      46.462  27.653  36.711  1.00  0.00     0.022 A 
BRANCH  91  95
ATOM     95  S   UNL A   1      44.980  25.890  38.283  1.00  0.00     0.124 S 
ATOM     96  O   UNL A   1      44.224  26.648  39.273  1.00  0.00    -0.237 OA
ATOM     97  O   UNL A   1      44.253  24.821  37.606  1.00  0.00    -0.237 OA
ATOM     98  O   UNL A   1      46.350  25.556  38.671  1.00  0.00    -0.744 OA
ENDBRANCH  91  95
ENDBRANCH  65  88
ENDBRANCH  39  40
ENDBRANCH  31  34
ENDBRANCH  29  30
ENDBRANCH  28  29
ENDBRANCH   1  28
TORSDOF 18
ENDMDL
MODEL 3
REMARK VINA RESULT:     -12.3      1.803      2.187
REMARK SMILES NS(=O)(=O)c1ccc(/N=N/c2ccc(O)c(C(=O)NCCCNC(=O)c3ccc(-c4c5nc(c(-c6cc(S(=O)(=O)[O-])ccc6F)c6ccc([nH]6)c(-c6cc(S(=O)(=O)[O-])ccc6F)c6nc(c(-c7cc(S(=O)(=O)[O-])ccc7F)c7ccc4[nH]7)C=C6)C=C5)cc3)c2)cc1
REMARK SMILES IDX 20 1 19 2 17 3 18 4 16 6 11 7 12 8 89 9 13 10 14 11 10 12
REMARK SMILES IDX 9 13 8 14 5 15 6 16 91 17 7 18 90 19 2 20 3 21 4 22 1 23
REMARK SMILES IDX 15 26 21 28 22 29 23 30 24 31 25 33 26 34 27 35 88 36 28 37
REMARK SMILES IDX 87 38 29 39 30 40 31 41 81 42 32 43 86 44 80 45 82 46 33 47
REMARK SMILES IDX 85 48 79 49 78 50 34 52 66 53 46 54 65 55 47 56 50 57 64 58
REMARK SMILES IDX 83 59 48 60 49 61 63 63 84 64 51 65 35 66 36 67 44 68 37 69
REMARK SMILES IDX 43 70 45 71 42 72 38 73 39 74 40 75 41 76 67 77 68 78 76 79
REMARK SMILES IDX 69 80 75 81 77 82 74 83 70 84 71 85 72 86 73 87 52 88 53 89
REMARK SMILES IDX 61 90 54 91 60 92 62 93 59 94 55 95 56 96 57 97 58 98
REMARK H PARENT 19 5 1 24 1 25 15 27 23 32 82 51 50 62
REMARK Flexibility Score: inf
ROOT
ATOM      1  C   UNL A   1      35.571  21.701  26.466  1.00  0.00     0.118 C 
ENDROOT
BRANCH   1   2
ATOM      2  N   UNL A   1      34.534  21.836  27.487  1.00  0.00    -0.352 N 
ATOM      3  C   UNL A   1      33.222  22.251  27.448  1.00  0.00     0.255 C 
ATOM      4  O   UNL A   1      32.594  22.307  28.508  1.00  0.00    -0.269 OA
ATOM      5  H   UNL A   1      34.836  21.576  28.387  1.00  0.00     0.163 HD
BRANCH   3   6
ATOM      6  C   UNL A   1      32.531  22.705  26.213  1.00  0.00     0.083 A 
ATOM      7  C   UNL A   1      31.502  24.503  24.905  1.00  0.00     0.087 A 
ATOM      8  C   UNL A   1      30.923  23.545  24.070  1.00  0.00     0.034 A 
ATOM      9  C   UNL A   1      32.392  24.054  25.897  1.00  0.00     0.048 A 
ATOM     10  C   UNL A   1      31.203  22.184  24.248  1.00  0.00     0.049 A 
ATOM     11  C   UNL A   1      31.986  21.769  25.327  1.00  0.00     0.128 A 
BRANCH   7  12
ATOM     12  N   UNL A   1      31.138  25.873  24.772  1.00  0.00    -0.151 NA
ATOM     13  N   UNL A   1      29.988  25.961  24.289  1.00  0.00    -0.151 NA
BRANCH  13  14
ATOM     14  C   UNL A   1      29.560  27.251  23.949  1.00  0.00     0.086 A 
ATOM     15  C   UNL A   1      28.633  29.684  22.914  1.00  0.00     0.082 A 
ATOM     16  C   UNL A   1      27.748  28.617  23.059  1.00  0.00     0.024 A 
ATOM     17  C   UNL A   1      29.978  29.550  23.275  1.00  0.00     0.024 A 
ATOM     18  C   UNL A   1      28.218  27.408  23.575  1.00  0.00     0.031 A 
ATOM     19  C   UNL A   1      30.436  28.333  23.793  1.00  0.00     0.031 A 
BRANCH  15  20
ATOM     20  S   UNL A   1      28.062  31.206  22.216  1.00  0.00     0.238 S 
ATOM     21  O   UNL A   1      27.209  31.881  23.169  1.00  0.00    -0.207 OA
ATOM     22  O   UNL A   1      27.685  30.983  20.844  1.00  0.00    -0.207 OA
BRANCH  20  23
ATOM     23  N   UNL A   1      29.473  32.120  22.170  1.00  0.00    -0.225 NA
ATOM     24  H   UNL A   1      30.169  31.702  22.786  1.00  0.00     0.137 HD
ATOM     25  H   UNL A   1      29.272  33.072  22.480  1.00  0.00     0.137 HD
ENDBRANCH  20  23
ENDBRANCH  15  20
ENDBRANCH  13  14
ENDBRANCH   7  12
BRANCH  11  26
ATOM     26  O   UNL A   1      32.186  20.420  25.449  1.00  0.00    -0.507 OA
ATOM     27  H   UNL A   1      32.631  20.078  26.200  1.00  0.00     0.293 HD
ENDBRANCH  11  26
ENDBRANCH   3   6
ENDBRANCH   1   2
BRANCH   1  28
ATOM     28  C   UNL A   1      36.079  23.022  25.912  1.00  0.00     0.042 C 
BRANCH  28  29
ATOM     29  C   UNL A   1      37.473  22.968  25.313  1.00  0.00     0.118 C 
BRANCH  29  30
ATOM     30  N   UNL A   1      38.332  21.988  25.965  1.00  0.00    -0.352 N 
ATOM     31  C   UNL A   1      39.533  22.136  26.620  1.00  0.00     0.251 C 
ATOM     32  H   UNL A   1      37.997  21.062  25.930  1.00  0.00     0.163 HD
ATOM     33  O   UNL A   1      40.190  21.134  26.890  1.00  0.00    -0.269 OA
BRANCH  31  34
ATOM     34  C   UNL A   1      40.043  23.479  26.977  1.00  0.00     0.039 A 
ATOM     35  C   UNL A   1      39.976  24.510  26.034  1.00  0.00     0.014 A 
ATOM     36  C   UNL A   1      40.608  23.726  28.229  1.00  0.00     0.014 A 
ATOM     37  C   UNL A   1      40.399  25.797  26.380  1.00  0.00     0.010 A 
ATOM     38  C   UNL A   1      40.918  25.027  28.610  1.00  0.00     0.010 A 
ATOM     39  C   UNL A   1      40.828  26.078  27.687  1.00  0.00    -0.014 A 
BRANCH  39  40
ATOM     40  C   UNL A   1      41.206  27.453  28.108  1.00  0.00     0.031 A 
ATOM     41  C   UNL A   1      42.656  27.865  28.120  1.00  0.00     0.074 A 
ATOM     42  C   UNL A   1      40.255  28.305  28.542  1.00  0.00     0.049 A 
ATOM     43  N   UNL A   1      43.197  28.979  28.542  1.00  0.00    -0.248 NA
ATOM     44  C   UNL A   1      43.629  26.878  27.626  1.00  0.00     0.031 C 
ATOM     45  C   UNL A   1      38.823  28.006  28.615  1.00  0.00     0.029 A 
ATOM     46  N   UNL A   1      40.345  29.593  29.011  1.00  0.00    -0.354 N 
ATOM     47  C   UNL A   1      44.568  28.822  28.374  1.00  0.00     0.074 A 
ATOM     48  C   UNL A   1      44.780  27.478  27.885  1.00  0.00     0.031 C 
ATOM     49  C   UNL A   1      38.169  29.087  29.066  1.00  0.00     0.029 A 
ATOM     50  C   UNL A   1      39.134  30.138  29.373  1.00  0.00     0.049 A 
ATOM     51  H   UNL A   1      41.197  30.080  29.082  1.00  0.00     0.167 HD
ATOM     52  C   UNL A   1      45.558  29.727  28.581  1.00  0.00     0.034 A 
ATOM     53  C   UNL A   1      38.836  31.338  29.907  1.00  0.00     0.034 A 
ATOM     54  C   UNL A   1      45.326  31.066  29.061  1.00  0.00     0.049 A 
ATOM     55  C   UNL A   1      39.959  32.312  30.167  1.00  0.00     0.074 A 
ATOM     56  C   UNL A   1      46.247  32.079  29.262  1.00  0.00     0.029 A 
ATOM     57  N   UNL A   1      44.087  31.580  29.421  1.00  0.00    -0.354 N 
ATOM     58  N   UNL A   1      41.248  32.164  29.957  1.00  0.00    -0.248 NA
ATOM     59  C   UNL A   1      39.588  33.619  30.725  1.00  0.00     0.031 C 
ATOM     60  C   UNL A   1      45.579  33.175  29.820  1.00  0.00     0.029 A 
ATOM     61  C   UNL A   1      44.227  32.882  29.878  1.00  0.00     0.049 A 
ATOM     62  H   UNL A   1      43.235  31.092  29.362  1.00  0.00     0.167 HD
ATOM     63  C   UNL A   1      41.833  33.373  30.324  1.00  0.00     0.074 A 
ATOM     64  C   UNL A   1      40.756  34.242  30.751  1.00  0.00     0.031 C 
ATOM     65  C   UNL A   1      43.142  33.735  30.307  1.00  0.00     0.034 A 
BRANCH  52  66
ATOM     66  C   UNL A   1      46.978  29.283  28.310  1.00  0.00     0.023 A 
ATOM     67  C   UNL A   1      47.424  28.988  27.009  1.00  0.00     0.031 A 
ATOM     68  C   UNL A   1      47.895  29.138  29.366  1.00  0.00     0.131 A 
ATOM     69  C   UNL A   1      48.721  28.493  26.808  1.00  0.00     0.055 A 
ATOM     70  C   UNL A   1      49.212  28.731  29.148  1.00  0.00     0.041 A 
ATOM     71  F   UNL A   1      47.523  29.382  30.633  1.00  0.00    -0.206 F 
ATOM     72  C   UNL A   1      49.628  28.390  27.864  1.00  0.00     0.022 A 
BRANCH  69  73
ATOM     73  S   UNL A   1      49.155  27.845  25.170  1.00  0.00     0.124 S 
ATOM     74  O   UNL A   1      49.347  26.426  25.457  1.00  0.00    -0.237 OA
ATOM     75  O   UNL A   1      47.980  28.183  24.375  1.00  0.00    -0.237 OA
ATOM     76  O   UNL A   1      50.373  28.574  24.825  1.00  0.00    -0.744 OA
ENDBRANCH  69  73
ENDBRANCH  52  66
BRANCH  53  77
ATOM     77  C   UNL A   1      37.427  31.690  30.252  1.00  0.00     0.023 A 
ATOM     78  C   UNL A   1      36.524  32.119  29.265  1.00  0.00     0.031 A 
ATOM     79  C   UNL A   1      36.975  31.655  31.584  1.00  0.00     0.131 A 
ATOM     80  C   UNL A   1      35.240  32.551  29.631  1.00  0.00     0.055 A 
ATOM     81  C   UNL A   1      35.674  32.022  31.934  1.00  0.00     0.041 A 
ATOM     82  F   UNL A   1      37.794  31.255  32.570  1.00  0.00    -0.206 F 
ATOM     83  C   UNL A   1      34.803  32.489  30.956  1.00  0.00     0.022 A 
BRANCH  80  84
ATOM     84  S   UNL A   1      34.185  33.306  28.362  1.00  0.00     0.124 S 
ATOM     85  O   UNL A   1      33.585  32.130  27.741  1.00  0.00    -0.237 OA
ATOM     86  O   UNL A   1      33.291  34.134  29.164  1.00  0.00    -0.237 OA
ATOM     87  O   UNL A   1      35.131  34.039  27.525  1.00  0.00    -0.744 OA
ENDBRANCH  80  84
ENDBRANCH  53  77
BRANCH  65  88
ATOM     88  C   UNL A   1      43.471  35.152  30.713  1.00  0.00     0.023 A 
ATOM     89  C   UNL A   1      43.638  35.520  32.059  1.00  0.00     0.031 A 
ATOM     90  C   UNL A   1      43.613  36.152  29.732  1.00  0.00     0.131 A 
ATOM     91  C   UNL A   1      43.876  36.863  32.392  1.00  0.00     0.055 A 
ATOM     92  C   UNL A   1      43.922  37.470  30.065  1.00  0.00     0.041 A 
ATOM     93  F   UNL A   1      43.459  35.859  28.431  1.00  0.00    -0.206 F 
ATOM     94  C   UNL A   1      44.040  37.836  31.403  1.00  0.00     0.022 A 
BRANCH  91  95
ATOM     95  S   UNL A   1      43.862  37.340  34.141  1.00  0.00     0.124 S 
ATOM     96  O   UNL A   1      45.066  38.158  34.241  1.00  0.00    -0.237 OA
ATOM     97  O   UNL A   1      42.595  38.054  34.261  1.00  0.00    -0.237 OA
ATOM     98  O   UNL A   1      43.921  36.061  34.846  1.00  0.00    -0.744 OA
ENDBRANCH  91  95
ENDBRANCH  65  88
ENDBRANCH  39  40
ENDBRANCH  31  34
ENDBRANCH  29  30
ENDBRANCH  28  29
ENDBRANCH   1  28
TORSDOF 18
ENDMDL
