MODEL 1
REMARK VINA RESULT:     -11.3      0.000      0.000
REMARK SMILES Cc1ccc(Oc2ccc(NC(=O)CCCC(=O)NCCCNC(=O)c3ccc(-c4c5nc(c(-c6cc(S(=O)(=O)[O-])ccc6F)c6ccc([nH]6)c(-c6cc(S(=O)(=O)[O-])ccc6F)c6nc(c(-c7cc(S(=O)(=O)[O-])ccc7F)c7ccc4[nH]7)C=C6)C=C5)cc3)cc2)cc1C
REMARK SMILES IDX 17 1 18 2 19 3 16 5 15 6 14 7 12 8 11 9 13 11 10 12 7 13
REMARK SMILES IDX 8 14 90 15 9 16 89 17 6 18 5 19 1 20 2 21 3 22 92 23 4 24
REMARK SMILES IDX 91 25 93 26 20 27 21 28 22 29 23 30 24 31 25 33 26 34 27 35
REMARK SMILES IDX 88 36 28 37 87 38 29 39 30 40 31 41 81 42 32 43 86 44 80 45
REMARK SMILES IDX 82 46 33 47 85 48 79 49 78 50 34 52 66 53 46 54 65 55 47 56
REMARK SMILES IDX 50 57 64 58 83 59 48 60 49 61 63 63 84 64 51 65 35 66 36 67
REMARK SMILES IDX 44 68 37 69 43 70 45 71 42 72 38 73 39 74 40 75 41 76 67 77
REMARK SMILES IDX 68 78 76 79 69 80 75 81 77 82 74 83 70 84 71 85 72 86 73 87
REMARK SMILES IDX 52 88 53 89 61 90 54 91 60 92 62 93 59 94 55 95 56 96 57 97
REMARK SMILES IDX 58 98
REMARK H PARENT 19 4 11 10 23 32 82 51 50 62
REMARK Flexibility Score: inf
ROOT
ATOM      1  C   UNL A   1      35.409  23.817  24.341  1.00  0.00     0.220 C 
ATOM      2  O   UNL A   1      35.160  24.045  23.147  1.00  0.00    -0.275 OA
ATOM      3  N   UNL A   1      36.163  22.716  24.550  1.00  0.00    -0.356 N 
ATOM      4  H   UNL A   1      36.331  22.240  23.705  1.00  0.00     0.163 HD
ENDROOT
BRANCH   1   5
ATOM      5  C   UNL A   1      34.951  24.846  25.374  1.00  0.00     0.100 C 
BRANCH   5   6
ATOM      6  C   UNL A   1      33.959  25.960  25.058  1.00  0.00     0.020 C 
BRANCH   6   7
ATOM      7  C   UNL A   1      32.928  26.457  26.065  1.00  0.00     0.101 C 
BRANCH   7   8
ATOM      8  C   UNL A   1      31.580  25.771  26.269  1.00  0.00     0.224 C 
ATOM      9  N   UNL A   1      31.201  24.503  25.965  1.00  0.00    -0.326 N 
ATOM     10  H   UNL A   1      30.242  24.379  26.148  1.00  0.00     0.169 HD
ATOM     11  O   UNL A   1      30.656  26.465  26.732  1.00  0.00    -0.275 OA
BRANCH   9  12
ATOM     12  C   UNL A   1      31.762  23.318  25.468  1.00  0.00     0.041 A 
ATOM     13  C   UNL A   1      33.140  21.027  24.567  1.00  0.00     0.127 A 
ATOM     14  C   UNL A   1      32.453  21.820  23.669  1.00  0.00     0.049 A 
ATOM     15  C   UNL A   1      33.110  21.335  25.924  1.00  0.00     0.049 A 
ATOM     16  C   UNL A   1      31.772  22.942  24.143  1.00  0.00     0.030 A 
ATOM     17  C   UNL A   1      32.405  22.464  26.372  1.00  0.00     0.030 A 
BRANCH  13  18
ATOM     18  O   UNL A   1      33.990  20.060  24.104  1.00  0.00    -0.457 OA
BRANCH  18  19
ATOM     19  C   UNL A   1      33.661  18.739  24.296  1.00  0.00     0.127 A 
ATOM     20  C   UNL A   1      32.904  14.705  25.617  1.00  0.00     0.044 C 
ATOM     21  C   UNL A   1      33.211  16.078  25.086  1.00  0.00    -0.048 A 
ATOM     22  C   UNL A   1      32.150  16.898  24.665  1.00  0.00     0.007 A 
ATOM     23  C   UNL A   1      34.525  16.579  25.044  1.00  0.00    -0.045 A 
ATOM     24  C   UNL A   1      32.370  18.221  24.271  1.00  0.00     0.047 A 
ATOM     25  C   UNL A   1      34.731  17.910  24.643  1.00  0.00     0.050 A 
ATOM     26  C   UNL A   1      35.732  15.745  25.376  1.00  0.00     0.045 C 
ENDBRANCH  18  19
ENDBRANCH  13  18
ENDBRANCH   9  12
ENDBRANCH   7   8
ENDBRANCH   6   7
ENDBRANCH   5   6
ENDBRANCH   1   5
BRANCH   3  27
ATOM     27  C   UNL A   1      36.796  22.030  25.667  1.00  0.00     0.117 C 
BRANCH  27  28
ATOM     28  C   UNL A   1      37.975  21.185  25.220  1.00  0.00     0.042 C 
BRANCH  28  29
ATOM     29  C   UNL A   1      39.170  21.402  26.124  1.00  0.00     0.118 C 
BRANCH  29  30
ATOM     30  N   UNL A   1      40.105  20.279  26.125  1.00  0.00    -0.352 N 
ATOM     31  C   UNL A   1      41.474  20.335  26.300  1.00  0.00     0.251 C 
ATOM     32  H   UNL A   1      39.718  19.385  25.987  1.00  0.00     0.163 HD
ATOM     33  O   UNL A   1      42.167  19.332  26.167  1.00  0.00    -0.269 OA
BRANCH  31  34
ATOM     34  C   UNL A   1      42.078  21.652  26.594  1.00  0.00     0.039 A 
ATOM     35  C   UNL A   1      42.277  22.566  25.560  1.00  0.00     0.014 A 
ATOM     36  C   UNL A   1      42.278  22.027  27.924  1.00  0.00     0.014 A 
ATOM     37  C   UNL A   1      42.583  23.893  25.872  1.00  0.00     0.010 A 
ATOM     38  C   UNL A   1      42.447  23.368  28.231  1.00  0.00     0.010 A 
ATOM     39  C   UNL A   1      42.612  24.319  27.210  1.00  0.00    -0.014 A 
BRANCH  39  40
ATOM     40  C   UNL A   1      42.843  25.740  27.586  1.00  0.00     0.031 A 
ATOM     41  C   UNL A   1      44.233  26.313  27.473  1.00  0.00     0.074 A 
ATOM     42  C   UNL A   1      41.845  26.479  28.111  1.00  0.00     0.049 A 
ATOM     43  N   UNL A   1      44.692  27.468  27.881  1.00  0.00    -0.248 NA
ATOM     44  C   UNL A   1      45.257  25.440  26.878  1.00  0.00     0.031 C 
ATOM     45  C   UNL A   1      40.472  26.017  28.338  1.00  0.00     0.029 A 
ATOM     46  N   UNL A   1      41.831  27.776  28.560  1.00  0.00    -0.354 N 
ATOM     47  C   UNL A   1      46.059  27.437  27.628  1.00  0.00     0.074 A 
ATOM     48  C   UNL A   1      46.364  26.120  27.116  1.00  0.00     0.031 C 
ATOM     49  C   UNL A   1      39.743  27.027  28.843  1.00  0.00     0.029 A 
ATOM     50  C   UNL A   1      40.603  28.193  29.022  1.00  0.00     0.049 A 
ATOM     51  H   UNL A   1      42.627  28.355  28.552  1.00  0.00     0.167 HD
ATOM     52  C   UNL A   1      46.973  28.430  27.770  1.00  0.00     0.034 A 
ATOM     53  C   UNL A   1      40.217  29.378  29.535  1.00  0.00     0.034 A 
ATOM     54  C   UNL A   1      46.639  29.754  28.228  1.00  0.00     0.049 A 
ATOM     55  C   UNL A   1      41.240  30.482  29.651  1.00  0.00     0.074 A 
ATOM     56  C   UNL A   1      47.460  30.862  28.339  1.00  0.00     0.029 A 
ATOM     57  N   UNL A   1      45.374  30.151  28.642  1.00  0.00    -0.354 N 
ATOM     58  N   UNL A   1      42.520  30.455  29.357  1.00  0.00    -0.248 NA
ATOM     59  C   UNL A   1      40.764  31.776  30.156  1.00  0.00     0.031 C 
ATOM     60  C   UNL A   1      46.704  31.913  28.869  1.00  0.00     0.029 A 
ATOM     61  C   UNL A   1      45.396  31.483  29.025  1.00  0.00     0.049 A 
ATOM     62  H   UNL A   1      44.578  29.573  28.660  1.00  0.00     0.167 HD
ATOM     63  C   UNL A   1      42.994  31.740  29.612  1.00  0.00     0.074 A 
ATOM     64  C   UNL A   1      41.860  32.516  30.068  1.00  0.00     0.031 C 
ATOM     65  C   UNL A   1      44.251  32.236  29.480  1.00  0.00     0.034 A 
BRANCH  52  66
ATOM     66  C   UNL A   1      48.409  28.102  27.430  1.00  0.00     0.023 A 
ATOM     67  C   UNL A   1      48.935  28.336  26.147  1.00  0.00     0.031 A 
ATOM     68  C   UNL A   1      49.248  27.496  28.382  1.00  0.00     0.131 A 
ATOM     69  C   UNL A   1      50.218  27.874  25.819  1.00  0.00     0.055 A 
ATOM     70  C   UNL A   1      50.560  27.126  28.076  1.00  0.00     0.041 A 
ATOM     71  F   UNL A   1      48.799  27.229  29.619  1.00  0.00    -0.206 F 
ATOM     72  C   UNL A   1      51.045  27.296  26.783  1.00  0.00     0.022 A 
BRANCH  69  73
ATOM     73  S   UNL A   1      50.721  27.889  24.076  1.00  0.00     0.124 S 
ATOM     74  O   UNL A   1      51.413  29.174  23.983  1.00  0.00    -0.237 OA
ATOM     75  O   UNL A   1      51.562  26.702  23.980  1.00  0.00    -0.237 OA
ATOM     76  O   UNL A   1      49.454  27.819  23.353  1.00  0.00    -0.744 OA
ENDBRANCH  69  73
ENDBRANCH  52  66
BRANCH  53  77
ATOM     77  C   UNL A   1      38.808  29.599  29.969  1.00  0.00     0.023 A 
ATOM     78  C   UNL A   1      37.888  30.250  29.130  1.00  0.00     0.031 A 
ATOM     79  C   UNL A   1      38.367  29.200  31.244  1.00  0.00     0.131 A 
ATOM     80  C   UNL A   1      36.591  30.525  29.590  1.00  0.00     0.055 A 
ATOM     81  C   UNL A   1      37.060  29.432  31.678  1.00  0.00     0.041 A 
ATOM     82  F   UNL A   1      39.201  28.566  32.082  1.00  0.00    -0.206 F 
ATOM     83  C   UNL A   1      36.167  30.111  30.854  1.00  0.00     0.022 A 
BRANCH  80  84
ATOM     84  S   UNL A   1      35.486  31.508  28.538  1.00  0.00     0.124 S 
ATOM     85  O   UNL A   1      34.484  31.957  29.498  1.00  0.00    -0.237 OA
ATOM     86  O   UNL A   1      36.390  32.534  28.027  1.00  0.00    -0.237 OA
ATOM     87  O   UNL A   1      35.015  30.544  27.546  1.00  0.00    -0.744 OA
ENDBRANCH  80  84
ENDBRANCH  53  77
BRANCH  65  88
ATOM     88  C   UNL A   1      44.444  33.698  29.787  1.00  0.00     0.023 A 
ATOM     89  C   UNL A   1      44.838  34.139  31.062  1.00  0.00     0.031 A 
ATOM     90  C   UNL A   1      44.227  34.662  28.788  1.00  0.00     0.131 A 
ATOM     91  C   UNL A   1      44.952  35.512  31.320  1.00  0.00     0.055 A 
ATOM     92  C   UNL A   1      44.399  36.025  29.034  1.00  0.00     0.041 A 
ATOM     93  F   UNL A   1      43.850  34.294  27.553  1.00  0.00    -0.206 F 
ATOM     94  C   UNL A   1      44.751  36.458  30.309  1.00  0.00     0.022 A 
BRANCH  91  95
ATOM     95  S   UNL A   1      45.286  36.055  33.017  1.00  0.00     0.124 S 
ATOM     96  O   UNL A   1      43.999  36.621  33.413  1.00  0.00    -0.237 OA
ATOM     97  O   UNL A   1      45.663  34.809  33.675  1.00  0.00    -0.237 OA
ATOM     98  O   UNL A   1      46.367  37.026  32.861  1.00  0.00    -0.744 OA
ENDBRANCH  91  95
ENDBRANCH  65  88
ENDBRANCH  39  40
ENDBRANCH  31  34
ENDBRANCH  29  30
ENDBRANCH  28  29
ENDBRANCH  27  28
ENDBRANCH   3  27
TORSDOF 19
ENDMDL
MODEL 2
REMARK VINA RESULT:     -11.3      2.285      7.741
REMARK SMILES Cc1ccc(Oc2ccc(NC(=O)CCCC(=O)NCCCNC(=O)c3ccc(-c4c5nc(c(-c6cc(S(=O)(=O)[O-])ccc6F)c6ccc([nH]6)c(-c6cc(S(=O)(=O)[O-])ccc6F)c6nc(c(-c7cc(S(=O)(=O)[O-])ccc7F)c7ccc4[nH]7)C=C6)C=C5)cc3)cc2)cc1C
REMARK SMILES IDX 17 1 18 2 19 3 16 5 15 6 14 7 12 8 11 9 13 11 10 12 7 13
REMARK SMILES IDX 8 14 90 15 9 16 89 17 6 18 5 19 1 20 2 21 3 22 92 23 4 24
REMARK SMILES IDX 91 25 93 26 20 27 21 28 22 29 23 30 24 31 25 33 26 34 27 35
REMARK SMILES IDX 88 36 28 37 87 38 29 39 30 40 31 41 81 42 32 43 86 44 80 45
REMARK SMILES IDX 82 46 33 47 85 48 79 49 78 50 34 52 66 53 46 54 65 55 47 56
REMARK SMILES IDX 50 57 64 58 83 59 48 60 49 61 63 63 84 64 51 65 35 66 36 67
REMARK SMILES IDX 44 68 37 69 43 70 45 71 42 72 38 73 39 74 40 75 41 76 67 77
REMARK SMILES IDX 68 78 76 79 69 80 75 81 77 82 74 83 70 84 71 85 72 86 73 87
REMARK SMILES IDX 52 88 53 89 61 90 54 91 60 92 62 93 59 94 55 95 56 96 57 97
REMARK SMILES IDX 58 98
REMARK H PARENT 19 4 11 10 23 32 82 51 50 62
REMARK Flexibility Score: inf
ROOT
ATOM      1  C   UNL A   1      35.574  23.915  24.254  1.00  0.00     0.220 C 
ATOM      2  O   UNL A   1      35.035  23.775  23.145  1.00  0.00    -0.275 OA
ATOM      3  N   UNL A   1      36.704  23.194  24.416  1.00  0.00    -0.356 N 
ATOM      4  H   UNL A   1      36.870  22.621  23.632  1.00  0.00     0.163 HD
ENDROOT
BRANCH   1   5
ATOM      5  C   UNL A   1      34.977  24.945  25.213  1.00  0.00     0.100 C 
BRANCH   5   6
ATOM      6  C   UNL A   1      33.887  25.930  24.805  1.00  0.00     0.020 C 
BRANCH   6   7
ATOM      7  C   UNL A   1      32.918  26.548  25.806  1.00  0.00     0.101 C 
BRANCH   7   8
ATOM      8  C   UNL A   1      31.661  25.826  26.287  1.00  0.00     0.224 C 
ATOM      9  N   UNL A   1      31.305  24.525  26.144  1.00  0.00    -0.326 N 
ATOM     10  H   UNL A   1      30.398  24.377  26.498  1.00  0.00     0.169 HD
ATOM     11  O   UNL A   1      30.793  26.517  26.851  1.00  0.00    -0.275 OA
BRANCH   9  12
ATOM     12  C   UNL A   1      31.837  23.327  25.645  1.00  0.00     0.041 A 
ATOM     13  C   UNL A   1      33.163  21.022  24.703  1.00  0.00     0.127 A 
ATOM     14  C   UNL A   1      32.354  21.751  23.853  1.00  0.00     0.049 A 
ATOM     15  C   UNL A   1      33.282  21.400  26.037  1.00  0.00     0.049 A 
ATOM     16  C   UNL A   1      31.703  22.882  24.348  1.00  0.00     0.030 A 
ATOM     17  C   UNL A   1      32.604  22.536  26.509  1.00  0.00     0.030 A 
BRANCH  13  18
ATOM     18  O   UNL A   1      33.979  20.050  24.192  1.00  0.00    -0.457 OA
BRANCH  18  19
ATOM     19  C   UNL A   1      33.628  18.731  24.360  1.00  0.00     0.127 A 
ATOM     20  C   UNL A   1      32.821  14.682  25.603  1.00  0.00     0.044 C 
ATOM     21  C   UNL A   1      33.143  16.061  25.097  1.00  0.00    -0.048 A 
ATOM     22  C   UNL A   1      32.090  16.912  24.719  1.00  0.00     0.007 A 
ATOM     23  C   UNL A   1      34.466  16.538  25.038  1.00  0.00    -0.045 A 
ATOM     24  C   UNL A   1      32.328  18.239  24.352  1.00  0.00     0.047 A 
ATOM     25  C   UNL A   1      34.690  17.873  24.664  1.00  0.00     0.050 A 
ATOM     26  C   UNL A   1      35.663  15.673  25.323  1.00  0.00     0.045 C 
ENDBRANCH  18  19
ENDBRANCH  13  18
ENDBRANCH   9  12
ENDBRANCH   7   8
ENDBRANCH   6   7
ENDBRANCH   5   6
ENDBRANCH   1   5
BRANCH   3  27
ATOM     27  C   UNL A   1      37.747  23.018  25.417  1.00  0.00     0.117 C 
BRANCH  27  28
ATOM     28  C   UNL A   1      38.156  21.564  25.563  1.00  0.00     0.042 C 
BRANCH  28  29
ATOM     29  C   UNL A   1      39.422  21.439  26.383  1.00  0.00     0.118 C 
BRANCH  29  30
ATOM     30  N   UNL A   1      40.118  20.169  26.181  1.00  0.00    -0.352 N 
ATOM     31  C   UNL A   1      41.483  19.971  26.103  1.00  0.00     0.251 C 
ATOM     32  H   UNL A   1      39.553  19.369  26.089  1.00  0.00     0.163 HD
ATOM     33  O   UNL A   1      41.943  18.870  25.817  1.00  0.00    -0.269 OA
BRANCH  31  34
ATOM     34  C   UNL A   1      42.362  21.139  26.321  1.00  0.00     0.039 A 
ATOM     35  C   UNL A   1      42.714  21.948  25.241  1.00  0.00     0.014 A 
ATOM     36  C   UNL A   1      42.685  21.514  27.627  1.00  0.00     0.014 A 
ATOM     37  C   UNL A   1      43.305  23.190  25.484  1.00  0.00     0.010 A 
ATOM     38  C   UNL A   1      43.146  22.799  27.867  1.00  0.00     0.010 A 
ATOM     39  C   UNL A   1      43.472  23.651  26.800  1.00  0.00    -0.014 A 
BRANCH  39  40
ATOM     40  C   UNL A   1      44.013  25.004  27.104  1.00  0.00     0.031 A 
ATOM     41  C   UNL A   1      43.104  26.038  27.717  1.00  0.00     0.074 A 
ATOM     42  C   UNL A   1      45.272  25.333  26.747  1.00  0.00     0.049 A 
ATOM     43  N   UNL A   1      43.314  27.312  27.925  1.00  0.00    -0.248 NA
ATOM     44  C   UNL A   1      41.752  25.588  28.085  1.00  0.00     0.031 C 
ATOM     45  C   UNL A   1      46.228  24.443  26.081  1.00  0.00     0.029 A 
ATOM     46  N   UNL A   1      45.963  26.510  26.884  1.00  0.00    -0.354 N 
ATOM     47  C   UNL A   1      42.111  27.817  28.408  1.00  0.00     0.074 A 
ATOM     48  C   UNL A   1      41.157  26.732  28.376  1.00  0.00     0.031 C 
ATOM     49  C   UNL A   1      47.391  25.094  25.908  1.00  0.00     0.029 A 
ATOM     50  C   UNL A   1      47.252  26.459  26.404  1.00  0.00     0.049 A 
ATOM     51  H   UNL A   1      45.573  27.318  27.289  1.00  0.00     0.167 HD
ATOM     52  C   UNL A   1      41.836  29.060  28.875  1.00  0.00     0.034 A 
ATOM     53  C   UNL A   1      48.210  27.407  26.365  1.00  0.00     0.034 A 
ATOM     54  C   UNL A   1      42.818  30.111  28.953  1.00  0.00     0.049 A 
ATOM     55  C   UNL A   1      47.896  28.773  26.923  1.00  0.00     0.074 A 
ATOM     56  C   UNL A   1      42.680  31.384  29.477  1.00  0.00     0.029 A 
ATOM     57  N   UNL A   1      44.127  30.006  28.500  1.00  0.00    -0.354 N 
ATOM     58  N   UNL A   1      46.768  29.221  27.427  1.00  0.00    -0.248 NA
ATOM     59  C   UNL A   1      48.986  29.757  26.918  1.00  0.00     0.031 C 
ATOM     60  C   UNL A   1      43.889  32.065  29.294  1.00  0.00     0.029 A 
ATOM     61  C   UNL A   1      44.802  31.196  28.717  1.00  0.00     0.049 A 
ATOM     62  H   UNL A   1      44.518  29.204  28.086  1.00  0.00     0.167 HD
ATOM     63  C   UNL A   1      47.025  30.529  27.828  1.00  0.00     0.074 A 
ATOM     64  C   UNL A   1      48.417  30.791  27.521  1.00  0.00     0.031 C 
ATOM     65  C   UNL A   1      46.190  31.434  28.400  1.00  0.00     0.034 A 
BRANCH  52  66
ATOM     66  C   UNL A   1      40.420  29.332  29.326  1.00  0.00     0.023 A 
ATOM     67  C   UNL A   1      40.082  29.419  30.688  1.00  0.00     0.031 A 
ATOM     68  C   UNL A   1      39.381  29.450  28.385  1.00  0.00     0.131 A 
ATOM     69  C   UNL A   1      38.737  29.512  31.074  1.00  0.00     0.055 A 
ATOM     70  C   UNL A   1      38.054  29.639  28.775  1.00  0.00     0.041 A 
ATOM     71  F   UNL A   1      39.635  29.357  27.070  1.00  0.00    -0.206 F 
ATOM     72  C   UNL A   1      37.722  29.651  30.127  1.00  0.00     0.022 A 
BRANCH  69  73
ATOM     73  S   UNL A   1      38.324  29.278  32.825  1.00  0.00     0.124 S 
ATOM     74  O   UNL A   1      39.395  28.383  33.261  1.00  0.00    -0.237 OA
ATOM     75  O   UNL A   1      38.377  30.639  33.347  1.00  0.00    -0.237 OA
ATOM     76  O   UNL A   1      36.995  28.674  32.786  1.00  0.00    -0.744 OA
ENDBRANCH  69  73
ENDBRANCH  52  66
BRANCH  53  77
ATOM     77  C   UNL A   1      49.554  27.109  25.792  1.00  0.00     0.023 A 
ATOM     78  C   UNL A   1      49.926  27.603  24.530  1.00  0.00     0.031 A 
ATOM     79  C   UNL A   1      50.474  26.294  26.476  1.00  0.00     0.131 A 
ATOM     80  C   UNL A   1      51.162  27.241  23.971  1.00  0.00     0.055 A 
ATOM     81  C   UNL A   1      51.722  25.977  25.936  1.00  0.00     0.041 A 
ATOM     82  F   UNL A   1      50.173  25.803  27.688  1.00  0.00    -0.206 F 
ATOM     83  C   UNL A   1      52.066  26.440  24.670  1.00  0.00     0.022 A 
BRANCH  80  84
ATOM     84  S   UNL A   1      51.536  27.767  22.276  1.00  0.00     0.124 S 
ATOM     85  O   UNL A   1      50.953  29.105  22.245  1.00  0.00    -0.237 OA
ATOM     86  O   UNL A   1      52.994  27.702  22.253  1.00  0.00    -0.237 OA
ATOM     87  O   UNL A   1      50.856  26.770  21.452  1.00  0.00    -0.744 OA
ENDBRANCH  80  84
ENDBRANCH  53  77
BRANCH  65  88
ATOM     88  C   UNL A   1      46.781  32.769  28.773  1.00  0.00     0.023 A 
ATOM     89  C   UNL A   1      46.672  33.887  27.929  1.00  0.00     0.031 A 
ATOM     90  C   UNL A   1      47.467  32.920  29.991  1.00  0.00     0.131 A 
ATOM     91  C   UNL A   1      47.285  35.095  28.290  1.00  0.00     0.055 A 
ATOM     92  C   UNL A   1      48.025  34.141  30.372  1.00  0.00     0.041 A 
ATOM     93  F   UNL A   1      47.599  31.883  30.834  1.00  0.00    -0.206 F 
ATOM     94  C   UNL A   1      47.947  35.234  29.514  1.00  0.00     0.022 A 
BRANCH  91  95
ATOM     95  S   UNL A   1      47.279  36.464  27.101  1.00  0.00     0.124 S 
ATOM     96  O   UNL A   1      46.732  37.557  27.899  1.00  0.00    -0.237 OA
ATOM     97  O   UNL A   1      48.690  36.577  26.749  1.00  0.00    -0.237 OA
ATOM     98  O   UNL A   1      46.410  35.984  26.029  1.00  0.00    -0.744 OA
ENDBRANCH  91  95
ENDBRANCH  65  88
ENDBRANCH  39  40
ENDBRANCH  31  34
ENDBRANCH  29  30
ENDBRANCH  28  29
ENDBRANCH  27  28
ENDBRANCH   3  27
TORSDOF 19
ENDMDL
MODEL 3
REMARK VINA RESULT:     -11.2      2.730      8.750
REMARK SMILES Cc1ccc(Oc2ccc(NC(=O)CCCC(=O)NCCCNC(=O)c3ccc(-c4c5nc(c(-c6cc(S(=O)(=O)[O-])ccc6F)c6ccc([nH]6)c(-c6cc(S(=O)(=O)[O-])ccc6F)c6nc(c(-c7cc(S(=O)(=O)[O-])ccc7F)c7ccc4[nH]7)C=C6)C=C5)cc3)cc2)cc1C
REMARK SMILES IDX 17 1 18 2 19 3 16 5 15 6 14 7 12 8 11 9 13 11 10 12 7 13
REMARK SMILES IDX 8 14 90 15 9 16 89 17 6 18 5 19 1 20 2 21 3 22 92 23 4 24
REMARK SMILES IDX 91 25 93 26 20 27 21 28 22 29 23 30 24 31 25 33 26 34 27 35
REMARK SMILES IDX 88 36 28 37 87 38 29 39 30 40 31 41 81 42 32 43 86 44 80 45
REMARK SMILES IDX 82 46 33 47 85 48 79 49 78 50 34 52 66 53 46 54 65 55 47 56
REMARK SMILES IDX 50 57 64 58 83 59 48 60 49 61 63 63 84 64 51 65 35 66 36 67
REMARK SMILES IDX 44 68 37 69 43 70 45 71 42 72 38 73 39 74 40 75 41 76 67 77
REMARK SMILES IDX 68 78 76 79 69 80 75 81 77 82 74 83 70 84 71 85 72 86 73 87
REMARK SMILES IDX 52 88 53 89 61 90 54 91 60 92 62 93 59 94 55 95 56 96 57 97
REMARK SMILES IDX 58 98
REMARK H PARENT 19 4 11 10 23 32 82 51 50 62
REMARK Flexibility Score: inf
ROOT
ATOM      1  C   UNL A   1      36.387  22.735  24.710  1.00  0.00     0.220 C 
ATOM      2  O   UNL A   1      36.492  23.519  23.755  1.00  0.00    -0.275 OA
ATOM      3  N   UNL A   1      36.785  21.473  24.439  1.00  0.00    -0.356 N 
ATOM      4  H   UNL A   1      37.032  21.380  23.490  1.00  0.00     0.163 HD
ENDROOT
BRANCH   1   5
ATOM      5  C   UNL A   1      35.954  23.308  26.060  1.00  0.00     0.100 C 
BRANCH   5   6
ATOM      6  C   UNL A   1      34.502  23.341  26.524  1.00  0.00     0.020 C 
BRANCH   6   7
ATOM      7  C   UNL A   1      33.663  22.080  26.697  1.00  0.00     0.101 C 
BRANCH   7   8
ATOM      8  C   UNL A   1      33.273  21.184  25.523  1.00  0.00     0.224 C 
ATOM      9  N   UNL A   1      32.707  21.516  24.335  1.00  0.00    -0.326 N 
ATOM     10  H   UNL A   1      32.506  20.705  23.814  1.00  0.00     0.169 HD
ATOM     11  O   UNL A   1      33.437  19.959  25.668  1.00  0.00    -0.275 OA
BRANCH   9  12
ATOM     12  C   UNL A   1      32.321  22.662  23.626  1.00  0.00     0.041 A 
ATOM     13  C   UNL A   1      31.774  25.096  22.308  1.00  0.00     0.127 A 
ATOM     14  C   UNL A   1      30.851  24.561  23.185  1.00  0.00     0.049 A 
ATOM     15  C   UNL A   1      32.953  24.406  22.039  1.00  0.00     0.049 A 
ATOM     16  C   UNL A   1      31.143  23.351  23.817  1.00  0.00     0.030 A 
ATOM     17  C   UNL A   1      33.213  23.184  22.681  1.00  0.00     0.030 A 
BRANCH  13  18
ATOM     18  O   UNL A   1      31.612  26.375  21.852  1.00  0.00    -0.457 OA
BRANCH  18  19
ATOM     19  C   UNL A   1      31.764  27.419  22.735  1.00  0.00     0.127 A 
ATOM     20  C   UNL A   1      31.578  30.431  25.815  1.00  0.00     0.044 C 
ATOM     21  C   UNL A   1      31.653  29.447  24.681  1.00  0.00    -0.048 A 
ATOM     22  C   UNL A   1      32.738  28.553  24.625  1.00  0.00     0.007 A 
ATOM     23  C   UNL A   1      30.644  29.364  23.704  1.00  0.00    -0.045 A 
ATOM     24  C   UNL A   1      32.796  27.545  23.658  1.00  0.00     0.047 A 
ATOM     25  C   UNL A   1      30.718  28.347  22.737  1.00  0.00     0.050 A 
ATOM     26  C   UNL A   1      29.501  30.338  23.619  1.00  0.00     0.045 C 
ENDBRANCH  18  19
ENDBRANCH  13  18
ENDBRANCH   9  12
ENDBRANCH   7   8
ENDBRANCH   6   7
ENDBRANCH   5   6
ENDBRANCH   1   5
BRANCH   3  27
ATOM     27  C   UNL A   1      36.952  20.211  25.144  1.00  0.00     0.117 C 
BRANCH  27  28
ATOM     28  C   UNL A   1      38.317  19.596  24.895  1.00  0.00     0.042 C 
BRANCH  28  29
ATOM     29  C   UNL A   1      39.314  20.051  25.938  1.00  0.00     0.118 C 
BRANCH  29  30
ATOM     30  N   UNL A   1      40.526  19.234  25.975  1.00  0.00    -0.352 N 
ATOM     31  C   UNL A   1      41.811  19.663  26.242  1.00  0.00     0.251 C 
ATOM     32  H   UNL A   1      40.414  18.275  25.790  1.00  0.00     0.163 HD
ATOM     33  O   UNL A   1      42.765  18.900  26.131  1.00  0.00    -0.269 OA
BRANCH  31  34
ATOM     34  C   UNL A   1      42.002  21.083  26.608  1.00  0.00     0.039 A 
ATOM     35  C   UNL A   1      42.304  21.421  27.927  1.00  0.00     0.014 A 
ATOM     36  C   UNL A   1      42.049  22.046  25.598  1.00  0.00     0.014 A 
ATOM     37  C   UNL A   1      42.752  22.712  28.214  1.00  0.00     0.010 A 
ATOM     38  C   UNL A   1      42.621  23.280  25.865  1.00  0.00     0.010 A 
ATOM     39  C   UNL A   1      42.972  23.634  27.178  1.00  0.00    -0.014 A 
BRANCH  39  40
ATOM     40  C   UNL A   1      43.535  24.989  27.428  1.00  0.00     0.031 A 
ATOM     41  C   UNL A   1      42.639  26.066  27.983  1.00  0.00     0.074 A 
ATOM     42  C   UNL A   1      44.803  25.278  27.072  1.00  0.00     0.049 A 
ATOM     43  N   UNL A   1      42.871  27.344  28.138  1.00  0.00    -0.248 NA
ATOM     44  C   UNL A   1      41.274  25.658  28.355  1.00  0.00     0.031 C 
ATOM     45  C   UNL A   1      45.750  24.342  26.458  1.00  0.00     0.029 A 
ATOM     46  N   UNL A   1      45.515  26.447  27.166  1.00  0.00    -0.354 N 
ATOM     47  C   UNL A   1      41.672  27.891  28.583  1.00  0.00     0.074 A 
ATOM     48  C   UNL A   1      40.697  26.824  28.587  1.00  0.00     0.031 C 
ATOM     49  C   UNL A   1      46.927  24.962  26.271  1.00  0.00     0.029 A 
ATOM     50  C   UNL A   1      46.809  26.351  26.704  1.00  0.00     0.049 A 
ATOM     51  H   UNL A   1      45.136  27.279  27.530  1.00  0.00     0.167 HD
ATOM     52  C   UNL A   1      41.416  29.159  28.992  1.00  0.00     0.034 A 
ATOM     53  C   UNL A   1      47.785  27.278  26.635  1.00  0.00     0.034 A 
ATOM     54  C   UNL A   1      42.416  30.194  29.035  1.00  0.00     0.049 A 
ATOM     55  C   UNL A   1      47.491  28.673  27.129  1.00  0.00     0.074 A 
ATOM     56  C   UNL A   1      42.297  31.492  29.501  1.00  0.00     0.029 A 
ATOM     57  N   UNL A   1      43.728  30.045  28.603  1.00  0.00    -0.354 N 
ATOM     58  N   UNL A   1      46.366  29.164  27.598  1.00  0.00    -0.248 NA
ATOM     59  C   UNL A   1      48.600  29.636  27.094  1.00  0.00     0.031 C 
ATOM     60  C   UNL A   1      43.520  32.141  29.302  1.00  0.00     0.029 A 
ATOM     61  C   UNL A   1      44.424  31.231  28.776  1.00  0.00     0.049 A 
ATOM     62  H   UNL A   1      44.109  29.218  28.230  1.00  0.00     0.167 HD
ATOM     63  C   UNL A   1      46.643  30.484  27.944  1.00  0.00     0.074 A 
ATOM     64  C   UNL A   1      48.043  30.705  27.643  1.00  0.00     0.031 C 
ATOM     65  C   UNL A   1      45.819  31.428  28.466  1.00  0.00     0.034 A 
BRANCH  52  66
ATOM     66  C   UNL A   1      39.999  29.477  29.412  1.00  0.00     0.023 A 
ATOM     67  C   UNL A   1      39.644  29.615  30.766  1.00  0.00     0.031 A 
ATOM     68  C   UNL A   1      38.978  29.589  28.452  1.00  0.00     0.131 A 
ATOM     69  C   UNL A   1      38.297  29.750  31.129  1.00  0.00     0.055 A 
ATOM     70  C   UNL A   1      37.649  29.821  28.816  1.00  0.00     0.041 A 
ATOM     71  F   UNL A   1      39.248  29.449  27.145  1.00  0.00    -0.206 F 
ATOM     72  C   UNL A   1      37.299  29.883  30.162  1.00  0.00     0.022 A 
BRANCH  69  73
ATOM     73  S   UNL A   1      37.853  29.581  32.879  1.00  0.00     0.124 S 
ATOM     74  O   UNL A   1      37.451  28.176  32.944  1.00  0.00    -0.237 OA
ATOM     75  O   UNL A   1      39.100  29.920  33.556  1.00  0.00    -0.237 OA
ATOM     76  O   UNL A   1      36.766  30.541  33.052  1.00  0.00    -0.744 OA
ENDBRANCH  69  73
ENDBRANCH  52  66
BRANCH  53  77
ATOM     77  C   UNL A   1      49.130  26.930  26.093  1.00  0.00     0.023 A 
ATOM     78  C   UNL A   1      49.523  27.356  24.813  1.00  0.00     0.031 A 
ATOM     79  C   UNL A   1      50.027  26.134  26.825  1.00  0.00     0.131 A 
ATOM     80  C   UNL A   1      50.759  26.946  24.286  1.00  0.00     0.055 A 
ATOM     81  C   UNL A   1      51.275  25.770  26.316  1.00  0.00     0.041 A 
ATOM     82  F   UNL A   1      49.706  25.707  28.057  1.00  0.00    -0.206 F 
ATOM     83  C   UNL A   1      51.641  26.165  25.033  1.00  0.00     0.022 A 
BRANCH  80  84
ATOM     84  S   UNL A   1      51.159  27.384  22.571  1.00  0.00     0.124 S 
ATOM     85  O   UNL A   1      50.032  26.806  21.847  1.00  0.00    -0.237 OA
ATOM     86  O   UNL A   1      51.203  28.841  22.633  1.00  0.00    -0.237 OA
ATOM     87  O   UNL A   1      52.448  26.732  22.346  1.00  0.00    -0.744 OA
ENDBRANCH  80  84
ENDBRANCH  53  77
BRANCH  65  88
ATOM     88  C   UNL A   1      46.431  32.767  28.786  1.00  0.00     0.023 A 
ATOM     89  C   UNL A   1      46.506  33.794  27.830  1.00  0.00     0.031 A 
ATOM     90  C   UNL A   1      46.949  33.015  30.070  1.00  0.00     0.131 A 
ATOM     91  C   UNL A   1      47.134  35.004  28.154  1.00  0.00     0.055 A 
ATOM     92  C   UNL A   1      47.521  34.243  30.405  1.00  0.00     0.041 A 
ATOM     93  F   UNL A   1      46.903  32.069  31.020  1.00  0.00    -0.206 F 
ATOM     94  C   UNL A   1      47.628  35.242  29.441  1.00  0.00     0.022 A 
BRANCH  91  95
ATOM     95  S   UNL A   1      47.375  36.238  26.848  1.00  0.00     0.124 S 
ATOM     96  O   UNL A   1      48.736  35.950  26.405  1.00  0.00    -0.237 OA
ATOM     97  O   UNL A   1      46.314  35.904  25.904  1.00  0.00    -0.237 OA
ATOM     98  O   UNL A   1      47.206  37.512  27.543  1.00  0.00    -0.744 OA
ENDBRANCH  91  95
ENDBRANCH  65  88
ENDBRANCH  39  40
ENDBRANCH  31  34
ENDBRANCH  29  30
ENDBRANCH  28  29
ENDBRANCH  27  28
ENDBRANCH   3  27
TORSDOF 19
ENDMDL
