MODEL 1
REMARK VINA RESULT:     -10.1      0.000      0.000
REMARK SMILES CCSc1cccc(-c2ccc([C@@H](C)C(=O)NCCCNC(=O)c3ccc(-c4c5nc(c(-c6cc(S(=O)(=O)[O-])ccc6F)c6ccc([nH]6)c(-c6cc(S(=O)(=O)[O-])ccc6F)c6nc(c(-c7cc(S(=O)(=O)[O-])ccc7F)c7ccc4[nH]7)C=C6)C=C5)cc3)cc2)c1
REMARK SMILES IDX 18 1 17 2 15 3 16 4 13 6 14 7 12 8 9 9 10 10 88 11 11 12
REMARK SMILES IDX 87 13 8 14 4 15 5 16 89 17 6 18 7 19 3 20 2 21 1 22 19 23
REMARK SMILES IDX 20 24 21 25 22 26 23 28 24 29 25 30 86 31 26 32 85 33 27 34
REMARK SMILES IDX 28 35 29 36 79 37 30 38 84 39 78 40 80 41 31 42 83 43 77 44
REMARK SMILES IDX 76 45 32 47 64 48 44 49 63 50 45 51 48 52 62 53 81 54 46 55
REMARK SMILES IDX 47 56 61 58 82 59 49 60 33 61 34 62 42 63 35 64 41 65 43 66
REMARK SMILES IDX 40 67 36 68 37 69 38 70 39 71 65 72 66 73 74 74 67 75 73 76
REMARK SMILES IDX 75 77 72 78 68 79 69 80 70 81 71 82 50 83 51 84 59 85 52 86
REMARK SMILES IDX 58 87 60 88 57 89 53 90 54 91 55 92 56 93
REMARK H PARENT 17 5 21 27 80 46 48 57
REMARK Flexibility Score: inf
ROOT
ATOM      1  C   UNL A   1      33.385  34.647  29.897  1.00  0.00     0.117 C 
ENDROOT
BRANCH   1   2
ATOM      2  N   UNL A   1      33.952  35.319  31.050  1.00  0.00    -0.356 N 
ATOM      3  C   UNL A   1      34.952  34.981  31.909  1.00  0.00     0.227 C 
ATOM      4  O   UNL A   1      35.167  35.775  32.833  1.00  0.00    -0.274 OA
ATOM      5  H   UNL A   1      33.534  36.188  31.250  1.00  0.00     0.163 HD
BRANCH   3   6
ATOM      6  C   UNL A   1      35.818  33.716  31.777  1.00  0.00     0.105 C 
ATOM      7  C   UNL A   1      35.743  32.781  32.985  1.00  0.00     0.023 C 
BRANCH   6   8
ATOM      8  C   UNL A   1      37.215  33.983  31.242  1.00  0.00    -0.036 A 
ATOM      9  C   UNL A   1      39.902  34.312  30.313  1.00  0.00    -0.018 A 
ATOM     10  C   UNL A   1      38.857  33.936  29.455  1.00  0.00     0.009 A 
ATOM     11  C   UNL A   1      39.563  34.547  31.653  1.00  0.00     0.009 A 
ATOM     12  C   UNL A   1      37.538  33.821  29.897  1.00  0.00     0.005 A 
ATOM     13  C   UNL A   1      38.247  34.367  32.114  1.00  0.00     0.005 A 
BRANCH   9  14
ATOM     14  C   UNL A   1      41.283  34.428  29.789  1.00  0.00    -0.017 A 
ATOM     15  C   UNL A   1      42.967  35.487  28.358  1.00  0.00     0.008 A 
ATOM     16  C   UNL A   1      43.975  34.786  29.020  1.00  0.00     0.015 A 
ATOM     17  C   UNL A   1      41.632  35.328  28.764  1.00  0.00     0.023 A 
ATOM     18  C   UNL A   1      43.654  33.856  29.999  1.00  0.00     0.002 A 
ATOM     19  C   UNL A   1      42.322  33.667  30.361  1.00  0.00     0.009 A 
BRANCH  15  20
ATOM     20  S   UNL A   1      43.375  36.645  27.064  1.00  0.00    -0.126 SA
BRANCH  20  21
ATOM     21  C   UNL A   1      42.027  37.868  27.246  1.00  0.00     0.071 C 
ATOM     22  C   UNL A   1      42.427  39.293  26.898  1.00  0.00     0.016 C 
ENDBRANCH  20  21
ENDBRANCH  15  20
ENDBRANCH   9  14
ENDBRANCH   6   8
ENDBRANCH   3   6
ENDBRANCH   1   2
BRANCH   1  23
ATOM     23  C   UNL A   1      34.169  34.925  28.618  1.00  0.00     0.042 C 
BRANCH  23  24
ATOM     24  C   UNL A   1      34.917  33.713  28.083  1.00  0.00     0.118 C 
BRANCH  24  25
ATOM     25  N   UNL A   1      34.028  32.586  27.839  1.00  0.00    -0.352 N 
ATOM     26  C   UNL A   1      34.288  31.235  27.840  1.00  0.00     0.251 C 
ATOM     27  H   UNL A   1      33.094  32.828  27.643  1.00  0.00     0.163 HD
ATOM     28  O   UNL A   1      33.451  30.467  27.375  1.00  0.00    -0.269 OA
BRANCH  26  29
ATOM     29  C   UNL A   1      35.565  30.712  28.378  1.00  0.00     0.039 A 
ATOM     30  C   UNL A   1      35.566  30.057  29.613  1.00  0.00     0.014 A 
ATOM     31  C   UNL A   1      36.765  30.893  27.688  1.00  0.00     0.014 A 
ATOM     32  C   UNL A   1      36.758  29.530  30.122  1.00  0.00     0.010 A 
ATOM     33  C   UNL A   1      37.931  30.288  28.148  1.00  0.00     0.010 A 
ATOM     34  C   UNL A   1      37.944  29.610  29.376  1.00  0.00    -0.014 A 
BRANCH  34  35
ATOM     35  C   UNL A   1      39.224  29.034  29.871  1.00  0.00     0.031 A 
ATOM     36  C   UNL A   1      39.954  29.712  31.001  1.00  0.00     0.074 A 
ATOM     37  C   UNL A   1      39.760  27.956  29.266  1.00  0.00     0.049 A 
ATOM     38  N   UNL A   1      41.144  29.469  31.484  1.00  0.00    -0.248 NA
ATOM     39  C   UNL A   1      39.261  30.836  31.652  1.00  0.00     0.031 C 
ATOM     40  C   UNL A   1      39.161  27.229  28.144  1.00  0.00     0.029 A 
ATOM     41  N   UNL A   1      40.942  27.293  29.494  1.00  0.00    -0.354 N 
ATOM     42  C   UNL A   1      41.347  30.413  32.485  1.00  0.00     0.074 A 
ATOM     43  C   UNL A   1      40.187  31.278  32.488  1.00  0.00     0.031 C 
ATOM     44  C   UNL A   1      39.972  26.219  27.791  1.00  0.00     0.029 A 
ATOM     45  C   UNL A   1      41.174  26.257  28.617  1.00  0.00     0.049 A 
ATOM     46  H   UNL A   1      41.565  27.536  30.217  1.00  0.00     0.167 HD
ATOM     47  C   UNL A   1      42.390  30.532  33.343  1.00  0.00     0.034 A 
ATOM     48  C   UNL A   1      42.245  25.450  28.477  1.00  0.00     0.034 A 
ATOM     49  C   UNL A   1      43.536  29.657  33.331  1.00  0.00     0.049 A 
ATOM     50  C   UNL A   1      43.418  25.629  29.413  1.00  0.00     0.074 A 
ATOM     51  C   UNL A   1      44.640  29.671  34.165  1.00  0.00     0.029 A 
ATOM     52  N   UNL A   1      43.726  28.609  32.439  1.00  0.00    -0.354 N 
ATOM     53  N   UNL A   1      43.581  26.513  30.371  1.00  0.00    -0.248 NA
ATOM     54  C   UNL A   1      44.542  24.697  29.258  1.00  0.00     0.031 C 
ATOM     55  C   UNL A   1      45.526  28.677  33.738  1.00  0.00     0.029 A 
ATOM     56  C   UNL A   1      44.938  27.983  32.692  1.00  0.00     0.049 A 
ATOM     57  H   UNL A   1      43.094  28.348  31.732  1.00  0.00     0.167 HD
ATOM     58  C   UNL A   1      44.810  26.213  30.957  1.00  0.00     0.074 A 
ATOM     59  C   UNL A   1      45.335  25.063  30.254  1.00  0.00     0.031 C 
ATOM     60  C   UNL A   1      45.442  26.829  31.988  1.00  0.00     0.034 A 
BRANCH  47  61
ATOM     61  C   UNL A   1      42.340  31.653  34.351  1.00  0.00     0.023 A 
ATOM     62  C   UNL A   1      41.469  31.609  35.455  1.00  0.00     0.031 A 
ATOM     63  C   UNL A   1      43.156  32.789  34.206  1.00  0.00     0.131 A 
ATOM     64  C   UNL A   1      41.382  32.705  36.326  1.00  0.00     0.055 A 
ATOM     65  C   UNL A   1      43.126  33.841  35.124  1.00  0.00     0.041 A 
ATOM     66  F   UNL A   1      43.991  32.901  33.161  1.00  0.00    -0.206 F 
ATOM     67  C   UNL A   1      42.226  33.809  36.185  1.00  0.00     0.022 A 
BRANCH  64  68
ATOM     68  S   UNL A   1      40.055  32.724  37.560  1.00  0.00     0.124 S 
ATOM     69  O   UNL A   1      39.184  31.656  37.072  1.00  0.00    -0.237 OA
ATOM     70  O   UNL A   1      40.770  32.449  38.800  1.00  0.00    -0.237 OA
ATOM     71  O   UNL A   1      39.499  34.071  37.445  1.00  0.00    -0.744 OA
ENDBRANCH  64  68
ENDBRANCH  47  61
BRANCH  48  72
ATOM     72  C   UNL A   1      42.286  24.419  27.396  1.00  0.00     0.023 A 
ATOM     73  C   UNL A   1      41.655  23.175  27.552  1.00  0.00     0.031 A 
ATOM     74  C   UNL A   1      43.017  24.640  26.214  1.00  0.00     0.131 A 
ATOM     75  C   UNL A   1      41.821  22.177  26.579  1.00  0.00     0.055 A 
ATOM     76  C   UNL A   1      43.122  23.668  25.217  1.00  0.00     0.041 A 
ATOM     77  F   UNL A   1      43.639  25.810  26.007  1.00  0.00    -0.206 F 
ATOM     78  C   UNL A   1      42.537  22.420  25.406  1.00  0.00     0.022 A 
BRANCH  75  79
ATOM     79  S   UNL A   1      41.190  20.512  26.928  1.00  0.00     0.124 S 
ATOM     80  O   UNL A   1      40.035  20.441  26.040  1.00  0.00    -0.237 OA
ATOM     81  O   UNL A   1      42.329  19.675  26.570  1.00  0.00    -0.237 OA
ATOM     82  O   UNL A   1      40.878  20.560  28.355  1.00  0.00    -0.744 OA
ENDBRANCH  75  79
ENDBRANCH  48  72
BRANCH  60  83
ATOM     83  C   UNL A   1      46.740  26.224  32.466  1.00  0.00     0.023 A 
ATOM     84  C   UNL A   1      46.777  25.164  33.387  1.00  0.00     0.031 A 
ATOM     85  C   UNL A   1      47.963  26.716  31.972  1.00  0.00     0.131 A 
ATOM     86  C   UNL A   1      48.013  24.662  33.823  1.00  0.00     0.055 A 
ATOM     87  C   UNL A   1      49.186  26.170  32.362  1.00  0.00     0.041 A 
ATOM     88  F   UNL A   1      47.987  27.730  31.092  1.00  0.00    -0.206 F 
ATOM     89  C   UNL A   1      49.216  25.144  33.301  1.00  0.00     0.022 A 
BRANCH  86  90
ATOM     90  S   UNL A   1      48.033  23.422  35.147  1.00  0.00     0.124 S 
ATOM     91  O   UNL A   1      47.351  24.123  36.229  1.00  0.00    -0.237 OA
ATOM     92  O   UNL A   1      47.303  22.311  34.546  1.00  0.00    -0.237 OA
ATOM     93  O   UNL A   1      49.458  23.179  35.367  1.00  0.00    -0.744 OA
ENDBRANCH  86  90
ENDBRANCH  60  83
ENDBRANCH  34  35
ENDBRANCH  26  29
ENDBRANCH  24  25
ENDBRANCH  23  24
ENDBRANCH   1  23
TORSDOF 17
ENDMDL
MODEL 2
REMARK VINA RESULT:     -10.0      1.839      2.160
REMARK SMILES CCSc1cccc(-c2ccc([C@@H](C)C(=O)NCCCNC(=O)c3ccc(-c4c5nc(c(-c6cc(S(=O)(=O)[O-])ccc6F)c6ccc([nH]6)c(-c6cc(S(=O)(=O)[O-])ccc6F)c6nc(c(-c7cc(S(=O)(=O)[O-])ccc7F)c7ccc4[nH]7)C=C6)C=C5)cc3)cc2)c1
REMARK SMILES IDX 18 1 17 2 15 3 16 4 13 6 14 7 12 8 9 9 10 10 88 11 11 12
REMARK SMILES IDX 87 13 8 14 4 15 5 16 89 17 6 18 7 19 3 20 2 21 1 22 19 23
REMARK SMILES IDX 20 24 21 25 22 26 23 28 24 29 25 30 86 31 26 32 85 33 27 34
REMARK SMILES IDX 28 35 29 36 79 37 30 38 84 39 78 40 80 41 31 42 83 43 77 44
REMARK SMILES IDX 76 45 32 47 64 48 44 49 63 50 45 51 48 52 62 53 81 54 46 55
REMARK SMILES IDX 47 56 61 58 82 59 49 60 33 61 34 62 42 63 35 64 41 65 43 66
REMARK SMILES IDX 40 67 36 68 37 69 38 70 39 71 65 72 66 73 74 74 67 75 73 76
REMARK SMILES IDX 75 77 72 78 68 79 69 80 70 81 71 82 50 83 51 84 59 85 52 86
REMARK SMILES IDX 58 87 60 88 57 89 53 90 54 91 55 92 56 93
REMARK H PARENT 17 5 21 27 80 46 48 57
REMARK Flexibility Score: inf
ROOT
ATOM      1  C   UNL A   1      33.515  34.662  29.743  1.00  0.00     0.117 C 
ENDROOT
BRANCH   1   2
ATOM      2  N   UNL A   1      34.030  35.234  30.973  1.00  0.00    -0.356 N 
ATOM      3  C   UNL A   1      34.950  34.796  31.874  1.00  0.00     0.227 C 
ATOM      4  O   UNL A   1      35.135  35.521  32.860  1.00  0.00    -0.274 OA
ATOM      5  H   UNL A   1      33.637  36.108  31.199  1.00  0.00     0.163 HD
BRANCH   3   6
ATOM      6  C   UNL A   1      35.766  33.501  31.720  1.00  0.00     0.105 C 
ATOM      7  C   UNL A   1      35.569  32.501  32.861  1.00  0.00     0.023 C 
BRANCH   6   8
ATOM      8  C   UNL A   1      37.206  33.730  31.294  1.00  0.00    -0.036 A 
ATOM      9  C   UNL A   1      39.967  33.995  30.586  1.00  0.00    -0.018 A 
ATOM     10  C   UNL A   1      39.000  33.556  29.668  1.00  0.00     0.009 A 
ATOM     11  C   UNL A   1      39.511  34.327  31.869  1.00  0.00     0.009 A 
ATOM     12  C   UNL A   1      37.647  33.472  29.998  1.00  0.00     0.005 A 
ATOM     13  C   UNL A   1      38.159  34.179  32.223  1.00  0.00     0.005 A 
BRANCH   9  14
ATOM     14  C   UNL A   1      41.389  34.076  30.180  1.00  0.00    -0.017 A 
ATOM     15  C   UNL A   1      43.239  35.169  29.002  1.00  0.00     0.008 A 
ATOM     16  C   UNL A   1      44.149  34.336  29.652  1.00  0.00     0.015 A 
ATOM     17  C   UNL A   1      41.870  35.055  29.290  1.00  0.00     0.023 A 
ATOM     18  C   UNL A   1      43.699  33.330  30.495  1.00  0.00     0.002 A 
ATOM     19  C   UNL A   1      42.334  33.191  30.737  1.00  0.00     0.009 A 
BRANCH  15  20
ATOM     20  S   UNL A   1      43.814  36.429  27.878  1.00  0.00    -0.126 SA
BRANCH  20  21
ATOM     21  C   UNL A   1      44.347  35.415  26.452  1.00  0.00     0.071 C 
ATOM     22  C   UNL A   1      43.228  34.619  25.800  1.00  0.00     0.016 C 
ENDBRANCH  20  21
ENDBRANCH  15  20
ENDBRANCH   9  14
ENDBRANCH   6   8
ENDBRANCH   3   6
ENDBRANCH   1   2
BRANCH   1  23
ATOM     23  C   UNL A   1      34.433  34.924  28.552  1.00  0.00     0.042 C 
BRANCH  23  24
ATOM     24  C   UNL A   1      35.148  33.681  28.046  1.00  0.00     0.118 C 
BRANCH  24  25
ATOM     25  N   UNL A   1      34.225  32.582  27.797  1.00  0.00    -0.352 N 
ATOM     26  C   UNL A   1      34.443  31.223  27.800  1.00  0.00     0.251 C 
ATOM     27  H   UNL A   1      33.301  32.854  27.596  1.00  0.00     0.163 HD
ATOM     28  O   UNL A   1      33.585  30.482  27.330  1.00  0.00    -0.269 OA
BRANCH  26  29
ATOM     29  C   UNL A   1      35.700  30.661  28.345  1.00  0.00     0.039 A 
ATOM     30  C   UNL A   1      35.697  30.106  29.629  1.00  0.00     0.014 A 
ATOM     31  C   UNL A   1      36.887  30.706  27.612  1.00  0.00     0.014 A 
ATOM     32  C   UNL A   1      36.867  29.543  30.147  1.00  0.00     0.010 A 
ATOM     33  C   UNL A   1      38.025  30.063  28.089  1.00  0.00     0.010 A 
ATOM     34  C   UNL A   1      38.033  29.484  29.367  1.00  0.00    -0.014 A 
BRANCH  34  35
ATOM     35  C   UNL A   1      39.287  28.865  29.874  1.00  0.00     0.031 A 
ATOM     36  C   UNL A   1      39.971  29.455  31.079  1.00  0.00     0.074 A 
ATOM     37  C   UNL A   1      39.844  27.829  29.217  1.00  0.00     0.049 A 
ATOM     38  N   UNL A   1      41.139  29.170  31.594  1.00  0.00    -0.248 NA
ATOM     39  C   UNL A   1      39.256  30.536  31.778  1.00  0.00     0.031 C 
ATOM     40  C   UNL A   1      39.291  27.188  28.022  1.00  0.00     0.029 A 
ATOM     41  N   UNL A   1      41.012  27.143  29.447  1.00  0.00    -0.354 N 
ATOM     42  C   UNL A   1      41.302  30.040  32.667  1.00  0.00     0.074 A 
ATOM     43  C   UNL A   1      40.147  30.911  32.682  1.00  0.00     0.031 C 
ATOM     44  C   UNL A   1      40.111  26.200  27.633  1.00  0.00     0.029 A 
ATOM     45  C   UNL A   1      41.277  26.170  28.509  1.00  0.00     0.049 A 
ATOM     46  H   UNL A   1      41.605  27.329  30.211  1.00  0.00     0.167 HD
ATOM     47  C   UNL A   1      42.309  30.089  33.575  1.00  0.00     0.034 A 
ATOM     48  C   UNL A   1      42.349  25.366  28.358  1.00  0.00     0.034 A 
ATOM     49  C   UNL A   1      43.450  29.208  33.549  1.00  0.00     0.049 A 
ATOM     50  C   UNL A   1      43.482  25.470  29.353  1.00  0.00     0.074 A 
ATOM     51  C   UNL A   1      44.518  29.156  34.428  1.00  0.00     0.029 A 
ATOM     52  N   UNL A   1      43.674  28.225  32.594  1.00  0.00    -0.354 N 
ATOM     53  N   UNL A   1      43.608  26.283  30.378  1.00  0.00    -0.248 NA
ATOM     54  C   UNL A   1      44.608  24.543  29.180  1.00  0.00     0.031 C 
ATOM     55  C   UNL A   1      45.416  28.188  33.969  1.00  0.00     0.029 A 
ATOM     56  C   UNL A   1      44.870  27.574  32.853  1.00  0.00     0.049 A 
ATOM     57  H   UNL A   1      43.071  28.020  31.843  1.00  0.00     0.167 HD
ATOM     58  C   UNL A   1      44.809  25.933  30.992  1.00  0.00     0.074 A 
ATOM     59  C   UNL A   1      45.359  24.832  30.232  1.00  0.00     0.031 C 
ATOM     60  C   UNL A   1      45.400  26.469  32.090  1.00  0.00     0.034 A 
BRANCH  47  61
ATOM     61  C   UNL A   1      42.220  31.137  34.657  1.00  0.00     0.023 A 
ATOM     62  C   UNL A   1      42.644  32.460  34.435  1.00  0.00     0.031 A 
ATOM     63  C   UNL A   1      41.723  30.813  35.932  1.00  0.00     0.131 A 
ATOM     64  C   UNL A   1      42.630  33.387  35.487  1.00  0.00     0.055 A 
ATOM     65  C   UNL A   1      41.632  31.764  36.951  1.00  0.00     0.041 A 
ATOM     66  F   UNL A   1      41.324  29.563  36.213  1.00  0.00    -0.206 F 
ATOM     67  C   UNL A   1      42.100  33.057  36.736  1.00  0.00     0.022 A 
BRANCH  64  68
ATOM     68  S   UNL A   1      43.443  34.988  35.237  1.00  0.00     0.124 S 
ATOM     69  O   UNL A   1      44.538  34.916  36.203  1.00  0.00    -0.237 OA
ATOM     70  O   UNL A   1      43.827  34.934  33.831  1.00  0.00    -0.237 OA
ATOM     71  O   UNL A   1      42.399  35.958  35.562  1.00  0.00    -0.744 OA
ENDBRANCH  64  68
ENDBRANCH  47  61
BRANCH  48  72
ATOM     72  C   UNL A   1      42.432  24.415  27.209  1.00  0.00     0.023 A 
ATOM     73  C   UNL A   1      41.841  23.143  27.273  1.00  0.00     0.031 A 
ATOM     74  C   UNL A   1      43.164  24.740  26.051  1.00  0.00     0.131 A 
ATOM     75  C   UNL A   1      42.047  22.221  26.235  1.00  0.00     0.055 A 
ATOM     76  C   UNL A   1      43.309  23.844  24.992  1.00  0.00     0.041 A 
ATOM     77  F   UNL A   1      43.750  25.941  25.932  1.00  0.00    -0.206 F 
ATOM     78  C   UNL A   1      42.764  22.567  25.088  1.00  0.00     0.022 A 
BRANCH  75  79
ATOM     79  S   UNL A   1      41.468  20.517  26.462  1.00  0.00     0.124 S 
ATOM     80  O   UNL A   1      41.921  20.229  27.818  1.00  0.00    -0.237 OA
ATOM     81  O   UNL A   1      40.027  20.660  26.281  1.00  0.00    -0.237 OA
ATOM     82  O   UNL A   1      42.157  19.780  25.403  1.00  0.00    -0.744 OA
ENDBRANCH  75  79
ENDBRANCH  48  72
BRANCH  60  83
ATOM     83  C   UNL A   1      46.673  25.822  32.579  1.00  0.00     0.023 A 
ATOM     84  C   UNL A   1      47.927  26.124  32.021  1.00  0.00     0.031 A 
ATOM     85  C   UNL A   1      46.624  24.894  33.636  1.00  0.00     0.131 A 
ATOM     86  C   UNL A   1      49.075  25.467  32.491  1.00  0.00     0.055 A 
ATOM     87  C   UNL A   1      47.777  24.293  34.141  1.00  0.00     0.041 A 
ATOM     88  F   UNL A   1      45.452  24.567  34.204  1.00  0.00    -0.206 F 
ATOM     89  C   UNL A   1      49.010  24.570  33.560  1.00  0.00     0.022 A 
BRANCH  86  90
ATOM     90  S   UNL A   1      50.649  25.739  31.632  1.00  0.00     0.124 S 
ATOM     91  O   UNL A   1      51.615  25.239  32.605  1.00  0.00    -0.237 OA
ATOM     92  O   UNL A   1      50.488  24.937  30.423  1.00  0.00    -0.237 OA
ATOM     93  O   UNL A   1      50.678  27.184  31.417  1.00  0.00    -0.744 OA
ENDBRANCH  86  90
ENDBRANCH  60  83
ENDBRANCH  34  35
ENDBRANCH  26  29
ENDBRANCH  24  25
ENDBRANCH  23  24
ENDBRANCH   1  23
TORSDOF 17
ENDMDL
MODEL 3
REMARK VINA RESULT:      -9.9      4.046      7.764
REMARK SMILES CCSc1cccc(-c2ccc([C@@H](C)C(=O)NCCCNC(=O)c3ccc(-c4c5nc(c(-c6cc(S(=O)(=O)[O-])ccc6F)c6ccc([nH]6)c(-c6cc(S(=O)(=O)[O-])ccc6F)c6nc(c(-c7cc(S(=O)(=O)[O-])ccc7F)c7ccc4[nH]7)C=C6)C=C5)cc3)cc2)c1
REMARK SMILES IDX 18 1 17 2 15 3 16 4 13 6 14 7 12 8 9 9 10 10 88 11 11 12
REMARK SMILES IDX 87 13 8 14 4 15 5 16 89 17 6 18 7 19 3 20 2 21 1 22 19 23
REMARK SMILES IDX 20 24 21 25 22 26 23 28 24 29 25 30 86 31 26 32 85 33 27 34
REMARK SMILES IDX 28 35 29 36 79 37 30 38 84 39 78 40 80 41 31 42 83 43 77 44
REMARK SMILES IDX 76 45 32 47 64 48 44 49 63 50 45 51 48 52 62 53 81 54 46 55
REMARK SMILES IDX 47 56 61 58 82 59 49 60 33 61 34 62 42 63 35 64 41 65 43 66
REMARK SMILES IDX 40 67 36 68 37 69 38 70 39 71 65 72 66 73 74 74 67 75 73 76
REMARK SMILES IDX 75 77 72 78 68 79 69 80 70 81 71 82 50 83 51 84 59 85 52 86
REMARK SMILES IDX 58 87 60 88 57 89 53 90 54 91 55 92 56 93
REMARK H PARENT 17 5 21 27 80 46 48 57
REMARK Flexibility Score: inf
ROOT
ATOM      1  C   UNL A   1      31.623  28.221  25.805  1.00  0.00     0.117 C 
ENDROOT
BRANCH   1   2
ATOM      2  N   UNL A   1      31.757  28.819  24.491  1.00  0.00    -0.356 N 
ATOM      3  C   UNL A   1      31.349  28.420  23.255  1.00  0.00     0.227 C 
ATOM      4  O   UNL A   1      31.666  29.157  22.313  1.00  0.00    -0.274 OA
ATOM      5  H   UNL A   1      32.236  29.679  24.492  1.00  0.00     0.163 HD
BRANCH   3   6
ATOM      6  C   UNL A   1      30.517  27.156  22.983  1.00  0.00     0.105 C 
ATOM      7  C   UNL A   1      29.084  27.226  23.511  1.00  0.00     0.023 C 
BRANCH   6   8
ATOM      8  C   UNL A   1      31.257  25.861  23.274  1.00  0.00    -0.036 A 
ATOM      9  C   UNL A   1      32.760  23.522  23.952  1.00  0.00    -0.018 A 
ATOM     10  C   UNL A   1      31.457  23.734  24.428  1.00  0.00     0.009 A 
ATOM     11  C   UNL A   1      33.287  24.502  23.100  1.00  0.00     0.009 A 
ATOM     12  C   UNL A   1      30.706  24.851  24.060  1.00  0.00     0.005 A 
ATOM     13  C   UNL A   1      32.557  25.660  22.782  1.00  0.00     0.005 A 
BRANCH   9  14
ATOM     14  C   UNL A   1      33.511  22.313  24.367  1.00  0.00    -0.017 A 
ATOM     15  C   UNL A   1      33.634  19.922  24.888  1.00  0.00     0.008 A 
ATOM     16  C   UNL A   1      35.027  19.993  24.899  1.00  0.00     0.015 A 
ATOM     17  C   UNL A   1      32.885  21.072  24.594  1.00  0.00     0.023 A 
ATOM     18  C   UNL A   1      35.667  21.212  24.727  1.00  0.00     0.002 A 
ATOM     19  C   UNL A   1      34.914  22.359  24.486  1.00  0.00     0.009 A 
BRANCH  15  20
ATOM     20  S   UNL A   1      32.809  18.364  25.159  1.00  0.00    -0.126 SA
BRANCH  20  21
ATOM     21  C   UNL A   1      34.095  17.183  24.613  1.00  0.00     0.071 C 
ATOM     22  C   UNL A   1      34.089  16.902  23.119  1.00  0.00     0.016 C 
ENDBRANCH  20  21
ENDBRANCH  15  20
ENDBRANCH   9  14
ENDBRANCH   6   8
ENDBRANCH   3   6
ENDBRANCH   1   2
BRANCH   1  23
ATOM     23  C   UNL A   1      32.972  28.007  26.486  1.00  0.00     0.042 C 
BRANCH  23  24
ATOM     24  C   UNL A   1      34.044  28.992  26.043  1.00  0.00     0.118 C 
BRANCH  24  25
ATOM     25  N   UNL A   1      33.821  30.324  26.587  1.00  0.00    -0.352 N 
ATOM     26  C   UNL A   1      34.454  30.978  27.619  1.00  0.00     0.251 C 
ATOM     27  H   UNL A   1      33.106  30.838  26.147  1.00  0.00     0.163 HD
ATOM     28  O   UNL A   1      33.952  32.002  28.072  1.00  0.00    -0.269 OA
BRANCH  26  29
ATOM     29  C   UNL A   1      35.713  30.447  28.190  1.00  0.00     0.039 A 
ATOM     30  C   UNL A   1      35.662  29.696  29.368  1.00  0.00     0.014 A 
ATOM     31  C   UNL A   1      36.945  30.712  27.590  1.00  0.00     0.014 A 
ATOM     32  C   UNL A   1      36.837  29.160  29.905  1.00  0.00     0.010 A 
ATOM     33  C   UNL A   1      38.100  30.103  28.070  1.00  0.00     0.010 A 
ATOM     34  C   UNL A   1      38.063  29.329  29.240  1.00  0.00    -0.014 A 
BRANCH  34  35
ATOM     35  C   UNL A   1      39.328  28.749  29.765  1.00  0.00     0.031 A 
ATOM     36  C   UNL A   1      39.983  29.367  30.972  1.00  0.00     0.074 A 
ATOM     37  C   UNL A   1      39.919  27.722  29.123  1.00  0.00     0.049 A 
ATOM     38  N   UNL A   1      41.153  29.118  31.500  1.00  0.00    -0.248 NA
ATOM     39  C   UNL A   1      39.232  30.434  31.654  1.00  0.00     0.031 C 
ATOM     40  C   UNL A   1      39.395  27.056  27.928  1.00  0.00     0.029 A 
ATOM     41  N   UNL A   1      41.103  27.070  29.371  1.00  0.00    -0.354 N 
ATOM     42  C   UNL A   1      41.282  30.001  32.567  1.00  0.00     0.074 A 
ATOM     43  C   UNL A   1      40.104  30.840  32.563  1.00  0.00     0.031 C 
ATOM     44  C   UNL A   1      40.245  26.087  27.555  1.00  0.00     0.029 A 
ATOM     45  C   UNL A   1      41.403  26.096  28.444  1.00  0.00     0.049 A 
ATOM     46  H   UNL A   1      41.682  27.279  30.138  1.00  0.00     0.167 HD
ATOM     47  C   UNL A   1      42.278  30.085  33.484  1.00  0.00     0.034 A 
ATOM     48  C   UNL A   1      42.498  25.320  28.310  1.00  0.00     0.034 A 
ATOM     49  C   UNL A   1      43.443  29.235  33.478  1.00  0.00     0.049 A 
ATOM     50  C   UNL A   1      43.617  25.464  29.315  1.00  0.00     0.074 A 
ATOM     51  C   UNL A   1      44.502  29.219  34.367  1.00  0.00     0.029 A 
ATOM     52  N   UNL A   1      43.702  28.250  32.533  1.00  0.00    -0.354 N 
ATOM     53  N   UNL A   1      43.711  26.288  30.334  1.00  0.00    -0.248 NA
ATOM     54  C   UNL A   1      44.769  24.566  29.161  1.00  0.00     0.031 C 
ATOM     55  C   UNL A   1      45.431  28.272  33.926  1.00  0.00     0.029 A 
ATOM     56  C   UNL A   1      44.913  27.634  32.810  1.00  0.00     0.049 A 
ATOM     57  H   UNL A   1      43.113  28.022  31.779  1.00  0.00     0.167 HD
ATOM     58  C   UNL A   1      44.914  25.976  30.964  1.00  0.00     0.074 A 
ATOM     59  C   UNL A   1      45.502  24.883  30.218  1.00  0.00     0.031 C 
ATOM     60  C   UNL A   1      45.480  26.537  32.063  1.00  0.00     0.034 A 
BRANCH  47  61
ATOM     61  C   UNL A   1      42.150  31.139  34.557  1.00  0.00     0.023 A 
ATOM     62  C   UNL A   1      42.658  32.438  34.373  1.00  0.00     0.031 A 
ATOM     63  C   UNL A   1      41.530  30.845  35.784  1.00  0.00     0.131 A 
ATOM     64  C   UNL A   1      42.602  33.368  35.421  1.00  0.00     0.055 A 
ATOM     65  C   UNL A   1      41.401  31.802  36.792  1.00  0.00     0.041 A 
ATOM     66  F   UNL A   1      41.046  29.617  36.028  1.00  0.00    -0.206 F 
ATOM     67  C   UNL A   1      41.951  33.069  36.620  1.00  0.00     0.022 A 
BRANCH  64  68
ATOM     68  S   UNL A   1      43.513  34.926  35.243  1.00  0.00     0.124 S 
ATOM     69  O   UNL A   1      44.899  34.466  35.330  1.00  0.00    -0.237 OA
ATOM     70  O   UNL A   1      43.079  35.401  33.935  1.00  0.00    -0.237 OA
ATOM     71  O   UNL A   1      43.058  35.722  36.381  1.00  0.00    -0.744 OA
ENDBRANCH  64  68
ENDBRANCH  47  61
BRANCH  48  72
ATOM     72  C   UNL A   1      42.618  24.362  27.170  1.00  0.00     0.023 A 
ATOM     73  C   UNL A   1      42.034  23.086  27.228  1.00  0.00     0.031 A 
ATOM     74  C   UNL A   1      43.378  24.684  26.031  1.00  0.00     0.131 A 
ATOM     75  C   UNL A   1      42.273  22.159  26.202  1.00  0.00     0.055 A 
ATOM     76  C   UNL A   1      43.557  23.781  24.981  1.00  0.00     0.041 A 
ATOM     77  F   UNL A   1      43.958  25.889  25.918  1.00  0.00    -0.206 F 
ATOM     78  C   UNL A   1      43.018  22.502  25.072  1.00  0.00     0.022 A 
BRANCH  75  79
ATOM     79  S   UNL A   1      41.700  20.452  26.426  1.00  0.00     0.124 S 
ATOM     80  O   UNL A   1      40.267  20.587  26.188  1.00  0.00    -0.237 OA
ATOM     81  O   UNL A   1      42.458  19.741  25.402  1.00  0.00    -0.237 OA
ATOM     82  O   UNL A   1      42.079  20.145  27.804  1.00  0.00    -0.744 OA
ENDBRANCH  75  79
ENDBRANCH  48  72
BRANCH  60  83
ATOM     83  C   UNL A   1      46.765  25.929  32.569  1.00  0.00     0.023 A 
ATOM     84  C   UNL A   1      46.781  24.920  33.548  1.00  0.00     0.031 A 
ATOM     85  C   UNL A   1      47.997  26.364  32.045  1.00  0.00     0.131 A 
ATOM     86  C   UNL A   1      48.006  24.414  34.006  1.00  0.00     0.055 A 
ATOM     87  C   UNL A   1      49.208  25.810  32.460  1.00  0.00     0.041 A 
ATOM     88  F   UNL A   1      48.041  27.326  31.110  1.00  0.00    -0.206 F 
ATOM     89  C   UNL A   1      49.218  24.838  33.455  1.00  0.00     0.022 A 
BRANCH  86  90
ATOM     90  S   UNL A   1      48.004  23.249  35.397  1.00  0.00     0.124 S 
ATOM     91  O   UNL A   1      48.979  23.852  36.299  1.00  0.00    -0.237 OA
ATOM     92  O   UNL A   1      46.614  23.293  35.839  1.00  0.00    -0.237 OA
ATOM     93  O   UNL A   1      48.420  21.987  34.788  1.00  0.00    -0.744 OA
ENDBRANCH  86  90
ENDBRANCH  60  83
ENDBRANCH  34  35
ENDBRANCH  26  29
ENDBRANCH  24  25
ENDBRANCH  23  24
ENDBRANCH   1  23
TORSDOF 17
ENDMDL
