MODEL 1
REMARK VINA RESULT:     -10.5      0.000      0.000
REMARK SMILES [N-]=[N+]=NC[C@@H](Nc1ccccc1Br)C(=O)NCCCNC(=O)c1ccc(-c2c3nc(c(-c4cc(S(=O)(=O)[O-])ccc4F)c4ccc([nH]4)c(-c4cc(S(=O)(=O)[O-])ccc4F)c4nc(c(-c5cc(S(=O)(=O)[O-])ccc5F)c5ccc2[nH]5)C=C4)C=C3)cc1
REMARK SMILES IDX 18 1 17 2 16 3 14 4 15 5 5 7 4 8 3 9 1 10 2 11 6 12 7 14
REMARK SMILES IDX 8 15 12 16 9 17 11 18 13 19 10 20 19 21 20 22 21 23 22 25
REMARK SMILES IDX 23 26 24 27 85 28 25 29 84 30 26 31 27 32 28 33 78 34 29 35
REMARK SMILES IDX 83 36 77 37 79 38 30 39 82 40 76 41 75 42 31 44 63 45 43 46
REMARK SMILES IDX 62 47 44 48 47 49 61 50 80 51 45 52 46 53 60 55 81 56 48 57
REMARK SMILES IDX 32 58 33 59 41 60 34 61 40 62 42 63 39 64 35 65 36 66 37 67
REMARK SMILES IDX 38 68 64 69 65 70 73 71 66 72 72 73 74 74 71 75 67 76 68 77
REMARK SMILES IDX 69 78 70 79 49 80 50 81 58 82 51 83 57 84 59 85 56 86 52 87
REMARK SMILES IDX 53 88 54 89 55 90
REMARK H PARENT 16 6 6 13 20 24 79 43 47 54
REMARK Flexibility Score: inf
ROOT
ATOM      1  C   UNL A   1      41.220  19.794  27.013  1.00  0.00     0.042 C 
ENDROOT
BRANCH   1   2
ATOM      2  C   UNL A   1      42.588  19.821  26.357  1.00  0.00     0.117 C 
BRANCH   2   3
ATOM      3  N   UNL A   1      42.672  20.852  25.340  1.00  0.00    -0.354 N 
ATOM      4  C   UNL A   1      43.659  21.757  25.087  1.00  0.00     0.242 C 
ATOM      5  O   UNL A   1      43.436  22.591  24.200  1.00  0.00    -0.273 OA
ATOM      6  H   UNL A   1      41.896  20.906  24.739  1.00  0.00     0.163 HD
BRANCH   4   7
ATOM      7  C   UNL A   1      44.960  21.814  25.912  1.00  0.00     0.174 C 
BRANCH   7   8
ATOM      8  C   UNL A   1      46.079  21.205  25.035  1.00  0.00     0.125 C 
BRANCH   8   9
ATOM      9  N   UNL A   1      45.610  20.008  24.306  1.00  0.00    -0.091 NA
ATOM     10  N   UNL A   1      46.067  17.926  25.369  1.00  0.00    -0.003 NA
ATOM     11  N   UNL A   1      45.864  18.916  24.842  1.00  0.00     0.001 N 
ENDBRANCH   8   9
ENDBRANCH   7   8
BRANCH   7  12
ATOM     12  N   UNL A   1      45.344  23.149  26.440  1.00  0.00    -0.373 N 
ATOM     13  H   UNL A   1      46.007  23.652  25.915  1.00  0.00     0.161 HD
BRANCH  12  14
ATOM     14  C   UNL A   1      44.875  23.763  27.589  1.00  0.00     0.049 A 
ATOM     15  C   UNL A   1      43.521  23.531  27.907  1.00  0.00     0.027 A 
ATOM     16  C   UNL A   1      45.641  24.464  28.536  1.00  0.00     0.041 A 
ATOM     17  C   UNL A   1      42.987  23.864  29.155  1.00  0.00     0.002 A 
ATOM     18  C   UNL A   1      45.110  24.795  29.792  1.00  0.00     0.018 A 
ATOM     19  Br  UNL A   1      47.371  25.154  28.144  1.00  0.00    -0.049 Br
ATOM     20  C   UNL A   1      43.793  24.470  30.109  1.00  0.00     0.001 A 
ENDBRANCH  12  14
ENDBRANCH   7  12
ENDBRANCH   4   7
ENDBRANCH   2   3
ENDBRANCH   1   2
BRANCH   1  21
ATOM     21  C   UNL A   1      40.659  21.185  27.268  1.00  0.00     0.118 C 
BRANCH  21  22
ATOM     22  N   UNL A   1      39.462  21.455  26.480  1.00  0.00    -0.352 N 
ATOM     23  C   UNL A   1      38.784  22.636  26.303  1.00  0.00     0.251 C 
ATOM     24  H   UNL A   1      39.086  20.678  26.007  1.00  0.00     0.163 HD
ATOM     25  O   UNL A   1      37.676  22.627  25.777  1.00  0.00    -0.269 OA
BRANCH  23  26
ATOM     26  C   UNL A   1      39.386  23.902  26.774  1.00  0.00     0.039 A 
ATOM     27  C   UNL A   1      40.079  24.704  25.866  1.00  0.00     0.014 A 
ATOM     28  C   UNL A   1      39.245  24.304  28.105  1.00  0.00     0.014 A 
ATOM     29  C   UNL A   1      40.570  25.944  26.281  1.00  0.00     0.010 A 
ATOM     30  C   UNL A   1      39.643  25.580  28.486  1.00  0.00     0.010 A 
ATOM     31  C   UNL A   1      40.318  26.410  27.582  1.00  0.00    -0.014 A 
BRANCH  31  32
ATOM     32  C   UNL A   1      40.765  27.759  28.017  1.00  0.00     0.031 A 
ATOM     33  C   UNL A   1      42.225  28.123  27.956  1.00  0.00     0.074 A 
ATOM     34  C   UNL A   1      39.867  28.628  28.522  1.00  0.00     0.049 A 
ATOM     35  N   UNL A   1      42.822  29.218  28.349  1.00  0.00    -0.248 NA
ATOM     36  C   UNL A   1      43.139  27.106  27.412  1.00  0.00     0.031 C 
ATOM     37  C   UNL A   1      38.434  28.368  28.676  1.00  0.00     0.029 A 
ATOM     38  N   UNL A   1      40.024  29.903  29.005  1.00  0.00    -0.354 N 
ATOM     39  C   UNL A   1      44.177  29.017  28.114  1.00  0.00     0.074 A 
ATOM     40  C   UNL A   1      44.320  27.669  27.608  1.00  0.00     0.031 C 
ATOM     41  C   UNL A   1      37.839  29.459  29.185  1.00  0.00     0.029 A 
ATOM     42  C   UNL A   1      38.852  30.476  29.446  1.00  0.00     0.049 A 
ATOM     43  H   UNL A   1      40.893  30.364  29.034  1.00  0.00     0.167 HD
ATOM     44  C   UNL A   1      45.205  29.886  28.281  1.00  0.00     0.034 A 
ATOM     45  C   UNL A   1      38.623  31.680  30.010  1.00  0.00     0.034 A 
ATOM     46  C   UNL A   1      45.039  31.232  28.772  1.00  0.00     0.049 A 
ATOM     47  C   UNL A   1      39.785  32.620  30.206  1.00  0.00     0.074 A 
ATOM     48  C   UNL A   1      45.998  32.217  28.921  1.00  0.00     0.029 A 
ATOM     49  N   UNL A   1      43.839  31.779  29.209  1.00  0.00    -0.354 N 
ATOM     50  N   UNL A   1      41.054  32.438  29.917  1.00  0.00    -0.248 NA
ATOM     51  C   UNL A   1      39.484  33.933  30.790  1.00  0.00     0.031 C 
ATOM     52  C   UNL A   1      45.396  33.327  29.521  1.00  0.00     0.029 A 
ATOM     53  C   UNL A   1      44.041  33.073  29.662  1.00  0.00     0.049 A 
ATOM     54  H   UNL A   1      42.969  31.315  29.197  1.00  0.00     0.167 HD
ATOM     55  C   UNL A   1      41.694  33.628  30.256  1.00  0.00     0.074 A 
ATOM     56  C   UNL A   1      40.669  34.523  30.750  1.00  0.00     0.031 C 
ATOM     57  C   UNL A   1      43.010  33.951  30.163  1.00  0.00     0.034 A 
BRANCH  44  58
ATOM     58  C   UNL A   1      46.596  29.396  27.954  1.00  0.00     0.023 A 
ATOM     59  C   UNL A   1      46.969  29.033  26.647  1.00  0.00     0.031 A 
ATOM     60  C   UNL A   1      47.562  29.271  28.968  1.00  0.00     0.131 A 
ATOM     61  C   UNL A   1      48.242  28.497  26.402  1.00  0.00     0.055 A 
ATOM     62  C   UNL A   1      48.856  28.818  28.704  1.00  0.00     0.041 A 
ATOM     63  F   UNL A   1      47.261  29.576  30.241  1.00  0.00    -0.206 F 
ATOM     64  C   UNL A   1      49.198  28.413  27.417  1.00  0.00     0.022 A 
BRANCH  61  65
ATOM     65  S   UNL A   1      48.578  27.773  24.774  1.00  0.00     0.124 S 
ATOM     66  O   UNL A   1      47.410  28.207  24.012  1.00  0.00    -0.237 OA
ATOM     67  O   UNL A   1      49.846  28.393  24.410  1.00  0.00    -0.237 OA
ATOM     68  O   UNL A   1      48.639  26.337  25.043  1.00  0.00    -0.744 OA
ENDBRANCH  61  65
ENDBRANCH  44  58
BRANCH  45  69
ATOM     69  C   UNL A   1      37.248  32.062  30.447  1.00  0.00     0.023 A 
ATOM     70  C   UNL A   1      36.342  32.659  29.555  1.00  0.00     0.031 A 
ATOM     71  C   UNL A   1      36.835  31.881  31.780  1.00  0.00     0.131 A 
ATOM     72  C   UNL A   1      35.093  33.102  30.017  1.00  0.00     0.055 A 
ATOM     73  C   UNL A   1      35.568  32.268  32.220  1.00  0.00     0.041 A 
ATOM     74  F   UNL A   1      37.658  31.313  32.675  1.00  0.00    -0.206 F 
ATOM     75  C   UNL A   1      34.693  32.897  31.340  1.00  0.00     0.022 A 
BRANCH  72  76
ATOM     76  S   UNL A   1      34.035  34.048  28.887  1.00  0.00     0.124 S 
ATOM     77  O   UNL A   1      33.063  34.628  29.806  1.00  0.00    -0.237 OA
ATOM     78  O   UNL A   1      34.986  34.977  28.289  1.00  0.00    -0.237 OA
ATOM     79  O   UNL A   1      33.508  33.028  27.981  1.00  0.00    -0.744 OA
ENDBRANCH  72  76
ENDBRANCH  45  69
BRANCH  57  80
ATOM     80  C   UNL A   1      43.401  35.355  30.562  1.00  0.00     0.023 A 
ATOM     81  C   UNL A   1      43.425  36.411  29.634  1.00  0.00     0.031 A 
ATOM     82  C   UNL A   1      43.766  35.636  31.891  1.00  0.00     0.131 A 
ATOM     83  C   UNL A   1      43.866  37.682  30.033  1.00  0.00     0.055 A 
ATOM     84  C   UNL A   1      44.135  36.919  32.298  1.00  0.00     0.041 A 
ATOM     85  F   UNL A   1      43.765  34.666  32.820  1.00  0.00    -0.206 F 
ATOM     86  C   UNL A   1      44.202  37.947  31.363  1.00  0.00     0.022 A 
BRANCH  83  87
ATOM     87  S   UNL A   1      44.102  38.958  28.765  1.00  0.00     0.124 S 
ATOM     88  O   UNL A   1      43.505  38.331  27.590  1.00  0.00    -0.237 OA
ATOM     89  O   UNL A   1      43.372  40.091  29.325  1.00  0.00    -0.237 OA
ATOM     90  O   UNL A   1      45.553  39.122  28.710  1.00  0.00    -0.744 OA
ENDBRANCH  83  87
ENDBRANCH  57  80
ENDBRANCH  31  32
ENDBRANCH  23  26
ENDBRANCH  21  22
ENDBRANCH   1  21
TORSDOF 17
ENDMDL
MODEL 2
REMARK VINA RESULT:     -10.0      1.988      2.335
REMARK SMILES [N-]=[N+]=NC[C@@H](Nc1ccccc1Br)C(=O)NCCCNC(=O)c1ccc(-c2c3nc(c(-c4cc(S(=O)(=O)[O-])ccc4F)c4ccc([nH]4)c(-c4cc(S(=O)(=O)[O-])ccc4F)c4nc(c(-c5cc(S(=O)(=O)[O-])ccc5F)c5ccc2[nH]5)C=C4)C=C3)cc1
REMARK SMILES IDX 18 1 17 2 16 3 14 4 15 5 5 7 4 8 3 9 1 10 2 11 6 12 7 14
REMARK SMILES IDX 8 15 12 16 9 17 11 18 13 19 10 20 19 21 20 22 21 23 22 25
REMARK SMILES IDX 23 26 24 27 85 28 25 29 84 30 26 31 27 32 28 33 78 34 29 35
REMARK SMILES IDX 83 36 77 37 79 38 30 39 82 40 76 41 75 42 31 44 63 45 43 46
REMARK SMILES IDX 62 47 44 48 47 49 61 50 80 51 45 52 46 53 60 55 81 56 48 57
REMARK SMILES IDX 32 58 33 59 41 60 34 61 40 62 42 63 39 64 35 65 36 66 37 67
REMARK SMILES IDX 38 68 64 69 65 70 73 71 66 72 72 73 74 74 71 75 67 76 68 77
REMARK SMILES IDX 69 78 70 79 49 80 50 81 58 82 51 83 57 84 59 85 56 86 52 87
REMARK SMILES IDX 53 88 54 89 55 90
REMARK H PARENT 16 6 6 13 20 24 79 43 47 54
REMARK Flexibility Score: inf
ROOT
ATOM      1  C   UNL A   1      41.834  20.302  27.568  1.00  0.00     0.042 C 
ENDROOT
BRANCH   1   2
ATOM      2  C   UNL A   1      42.604  19.979  26.302  1.00  0.00     0.117 C 
BRANCH   2   3
ATOM      3  N   UNL A   1      42.612  21.099  25.380  1.00  0.00    -0.354 N 
ATOM      4  C   UNL A   1      43.610  21.975  25.072  1.00  0.00     0.242 C 
ATOM      5  O   UNL A   1      43.319  22.901  24.305  1.00  0.00    -0.273 OA
ATOM      6  H   UNL A   1      41.765  21.250  24.903  1.00  0.00     0.163 HD
BRANCH   4   7
ATOM      7  C   UNL A   1      45.012  21.886  25.704  1.00  0.00     0.174 C 
BRANCH   7   8
ATOM      8  C   UNL A   1      45.953  21.280  24.636  1.00  0.00     0.125 C 
BRANCH   8   9
ATOM      9  N   UNL A   1      46.682  20.103  25.156  1.00  0.00    -0.091 NA
ATOM     10  N   UNL A   1      45.425  18.081  25.234  1.00  0.00    -0.003 NA
ATOM     11  N   UNL A   1      46.028  19.049  25.221  1.00  0.00     0.001 N 
ENDBRANCH   8   9
ENDBRANCH   7   8
BRANCH   7  12
ATOM     12  N   UNL A   1      45.561  23.149  26.262  1.00  0.00    -0.373 N 
ATOM     13  H   UNL A   1      46.276  23.582  25.743  1.00  0.00     0.161 HD
BRANCH  12  14
ATOM     14  C   UNL A   1      45.180  23.785  27.432  1.00  0.00     0.049 A 
ATOM     15  C   UNL A   1      43.834  23.620  27.816  1.00  0.00     0.027 A 
ATOM     16  C   UNL A   1      46.026  24.445  28.340  1.00  0.00     0.041 A 
ATOM     17  C   UNL A   1      43.379  23.978  29.088  1.00  0.00     0.002 A 
ATOM     18  C   UNL A   1      45.574  24.800  29.620  1.00  0.00     0.018 A 
ATOM     19  Br  UNL A   1      47.767  25.049  27.862  1.00  0.00    -0.049 Br
ATOM     20  C   UNL A   1      44.259  24.541  30.002  1.00  0.00     0.001 A 
ENDBRANCH  12  14
ENDBRANCH   7  12
ENDBRANCH   4   7
ENDBRANCH   2   3
ENDBRANCH   1   2
BRANCH   1  21
ATOM     21  C   UNL A   1      41.109  21.638  27.494  1.00  0.00     0.118 C 
BRANCH  21  22
ATOM     22  N   UNL A   1      39.929  21.584  26.640  1.00  0.00    -0.352 N 
ATOM     23  C   UNL A   1      39.028  22.575  26.335  1.00  0.00     0.251 C 
ATOM     24  H   UNL A   1      39.753  20.711  26.220  1.00  0.00     0.163 HD
ATOM     25  O   UNL A   1      37.978  22.288  25.769  1.00  0.00    -0.269 OA
BRANCH  23  26
ATOM     26  C   UNL A   1      39.321  23.972  26.720  1.00  0.00     0.039 A 
ATOM     27  C   UNL A   1      38.969  24.414  27.996  1.00  0.00     0.014 A 
ATOM     28  C   UNL A   1      39.961  24.836  25.827  1.00  0.00     0.014 A 
ATOM     29  C   UNL A   1      39.325  25.703  28.399  1.00  0.00     0.010 A 
ATOM     30  C   UNL A   1      40.404  26.079  26.266  1.00  0.00     0.010 A 
ATOM     31  C   UNL A   1      40.083  26.530  27.553  1.00  0.00    -0.014 A 
BRANCH  31  32
ATOM     32  C   UNL A   1      40.537  27.874  27.993  1.00  0.00     0.031 A 
ATOM     33  C   UNL A   1      42.006  28.202  28.016  1.00  0.00     0.074 A 
ATOM     34  C   UNL A   1      39.631  28.774  28.428  1.00  0.00     0.049 A 
ATOM     35  N   UNL A   1      42.605  29.289  28.427  1.00  0.00    -0.248 NA
ATOM     36  C   UNL A   1      42.925  27.153  27.545  1.00  0.00     0.031 C 
ATOM     37  C   UNL A   1      38.185  28.552  28.497  1.00  0.00     0.029 A 
ATOM     38  N   UNL A   1      39.790  30.054  28.898  1.00  0.00    -0.354 N 
ATOM     39  C   UNL A   1      43.967  29.051  28.278  1.00  0.00     0.074 A 
ATOM     40  C   UNL A   1      44.106  27.691  27.805  1.00  0.00     0.031 C 
ATOM     41  C   UNL A   1      37.589  29.666  28.950  1.00  0.00     0.029 A 
ATOM     42  C   UNL A   1      38.609  30.663  29.257  1.00  0.00     0.049 A 
ATOM     43  H   UNL A   1      40.668  30.494  28.973  1.00  0.00     0.167 HD
ATOM     44  C   UNL A   1      45.004  29.897  28.494  1.00  0.00     0.034 A 
ATOM     45  C   UNL A   1      38.376  31.881  29.786  1.00  0.00     0.034 A 
ATOM     46  C   UNL A   1      44.843  31.256  28.952  1.00  0.00     0.049 A 
ATOM     47  C   UNL A   1      39.548  32.797  30.037  1.00  0.00     0.074 A 
ATOM     48  C   UNL A   1      45.816  32.220  29.143  1.00  0.00     0.029 A 
ATOM     49  N   UNL A   1      43.632  31.839  29.305  1.00  0.00    -0.354 N 
ATOM     50  N   UNL A   1      40.827  32.578  29.830  1.00  0.00    -0.248 NA
ATOM     51  C   UNL A   1      39.245  34.127  30.579  1.00  0.00     0.031 C 
ATOM     52  C   UNL A   1      45.206  33.355  29.687  1.00  0.00     0.029 A 
ATOM     53  C   UNL A   1      43.840  33.137  29.748  1.00  0.00     0.049 A 
ATOM     54  H   UNL A   1      42.754  31.396  29.248  1.00  0.00     0.167 HD
ATOM     55  C   UNL A   1      41.476  33.758  30.188  1.00  0.00     0.074 A 
ATOM     56  C   UNL A   1      40.445  34.687  30.602  1.00  0.00     0.031 C 
ATOM     57  C   UNL A   1      42.802  34.048  30.171  1.00  0.00     0.034 A 
BRANCH  44  58
ATOM     58  C   UNL A   1      46.400  29.368  28.262  1.00  0.00     0.023 A 
ATOM     59  C   UNL A   1      47.178  28.841  29.309  1.00  0.00     0.031 A 
ATOM     60  C   UNL A   1      46.971  29.406  26.978  1.00  0.00     0.131 A 
ATOM     61  C   UNL A   1      48.502  28.444  29.069  1.00  0.00     0.055 A 
ATOM     62  C   UNL A   1      48.259  28.929  26.728  1.00  0.00     0.041 A 
ATOM     63  F   UNL A   1      46.289  29.920  25.941  1.00  0.00    -0.206 F 
ATOM     64  C   UNL A   1      49.039  28.458  27.780  1.00  0.00     0.022 A 
BRANCH  61  65
ATOM     65  S   UNL A   1      49.559  28.051  30.489  1.00  0.00     0.124 S 
ATOM     66  O   UNL A   1      48.976  26.793  30.951  1.00  0.00    -0.237 OA
ATOM     67  O   UNL A   1      50.881  27.959  29.883  1.00  0.00    -0.237 OA
ATOM     68  O   UNL A   1      49.361  29.186  31.389  1.00  0.00    -0.744 OA
ENDBRANCH  61  65
ENDBRANCH  44  58
BRANCH  45  69
ATOM     69  C   UNL A   1      36.987  32.305  30.131  1.00  0.00     0.023 A 
ATOM     70  C   UNL A   1      36.170  32.952  29.189  1.00  0.00     0.031 A 
ATOM     71  C   UNL A   1      36.473  32.114  31.426  1.00  0.00     0.131 A 
ATOM     72  C   UNL A   1      34.907  33.431  29.570  1.00  0.00     0.055 A 
ATOM     73  C   UNL A   1      35.192  32.538  31.782  1.00  0.00     0.041 A 
ATOM     74  F   UNL A   1      37.208  31.499  32.366  1.00  0.00    -0.206 F 
ATOM     75  C   UNL A   1      34.405  33.215  30.856  1.00  0.00     0.022 A 
BRANCH  72  76
ATOM     76  S   UNL A   1      33.967  34.435  28.388  1.00  0.00     0.124 S 
ATOM     77  O   UNL A   1      34.905  34.541  27.276  1.00  0.00    -0.237 OA
ATOM     78  O   UNL A   1      32.789  33.607  28.157  1.00  0.00    -0.237 OA
ATOM     79  O   UNL A   1      33.720  35.677  29.118  1.00  0.00    -0.744 OA
ENDBRANCH  72  76
ENDBRANCH  45  69
BRANCH  57  80
ATOM     80  C   UNL A   1      43.204  35.449  30.569  1.00  0.00     0.023 A 
ATOM     81  C   UNL A   1      43.384  35.816  31.914  1.00  0.00     0.031 A 
ATOM     82  C   UNL A   1      43.398  36.435  29.584  1.00  0.00     0.131 A 
ATOM     83  C   UNL A   1      43.684  37.147  32.241  1.00  0.00     0.055 A 
ATOM     84  C   UNL A   1      43.768  37.740  29.911  1.00  0.00     0.041 A 
ATOM     85  F   UNL A   1      43.236  36.143  28.283  1.00  0.00    -0.206 F 
ATOM     86  C   UNL A   1      43.897  38.106  31.247  1.00  0.00     0.022 A 
BRANCH  83  87
ATOM     87  S   UNL A   1      43.685  37.635  33.988  1.00  0.00     0.124 S 
ATOM     88  O   UNL A   1      45.087  37.978  34.205  1.00  0.00    -0.237 OA
ATOM     89  O   UNL A   1      42.745  38.750  34.001  1.00  0.00    -0.237 OA
ATOM     90  O   UNL A   1      43.228  36.431  34.680  1.00  0.00    -0.744 OA
ENDBRANCH  83  87
ENDBRANCH  57  80
ENDBRANCH  31  32
ENDBRANCH  23  26
ENDBRANCH  21  22
ENDBRANCH   1  21
TORSDOF 17
ENDMDL
MODEL 3
REMARK VINA RESULT:      -9.8      0.587      7.715
REMARK SMILES [N-]=[N+]=NC[C@@H](Nc1ccccc1Br)C(=O)NCCCNC(=O)c1ccc(-c2c3nc(c(-c4cc(S(=O)(=O)[O-])ccc4F)c4ccc([nH]4)c(-c4cc(S(=O)(=O)[O-])ccc4F)c4nc(c(-c5cc(S(=O)(=O)[O-])ccc5F)c5ccc2[nH]5)C=C4)C=C3)cc1
REMARK SMILES IDX 18 1 17 2 16 3 14 4 15 5 5 7 4 8 3 9 1 10 2 11 6 12 7 14
REMARK SMILES IDX 8 15 12 16 9 17 11 18 13 19 10 20 19 21 20 22 21 23 22 25
REMARK SMILES IDX 23 26 24 27 85 28 25 29 84 30 26 31 27 32 28 33 78 34 29 35
REMARK SMILES IDX 83 36 77 37 79 38 30 39 82 40 76 41 75 42 31 44 63 45 43 46
REMARK SMILES IDX 62 47 44 48 47 49 61 50 80 51 45 52 46 53 60 55 81 56 48 57
REMARK SMILES IDX 32 58 33 59 41 60 34 61 40 62 42 63 39 64 35 65 36 66 37 67
REMARK SMILES IDX 38 68 64 69 65 70 73 71 66 72 72 73 74 74 71 75 67 76 68 77
REMARK SMILES IDX 69 78 70 79 49 80 50 81 58 82 51 83 57 84 59 85 56 86 52 87
REMARK SMILES IDX 53 88 54 89 55 90
REMARK H PARENT 16 6 6 13 20 24 79 43 47 54
REMARK Flexibility Score: inf
ROOT
ATOM      1  C   UNL A   1      41.358  19.896  27.218  1.00  0.00     0.042 C 
ENDROOT
BRANCH   1   2
ATOM      2  C   UNL A   1      42.590  19.761  26.343  1.00  0.00     0.117 C 
BRANCH   2   3
ATOM      3  N   UNL A   1      42.662  20.818  25.353  1.00  0.00    -0.354 N 
ATOM      4  C   UNL A   1      43.647  21.729  25.110  1.00  0.00     0.242 C 
ATOM      5  O   UNL A   1      43.413  22.586  24.250  1.00  0.00    -0.273 OA
ATOM      6  H   UNL A   1      41.877  20.890  24.765  1.00  0.00     0.163 HD
BRANCH   4   7
ATOM      7  C   UNL A   1      44.960  21.761  25.917  1.00  0.00     0.174 C 
BRANCH   7   8
ATOM      8  C   UNL A   1      46.050  21.109  25.033  1.00  0.00     0.125 C 
BRANCH   8   9
ATOM      9  N   UNL A   1      45.542  19.907  24.338  1.00  0.00    -0.091 NA
ATOM     10  N   UNL A   1      46.065  17.831  25.382  1.00  0.00    -0.003 NA
ATOM     11  N   UNL A   1      45.829  18.819  24.863  1.00  0.00     0.001 N 
ENDBRANCH   8   9
ENDBRANCH   7   8
BRANCH   7  12
ATOM     12  N   UNL A   1      45.388  23.091  26.421  1.00  0.00    -0.373 N 
ATOM     13  H   UNL A   1      46.014  23.593  25.852  1.00  0.00     0.161 HD
BRANCH  12  14
ATOM     14  C   UNL A   1      45.005  23.702  27.604  1.00  0.00     0.049 A 
ATOM     15  C   UNL A   1      43.698  23.421  28.051  1.00  0.00     0.027 A 
ATOM     16  C   UNL A   1      45.828  24.447  28.466  1.00  0.00     0.041 A 
ATOM     17  C   UNL A   1      43.271  23.751  29.340  1.00  0.00     0.002 A 
ATOM     18  C   UNL A   1      45.405  24.774  29.763  1.00  0.00     0.018 A 
ATOM     19  Br  UNL A   1      47.483  25.199  27.903  1.00  0.00    -0.049 Br
ATOM     20  C   UNL A   1      44.138  24.402  30.208  1.00  0.00     0.001 A 
ENDBRANCH  12  14
ENDBRANCH   7  12
ENDBRANCH   4   7
ENDBRANCH   2   3
ENDBRANCH   1   2
BRANCH   1  21
ATOM     21  C   UNL A   1      40.774  21.301  27.201  1.00  0.00     0.118 C 
BRANCH  21  22
ATOM     22  N   UNL A   1      39.512  21.369  26.474  1.00  0.00    -0.352 N 
ATOM     23  C   UNL A   1      38.659  22.433  26.308  1.00  0.00     0.251 C 
ATOM     24  H   UNL A   1      39.232  20.533  26.038  1.00  0.00     0.163 HD
ATOM     25  O   UNL A   1      37.539  22.246  25.843  1.00  0.00    -0.269 OA
BRANCH  23  26
ATOM     26  C   UNL A   1      39.090  23.786  26.719  1.00  0.00     0.039 A 
ATOM     27  C   UNL A   1      38.914  24.182  28.046  1.00  0.00     0.014 A 
ATOM     28  C   UNL A   1      39.687  24.653  25.799  1.00  0.00     0.014 A 
ATOM     29  C   UNL A   1      39.402  25.422  28.463  1.00  0.00     0.010 A 
ATOM     30  C   UNL A   1      40.262  25.839  26.240  1.00  0.00     0.010 A 
ATOM     31  C   UNL A   1      40.117  26.241  27.575  1.00  0.00    -0.014 A 
BRANCH  31  32
ATOM     32  C   UNL A   1      40.711  27.529  28.020  1.00  0.00     0.031 A 
ATOM     33  C   UNL A   1      39.834  28.589  28.633  1.00  0.00     0.074 A 
ATOM     34  C   UNL A   1      42.023  27.764  27.818  1.00  0.00     0.049 A 
ATOM     35  N   UNL A   1      40.146  29.797  29.023  1.00  0.00    -0.248 NA
ATOM     36  C   UNL A   1      38.410  28.256  28.797  1.00  0.00     0.031 C 
ATOM     37  C   UNL A   1      42.961  26.831  27.189  1.00  0.00     0.029 A 
ATOM     38  N   UNL A   1      42.796  28.859  28.112  1.00  0.00    -0.354 N 
ATOM     39  C   UNL A   1      38.960  30.372  29.464  1.00  0.00     0.074 A 
ATOM     40  C   UNL A   1      37.911  29.404  29.228  1.00  0.00     0.031 C 
ATOM     41  C   UNL A   1      44.186  27.380  27.175  1.00  0.00     0.029 A 
ATOM     42  C   UNL A   1      44.114  28.723  27.740  1.00  0.00     0.049 A 
ATOM     43  H   UNL A   1      42.440  29.667  28.548  1.00  0.00     0.167 HD
ATOM     44  C   UNL A   1      38.767  31.586  30.035  1.00  0.00     0.034 A 
ATOM     45  C   UNL A   1      45.145  29.587  27.832  1.00  0.00     0.034 A 
ATOM     46  C   UNL A   1      39.829  32.532  30.275  1.00  0.00     0.049 A 
ATOM     47  C   UNL A   1      44.901  30.941  28.451  1.00  0.00     0.074 A 
ATOM     48  C   UNL A   1      39.759  33.763  30.903  1.00  0.00     0.029 A 
ATOM     49  N   UNL A   1      41.152  32.361  29.886  1.00  0.00    -0.354 N 
ATOM     50  N   UNL A   1      43.783  31.444  28.922  1.00  0.00    -0.248 NA
ATOM     51  C   UNL A   1      46.059  31.836  28.564  1.00  0.00     0.031 C 
ATOM     52  C   UNL A   1      41.017  34.368  30.822  1.00  0.00     0.029 A 
ATOM     53  C   UNL A   1      41.898  33.479  30.227  1.00  0.00     0.049 A 
ATOM     54  H   UNL A   1      41.509  31.561  29.435  1.00  0.00     0.167 HD
ATOM     55  C   UNL A   1      44.114  32.704  29.417  1.00  0.00     0.074 A 
ATOM     56  C   UNL A   1      45.536  32.871  29.204  1.00  0.00     0.031 C 
ATOM     57  C   UNL A   1      43.315  33.637  29.997  1.00  0.00     0.034 A 
BRANCH  44  58
ATOM     58  C   UNL A   1      37.354  31.967  30.412  1.00  0.00     0.023 A 
ATOM     59  C   UNL A   1      36.456  32.511  29.475  1.00  0.00     0.031 A 
ATOM     60  C   UNL A   1      36.901  31.801  31.732  1.00  0.00     0.131 A 
ATOM     61  C   UNL A   1      35.184  32.935  29.886  1.00  0.00     0.055 A 
ATOM     62  C   UNL A   1      35.603  32.145  32.117  1.00  0.00     0.041 A 
ATOM     63  F   UNL A   1      37.718  31.310  32.679  1.00  0.00    -0.206 F 
ATOM     64  C   UNL A   1      34.741  32.730  31.195  1.00  0.00     0.022 A 
BRANCH  61  65
ATOM     65  S   UNL A   1      34.173  33.893  28.724  1.00  0.00     0.124 S 
ATOM     66  O   UNL A   1      33.724  32.855  27.799  1.00  0.00    -0.237 OA
ATOM     67  O   UNL A   1      33.150  34.462  29.591  1.00  0.00    -0.237 OA
ATOM     68  O   UNL A   1      35.119  34.853  28.158  1.00  0.00    -0.744 OA
ENDBRANCH  61  65
ENDBRANCH  44  58
BRANCH  45  69
ATOM     69  C   UNL A   1      46.494  29.215  27.314  1.00  0.00     0.023 A 
ATOM     70  C   UNL A   1      46.681  28.852  25.970  1.00  0.00     0.031 A 
ATOM     71  C   UNL A   1      47.611  29.169  28.168  1.00  0.00     0.131 A 
ATOM     72  C   UNL A   1      47.939  28.407  25.533  1.00  0.00     0.055 A 
ATOM     73  C   UNL A   1      48.873  28.784  27.714  1.00  0.00     0.041 A 
ATOM     74  F   UNL A   1      47.491  29.508  29.462  1.00  0.00    -0.206 F 
ATOM     75  C   UNL A   1      49.041  28.386  26.392  1.00  0.00     0.022 A 
BRANCH  72  76
ATOM     76  S   UNL A   1      48.093  27.757  23.847  1.00  0.00     0.124 S 
ATOM     77  O   UNL A   1      47.729  26.357  24.035  1.00  0.00    -0.237 OA
ATOM     78  O   UNL A   1      47.132  28.577  23.118  1.00  0.00    -0.237 OA
ATOM     79  O   UNL A   1      49.495  27.999  23.515  1.00  0.00    -0.744 OA
ENDBRANCH  72  76
ENDBRANCH  45  69
BRANCH  57  80
ATOM     80  C   UNL A   1      43.980  34.901  30.487  1.00  0.00     0.023 A 
ATOM     81  C   UNL A   1      44.049  36.060  29.694  1.00  0.00     0.031 A 
ATOM     82  C   UNL A   1      44.564  34.942  31.767  1.00  0.00     0.131 A 
ATOM     83  C   UNL A   1      44.741  37.187  30.162  1.00  0.00     0.055 A 
ATOM     84  C   UNL A   1      45.188  36.090  32.255  1.00  0.00     0.041 A 
ATOM     85  F   UNL A   1      44.532  33.864  32.567  1.00  0.00    -0.206 F 
ATOM     86  C   UNL A   1      45.293  37.216  31.445  1.00  0.00     0.022 A 
BRANCH  83  87
ATOM     87  S   UNL A   1      45.006  38.578  29.028  1.00  0.00     0.124 S 
ATOM     88  O   UNL A   1      43.712  38.672  28.358  1.00  0.00    -0.237 OA
ATOM     89  O   UNL A   1      45.332  39.667  29.941  1.00  0.00    -0.237 OA
ATOM     90  O   UNL A   1      46.109  38.125  28.183  1.00  0.00    -0.744 OA
ENDBRANCH  83  87
ENDBRANCH  57  80
ENDBRANCH  31  32
ENDBRANCH  23  26
ENDBRANCH  21  22
ENDBRANCH   1  21
TORSDOF 17
ENDMDL
