MODEL 1
REMARK VINA RESULT:     -11.3      0.000      0.000
REMARK SMILES C[NH2+][C@]1(C(=O)NCCCNC(=O)c2ccc(-c3c4nc(c(-c5cc(S(=O)(=O)[O-])ccc5F)c5ccc([nH]5)c(-c5cc(S(=O)(=O)[O-])ccc5F)c5nc(c(-c6cc(S(=O)(=O)[O-])ccc6F)c6ccc3[nH]6)C=C5)C=C4)cc2)CCC[C@H]1CCOC1C[C@@H](C)C[C@H](C)C1
REMARK SMILES IDX 7 1 6 2 4 3 5 4 3 6 76 7 79 8 77 9 78 10 2 11 1 12 80 15
REMARK SMILES IDX 81 16 82 17 83 18 84 19 90 20 85 21 88 22 86 23 87 24 89 25
REMARK SMILES IDX 8 26 9 27 10 28 11 29 12 31 13 32 14 33 75 34 15 35 74 36
REMARK SMILES IDX 16 37 17 38 18 39 68 40 19 41 73 42 67 43 69 44 20 45 72 46
REMARK SMILES IDX 66 47 65 48 21 50 53 51 33 52 52 53 34 54 37 55 51 56 70 57
REMARK SMILES IDX 35 58 36 59 50 61 71 62 38 63 22 64 23 65 31 66 24 67 30 68
REMARK SMILES IDX 32 69 29 70 25 71 26 72 27 73 28 74 54 75 55 76 63 77 56 78
REMARK SMILES IDX 62 79 64 80 61 81 57 82 58 83 59 84 60 85 39 86 40 87 48 88
REMARK SMILES IDX 41 89 47 90 49 91 46 92 42 93 43 94 44 95 45 96
REMARK H PARENT 6 5 2 13 2 14 10 30 69 49 37 60
REMARK Flexibility Score: inf
ROOT
ATOM      1  C   UNL A   1      31.844  29.743  25.300  1.00  0.00     0.118 C 
ENDROOT
BRANCH   1   2
ATOM      2  N   UNL A   1      33.057  29.313  24.663  1.00  0.00    -0.351 N 
ATOM      3  C   UNL A   1      33.285  28.571  23.569  1.00  0.00     0.281 C 
ATOM      4  O   UNL A   1      34.494  28.463  23.328  1.00  0.00    -0.268 OA
ATOM      5  H   UNL A   1      33.876  29.620  25.115  1.00  0.00     0.163 HD
BRANCH   3   6
ATOM      6  C   UNL A   1      32.150  27.822  22.804  1.00  0.00     0.178 C 
ATOM      7  C   UNL A   1      32.886  26.996  21.704  1.00  0.00     0.079 C 
ATOM      8  C   UNL A   1      31.134  26.737  23.517  1.00  0.00     0.063 C 
ATOM      9  C   UNL A   1      31.966  25.840  21.380  1.00  0.00     0.008 C 
ATOM     10  C   UNL A   1      31.452  25.420  22.742  1.00  0.00     0.011 C 
BRANCH   6  11
ATOM     11  N   UNL A   1      31.269  28.746  22.001  1.00  0.00    -0.336 N 
ATOM     12  C   UNL A   1      29.862  28.929  22.318  1.00  0.00     0.331 C 
ATOM     13  H   UNL A   1      31.697  29.670  22.057  1.00  0.00     0.346 HD
ATOM     14  H   UNL A   1      31.227  28.275  21.098  1.00  0.00     0.346 HD
ENDBRANCH   6  11
BRANCH   8  15
ATOM     15  C   UNL A   1      30.830  26.290  25.044  1.00  0.00     0.039 C 
BRANCH  15  16
ATOM     16  C   UNL A   1      30.518  24.903  25.784  1.00  0.00     0.161 C 
BRANCH  16  17
ATOM     17  O   UNL A   1      30.904  23.624  25.268  1.00  0.00    -0.378 OA
BRANCH  17  18
ATOM     18  C   UNL A   1      31.777  22.627  25.829  1.00  0.00     0.118 C 
ATOM     19  C   UNL A   1      32.239  21.374  25.079  1.00  0.00     0.035 C 
ATOM     20  C   UNL A   1      33.029  23.372  26.300  1.00  0.00     0.035 C 
ATOM     21  C   UNL A   1      33.043  21.678  23.827  1.00  0.00    -0.011 C 
ATOM     22  C   UNL A   1      33.617  23.995  25.051  1.00  0.00    -0.011 C 
ATOM     23  C   UNL A   1      32.059  21.653  22.659  1.00  0.00     0.008 C 
ATOM     24  C   UNL A   1      34.044  22.860  24.091  1.00  0.00     0.006 C 
ATOM     25  C   UNL A   1      34.666  25.070  25.328  1.00  0.00     0.008 C 
ENDBRANCH  17  18
ENDBRANCH  16  17
ENDBRANCH  15  16
ENDBRANCH   8  15
ENDBRANCH   3   6
ENDBRANCH   1   2
BRANCH   1  26
ATOM     26  C   UNL A   1      32.089  29.974  26.770  1.00  0.00     0.042 C 
BRANCH  26  27
ATOM     27  C   UNL A   1      33.506  30.485  26.989  1.00  0.00     0.118 C 
BRANCH  27  28
ATOM     28  N   UNL A   1      33.540  31.695  27.802  1.00  0.00    -0.352 N 
ATOM     29  C   UNL A   1      34.475  32.085  28.743  1.00  0.00     0.251 C 
ATOM     30  H   UNL A   1      32.794  32.321  27.661  1.00  0.00     0.163 HD
ATOM     31  O   UNL A   1      34.262  33.014  29.488  1.00  0.00    -0.269 OA
BRANCH  29  32
ATOM     32  C   UNL A   1      35.714  31.281  28.834  1.00  0.00     0.039 A 
ATOM     33  C   UNL A   1      36.928  31.838  28.438  1.00  0.00     0.014 A 
ATOM     34  C   UNL A   1      35.672  30.041  29.465  1.00  0.00     0.014 A 
ATOM     35  C   UNL A   1      38.114  31.188  28.784  1.00  0.00     0.010 A 
ATOM     36  C   UNL A   1      36.845  29.505  29.967  1.00  0.00     0.010 A 
ATOM     37  C   UNL A   1      38.085  30.052  29.612  1.00  0.00    -0.014 A 
BRANCH  37  38
ATOM     38  C   UNL A   1      39.326  29.386  30.092  1.00  0.00     0.031 A 
ATOM     39  C   UNL A   1      40.001  29.902  31.341  1.00  0.00     0.074 A 
ATOM     40  C   UNL A   1      39.889  28.390  29.377  1.00  0.00     0.049 A 
ATOM     41  N   UNL A   1      41.149  29.560  31.865  1.00  0.00    -0.248 NA
ATOM     42  C   UNL A   1      39.322  30.993  32.059  1.00  0.00     0.031 C 
ATOM     43  C   UNL A   1      39.373  27.849  28.116  1.00  0.00     0.029 A 
ATOM     44  N   UNL A   1      41.022  27.650  29.608  1.00  0.00    -0.354 N 
ATOM     45  C   UNL A   1      41.339  30.419  32.943  1.00  0.00     0.074 A 
ATOM     46  C   UNL A   1      40.245  31.360  32.931  1.00  0.00     0.031 C 
ATOM     47  C   UNL A   1      40.152  26.830  27.718  1.00  0.00     0.029 A 
ATOM     48  C   UNL A   1      41.257  26.681  28.659  1.00  0.00     0.049 A 
ATOM     49  H   UNL A   1      41.613  27.800  30.380  1.00  0.00     0.167 HD
ATOM     50  C   UNL A   1      42.309  30.396  33.889  1.00  0.00     0.034 A 
ATOM     51  C   UNL A   1      42.254  25.777  28.558  1.00  0.00     0.034 A 
ATOM     52  C   UNL A   1      43.362  29.415  33.915  1.00  0.00     0.049 A 
ATOM     53  C   UNL A   1      43.320  25.762  29.626  1.00  0.00     0.074 A 
ATOM     54  C   UNL A   1      44.357  29.243  34.859  1.00  0.00     0.029 A 
ATOM     55  N   UNL A   1      43.552  28.433  32.950  1.00  0.00    -0.354 N 
ATOM     56  N   UNL A   1      43.452  26.543  30.675  1.00  0.00    -0.248 NA
ATOM     57  C   UNL A   1      44.366  24.739  29.504  1.00  0.00     0.031 C 
ATOM     58  C   UNL A   1      45.190  28.205  34.429  1.00  0.00     0.029 A 
ATOM     59  C   UNL A   1      44.665  27.671  33.262  1.00  0.00     0.049 A 
ATOM     60  H   UNL A   1      42.979  28.298  32.160  1.00  0.00     0.167 HD
ATOM     61  C   UNL A   1      44.573  26.078  31.356  1.00  0.00     0.074 A 
ATOM     62  C   UNL A   1      45.070  24.942  30.607  1.00  0.00     0.031 C 
ATOM     63  C   UNL A   1      45.142  26.541  32.499  1.00  0.00     0.034 A 
BRANCH  50  64
ATOM     64  C   UNL A   1      42.269  31.468  34.953  1.00  0.00     0.023 A 
ATOM     65  C   UNL A   1      41.264  31.498  35.938  1.00  0.00     0.031 A 
ATOM     66  C   UNL A   1      43.217  32.507  34.956  1.00  0.00     0.131 A 
ATOM     67  C   UNL A   1      41.171  32.588  36.816  1.00  0.00     0.055 A 
ATOM     68  C   UNL A   1      43.176  33.538  35.896  1.00  0.00     0.041 A 
ATOM     69  F   UNL A   1      44.186  32.549  34.029  1.00  0.00    -0.206 F 
ATOM     70  C   UNL A   1      42.138  33.594  36.821  1.00  0.00     0.022 A 
BRANCH  67  71
ATOM     71  S   UNL A   1      39.674  32.758  37.826  1.00  0.00     0.124 S 
ATOM     72  O   UNL A   1      39.181  34.067  37.405  1.00  0.00    -0.237 OA
ATOM     73  O   UNL A   1      38.878  31.610  37.406  1.00  0.00    -0.237 OA
ATOM     74  O   UNL A   1      40.177  32.700  39.197  1.00  0.00    -0.744 OA
ENDBRANCH  67  71
ENDBRANCH  50  64
BRANCH  51  75
ATOM     75  C   UNL A   1      42.296  24.808  27.423  1.00  0.00     0.023 A 
ATOM     76  C   UNL A   1      41.518  23.638  27.443  1.00  0.00     0.031 A 
ATOM     77  C   UNL A   1      43.150  25.008  26.324  1.00  0.00     0.131 A 
ATOM     78  C   UNL A   1      41.650  22.689  26.416  1.00  0.00     0.055 A 
ATOM     79  C   UNL A   1      43.234  24.090  25.276  1.00  0.00     0.041 A 
ATOM     80  F   UNL A   1      43.914  26.110  26.250  1.00  0.00    -0.206 F 
ATOM     81  C   UNL A   1      42.492  22.915  25.324  1.00  0.00     0.022 A 
BRANCH  78  82
ATOM     82  S   UNL A   1      40.774  21.107  26.574  1.00  0.00     0.124 S 
ATOM     83  O   UNL A   1      39.469  21.435  26.013  1.00  0.00    -0.237 OA
ATOM     84  O   UNL A   1      41.611  20.217  25.778  1.00  0.00    -0.237 OA
ATOM     85  O   UNL A   1      40.790  20.853  28.013  1.00  0.00    -0.744 OA
ENDBRANCH  78  82
ENDBRANCH  51  75
BRANCH  63  86
ATOM     86  C   UNL A   1      46.329  25.780  33.037  1.00  0.00     0.023 A 
ATOM     87  C   UNL A   1      46.176  24.664  33.876  1.00  0.00     0.031 A 
ATOM     88  C   UNL A   1      47.633  26.182  32.700  1.00  0.00     0.131 A 
ATOM     89  C   UNL A   1      47.309  24.023  34.397  1.00  0.00     0.055 A 
ATOM     90  C   UNL A   1      48.757  25.498  33.164  1.00  0.00     0.041 A 
ATOM     91  F   UNL A   1      47.837  27.244  31.903  1.00  0.00    -0.206 F 
ATOM     92  C   UNL A   1      48.598  24.420  34.031  1.00  0.00     0.022 A 
BRANCH  89  93
ATOM     93  S   UNL A   1      47.078  22.726  35.643  1.00  0.00     0.124 S 
ATOM     94  O   UNL A   1      46.063  21.884  35.019  1.00  0.00    -0.237 OA
ATOM     95  O   UNL A   1      48.414  22.147  35.742  1.00  0.00    -0.237 OA
ATOM     96  O   UNL A   1      46.633  23.462  36.825  1.00  0.00    -0.744 OA
ENDBRANCH  89  93
ENDBRANCH  63  86
ENDBRANCH  37  38
ENDBRANCH  29  32
ENDBRANCH  27  28
ENDBRANCH  26  27
ENDBRANCH   1  26
TORSDOF 18
ENDMDL
MODEL 2
REMARK VINA RESULT:     -11.3      4.849      9.906
REMARK SMILES C[NH2+][C@]1(C(=O)NCCCNC(=O)c2ccc(-c3c4nc(c(-c5cc(S(=O)(=O)[O-])ccc5F)c5ccc([nH]5)c(-c5cc(S(=O)(=O)[O-])ccc5F)c5nc(c(-c6cc(S(=O)(=O)[O-])ccc6F)c6ccc3[nH]6)C=C5)C=C4)cc2)CCC[C@H]1CCOC1C[C@@H](C)C[C@H](C)C1
REMARK SMILES IDX 7 1 6 2 4 3 5 4 3 6 76 7 79 8 77 9 78 10 2 11 1 12 80 15
REMARK SMILES IDX 81 16 82 17 83 18 84 19 90 20 85 21 88 22 86 23 87 24 89 25
REMARK SMILES IDX 8 26 9 27 10 28 11 29 12 31 13 32 14 33 75 34 15 35 74 36
REMARK SMILES IDX 16 37 17 38 18 39 68 40 19 41 73 42 67 43 69 44 20 45 72 46
REMARK SMILES IDX 66 47 65 48 21 50 53 51 33 52 52 53 34 54 37 55 51 56 70 57
REMARK SMILES IDX 35 58 36 59 50 61 71 62 38 63 22 64 23 65 31 66 24 67 30 68
REMARK SMILES IDX 32 69 29 70 25 71 26 72 27 73 28 74 54 75 55 76 63 77 56 78
REMARK SMILES IDX 62 79 64 80 61 81 57 82 58 83 59 84 60 85 39 86 40 87 48 88
REMARK SMILES IDX 41 89 47 90 49 91 46 92 42 93 43 94 44 95 45 96
REMARK H PARENT 6 5 2 13 2 14 10 30 69 49 37 60
REMARK Flexibility Score: inf
ROOT
ATOM      1  C   UNL A   1      35.920  23.265  23.880  1.00  0.00     0.118 C 
ENDROOT
BRANCH   1   2
ATOM      2  N   UNL A   1      34.793  22.732  23.168  1.00  0.00    -0.351 N 
ATOM      3  C   UNL A   1      33.553  22.403  23.561  1.00  0.00     0.281 C 
ATOM      4  O   UNL A   1      32.857  22.012  22.616  1.00  0.00    -0.268 OA
ATOM      5  H   UNL A   1      34.961  22.580  22.211  1.00  0.00     0.163 HD
BRANCH   3   6
ATOM      6  C   UNL A   1      33.120  22.380  25.061  1.00  0.00     0.178 C 
ATOM      7  C   UNL A   1      33.905  21.184  25.685  1.00  0.00     0.079 C 
ATOM      8  C   UNL A   1      33.383  23.628  26.104  1.00  0.00     0.063 C 
ATOM      9  C   UNL A   1      34.014  21.496  27.161  1.00  0.00     0.008 C 
ATOM     10  C   UNL A   1      34.315  22.981  27.175  1.00  0.00     0.011 C 
BRANCH   6  11
ATOM     11  N   UNL A   1      31.680  21.977  25.254  1.00  0.00    -0.336 N 
ATOM     12  C   UNL A   1      30.815  22.659  26.201  1.00  0.00     0.331 C 
ATOM     13  H   UNL A   1      31.233  22.068  24.341  1.00  0.00     0.346 HD
ATOM     14  H   UNL A   1      31.768  21.051  25.670  1.00  0.00     0.346 HD
ENDBRANCH   6  11
BRANCH   8  15
ATOM     15  C   UNL A   1      33.885  25.161  25.947  1.00  0.00     0.039 C 
BRANCH  15  16
ATOM     16  C   UNL A   1      33.168  26.575  25.713  1.00  0.00     0.161 C 
BRANCH  16  17
ATOM     17  O   UNL A   1      32.618  26.988  24.457  1.00  0.00    -0.378 OA
BRANCH  17  18
ATOM     18  C   UNL A   1      31.985  26.209  23.426  1.00  0.00     0.118 C 
ATOM     19  C   UNL A   1      30.800  25.270  23.669  1.00  0.00     0.035 C 
ATOM     20  C   UNL A   1      31.571  27.202  22.335  1.00  0.00     0.035 C 
ATOM     21  C   UNL A   1      29.562  25.976  24.191  1.00  0.00    -0.011 C 
ATOM     22  C   UNL A   1      30.596  28.148  23.005  1.00  0.00    -0.011 C 
ATOM     23  C   UNL A   1      29.594  25.846  25.713  1.00  0.00     0.008 C 
ATOM     24  C   UNL A   1      29.351  27.342  23.442  1.00  0.00     0.006 C 
ATOM     25  C   UNL A   1      30.324  29.424  22.211  1.00  0.00     0.008 C 
ENDBRANCH  17  18
ENDBRANCH  16  17
ENDBRANCH  15  16
ENDBRANCH   8  15
ENDBRANCH   3   6
ENDBRANCH   1   2
BRANCH   1  26
ATOM     26  C   UNL A   1      36.969  22.196  24.058  1.00  0.00     0.042 C 
BRANCH  26  27
ATOM     27  C   UNL A   1      37.454  22.176  25.500  1.00  0.00     0.118 C 
BRANCH  27  28
ATOM     28  N   UNL A   1      38.565  21.253  25.700  1.00  0.00    -0.352 N 
ATOM     29  C   UNL A   1      39.808  21.494  26.254  1.00  0.00     0.251 C 
ATOM     30  H   UNL A   1      38.408  20.330  25.397  1.00  0.00     0.163 HD
ATOM     31  O   UNL A   1      40.702  20.684  26.162  1.00  0.00    -0.269 OA
BRANCH  29  32
ATOM     32  C   UNL A   1      40.010  22.805  26.909  1.00  0.00     0.039 A 
ATOM     33  C   UNL A   1      40.912  22.917  27.964  1.00  0.00     0.014 A 
ATOM     34  C   UNL A   1      39.419  23.937  26.355  1.00  0.00     0.014 A 
ATOM     35  C   UNL A   1      41.303  24.189  28.387  1.00  0.00     0.010 A 
ATOM     36  C   UNL A   1      39.950  25.182  26.647  1.00  0.00     0.010 A 
ATOM     37  C   UNL A   1      40.879  25.332  27.686  1.00  0.00    -0.014 A 
BRANCH  37  38
ATOM     38  C   UNL A   1      41.351  26.699  28.034  1.00  0.00     0.031 A 
ATOM     39  C   UNL A   1      42.775  27.089  27.715  1.00  0.00     0.074 A 
ATOM     40  C   UNL A   1      40.546  27.552  28.700  1.00  0.00     0.049 A 
ATOM     41  N   UNL A   1      43.431  28.171  28.039  1.00  0.00    -0.248 NA
ATOM     42  C   UNL A   1      43.587  26.098  26.989  1.00  0.00     0.031 C 
ATOM     43  C   UNL A   1      39.172  27.270  29.128  1.00  0.00     0.029 A 
ATOM     44  N   UNL A   1      40.764  28.835  29.135  1.00  0.00    -0.354 N 
ATOM     45  C   UNL A   1      44.733  27.969  27.591  1.00  0.00     0.074 A 
ATOM     46  C   UNL A   1      44.796  26.624  27.072  1.00  0.00     0.031 C 
ATOM     47  C   UNL A   1      38.655  28.364  29.710  1.00  0.00     0.029 A 
ATOM     48  C   UNL A   1      39.674  29.407  29.754  1.00  0.00     0.049 A 
ATOM     49  H   UNL A   1      41.621  29.304  29.018  1.00  0.00     0.167 HD
ATOM     50  C   UNL A   1      45.771  28.840  27.568  1.00  0.00     0.034 A 
ATOM     51  C   UNL A   1      39.517  30.632  30.297  1.00  0.00     0.034 A 
ATOM     52  C   UNL A   1      45.672  30.195  28.042  1.00  0.00     0.049 A 
ATOM     53  C   UNL A   1      40.682  31.591  30.253  1.00  0.00     0.074 A 
ATOM     54  C   UNL A   1      46.628  31.193  28.004  1.00  0.00     0.029 A 
ATOM     55  N   UNL A   1      44.544  30.745  28.639  1.00  0.00    -0.354 N 
ATOM     56  N   UNL A   1      41.890  31.404  29.770  1.00  0.00    -0.248 NA
ATOM     57  C   UNL A   1      40.461  32.927  30.818  1.00  0.00     0.031 C 
ATOM     58  C   UNL A   1      46.104  32.323  28.641  1.00  0.00     0.029 A 
ATOM     59  C   UNL A   1      44.791  32.059  28.999  1.00  0.00     0.049 A 
ATOM     60  H   UNL A   1      43.693  30.270  28.784  1.00  0.00     0.167 HD
ATOM     61  C   UNL A   1      42.557  32.615  29.938  1.00  0.00     0.074 A 
ATOM     62  C   UNL A   1      41.613  33.525  30.554  1.00  0.00     0.031 C 
ATOM     63  C   UNL A   1      43.832  32.949  29.612  1.00  0.00     0.034 A 
BRANCH  50  64
ATOM     64  C   UNL A   1      47.088  28.339  27.022  1.00  0.00     0.023 A 
ATOM     65  C   UNL A   1      47.312  28.201  25.639  1.00  0.00     0.031 A 
ATOM     66  C   UNL A   1      48.118  27.946  27.893  1.00  0.00     0.131 A 
ATOM     67  C   UNL A   1      48.489  27.594  25.175  1.00  0.00     0.055 A 
ATOM     68  C   UNL A   1      49.328  27.433  27.420  1.00  0.00     0.041 A 
ATOM     69  F   UNL A   1      47.958  28.030  29.224  1.00  0.00    -0.206 F 
ATOM     70  C   UNL A   1      49.511  27.236  26.055  1.00  0.00     0.022 A 
BRANCH  67  71
ATOM     71  S   UNL A   1      48.584  27.122  23.426  1.00  0.00     0.124 S 
ATOM     72  O   UNL A   1      50.028  27.059  23.216  1.00  0.00    -0.237 OA
ATOM     73  O   UNL A   1      47.879  25.844  23.405  1.00  0.00    -0.237 OA
ATOM     74  O   UNL A   1      47.908  28.219  22.738  1.00  0.00    -0.744 OA
ENDBRANCH  67  71
ENDBRANCH  50  64
BRANCH  51  75
ATOM     75  C   UNL A   1      38.220  31.034  30.917  1.00  0.00     0.023 A 
ATOM     76  C   UNL A   1      37.226  31.678  30.160  1.00  0.00     0.031 A 
ATOM     77  C   UNL A   1      37.970  30.826  32.285  1.00  0.00     0.131 A 
ATOM     78  C   UNL A   1      36.057  32.140  30.785  1.00  0.00     0.055 A 
ATOM     79  C   UNL A   1      36.780  31.236  32.890  1.00  0.00     0.041 A 
ATOM     80  F   UNL A   1      38.882  30.213  33.056  1.00  0.00    -0.206 F 
ATOM     81  C   UNL A   1      35.821  31.910  32.143  1.00  0.00     0.022 A 
BRANCH  78  82
ATOM     82  S   UNL A   1      34.887  33.134  29.817  1.00  0.00     0.124 S 
ATOM     83  O   UNL A   1      35.775  34.103  29.186  1.00  0.00    -0.237 OA
ATOM     84  O   UNL A   1      34.297  32.133  28.934  1.00  0.00    -0.237 OA
ATOM     85  O   UNL A   1      33.985  33.679  30.829  1.00  0.00    -0.744 OA
ENDBRANCH  78  82
ENDBRANCH  51  75
BRANCH  63  86
ATOM     86  C   UNL A   1      44.257  34.375  29.862  1.00  0.00     0.023 A 
ATOM     87  C   UNL A   1      43.993  35.400  28.938  1.00  0.00     0.031 A 
ATOM     88  C   UNL A   1      44.935  34.710  31.047  1.00  0.00     0.131 A 
ATOM     89  C   UNL A   1      44.457  36.699  29.187  1.00  0.00     0.055 A 
ATOM     90  C   UNL A   1      45.333  36.018  31.323  1.00  0.00     0.041 A 
ATOM     91  F   UNL A   1      45.215  33.769  31.964  1.00  0.00    -0.206 F 
ATOM     92  C   UNL A   1      45.107  37.020  30.383  1.00  0.00     0.022 A 
BRANCH  89  93
ATOM     93  S   UNL A   1      44.290  37.948  27.882  1.00  0.00     0.124 S 
ATOM     94  O   UNL A   1      45.682  38.193  27.519  1.00  0.00    -0.237 OA
ATOM     95  O   UNL A   1      43.485  37.251  26.885  1.00  0.00    -0.237 OA
ATOM     96  O   UNL A   1      43.620  39.059  28.555  1.00  0.00    -0.744 OA
ENDBRANCH  89  93
ENDBRANCH  63  86
ENDBRANCH  37  38
ENDBRANCH  29  32
ENDBRANCH  27  28
ENDBRANCH  26  27
ENDBRANCH   1  26
TORSDOF 18
ENDMDL
MODEL 3
REMARK VINA RESULT:     -11.3      4.896      9.926
REMARK SMILES C[NH2+][C@]1(C(=O)NCCCNC(=O)c2ccc(-c3c4nc(c(-c5cc(S(=O)(=O)[O-])ccc5F)c5ccc([nH]5)c(-c5cc(S(=O)(=O)[O-])ccc5F)c5nc(c(-c6cc(S(=O)(=O)[O-])ccc6F)c6ccc3[nH]6)C=C5)C=C4)cc2)CCC[C@H]1CCOC1C[C@@H](C)C[C@H](C)C1
REMARK SMILES IDX 7 1 6 2 4 3 5 4 3 6 76 7 79 8 77 9 78 10 2 11 1 12 80 15
REMARK SMILES IDX 81 16 82 17 83 18 84 19 90 20 85 21 88 22 86 23 87 24 89 25
REMARK SMILES IDX 8 26 9 27 10 28 11 29 12 31 13 32 14 33 75 34 15 35 74 36
REMARK SMILES IDX 16 37 17 38 18 39 68 40 19 41 73 42 67 43 69 44 20 45 72 46
REMARK SMILES IDX 66 47 65 48 21 50 53 51 33 52 52 53 34 54 37 55 51 56 70 57
REMARK SMILES IDX 35 58 36 59 50 61 71 62 38 63 22 64 23 65 31 66 24 67 30 68
REMARK SMILES IDX 32 69 29 70 25 71 26 72 27 73 28 74 54 75 55 76 63 77 56 78
REMARK SMILES IDX 62 79 64 80 61 81 57 82 58 83 59 84 60 85 39 86 40 87 48 88
REMARK SMILES IDX 41 89 47 90 49 91 46 92 42 93 43 94 44 95 45 96
REMARK H PARENT 6 5 2 13 2 14 10 30 69 49 37 60
REMARK Flexibility Score: inf
ROOT
ATOM      1  C   UNL A   1      35.617  22.812  23.786  1.00  0.00     0.118 C 
ENDROOT
BRANCH   1   2
ATOM      2  N   UNL A   1      34.428  22.173  23.297  1.00  0.00    -0.351 N 
ATOM      3  C   UNL A   1      33.240  21.924  23.869  1.00  0.00     0.281 C 
ATOM      4  O   UNL A   1      32.454  21.382  23.083  1.00  0.00    -0.268 OA
ATOM      5  H   UNL A   1      34.497  21.857  22.368  1.00  0.00     0.163 HD
BRANCH   3   6
ATOM      6  C   UNL A   1      32.966  22.162  25.387  1.00  0.00     0.178 C 
ATOM      7  C   UNL A   1      33.744  21.023  26.116  1.00  0.00     0.079 C 
ATOM      8  C   UNL A   1      33.406  23.534  26.187  1.00  0.00     0.063 C 
ATOM      9  C   UNL A   1      34.025  21.549  27.507  1.00  0.00     0.008 C 
ATOM     10  C   UNL A   1      34.408  22.993  27.255  1.00  0.00     0.011 C 
BRANCH   6  11
ATOM     11  N   UNL A   1      31.534  21.898  25.777  1.00  0.00    -0.336 N 
ATOM     12  C   UNL A   1      30.732  22.895  26.466  1.00  0.00     0.331 C 
ATOM     13  H   UNL A   1      31.038  21.678  24.913  1.00  0.00     0.346 HD
ATOM     14  H   UNL A   1      31.633  21.173  26.488  1.00  0.00     0.346 HD
ENDBRANCH   6  11
BRANCH   8  15
ATOM     15  C   UNL A   1      33.974  24.984  25.741  1.00  0.00     0.039 C 
BRANCH  15  16
ATOM     16  C   UNL A   1      33.786  25.936  24.465  1.00  0.00     0.161 C 
BRANCH  16  17
ATOM     17  O   UNL A   1      32.639  26.768  24.258  1.00  0.00    -0.378 OA
BRANCH  17  18
ATOM     18  C   UNL A   1      31.472  26.954  25.079  1.00  0.00     0.118 C 
ATOM     19  C   UNL A   1      31.460  27.769  26.376  1.00  0.00     0.035 C 
ATOM     20  C   UNL A   1      30.390  27.529  24.160  1.00  0.00     0.035 C 
ATOM     21  C   UNL A   1      31.813  29.233  26.176  1.00  0.00    -0.011 C 
ATOM     22  C   UNL A   1      30.947  28.849  23.666  1.00  0.00    -0.011 C 
ATOM     23  C   UNL A   1      33.309  29.363  26.458  1.00  0.00     0.008 C 
ATOM     24  C   UNL A   1      31.124  29.792  24.879  1.00  0.00     0.006 C 
ATOM     25  C   UNL A   1      30.197  29.429  22.469  1.00  0.00     0.008 C 
ENDBRANCH  17  18
ENDBRANCH  16  17
ENDBRANCH  15  16
ENDBRANCH   8  15
ENDBRANCH   3   6
ENDBRANCH   1   2
BRANCH   1  26
ATOM     26  C   UNL A   1      36.714  21.792  23.965  1.00  0.00     0.042 C 
BRANCH  26  27
ATOM     27  C   UNL A   1      37.294  21.892  25.369  1.00  0.00     0.118 C 
BRANCH  27  28
ATOM     28  N   UNL A   1      38.296  20.865  25.629  1.00  0.00    -0.352 N 
ATOM     29  C   UNL A   1      39.543  20.994  26.211  1.00  0.00     0.251 C 
ATOM     30  H   UNL A   1      38.050  19.953  25.353  1.00  0.00     0.163 HD
ATOM     31  O   UNL A   1      40.348  20.091  26.172  1.00  0.00    -0.269 OA
BRANCH  29  32
ATOM     32  C   UNL A   1      39.866  22.299  26.829  1.00  0.00     0.039 A 
ATOM     33  C   UNL A   1      40.898  22.384  27.761  1.00  0.00     0.014 A 
ATOM     34  C   UNL A   1      39.244  23.448  26.349  1.00  0.00     0.014 A 
ATOM     35  C   UNL A   1      41.378  23.644  28.125  1.00  0.00     0.010 A 
ATOM     36  C   UNL A   1      39.845  24.676  26.566  1.00  0.00     0.010 A 
ATOM     37  C   UNL A   1      40.902  24.798  27.477  1.00  0.00    -0.014 A 
BRANCH  37  38
ATOM     38  C   UNL A   1      41.456  26.150  27.756  1.00  0.00     0.031 A 
ATOM     39  C   UNL A   1      42.818  26.514  27.215  1.00  0.00     0.074 A 
ATOM     40  C   UNL A   1      40.788  27.012  28.551  1.00  0.00     0.049 A 
ATOM     41  N   UNL A   1      43.543  27.578  27.438  1.00  0.00    -0.248 NA
ATOM     42  C   UNL A   1      43.479  25.515  26.359  1.00  0.00     0.031 C 
ATOM     43  C   UNL A   1      39.496  26.754  29.193  1.00  0.00     0.029 A 
ATOM     44  N   UNL A   1      41.103  28.285  28.957  1.00  0.00    -0.354 N 
ATOM     45  C   UNL A   1      44.750  27.353  26.784  1.00  0.00     0.074 A 
ATOM     46  C   UNL A   1      44.697  26.014  26.249  1.00  0.00     0.031 C 
ATOM     47  C   UNL A   1      39.105  27.852  29.861  1.00  0.00     0.029 A 
ATOM     48  C   UNL A   1      40.141  28.872  29.748  1.00  0.00     0.049 A 
ATOM     49  H   UNL A   1      41.941  28.737  28.706  1.00  0.00     0.167 HD
ATOM     50  C   UNL A   1      45.791  28.203  26.600  1.00  0.00     0.034 A 
ATOM     51  C   UNL A   1      40.102  30.093  30.320  1.00  0.00     0.034 A 
ATOM     52  C   UNL A   1      45.801  29.554  27.096  1.00  0.00     0.049 A 
ATOM     53  C   UNL A   1      41.266  31.028  30.097  1.00  0.00     0.074 A 
ATOM     54  C   UNL A   1      46.760  30.532  26.912  1.00  0.00     0.029 A 
ATOM     55  N   UNL A   1      44.797  30.120  27.872  1.00  0.00    -0.354 N 
ATOM     56  N   UNL A   1      42.376  30.822  29.422  1.00  0.00    -0.248 NA
ATOM     57  C   UNL A   1      41.170  32.362  30.701  1.00  0.00     0.031 C 
ATOM     58  C   UNL A   1      46.372  31.664  27.635  1.00  0.00     0.029 A 
ATOM     59  C   UNL A   1      45.128  31.424  28.198  1.00  0.00     0.049 A 
ATOM     60  H   UNL A   1      43.970  29.662  28.148  1.00  0.00     0.167 HD
ATOM     61  C   UNL A   1      43.089  32.016  29.492  1.00  0.00     0.074 A 
ATOM     62  C   UNL A   1      42.278  32.938  30.259  1.00  0.00     0.031 C 
ATOM     63  C   UNL A   1      44.302  32.327  28.966  1.00  0.00     0.034 A 
BRANCH  50  64
ATOM     64  C   UNL A   1      46.990  27.681  25.844  1.00  0.00     0.023 A 
ATOM     65  C   UNL A   1      47.238  28.043  24.507  1.00  0.00     0.031 A 
ATOM     66  C   UNL A   1      47.872  26.768  26.448  1.00  0.00     0.131 A 
ATOM     67  C   UNL A   1      48.274  27.424  23.791  1.00  0.00     0.055 A 
ATOM     68  C   UNL A   1      48.961  26.230  25.759  1.00  0.00     0.041 A 
ATOM     69  F   UNL A   1      47.677  26.364  27.713  1.00  0.00    -0.206 F 
ATOM     70  C   UNL A   1      49.156  26.542  24.417  1.00  0.00     0.022 A 
BRANCH  67  71
ATOM     71  S   UNL A   1      48.339  27.656  21.993  1.00  0.00     0.124 S 
ATOM     72  O   UNL A   1      47.024  28.232  21.723  1.00  0.00    -0.237 OA
ATOM     73  O   UNL A   1      49.476  28.556  21.832  1.00  0.00    -0.237 OA
ATOM     74  O   UNL A   1      48.537  26.302  21.480  1.00  0.00    -0.744 OA
ENDBRANCH  67  71
ENDBRANCH  50  64
BRANCH  51  75
ATOM     75  C   UNL A   1      38.932  30.515  31.145  1.00  0.00     0.023 A 
ATOM     76  C   UNL A   1      37.869  31.237  30.576  1.00  0.00     0.031 A 
ATOM     77  C   UNL A   1      38.878  30.249  32.524  1.00  0.00     0.131 A 
ATOM     78  C   UNL A   1      36.828  31.714  31.389  1.00  0.00     0.055 A 
ATOM     79  C   UNL A   1      37.811  30.674  33.319  1.00  0.00     0.041 A 
ATOM     80  F   UNL A   1      39.864  29.560  33.122  1.00  0.00    -0.206 F 
ATOM     81  C   UNL A   1      36.785  31.424  32.755  1.00  0.00     0.022 A 
BRANCH  78  82
ATOM     82  S   UNL A   1      35.577  32.803  30.653  1.00  0.00     0.124 S 
ATOM     83  O   UNL A   1      36.106  34.122  30.976  1.00  0.00    -0.237 OA
ATOM     84  O   UNL A   1      35.629  32.416  29.247  1.00  0.00    -0.237 OA
ATOM     85  O   UNL A   1      34.350  32.433  31.354  1.00  0.00    -0.744 OA
ENDBRANCH  78  82
ENDBRANCH  51  75
BRANCH  63  86
ATOM     86  C   UNL A   1      44.794  33.740  29.156  1.00  0.00     0.023 A 
ATOM     87  C   UNL A   1      45.596  34.105  30.250  1.00  0.00     0.031 A 
ATOM     88  C   UNL A   1      44.453  34.735  28.223  1.00  0.00     0.131 A 
ATOM     89  C   UNL A   1      45.983  35.443  30.415  1.00  0.00     0.055 A 
ATOM     90  C   UNL A   1      44.898  36.051  28.354  1.00  0.00     0.041 A 
ATOM     91  F   UNL A   1      43.686  34.442  27.160  1.00  0.00    -0.206 F 
ATOM     92  C   UNL A   1      45.656  36.414  29.464  1.00  0.00     0.022 A 
BRANCH  89  93
ATOM     93  S   UNL A   1      46.833  35.920  31.944  1.00  0.00     0.124 S 
ATOM     94  O   UNL A   1      48.085  36.470  31.435  1.00  0.00    -0.237 OA
ATOM     95  O   UNL A   1      45.906  36.884  32.529  1.00  0.00    -0.237 OA
ATOM     96  O   UNL A   1      46.959  34.660  32.674  1.00  0.00    -0.744 OA
ENDBRANCH  89  93
ENDBRANCH  63  86
ENDBRANCH  37  38
ENDBRANCH  29  32
ENDBRANCH  27  28
ENDBRANCH  26  27
ENDBRANCH   1  26
TORSDOF 18
ENDMDL
