MODEL 1
REMARK VINA RESULT:     -13.0      0.000      0.000
REMARK SMILES Cc1ccc(C)c(NC(=O)/C=C/C(=O)NCCCNC(=O)c2ccc(-c3c4nc(c(-c5cc(S(=O)(=O)[O-])ccc5F)c5ccc([nH]5)c(-c5cc(S(=O)(=O)[O-])ccc5F)c5nc(c(-c6cc(S(=O)(=O)[O-])ccc6F)c6ccc3[nH]6)C=C5)C=C4)cc2)c1
REMARK SMILES IDX 17 1 16 2 15 3 13 4 14 5 12 7 11 8 9 9 8 10 10 12 7 13 1 14
REMARK SMILES IDX 2 15 3 16 85 17 4 18 5 19 6 20 18 21 19 22 20 23 21 25 22 26
REMARK SMILES IDX 23 27 84 28 24 29 83 30 25 31 26 32 27 33 77 34 28 35 82 36
REMARK SMILES IDX 76 37 78 38 29 39 81 40 75 41 74 42 30 44 62 45 42 46 61 47
REMARK SMILES IDX 43 48 46 49 60 50 79 51 44 52 45 53 59 55 80 56 47 57 31 58
REMARK SMILES IDX 32 59 40 60 33 61 39 62 41 63 38 64 34 65 35 66 36 67 37 68
REMARK SMILES IDX 63 69 64 70 72 71 65 72 71 73 73 74 70 75 66 76 67 77 68 78
REMARK SMILES IDX 69 79 48 80 49 81 57 82 50 83 56 84 58 85 55 86 51 87 52 88
REMARK SMILES IDX 53 89 54 90
REMARK H PARENT 15 6 8 11 19 24 78 43 46 54
REMARK Flexibility Score: inf
ROOT
ATOM      1  C   UNL A   1      35.620  23.560  24.506  1.00  0.00     0.042 C 
ENDROOT
BRANCH   1   2
ATOM      2  C   UNL A   1      34.604  22.630  25.186  1.00  0.00     0.118 C 
BRANCH   2   3
ATOM      3  N   UNL A   1      33.674  22.060  24.232  1.00  0.00    -0.352 N 
ATOM      4  C   UNL A   1      32.523  21.436  24.571  1.00  0.00     0.244 C 
ATOM      5  O   UNL A   1      32.130  20.443  23.935  1.00  0.00    -0.270 OA
ATOM      6  H   UNL A   1      33.894  22.132  23.276  1.00  0.00     0.163 HD
BRANCH   4   7
ATOM      7  C   UNL A   1      31.769  22.018  25.689  1.00  0.00     0.077 C 
ATOM      8  C   UNL A   1      30.796  22.911  25.461  1.00  0.00     0.077 C 
BRANCH   8   9
ATOM      9  C   UNL A   1      30.261  23.595  26.636  1.00  0.00     0.248 C 
ATOM     10  N   UNL A   1      30.235  24.951  26.716  1.00  0.00    -0.322 N 
ATOM     11  H   UNL A   1      29.712  25.258  27.492  1.00  0.00     0.170 HD
ATOM     12  O   UNL A   1      29.766  22.926  27.547  1.00  0.00    -0.270 OA
BRANCH  10  13
ATOM     13  C   UNL A   1      30.761  26.041  25.980  1.00  0.00     0.044 A 
ATOM     14  C   UNL A   1      34.049  27.993  26.331  1.00  0.00     0.044 C 
ATOM     15  C   UNL A   1      32.672  27.597  25.894  1.00  0.00    -0.049 A 
ATOM     16  C   UNL A   1      32.070  28.286  24.849  1.00  0.00     0.004 A 
ATOM     17  C   UNL A   1      31.999  26.509  26.470  1.00  0.00     0.029 A 
ATOM     18  C   UNL A   1      30.877  27.818  24.324  1.00  0.00     0.006 A 
ATOM     19  C   UNL A   1      30.261  26.650  24.818  1.00  0.00    -0.027 A 
ATOM     20  C   UNL A   1      29.173  26.132  23.934  1.00  0.00     0.046 C 
ENDBRANCH  10  13
ENDBRANCH   8   9
ENDBRANCH   4   7
ENDBRANCH   2   3
ENDBRANCH   1   2
BRANCH   1  21
ATOM     21  C   UNL A   1      36.695  22.861  23.675  1.00  0.00     0.118 C 
BRANCH  21  22
ATOM     22  N   UNL A   1      37.028  21.538  24.204  1.00  0.00    -0.352 N 
ATOM     23  C   UNL A   1      37.969  21.039  25.081  1.00  0.00     0.251 C 
ATOM     24  H   UNL A   1      36.440  20.834  23.847  1.00  0.00     0.163 HD
ATOM     25  O   UNL A   1      38.091  19.814  25.140  1.00  0.00    -0.269 OA
BRANCH  23  26
ATOM     26  C   UNL A   1      38.828  21.904  25.928  1.00  0.00     0.039 A 
ATOM     27  C   UNL A   1      39.998  21.421  26.524  1.00  0.00     0.014 A 
ATOM     28  C   UNL A   1      38.471  23.219  26.173  1.00  0.00     0.014 A 
ATOM     29  C   UNL A   1      40.721  22.268  27.371  1.00  0.00     0.010 A 
ATOM     30  C   UNL A   1      39.333  24.125  26.716  1.00  0.00     0.010 A 
ATOM     31  C   UNL A   1      40.364  23.624  27.465  1.00  0.00    -0.014 A 
BRANCH  31  32
ATOM     32  C   UNL A   1      41.148  24.605  28.187  1.00  0.00     0.031 A 
ATOM     33  C   UNL A   1      40.378  25.836  28.389  1.00  0.00     0.074 A 
ATOM     34  C   UNL A   1      42.315  24.408  28.834  1.00  0.00     0.049 A 
ATOM     35  N   UNL A   1      40.312  26.815  27.556  1.00  0.00    -0.248 NA
ATOM     36  C   UNL A   1      39.360  25.872  29.450  1.00  0.00     0.031 C 
ATOM     37  C   UNL A   1      43.060  23.170  29.065  1.00  0.00     0.029 A 
ATOM     38  N   UNL A   1      43.062  25.341  29.490  1.00  0.00    -0.354 N 
ATOM     39  C   UNL A   1      39.493  27.739  28.170  1.00  0.00     0.074 A 
ATOM     40  C   UNL A   1      38.711  26.990  29.114  1.00  0.00     0.031 C 
ATOM     41  C   UNL A   1      44.068  23.408  29.942  1.00  0.00     0.029 A 
ATOM     42  C   UNL A   1      44.127  24.834  30.227  1.00  0.00     0.049 A 
ATOM     43  H   UNL A   1      42.864  26.303  29.445  1.00  0.00     0.167 HD
ATOM     44  C   UNL A   1      39.788  29.064  28.087  1.00  0.00     0.034 A 
ATOM     45  C   UNL A   1      44.977  25.547  31.018  1.00  0.00     0.034 A 
ATOM     46  C   UNL A   1      40.847  29.296  27.114  1.00  0.00     0.049 A 
ATOM     47  C   UNL A   1      44.965  26.943  30.503  1.00  0.00     0.074 A 
ATOM     48  C   UNL A   1      41.030  28.965  25.783  1.00  0.00     0.029 A 
ATOM     49  N   UNL A   1      42.112  29.569  27.598  1.00  0.00    -0.354 N 
ATOM     50  N   UNL A   1      45.417  27.272  29.324  1.00  0.00    -0.248 NA
ATOM     51  C   UNL A   1      44.022  27.889  31.080  1.00  0.00     0.031 C 
ATOM     52  C   UNL A   1      42.401  28.577  25.679  1.00  0.00     0.029 A 
ATOM     53  C   UNL A   1      43.011  28.780  26.917  1.00  0.00     0.049 A 
ATOM     54  H   UNL A   1      42.331  30.215  28.307  1.00  0.00     0.167 HD
ATOM     55  C   UNL A   1      44.495  28.178  28.825  1.00  0.00     0.074 A 
ATOM     56  C   UNL A   1      43.727  28.609  29.993  1.00  0.00     0.031 C 
ATOM     57  C   UNL A   1      44.253  28.276  27.483  1.00  0.00     0.034 A 
BRANCH  44  58
ATOM     58  C   UNL A   1      39.432  30.085  29.139  1.00  0.00     0.023 A 
ATOM     59  C   UNL A   1      40.093  29.960  30.372  1.00  0.00     0.031 A 
ATOM     60  C   UNL A   1      38.339  30.981  29.115  1.00  0.00     0.131 A 
ATOM     61  C   UNL A   1      39.607  30.605  31.518  1.00  0.00     0.055 A 
ATOM     62  C   UNL A   1      37.905  31.680  30.242  1.00  0.00     0.041 A 
ATOM     63  F   UNL A   1      37.567  31.171  28.039  1.00  0.00    -0.206 F 
ATOM     64  C   UNL A   1      38.517  31.468  31.462  1.00  0.00     0.022 A 
BRANCH  61  65
ATOM     65  S   UNL A   1      40.322  30.145  33.111  1.00  0.00     0.124 S 
ATOM     66  O   UNL A   1      39.364  29.149  33.580  1.00  0.00    -0.237 OA
ATOM     67  O   UNL A   1      41.634  29.643  32.717  1.00  0.00    -0.237 OA
ATOM     68  O   UNL A   1      40.331  31.403  33.852  1.00  0.00    -0.744 OA
ENDBRANCH  61  65
ENDBRANCH  44  58
BRANCH  45  69
ATOM     69  C   UNL A   1      45.581  25.167  32.325  1.00  0.00     0.023 A 
ATOM     70  C   UNL A   1      44.908  24.366  33.277  1.00  0.00     0.031 A 
ATOM     71  C   UNL A   1      46.963  25.368  32.539  1.00  0.00     0.131 A 
ATOM     72  C   UNL A   1      45.615  23.797  34.366  1.00  0.00     0.055 A 
ATOM     73  C   UNL A   1      47.654  24.806  33.614  1.00  0.00     0.041 A 
ATOM     74  F   UNL A   1      47.710  26.043  31.652  1.00  0.00    -0.206 F 
ATOM     75  C   UNL A   1      46.985  24.006  34.526  1.00  0.00     0.022 A 
BRANCH  72  76
ATOM     76  S   UNL A   1      44.779  22.673  35.536  1.00  0.00     0.124 S 
ATOM     77  O   UNL A   1      44.761  21.415  34.800  1.00  0.00    -0.237 OA
ATOM     78  O   UNL A   1      45.647  22.731  36.706  1.00  0.00    -0.237 OA
ATOM     79  O   UNL A   1      43.465  23.293  35.723  1.00  0.00    -0.744 OA
ENDBRANCH  72  76
ENDBRANCH  45  69
BRANCH  57  80
ATOM     80  C   UNL A   1      45.254  27.648  26.525  1.00  0.00     0.023 A 
ATOM     81  C   UNL A   1      45.290  26.283  26.153  1.00  0.00     0.031 A 
ATOM     82  C   UNL A   1      46.171  28.512  25.897  1.00  0.00     0.131 A 
ATOM     83  C   UNL A   1      46.232  25.831  25.205  1.00  0.00     0.055 A 
ATOM     84  C   UNL A   1      47.084  28.066  24.942  1.00  0.00     0.041 A 
ATOM     85  F   UNL A   1      46.179  29.824  26.187  1.00  0.00    -0.206 F 
ATOM     86  C   UNL A   1      47.126  26.720  24.599  1.00  0.00     0.022 A 
BRANCH  83  87
ATOM     87  S   UNL A   1      46.341  24.064  24.762  1.00  0.00     0.124 S 
ATOM     88  O   UNL A   1      46.744  23.421  26.007  1.00  0.00    -0.237 OA
ATOM     89  O   UNL A   1      44.988  23.771  24.299  1.00  0.00    -0.237 OA
ATOM     90  O   UNL A   1      47.359  24.041  23.710  1.00  0.00    -0.744 OA
ENDBRANCH  83  87
ENDBRANCH  57  80
ENDBRANCH  31  32
ENDBRANCH  23  26
ENDBRANCH  21  22
ENDBRANCH   1  21
TORSDOF 15
ENDMDL
MODEL 2
REMARK VINA RESULT:     -12.8      3.499      7.282
REMARK SMILES Cc1ccc(C)c(NC(=O)/C=C/C(=O)NCCCNC(=O)c2ccc(-c3c4nc(c(-c5cc(S(=O)(=O)[O-])ccc5F)c5ccc([nH]5)c(-c5cc(S(=O)(=O)[O-])ccc5F)c5nc(c(-c6cc(S(=O)(=O)[O-])ccc6F)c6ccc3[nH]6)C=C5)C=C4)cc2)c1
REMARK SMILES IDX 17 1 16 2 15 3 13 4 14 5 12 7 11 8 9 9 8 10 10 12 7 13 1 14
REMARK SMILES IDX 2 15 3 16 85 17 4 18 5 19 6 20 18 21 19 22 20 23 21 25 22 26
REMARK SMILES IDX 23 27 84 28 24 29 83 30 25 31 26 32 27 33 77 34 28 35 82 36
REMARK SMILES IDX 76 37 78 38 29 39 81 40 75 41 74 42 30 44 62 45 42 46 61 47
REMARK SMILES IDX 43 48 46 49 60 50 79 51 44 52 45 53 59 55 80 56 47 57 31 58
REMARK SMILES IDX 32 59 40 60 33 61 39 62 41 63 38 64 34 65 35 66 36 67 37 68
REMARK SMILES IDX 63 69 64 70 72 71 65 72 71 73 73 74 70 75 66 76 67 77 68 78
REMARK SMILES IDX 69 79 48 80 49 81 57 82 50 83 56 84 58 85 55 86 51 87 52 88
REMARK SMILES IDX 53 89 54 90
REMARK H PARENT 15 6 8 11 19 24 78 43 46 54
REMARK Flexibility Score: inf
ROOT
ATOM      1  C   UNL A   1      33.043  31.234  27.269  1.00  0.00     0.042 C 
ENDROOT
BRANCH   1   2
ATOM      2  C   UNL A   1      33.181  30.003  26.360  1.00  0.00     0.118 C 
BRANCH   2   3
ATOM      3  N   UNL A   1      32.101  29.921  25.398  1.00  0.00    -0.352 N 
ATOM      4  C   UNL A   1      31.700  28.775  24.801  1.00  0.00     0.244 C 
ATOM      5  O   UNL A   1      31.333  28.774  23.614  1.00  0.00    -0.270 OA
ATOM      6  H   UNL A   1      31.629  30.751  25.164  1.00  0.00     0.163 HD
BRANCH   4   7
ATOM      7  C   UNL A   1      31.691  27.569  25.641  1.00  0.00     0.077 C 
ATOM      8  C   UNL A   1      32.383  26.482  25.275  1.00  0.00     0.077 C 
BRANCH   8   9
ATOM      9  C   UNL A   1      32.133  25.269  26.051  1.00  0.00     0.248 C 
ATOM     10  N   UNL A   1      32.957  24.191  25.966  1.00  0.00    -0.322 N 
ATOM     11  H   UNL A   1      32.746  23.519  26.654  1.00  0.00     0.170 HD
ATOM     12  O   UNL A   1      31.189  25.247  26.845  1.00  0.00    -0.270 OA
BRANCH  10  13
ATOM     13  C   UNL A   1      34.039  23.778  25.151  1.00  0.00     0.044 A 
ATOM     14  C   UNL A   1      37.823  23.703  25.799  1.00  0.00     0.044 C 
ATOM     15  C   UNL A   1      36.501  23.638  25.099  1.00  0.00    -0.049 A 
ATOM     16  C   UNL A   1      36.451  23.186  23.787  1.00  0.00     0.004 A 
ATOM     17  C   UNL A   1      35.302  23.962  25.752  1.00  0.00     0.029 A 
ATOM     18  C   UNL A   1      35.222  22.956  23.191  1.00  0.00     0.006 A 
ATOM     19  C   UNL A   1      34.014  23.161  23.890  1.00  0.00    -0.027 A 
ATOM     20  C   UNL A   1      32.824  22.566  23.209  1.00  0.00     0.046 C 
ENDBRANCH  10  13
ENDBRANCH   8   9
ENDBRANCH   4   7
ENDBRANCH   2   3
ENDBRANCH   1   2
BRANCH   1  21
ATOM     21  C   UNL A   1      34.352  31.936  27.626  1.00  0.00     0.118 C 
BRANCH  21  22
ATOM     22  N   UNL A   1      34.381  32.376  29.022  1.00  0.00    -0.352 N 
ATOM     23  C   UNL A   1      35.152  32.084  30.128  1.00  0.00     0.251 C 
ATOM     24  H   UNL A   1      33.680  33.038  29.220  1.00  0.00     0.163 HD
ATOM     25  O   UNL A   1      34.755  32.501  31.217  1.00  0.00    -0.269 OA
BRANCH  23  26
ATOM     26  C   UNL A   1      36.408  31.295  30.056  1.00  0.00     0.039 A 
ATOM     27  C   UNL A   1      37.665  31.907  30.099  1.00  0.00     0.014 A 
ATOM     28  C   UNL A   1      36.362  29.918  29.916  1.00  0.00     0.014 A 
ATOM     29  C   UNL A   1      38.807  31.112  29.951  1.00  0.00     0.010 A 
ATOM     30  C   UNL A   1      37.454  29.125  30.104  1.00  0.00     0.010 A 
ATOM     31  C   UNL A   1      38.680  29.713  29.943  1.00  0.00    -0.014 A 
BRANCH  31  32
ATOM     32  C   UNL A   1      39.813  28.811  29.956  1.00  0.00     0.031 A 
ATOM     33  C   UNL A   1      40.179  28.458  31.332  1.00  0.00     0.074 A 
ATOM     34  C   UNL A   1      40.346  28.147  28.910  1.00  0.00     0.049 A 
ATOM     35  N   UNL A   1      40.977  29.132  32.083  1.00  0.00    -0.248 NA
ATOM     36  C   UNL A   1      39.375  27.454  32.045  1.00  0.00     0.031 C 
ATOM     37  C   UNL A   1      39.894  28.075  27.519  1.00  0.00     0.029 A 
ATOM     38  N   UNL A   1      41.429  27.320  28.922  1.00  0.00    -0.354 N 
ATOM     39  C   UNL A   1      41.025  28.422  33.264  1.00  0.00     0.074 A 
ATOM     40  C   UNL A   1      39.817  27.643  33.291  1.00  0.00     0.031 C 
ATOM     41  C   UNL A   1      40.607  27.125  26.863  1.00  0.00     0.029 A 
ATOM     42  C   UNL A   1      41.652  26.620  27.742  1.00  0.00     0.049 A 
ATOM     43  H   UNL A   1      42.012  27.225  29.709  1.00  0.00     0.167 HD
ATOM     44  C   UNL A   1      42.205  28.284  33.924  1.00  0.00     0.034 A 
ATOM     45  C   UNL A   1      42.623  25.689  27.523  1.00  0.00     0.034 A 
ATOM     46  C   UNL A   1      43.221  29.157  33.351  1.00  0.00     0.049 A 
ATOM     47  C   UNL A   1      43.716  25.982  28.488  1.00  0.00     0.074 A 
ATOM     48  C   UNL A   1      43.295  30.514  33.085  1.00  0.00     0.029 A 
ATOM     49  N   UNL A   1      44.186  28.578  32.552  1.00  0.00    -0.354 N 
ATOM     50  N   UNL A   1      44.432  27.072  28.446  1.00  0.00    -0.248 NA
ATOM     51  C   UNL A   1      43.703  25.310  29.779  1.00  0.00     0.031 C 
ATOM     52  C   UNL A   1      43.932  30.611  31.810  1.00  0.00     0.029 A 
ATOM     53  C   UNL A   1      44.303  29.328  31.404  1.00  0.00     0.049 A 
ATOM     54  H   UNL A   1      44.702  27.768  32.766  1.00  0.00     0.167 HD
ATOM     55  C   UNL A   1      44.561  27.468  29.768  1.00  0.00     0.074 A 
ATOM     56  C   UNL A   1      44.197  26.286  30.548  1.00  0.00     0.031 C 
ATOM     57  C   UNL A   1      44.671  28.789  30.104  1.00  0.00     0.034 A 
BRANCH  44  58
ATOM     58  C   UNL A   1      42.565  27.105  34.793  1.00  0.00     0.023 A 
ATOM     59  C   UNL A   1      43.421  26.151  34.220  1.00  0.00     0.031 A 
ATOM     60  C   UNL A   1      41.945  26.726  36.006  1.00  0.00     0.131 A 
ATOM     61  C   UNL A   1      43.543  24.868  34.772  1.00  0.00     0.055 A 
ATOM     62  C   UNL A   1      42.130  25.473  36.593  1.00  0.00     0.041 A 
ATOM     63  F   UNL A   1      41.057  27.491  36.650  1.00  0.00    -0.206 F 
ATOM     64  C   UNL A   1      42.905  24.522  35.959  1.00  0.00     0.022 A 
BRANCH  61  65
ATOM     65  S   UNL A   1      44.410  23.613  33.806  1.00  0.00     0.124 S 
ATOM     66  O   UNL A   1      43.403  23.272  32.806  1.00  0.00    -0.237 OA
ATOM     67  O   UNL A   1      45.572  24.353  33.326  1.00  0.00    -0.237 OA
ATOM     68  O   UNL A   1      44.696  22.570  34.788  1.00  0.00    -0.744 OA
ENDBRANCH  61  65
ENDBRANCH  44  58
BRANCH  45  69
ATOM     69  C   UNL A   1      42.551  24.428  26.732  1.00  0.00     0.023 A 
ATOM     70  C   UNL A   1      43.614  23.972  25.919  1.00  0.00     0.031 A 
ATOM     71  C   UNL A   1      41.516  23.503  26.990  1.00  0.00     0.131 A 
ATOM     72  C   UNL A   1      43.617  22.646  25.419  1.00  0.00     0.055 A 
ATOM     73  C   UNL A   1      41.523  22.197  26.493  1.00  0.00     0.041 A 
ATOM     74  F   UNL A   1      40.503  23.808  27.815  1.00  0.00    -0.206 F 
ATOM     75  C   UNL A   1      42.582  21.758  25.715  1.00  0.00     0.022 A 
BRANCH  72  76
ATOM     76  S   UNL A   1      45.037  22.013  24.461  1.00  0.00     0.124 S 
ATOM     77  O   UNL A   1      45.268  23.088  23.502  1.00  0.00    -0.237 OA
ATOM     78  O   UNL A   1      46.055  21.828  25.488  1.00  0.00    -0.237 OA
ATOM     79  O   UNL A   1      44.528  20.771  23.877  1.00  0.00    -0.744 OA
ENDBRANCH  72  76
ENDBRANCH  45  69
BRANCH  57  80
ATOM     80  C   UNL A   1      45.012  29.784  29.005  1.00  0.00     0.023 A 
ATOM     81  C   UNL A   1      46.319  30.173  28.627  1.00  0.00     0.031 A 
ATOM     82  C   UNL A   1      43.941  30.303  28.253  1.00  0.00     0.131 A 
ATOM     83  C   UNL A   1      46.509  31.062  27.548  1.00  0.00     0.055 A 
ATOM     84  C   UNL A   1      44.135  31.162  27.171  1.00  0.00     0.041 A 
ATOM     85  F   UNL A   1      42.675  29.960  28.545  1.00  0.00    -0.206 F 
ATOM     86  C   UNL A   1      45.420  31.553  26.820  1.00  0.00     0.022 A 
BRANCH  83  87
ATOM     87  S   UNL A   1      48.181  31.629  27.085  1.00  0.00     0.124 S 
ATOM     88  O   UNL A   1      48.755  32.074  28.349  1.00  0.00    -0.237 OA
ATOM     89  O   UNL A   1      48.771  30.428  26.502  1.00  0.00    -0.237 OA
ATOM     90  O   UNL A   1      47.921  32.703  26.125  1.00  0.00    -0.744 OA
ENDBRANCH  83  87
ENDBRANCH  57  80
ENDBRANCH  31  32
ENDBRANCH  23  26
ENDBRANCH  21  22
ENDBRANCH   1  21
TORSDOF 15
ENDMDL
MODEL 3
REMARK VINA RESULT:     -12.6      4.533      9.815
REMARK SMILES Cc1ccc(C)c(NC(=O)/C=C/C(=O)NCCCNC(=O)c2ccc(-c3c4nc(c(-c5cc(S(=O)(=O)[O-])ccc5F)c5ccc([nH]5)c(-c5cc(S(=O)(=O)[O-])ccc5F)c5nc(c(-c6cc(S(=O)(=O)[O-])ccc6F)c6ccc3[nH]6)C=C5)C=C4)cc2)c1
REMARK SMILES IDX 17 1 16 2 15 3 13 4 14 5 12 7 11 8 9 9 8 10 10 12 7 13 1 14
REMARK SMILES IDX 2 15 3 16 85 17 4 18 5 19 6 20 18 21 19 22 20 23 21 25 22 26
REMARK SMILES IDX 23 27 84 28 24 29 83 30 25 31 26 32 27 33 77 34 28 35 82 36
REMARK SMILES IDX 76 37 78 38 29 39 81 40 75 41 74 42 30 44 62 45 42 46 61 47
REMARK SMILES IDX 43 48 46 49 60 50 79 51 44 52 45 53 59 55 80 56 47 57 31 58
REMARK SMILES IDX 32 59 40 60 33 61 39 62 41 63 38 64 34 65 35 66 36 67 37 68
REMARK SMILES IDX 63 69 64 70 72 71 65 72 71 73 73 74 70 75 66 76 67 77 68 78
REMARK SMILES IDX 69 79 48 80 49 81 57 82 50 83 56 84 58 85 55 86 51 87 52 88
REMARK SMILES IDX 53 89 54 90
REMARK H PARENT 15 6 8 11 19 24 78 43 46 54
REMARK Flexibility Score: inf
ROOT
ATOM      1  C   UNL A   1      31.459  27.488  26.468  1.00  0.00     0.042 C 
ENDROOT
BRANCH   1   2
ATOM      2  C   UNL A   1      30.979  26.466  25.427  1.00  0.00     0.118 C 
BRANCH   2   3
ATOM      3  N   UNL A   1      30.043  27.053  24.489  1.00  0.00    -0.352 N 
ATOM      4  C   UNL A   1      30.294  27.226  23.171  1.00  0.00     0.244 C 
ATOM      5  O   UNL A   1      29.879  28.234  22.575  1.00  0.00    -0.270 OA
ATOM      6  H   UNL A   1      29.168  27.343  24.832  1.00  0.00     0.163 HD
BRANCH   4   7
ATOM      7  C   UNL A   1      31.037  26.151  22.500  1.00  0.00     0.077 C 
ATOM      8  C   UNL A   1      32.266  26.376  22.016  1.00  0.00     0.077 C 
BRANCH   8   9
ATOM      9  C   UNL A   1      32.829  25.321  21.175  1.00  0.00     0.248 C 
ATOM     10  N   UNL A   1      33.088  24.082  21.671  1.00  0.00    -0.322 N 
ATOM     11  H   UNL A   1      33.318  23.447  20.955  1.00  0.00     0.170 HD
ATOM     12  O   UNL A   1      33.014  25.543  19.976  1.00  0.00    -0.270 OA
BRANCH  10  13
ATOM     13  C   UNL A   1      33.115  23.462  22.944  1.00  0.00     0.044 A 
ATOM     14  C   UNL A   1      32.324  19.867  24.035  1.00  0.00     0.044 C 
ATOM     15  C   UNL A   1      32.630  21.332  24.088  1.00  0.00    -0.049 A 
ATOM     16  C   UNL A   1      32.915  21.920  25.313  1.00  0.00     0.004 A 
ATOM     17  C   UNL A   1      32.697  22.115  22.925  1.00  0.00     0.029 A 
ATOM     18  C   UNL A   1      33.369  23.229  25.352  1.00  0.00     0.006 A 
ATOM     19  C   UNL A   1      33.559  23.978  24.172  1.00  0.00    -0.027 A 
ATOM     20  C   UNL A   1      34.343  25.233  24.385  1.00  0.00     0.046 C 
ENDBRANCH  10  13
ENDBRANCH   8   9
ENDBRANCH   4   7
ENDBRANCH   2   3
ENDBRANCH   1   2
BRANCH   1  21
ATOM     21  C   UNL A   1      32.389  28.578  25.938  1.00  0.00     0.118 C 
BRANCH  21  22
ATOM     22  N   UNL A   1      31.847  29.920  26.155  1.00  0.00    -0.352 N 
ATOM     23  C   UNL A   1      32.272  31.056  26.814  1.00  0.00     0.251 C 
ATOM     24  H   UNL A   1      30.968  30.042  25.731  1.00  0.00     0.163 HD
ATOM     25  O   UNL A   1      31.450  31.960  26.965  1.00  0.00    -0.269 OA
BRANCH  23  26
ATOM     26  C   UNL A   1      33.650  31.219  27.344  1.00  0.00     0.039 A 
ATOM     27  C   UNL A   1      34.109  32.445  27.836  1.00  0.00     0.014 A 
ATOM     28  C   UNL A   1      34.533  30.151  27.338  1.00  0.00     0.014 A 
ATOM     29  C   UNL A   1      35.441  32.549  28.251  1.00  0.00     0.010 A 
ATOM     30  C   UNL A   1      35.702  30.163  28.037  1.00  0.00     0.010 A 
ATOM     31  C   UNL A   1      36.232  31.391  28.335  1.00  0.00    -0.014 A 
BRANCH  31  32
ATOM     32  C   UNL A   1      37.564  31.376  28.903  1.00  0.00     0.031 A 
ATOM     33  C   UNL A   1      38.208  30.078  28.681  1.00  0.00     0.074 A 
ATOM     34  C   UNL A   1      38.275  32.430  29.355  1.00  0.00     0.049 A 
ATOM     35  N   UNL A   1      38.098  29.054  29.454  1.00  0.00    -0.248 NA
ATOM     36  C   UNL A   1      38.774  29.782  27.356  1.00  0.00     0.031 C 
ATOM     37  C   UNL A   1      37.957  33.858  29.319  1.00  0.00     0.029 A 
ATOM     38  N   UNL A   1      39.519  32.408  29.913  1.00  0.00    -0.354 N 
ATOM     39  C   UNL A   1      38.875  28.084  28.856  1.00  0.00     0.074 A 
ATOM     40  C   UNL A   1      38.969  28.466  27.474  1.00  0.00     0.031 C 
ATOM     41  C   UNL A   1      39.049  34.572  29.691  1.00  0.00     0.029 A 
ATOM     42  C   UNL A   1      40.095  33.656  30.121  1.00  0.00     0.049 A 
ATOM     43  H   UNL A   1      39.975  31.570  30.153  1.00  0.00     0.167 HD
ATOM     44  C   UNL A   1      39.643  27.265  29.624  1.00  0.00     0.034 A 
ATOM     45  C   UNL A   1      41.347  33.900  30.601  1.00  0.00     0.034 A 
ATOM     46  C   UNL A   1      39.310  27.418  31.033  1.00  0.00     0.049 A 
ATOM     47  C   UNL A   1      41.735  32.706  31.399  1.00  0.00     0.074 A 
ATOM     48  C   UNL A   1      38.138  27.342  31.767  1.00  0.00     0.029 A 
ATOM     49  N   UNL A   1      40.187  28.135  31.824  1.00  0.00    -0.354 N 
ATOM     50  N   UNL A   1      41.131  32.358  32.502  1.00  0.00    -0.248 NA
ATOM     51  C   UNL A   1      42.462  31.633  30.737  1.00  0.00     0.031 C 
ATOM     52  C   UNL A   1      38.213  28.416  32.705  1.00  0.00     0.029 A 
ATOM     53  C   UNL A   1      39.458  29.033  32.569  1.00  0.00     0.049 A 
ATOM     54  H   UNL A   1      41.164  28.023  31.850  1.00  0.00     0.167 HD
ATOM     55  C   UNL A   1      41.005  30.980  32.423  1.00  0.00     0.074 A 
ATOM     56  C   UNL A   1      41.945  30.580  31.376  1.00  0.00     0.031 C 
ATOM     57  C   UNL A   1      39.951  30.331  33.005  1.00  0.00     0.034 A 
BRANCH  44  58
ATOM     58  C   UNL A   1      40.942  26.643  29.173  1.00  0.00     0.023 A 
ATOM     59  C   UNL A   1      42.078  27.466  29.240  1.00  0.00     0.031 A 
ATOM     60  C   UNL A   1      41.099  25.432  28.461  1.00  0.00     0.131 A 
ATOM     61  C   UNL A   1      43.246  27.138  28.536  1.00  0.00     0.055 A 
ATOM     62  C   UNL A   1      42.289  25.074  27.826  1.00  0.00     0.041 A 
ATOM     63  F   UNL A   1      40.102  24.566  28.253  1.00  0.00    -0.206 F 
ATOM     64  C   UNL A   1      43.362  25.945  27.831  1.00  0.00     0.022 A 
BRANCH  61  65
ATOM     65  S   UNL A   1      44.540  28.393  28.419  1.00  0.00     0.124 S 
ATOM     66  O   UNL A   1      43.757  29.588  28.124  1.00  0.00    -0.237 OA
ATOM     67  O   UNL A   1      45.141  28.328  29.747  1.00  0.00    -0.237 OA
ATOM     68  O   UNL A   1      45.381  27.909  27.328  1.00  0.00    -0.744 OA
ENDBRANCH  61  65
ENDBRANCH  44  58
BRANCH  45  69
ATOM     69  C   UNL A   1      42.313  34.962  30.203  1.00  0.00     0.023 A 
ATOM     70  C   UNL A   1      42.343  35.524  28.905  1.00  0.00     0.031 A 
ATOM     71  C   UNL A   1      43.051  35.641  31.197  1.00  0.00     0.131 A 
ATOM     72  C   UNL A   1      43.071  36.714  28.654  1.00  0.00     0.055 A 
ATOM     73  C   UNL A   1      43.768  36.813  30.944  1.00  0.00     0.041 A 
ATOM     74  F   UNL A   1      43.023  35.239  32.477  1.00  0.00    -0.206 F 
ATOM     75  C   UNL A   1      43.770  37.362  29.672  1.00  0.00     0.022 A 
BRANCH  72  76
ATOM     76  S   UNL A   1      43.025  37.505  27.009  1.00  0.00     0.124 S 
ATOM     77  O   UNL A   1      42.759  36.375  26.127  1.00  0.00    -0.237 OA
ATOM     78  O   UNL A   1      41.953  38.482  27.158  1.00  0.00    -0.237 OA
ATOM     79  O   UNL A   1      44.363  38.086  26.875  1.00  0.00    -0.744 OA
ENDBRANCH  72  76
ENDBRANCH  45  69
BRANCH  57  80
ATOM     80  C   UNL A   1      39.125  31.083  34.037  1.00  0.00     0.023 A 
ATOM     81  C   UNL A   1      38.069  31.979  33.749  1.00  0.00     0.031 A 
ATOM     82  C   UNL A   1      39.384  30.805  35.393  1.00  0.00     0.131 A 
ATOM     83  C   UNL A   1      37.335  32.571  34.799  1.00  0.00     0.055 A 
ATOM     84  C   UNL A   1      38.641  31.373  36.427  1.00  0.00     0.041 A 
ATOM     85  F   UNL A   1      40.360  29.949  35.738  1.00  0.00    -0.206 F 
ATOM     86  C   UNL A   1      37.618  32.267  36.134  1.00  0.00     0.022 A 
BRANCH  83  87
ATOM     87  S   UNL A   1      36.013  33.780  34.452  1.00  0.00     0.124 S 
ATOM     88  O   UNL A   1      35.137  33.075  33.524  1.00  0.00    -0.237 OA
ATOM     89  O   UNL A   1      35.463  34.036  35.780  1.00  0.00    -0.237 OA
ATOM     90  O   UNL A   1      36.734  34.912  33.866  1.00  0.00    -0.744 OA
ENDBRANCH  83  87
ENDBRANCH  57  80
ENDBRANCH  31  32
ENDBRANCH  23  26
ENDBRANCH  21  22
ENDBRANCH   1  21
TORSDOF 15
ENDMDL
