MODEL 1
REMARK VINA RESULT:     -12.2      0.000      0.000
REMARK SMILES O=C(NCCCNC(=O)c1cn(C[C@@H]2CCS(=O)(=O)C2)c(=O)[nH]c1=O)c1ccc(-c2c3nc(c(-c4cc(S(=O)(=O)[O-])ccc4F)c4ccc([nH]4)c(-c4cc(S(=O)(=O)[O-])ccc4F)c4nc(c(-c5cc(S(=O)(=O)[O-])ccc5F)c5ccc2[nH]5)C=C4)C=C3)cc1
REMARK SMILES IDX 4 1 3 2 1 3 2 4 26 6 27 7 88 8 28 9 87 10 29 11 30 12 31 13
REMARK SMILES IDX 81 14 32 15 86 16 80 17 82 18 33 19 85 20 79 21 78 22 34 24
REMARK SMILES IDX 66 25 46 26 65 27 47 28 50 29 64 30 83 31 48 32 49 33 63 35
REMARK SMILES IDX 84 36 51 37 35 38 36 39 44 40 37 41 43 42 45 43 42 44 38 45
REMARK SMILES IDX 39 46 40 47 41 48 67 49 68 50 76 51 69 52 75 53 77 54 74 55
REMARK SMILES IDX 70 56 71 57 72 58 73 59 52 60 53 61 61 62 54 63 60 64 62 65
REMARK SMILES IDX 59 66 55 67 56 68 57 69 58 70 5 71 6 72 7 73 8 74 9 76 10 77
REMARK SMILES IDX 11 78 24 79 12 80 23 81 25 82 21 83 22 85 13 86 14 87 15 88
REMARK SMILES IDX 20 89 16 90 17 91 18 92 19 93
REMARK H PARENT 3 5 82 23 50 34 7 75 23 84
REMARK Flexibility Score: inf
ROOT
ATOM      1  C   UNL A   1      37.034  22.403  25.197  1.00  0.00     0.118 C 
ENDROOT
BRANCH   1   2
ATOM      2  N   UNL A   1      37.966  21.374  25.647  1.00  0.00    -0.352 N 
ATOM      3  O   UNL A   1      39.910  20.460  26.285  1.00  0.00    -0.269 OA
ATOM      4  C   UNL A   1      39.222  21.474  26.188  1.00  0.00     0.251 C 
ATOM      5  H   UNL A   1      37.636  20.452  25.545  1.00  0.00     0.163 HD
BRANCH   4   6
ATOM      6  C   UNL A   1      39.746  22.778  26.647  1.00  0.00     0.039 A 
ATOM      7  C   UNL A   1      39.252  23.952  26.073  1.00  0.00     0.014 A 
ATOM      8  C   UNL A   1      40.753  22.849  27.611  1.00  0.00     0.014 A 
ATOM      9  C   UNL A   1      39.748  25.188  26.493  1.00  0.00     0.010 A 
ATOM     10  C   UNL A   1      41.142  24.077  28.124  1.00  0.00     0.010 A 
ATOM     11  C   UNL A   1      40.683  25.262  27.539  1.00  0.00    -0.014 A 
BRANCH  11  12
ATOM     12  C   UNL A   1      41.244  26.562  27.989  1.00  0.00     0.031 A 
ATOM     13  C   UNL A   1      42.687  26.897  27.712  1.00  0.00     0.074 A 
ATOM     14  C   UNL A   1      40.470  27.423  28.675  1.00  0.00     0.049 A 
ATOM     15  N   UNL A   1      43.361  27.968  28.039  1.00  0.00    -0.248 NA
ATOM     16  C   UNL A   1      43.488  25.882  27.006  1.00  0.00     0.031 C 
ATOM     17  C   UNL A   1      39.081  27.175  29.063  1.00  0.00     0.029 A 
ATOM     18  N   UNL A   1      40.737  28.676  29.166  1.00  0.00    -0.354 N 
ATOM     19  C   UNL A   1      44.656  27.752  27.582  1.00  0.00     0.074 A 
ATOM     20  C   UNL A   1      44.701  26.411  27.052  1.00  0.00     0.031 C 
ATOM     21  C   UNL A   1      38.604  28.258  29.692  1.00  0.00     0.029 A 
ATOM     22  C   UNL A   1      39.663  29.260  29.795  1.00  0.00     0.049 A 
ATOM     23  H   UNL A   1      41.613  29.115  29.076  1.00  0.00     0.167 HD
ATOM     24  C   UNL A   1      45.701  28.613  27.553  1.00  0.00     0.034 A 
ATOM     25  C   UNL A   1      39.541  30.467  30.385  1.00  0.00     0.034 A 
ATOM     26  C   UNL A   1      45.636  29.956  28.068  1.00  0.00     0.049 A 
ATOM     27  C   UNL A   1      40.711  31.417  30.342  1.00  0.00     0.074 A 
ATOM     28  C   UNL A   1      46.623  30.924  28.057  1.00  0.00     0.029 A 
ATOM     29  N   UNL A   1      44.525  30.525  28.675  1.00  0.00    -0.354 N 
ATOM     30  N   UNL A   1      41.904  31.232  29.825  1.00  0.00    -0.248 NA
ATOM     31  C   UNL A   1      40.518  32.744  30.938  1.00  0.00     0.031 C 
ATOM     32  C   UNL A   1      46.133  32.052  28.715  1.00  0.00     0.029 A 
ATOM     33  C   UNL A   1      44.810  31.823  29.064  1.00  0.00     0.049 A 
ATOM     34  H   UNL A   1      43.661  30.072  28.810  1.00  0.00     0.167 HD
ATOM     35  C   UNL A   1      42.599  32.422  30.022  1.00  0.00     0.074 A 
ATOM     36  C   UNL A   1      41.675  33.334  30.667  1.00  0.00     0.031 C 
ATOM     37  C   UNL A   1      43.886  32.728  29.709  1.00  0.00     0.034 A 
BRANCH  24  38
ATOM     38  C   UNL A   1      46.988  28.153  26.908  1.00  0.00     0.023 A 
ATOM     39  C   UNL A   1      47.128  28.168  25.508  1.00  0.00     0.031 A 
ATOM     40  C   UNL A   1      48.039  27.606  27.671  1.00  0.00     0.131 A 
ATOM     41  C   UNL A   1      48.273  27.619  24.916  1.00  0.00     0.055 A 
ATOM     42  C   UNL A   1      49.202  27.115  27.080  1.00  0.00     0.041 A 
ATOM     43  F   UNL A   1      47.957  27.563  29.012  1.00  0.00    -0.206 F 
ATOM     44  C   UNL A   1      49.316  27.106  25.695  1.00  0.00     0.022 A 
BRANCH  41  45
ATOM     45  S   UNL A   1      48.425  27.480  23.116  1.00  0.00     0.124 S 
ATOM     46  O   UNL A   1      48.347  26.034  22.919  1.00  0.00    -0.237 OA
ATOM     47  O   UNL A   1      47.263  28.235  22.654  1.00  0.00    -0.237 OA
ATOM     48  O   UNL A   1      49.724  28.078  22.825  1.00  0.00    -0.744 OA
ENDBRANCH  41  45
ENDBRANCH  24  38
BRANCH  25  49
ATOM     49  C   UNL A   1      38.225  30.842  30.984  1.00  0.00     0.023 A 
ATOM     50  C   UNL A   1      37.235  31.469  30.204  1.00  0.00     0.031 A 
ATOM     51  C   UNL A   1      37.997  30.717  32.365  1.00  0.00     0.131 A 
ATOM     52  C   UNL A   1      36.110  32.028  30.824  1.00  0.00     0.055 A 
ATOM     53  C   UNL A   1      36.833  31.201  32.966  1.00  0.00     0.041 A 
ATOM     54  F   UNL A   1      38.919  30.143  33.154  1.00  0.00    -0.206 F 
ATOM     55  C   UNL A   1      35.893  31.880  32.198  1.00  0.00     0.022 A 
BRANCH  52  56
ATOM     56  S   UNL A   1      34.980  33.103  29.897  1.00  0.00     0.124 S 
ATOM     57  O   UNL A   1      34.182  33.702  30.963  1.00  0.00    -0.237 OA
ATOM     58  O   UNL A   1      35.913  34.004  29.225  1.00  0.00    -0.237 OA
ATOM     59  O   UNL A   1      34.268  32.180  29.019  1.00  0.00    -0.744 OA
ENDBRANCH  52  56
ENDBRANCH  25  49
BRANCH  37  60
ATOM     60  C   UNL A   1      44.406  34.102  30.068  1.00  0.00     0.023 A 
ATOM     61  C   UNL A   1      44.292  35.163  29.148  1.00  0.00     0.031 A 
ATOM     62  C   UNL A   1      45.135  34.326  31.249  1.00  0.00     0.131 A 
ATOM     63  C   UNL A   1      44.929  36.384  29.408  1.00  0.00     0.055 A 
ATOM     64  C   UNL A   1      45.716  35.563  31.530  1.00  0.00     0.041 A 
ATOM     65  F   UNL A   1      45.291  33.343  32.150  1.00  0.00    -0.206 F 
ATOM     66  C   UNL A   1      45.627  36.594  30.601  1.00  0.00     0.022 A 
BRANCH  63  67
ATOM     67  S   UNL A   1      44.961  37.708  28.167  1.00  0.00     0.124 S 
ATOM     68  O   UNL A   1      44.349  38.817  28.895  1.00  0.00    -0.237 OA
ATOM     69  O   UNL A   1      46.391  37.848  27.906  1.00  0.00    -0.237 OA
ATOM     70  O   UNL A   1      44.171  37.176  27.063  1.00  0.00    -0.744 OA
ENDBRANCH  63  67
ENDBRANCH  37  60
ENDBRANCH  11  12
ENDBRANCH   4   6
ENDBRANCH   1   2
BRANCH   1  71
ATOM     71  C   UNL A   1      35.898  22.626  26.180  1.00  0.00     0.042 C 
BRANCH  71  72
ATOM     72  C   UNL A   1      34.850  23.598  25.672  1.00  0.00     0.118 C 
BRANCH  72  73
ATOM     73  N   UNL A   1      33.732  23.787  26.593  1.00  0.00    -0.352 N 
ATOM     74  C   UNL A   1      32.404  23.459  26.457  1.00  0.00     0.258 C 
ATOM     75  H   UNL A   1      33.968  24.218  27.445  1.00  0.00     0.163 HD
ATOM     76  O   UNL A   1      31.618  23.696  27.368  1.00  0.00    -0.269 OA
BRANCH  74  77
ATOM     77  C   UNL A   1      31.985  22.833  25.190  1.00  0.00     0.121 A 
ATOM     78  C   UNL A   1      32.065  21.501  25.073  1.00  0.00     0.110 A 
ATOM     79  C   UNL A   1      31.595  23.620  24.009  1.00  0.00     0.266 A 
ATOM     80  N   UNL A   1      32.036  20.869  23.842  1.00  0.00    -0.299 N 
ATOM     81  N   UNL A   1      31.572  22.924  22.830  1.00  0.00    -0.273 N 
ATOM     82  O   UNL A   1      31.358  24.822  24.045  1.00  0.00    -0.268 OA
ATOM     83  C   UNL A   1      31.871  21.600  22.668  1.00  0.00     0.328 A 
ATOM     84  H   UNL A   1      31.315  23.425  22.023  1.00  0.00     0.175 HD
ATOM     85  O   UNL A   1      31.963  21.114  21.544  1.00  0.00    -0.248 OA
BRANCH  80  86
ATOM     86  C   UNL A   1      32.423  19.462  23.762  1.00  0.00     0.131 C 
BRANCH  86  87
ATOM     87  C   UNL A   1      33.104  18.853  25.001  1.00  0.00     0.025 C 
ATOM     88  C   UNL A   1      34.620  19.079  25.103  1.00  0.00     0.022 C 
ATOM     89  C   UNL A   1      32.875  17.352  25.179  1.00  0.00     0.142 C 
ATOM     90  C   UNL A   1      35.347  17.960  24.363  1.00  0.00     0.137 C 
ATOM     91  S   UNL A   1      34.300  16.526  24.495  1.00  0.00     0.150 S 
ATOM     92  O   UNL A   1      33.970  16.057  23.163  1.00  0.00    -0.229 OA
ATOM     93  O   UNL A   1      34.843  15.643  25.504  1.00  0.00    -0.229 OA
ENDBRANCH  86  87
ENDBRANCH  80  86
ENDBRANCH  74  77
ENDBRANCH  72  73
ENDBRANCH  71  72
ENDBRANCH   1  71
TORSDOF 15
ENDMDL
MODEL 2
REMARK VINA RESULT:     -12.2      5.279      9.908
REMARK SMILES O=C(NCCCNC(=O)c1cn(C[C@@H]2CCS(=O)(=O)C2)c(=O)[nH]c1=O)c1ccc(-c2c3nc(c(-c4cc(S(=O)(=O)[O-])ccc4F)c4ccc([nH]4)c(-c4cc(S(=O)(=O)[O-])ccc4F)c4nc(c(-c5cc(S(=O)(=O)[O-])ccc5F)c5ccc2[nH]5)C=C4)C=C3)cc1
REMARK SMILES IDX 4 1 3 2 1 3 2 4 26 6 27 7 88 8 28 9 87 10 29 11 30 12 31 13
REMARK SMILES IDX 81 14 32 15 86 16 80 17 82 18 33 19 85 20 79 21 78 22 34 24
REMARK SMILES IDX 66 25 46 26 65 27 47 28 50 29 64 30 83 31 48 32 49 33 63 35
REMARK SMILES IDX 84 36 51 37 35 38 36 39 44 40 37 41 43 42 45 43 42 44 38 45
REMARK SMILES IDX 39 46 40 47 41 48 67 49 68 50 76 51 69 52 75 53 77 54 74 55
REMARK SMILES IDX 70 56 71 57 72 58 73 59 52 60 53 61 61 62 54 63 60 64 62 65
REMARK SMILES IDX 59 66 55 67 56 68 57 69 58 70 5 71 6 72 7 73 8 74 9 76 10 77
REMARK SMILES IDX 11 78 24 79 12 80 23 81 25 82 21 83 22 85 13 86 14 87 15 88
REMARK SMILES IDX 20 89 16 90 17 91 18 92 19 93
REMARK H PARENT 3 5 82 23 50 34 7 75 23 84
REMARK Flexibility Score: inf
ROOT
ATOM      1  C   UNL A   1      32.752  29.564  25.684  1.00  0.00     0.118 C 
ENDROOT
BRANCH   1   2
ATOM      2  N   UNL A   1      32.461  30.942  26.067  1.00  0.00    -0.352 N 
ATOM      3  O   UNL A   1      32.447  32.794  27.330  1.00  0.00    -0.269 OA
ATOM      4  C   UNL A   1      33.005  31.736  27.044  1.00  0.00     0.251 C 
ATOM      5  H   UNL A   1      31.757  31.374  25.532  1.00  0.00     0.163 HD
BRANCH   4   6
ATOM      6  C   UNL A   1      34.241  31.332  27.748  1.00  0.00     0.039 A 
ATOM      7  C   UNL A   1      35.260  32.270  27.929  1.00  0.00     0.014 A 
ATOM      8  C   UNL A   1      34.418  30.021  28.192  1.00  0.00     0.014 A 
ATOM      9  C   UNL A   1      36.436  31.894  28.583  1.00  0.00     0.010 A 
ATOM     10  C   UNL A   1      35.524  29.689  28.962  1.00  0.00     0.010 A 
ATOM     11  C   UNL A   1      36.568  30.604  29.125  1.00  0.00    -0.014 A 
BRANCH  11  12
ATOM     12  C   UNL A   1      37.816  30.173  29.806  1.00  0.00     0.031 A 
ATOM     13  C   UNL A   1      38.127  30.667  31.195  1.00  0.00     0.074 A 
ATOM     14  C   UNL A   1      38.685  29.370  29.164  1.00  0.00     0.049 A 
ATOM     15  N   UNL A   1      39.170  30.420  31.943  1.00  0.00    -0.248 NA
ATOM     16  C   UNL A   1      37.158  31.589  31.811  1.00  0.00     0.031 C 
ATOM     17  C   UNL A   1      38.524  28.886  27.792  1.00  0.00     0.029 A 
ATOM     18  N   UNL A   1      39.871  28.817  29.577  1.00  0.00    -0.354 N 
ATOM     19  C   UNL A   1      38.980  31.153  33.109  1.00  0.00     0.074 A 
ATOM     20  C   UNL A   1      37.782  31.936  32.927  1.00  0.00     0.031 C 
ATOM     21  C   UNL A   1      39.547  28.074  27.492  1.00  0.00     0.029 A 
ATOM     22  C   UNL A   1      40.462  28.014  28.630  1.00  0.00     0.049 A 
ATOM     23  H   UNL A   1      40.260  28.978  30.466  1.00  0.00     0.167 HD
ATOM     24  C   UNL A   1      39.707  31.135  34.251  1.00  0.00     0.034 A 
ATOM     25  C   UNL A   1      41.610  27.305  28.673  1.00  0.00     0.034 A 
ATOM     26  C   UNL A   1      40.890  30.333  34.425  1.00  0.00     0.049 A 
ATOM     27  C   UNL A   1      42.406  27.291  29.952  1.00  0.00     0.074 A 
ATOM     28  C   UNL A   1      41.681  30.212  35.553  1.00  0.00     0.029 A 
ATOM     29  N   UNL A   1      41.448  29.512  33.456  1.00  0.00    -0.354 N 
ATOM     30  N   UNL A   1      42.166  27.920  31.080  1.00  0.00    -0.248 NA
ATOM     31  C   UNL A   1      43.614  26.457  29.979  1.00  0.00     0.031 C 
ATOM     32  C   UNL A   1      42.751  29.371  35.244  1.00  0.00     0.029 A 
ATOM     33  C   UNL A   1      42.586  28.898  33.951  1.00  0.00     0.049 A 
ATOM     34  H   UNL A   1      41.087  29.385  32.547  1.00  0.00     0.167 HD
ATOM     35  C   UNL A   1      43.184  27.549  31.954  1.00  0.00     0.074 A 
ATOM     36  C   UNL A   1      44.017  26.605  31.235  1.00  0.00     0.031 C 
ATOM     37  C   UNL A   1      43.415  27.960  33.228  1.00  0.00     0.034 A 
BRANCH  24  38
ATOM     38  C   UNL A   1      39.225  31.966  35.418  1.00  0.00     0.023 A 
ATOM     39  C   UNL A   1      38.571  31.357  36.504  1.00  0.00     0.031 A 
ATOM     40  C   UNL A   1      39.323  33.372  35.409  1.00  0.00     0.131 A 
ATOM     41  C   UNL A   1      38.014  32.151  37.516  1.00  0.00     0.055 A 
ATOM     42  C   UNL A   1      38.819  34.153  36.447  1.00  0.00     0.041 A 
ATOM     43  F   UNL A   1      39.934  34.007  34.394  1.00  0.00    -0.206 F 
ATOM     44  C   UNL A   1      38.147  33.543  37.501  1.00  0.00     0.022 A 
BRANCH  41  45
ATOM     45  S   UNL A   1      37.033  31.417  38.851  1.00  0.00     0.124 S 
ATOM     46  O   UNL A   1      36.863  30.045  38.380  1.00  0.00    -0.237 OA
ATOM     47  O   UNL A   1      37.918  31.576  40.001  1.00  0.00    -0.237 OA
ATOM     48  O   UNL A   1      35.815  32.221  38.875  1.00  0.00    -0.744 OA
ENDBRANCH  41  45
ENDBRANCH  24  38
BRANCH  25  49
ATOM     49  C   UNL A   1      41.999  26.500  27.476  1.00  0.00     0.023 A 
ATOM     50  C   UNL A   1      41.683  25.131  27.400  1.00  0.00     0.031 A 
ATOM     51  C   UNL A   1      42.814  27.046  26.471  1.00  0.00     0.131 A 
ATOM     52  C   UNL A   1      42.254  24.338  26.397  1.00  0.00     0.055 A 
ATOM     53  C   UNL A   1      43.313  26.268  25.424  1.00  0.00     0.041 A 
ATOM     54  F   UNL A   1      43.159  28.343  26.509  1.00  0.00    -0.206 F 
ATOM     55  C   UNL A   1      43.052  24.903  25.396  1.00  0.00     0.022 A 
BRANCH  52  56
ATOM     56  S   UNL A   1      42.117  22.530  26.453  1.00  0.00     0.124 S 
ATOM     57  O   UNL A   1      42.976  22.122  25.346  1.00  0.00    -0.237 OA
ATOM     58  O   UNL A   1      42.627  22.236  27.790  1.00  0.00    -0.237 OA
ATOM     59  O   UNL A   1      40.690  22.286  26.267  1.00  0.00    -0.744 OA
ENDBRANCH  52  56
ENDBRANCH  25  49
BRANCH  37  60
ATOM     60  C   UNL A   1      44.628  27.417  33.950  1.00  0.00     0.023 A 
ATOM     61  C   UNL A   1      44.544  26.203  34.660  1.00  0.00     0.031 A 
ATOM     62  C   UNL A   1      45.815  28.163  34.055  1.00  0.00     0.131 A 
ATOM     63  C   UNL A   1      45.611  25.792  35.471  1.00  0.00     0.055 A 
ATOM     64  C   UNL A   1      46.897  27.719  34.816  1.00  0.00     0.041 A 
ATOM     65  F   UNL A   1      45.941  29.337  33.416  1.00  0.00    -0.206 F 
ATOM     66  C   UNL A   1      46.792  26.537  35.540  1.00  0.00     0.022 A 
BRANCH  63  67
ATOM     67  S   UNL A   1      45.467  24.334  36.542  1.00  0.00     0.124 S 
ATOM     68  O   UNL A   1      46.752  23.674  36.324  1.00  0.00    -0.237 OA
ATOM     69  O   UNL A   1      45.293  24.938  37.860  1.00  0.00    -0.237 OA
ATOM     70  O   UNL A   1      44.306  23.624  36.018  1.00  0.00    -0.744 OA
ENDBRANCH  63  67
ENDBRANCH  37  60
ENDBRANCH  11  12
ENDBRANCH   4   6
ENDBRANCH   1   2
BRANCH   1  71
ATOM     71  C   UNL A   1      31.791  28.571  26.315  1.00  0.00     0.042 C 
BRANCH  71  72
ATOM     72  C   UNL A   1      32.337  27.157  26.361  1.00  0.00     0.118 C 
BRANCH  72  73
ATOM     73  N   UNL A   1      31.361  26.167  26.808  1.00  0.00    -0.352 N 
ATOM     74  C   UNL A   1      30.815  25.093  26.144  1.00  0.00     0.258 C 
ATOM     75  H   UNL A   1      31.044  26.287  27.732  1.00  0.00     0.163 HD
ATOM     76  O   UNL A   1      30.009  24.366  26.713  1.00  0.00    -0.269 OA
BRANCH  74  77
ATOM     77  C   UNL A   1      31.233  24.876  24.747  1.00  0.00     0.121 A 
ATOM     78  C   UNL A   1      32.162  23.947  24.490  1.00  0.00     0.110 A 
ATOM     79  C   UNL A   1      30.757  25.720  23.638  1.00  0.00     0.266 A 
ATOM     80  N   UNL A   1      32.860  23.916  23.295  1.00  0.00    -0.299 N 
ATOM     81  N   UNL A   1      31.485  25.623  22.483  1.00  0.00    -0.273 N 
ATOM     82  O   UNL A   1      29.816  26.498  23.735  1.00  0.00    -0.268 OA
ATOM     83  C   UNL A   1      32.582  24.832  22.282  1.00  0.00     0.328 A 
ATOM     84  H   UNL A   1      31.191  26.177  21.724  1.00  0.00     0.175 HD
ATOM     85  O   UNL A   1      33.247  24.935  21.256  1.00  0.00    -0.248 OA
BRANCH  80  86
ATOM     86  C   UNL A   1      34.051  23.075  23.194  1.00  0.00     0.131 C 
BRANCH  86  87
ATOM     87  C   UNL A   1      35.400  23.731  23.541  1.00  0.00     0.025 C 
ATOM     88  C   UNL A   1      36.648  22.942  23.121  1.00  0.00     0.022 C 
ATOM     89  C   UNL A   1      35.579  24.073  25.020  1.00  0.00     0.142 C 
ATOM     90  C   UNL A   1      37.028  21.970  24.233  1.00  0.00     0.137 C 
ATOM     91  S   UNL A   1      36.504  22.736  25.753  1.00  0.00     0.150 S 
ATOM     92  O   UNL A   1      35.580  21.851  26.436  1.00  0.00    -0.229 OA
ATOM     93  O   UNL A   1      37.661  23.294  26.418  1.00  0.00    -0.229 OA
ENDBRANCH  86  87
ENDBRANCH  80  86
ENDBRANCH  74  77
ENDBRANCH  72  73
ENDBRANCH  71  72
ENDBRANCH   1  71
TORSDOF 15
ENDMDL
MODEL 3
REMARK VINA RESULT:     -12.1      4.971      9.786
REMARK SMILES O=C(NCCCNC(=O)c1cn(C[C@@H]2CCS(=O)(=O)C2)c(=O)[nH]c1=O)c1ccc(-c2c3nc(c(-c4cc(S(=O)(=O)[O-])ccc4F)c4ccc([nH]4)c(-c4cc(S(=O)(=O)[O-])ccc4F)c4nc(c(-c5cc(S(=O)(=O)[O-])ccc5F)c5ccc2[nH]5)C=C4)C=C3)cc1
REMARK SMILES IDX 4 1 3 2 1 3 2 4 26 6 27 7 88 8 28 9 87 10 29 11 30 12 31 13
REMARK SMILES IDX 81 14 32 15 86 16 80 17 82 18 33 19 85 20 79 21 78 22 34 24
REMARK SMILES IDX 66 25 46 26 65 27 47 28 50 29 64 30 83 31 48 32 49 33 63 35
REMARK SMILES IDX 84 36 51 37 35 38 36 39 44 40 37 41 43 42 45 43 42 44 38 45
REMARK SMILES IDX 39 46 40 47 41 48 67 49 68 50 76 51 69 52 75 53 77 54 74 55
REMARK SMILES IDX 70 56 71 57 72 58 73 59 52 60 53 61 61 62 54 63 60 64 62 65
REMARK SMILES IDX 59 66 55 67 56 68 57 69 58 70 5 71 6 72 7 73 8 74 9 76 10 77
REMARK SMILES IDX 11 78 24 79 12 80 23 81 25 82 21 83 22 85 13 86 14 87 15 88
REMARK SMILES IDX 20 89 16 90 17 91 18 92 19 93
REMARK H PARENT 3 5 82 23 50 34 7 75 23 84
REMARK Flexibility Score: inf
ROOT
ATOM      1  C   UNL A   1      33.127  29.819  26.516  1.00  0.00     0.118 C 
ENDROOT
BRANCH   1   2
ATOM      2  N   UNL A   1      33.075  31.250  26.801  1.00  0.00    -0.352 N 
ATOM      3  O   UNL A   1      33.478  33.175  27.875  1.00  0.00    -0.269 OA
ATOM      4  C   UNL A   1      33.848  32.031  27.622  1.00  0.00     0.251 C 
ATOM      5  H   UNL A   1      32.367  31.736  26.321  1.00  0.00     0.163 HD
BRANCH   4   6
ATOM      6  C   UNL A   1      35.105  31.508  28.200  1.00  0.00     0.039 A 
ATOM      7  C   UNL A   1      35.120  30.225  28.752  1.00  0.00     0.014 A 
ATOM      8  C   UNL A   1      36.258  32.293  28.237  1.00  0.00     0.014 A 
ATOM      9  C   UNL A   1      36.300  29.727  29.309  1.00  0.00     0.010 A 
ATOM     10  C   UNL A   1      37.460  31.746  28.663  1.00  0.00     0.010 A 
ATOM     11  C   UNL A   1      37.487  30.477  29.249  1.00  0.00    -0.014 A 
BRANCH  11  12
ATOM     12  C   UNL A   1      38.750  29.980  29.854  1.00  0.00     0.031 A 
ATOM     13  C   UNL A   1      39.184  30.478  31.208  1.00  0.00     0.074 A 
ATOM     14  C   UNL A   1      39.522  29.112  29.174  1.00  0.00     0.049 A 
ATOM     15  N   UNL A   1      40.259  30.179  31.890  1.00  0.00    -0.248 NA
ATOM     16  C   UNL A   1      38.318  31.470  31.868  1.00  0.00     0.031 C 
ATOM     17  C   UNL A   1      39.239  28.616  27.827  1.00  0.00     0.029 A 
ATOM     18  N   UNL A   1      40.697  28.493  29.519  1.00  0.00    -0.354 N 
ATOM     19  C   UNL A   1      40.194  30.944  33.050  1.00  0.00     0.074 A 
ATOM     20  C   UNL A   1      39.037  31.797  32.931  1.00  0.00     0.031 C 
ATOM     21  C   UNL A   1      40.187  27.736  27.477  1.00  0.00     0.029 A 
ATOM     22  C   UNL A   1      41.172  27.638  28.552  1.00  0.00     0.049 A 
ATOM     23  H   UNL A   1      41.155  28.645  30.376  1.00  0.00     0.167 HD
ATOM     24  C   UNL A   1      40.994  30.901  34.141  1.00  0.00     0.034 A 
ATOM     25  C   UNL A   1      42.274  26.860  28.534  1.00  0.00     0.034 A 
ATOM     26  C   UNL A   1      42.135  30.028  34.254  1.00  0.00     0.049 A 
ATOM     27  C   UNL A   1      43.153  26.818  29.758  1.00  0.00     0.074 A 
ATOM     28  C   UNL A   1      42.992  29.878  35.328  1.00  0.00     0.029 A 
ATOM     29  N   UNL A   1      42.573  29.157  33.267  1.00  0.00    -0.354 N 
ATOM     30  N   UNL A   1      43.029  27.481  30.884  1.00  0.00    -0.248 NA
ATOM     31  C   UNL A   1      44.306  25.910  29.722  1.00  0.00     0.031 C 
ATOM     32  C   UNL A   1      43.984  28.966  34.967  1.00  0.00     0.029 A 
ATOM     33  C   UNL A   1      43.703  28.482  33.699  1.00  0.00     0.049 A 
ATOM     34  H   UNL A   1      42.145  29.036  32.388  1.00  0.00     0.167 HD
ATOM     35  C   UNL A   1      44.080  27.062  31.697  1.00  0.00     0.074 A 
ATOM     36  C   UNL A   1      44.802  26.055  30.945  1.00  0.00     0.031 C 
ATOM     37  C   UNL A   1      44.421  27.480  32.943  1.00  0.00     0.034 A 
BRANCH  24  38
ATOM     38  C   UNL A   1      40.645  31.781  35.319  1.00  0.00     0.023 A 
ATOM     39  C   UNL A   1      39.584  31.435  36.176  1.00  0.00     0.031 A 
ATOM     40  C   UNL A   1      41.295  33.012  35.534  1.00  0.00     0.131 A 
ATOM     41  C   UNL A   1      39.186  32.323  37.185  1.00  0.00     0.055 A 
ATOM     42  C   UNL A   1      40.933  33.865  36.576  1.00  0.00     0.041 A 
ATOM     43  F   UNL A   1      42.312  33.395  34.743  1.00  0.00    -0.206 F 
ATOM     44  C   UNL A   1      39.864  33.528  37.398  1.00  0.00     0.022 A 
BRANCH  41  45
ATOM     45  S   UNL A   1      37.731  31.987  38.211  1.00  0.00     0.124 S 
ATOM     46  O   UNL A   1      36.809  33.033  37.776  1.00  0.00    -0.237 OA
ATOM     47  O   UNL A   1      37.376  30.632  37.799  1.00  0.00    -0.237 OA
ATOM     48  O   UNL A   1      38.225  32.123  39.577  1.00  0.00    -0.744 OA
ENDBRANCH  41  45
ENDBRANCH  24  38
BRANCH  25  49
ATOM     49  C   UNL A   1      42.531  26.010  27.332  1.00  0.00     0.023 A 
ATOM     50  C   UNL A   1      42.061  24.685  27.278  1.00  0.00     0.031 A 
ATOM     51  C   UNL A   1      43.368  26.457  26.297  1.00  0.00     0.131 A 
ATOM     52  C   UNL A   1      42.506  23.829  26.263  1.00  0.00     0.055 A 
ATOM     53  C   UNL A   1      43.742  25.623  25.241  1.00  0.00     0.041 A 
ATOM     54  F   UNL A   1      43.857  27.707  26.313  1.00  0.00    -0.206 F 
ATOM     55  C   UNL A   1      43.329  24.296  25.232  1.00  0.00     0.022 A 
BRANCH  52  56
ATOM     56  S   UNL A   1      42.169  22.047  26.338  1.00  0.00     0.124 S 
ATOM     57  O   UNL A   1      40.723  22.000  26.141  1.00  0.00    -0.237 OA
ATOM     58  O   UNL A   1      42.975  21.546  25.227  1.00  0.00    -0.237 OA
ATOM     59  O   UNL A   1      42.638  21.663  27.666  1.00  0.00    -0.744 OA
ENDBRANCH  52  56
ENDBRANCH  25  49
BRANCH  37  60
ATOM     60  C   UNL A   1      45.645  26.875  33.595  1.00  0.00     0.023 A 
ATOM     61  C   UNL A   1      45.527  25.708  34.375  1.00  0.00     0.031 A 
ATOM     62  C   UNL A   1      46.891  27.525  33.563  1.00  0.00     0.131 A 
ATOM     63  C   UNL A   1      46.623  25.250  35.119  1.00  0.00     0.055 A 
ATOM     64  C   UNL A   1      47.995  27.031  34.258  1.00  0.00     0.041 A 
ATOM     65  F   UNL A   1      47.054  28.653  32.852  1.00  0.00    -0.206 F 
ATOM     66  C   UNL A   1      47.860  25.898  35.052  1.00  0.00     0.022 A 
BRANCH  63  67
ATOM     67  S   UNL A   1      46.457  23.862  36.276  1.00  0.00     0.124 S 
ATOM     68  O   UNL A   1      45.041  23.527  36.142  1.00  0.00    -0.237 OA
ATOM     69  O   UNL A   1      47.384  22.884  35.716  1.00  0.00    -0.237 OA
ATOM     70  O   UNL A   1      46.844  24.429  37.563  1.00  0.00    -0.744 OA
ENDBRANCH  63  67
ENDBRANCH  37  60
ENDBRANCH  11  12
ENDBRANCH   4   6
ENDBRANCH   1   2
BRANCH   1  71
ATOM     71  C   UNL A   1      31.864  29.096  26.949  1.00  0.00     0.042 C 
BRANCH  71  72
ATOM     72  C   UNL A   1      31.414  28.034  25.963  1.00  0.00     0.118 C 
BRANCH  72  73
ATOM     73  N   UNL A   1      30.860  26.841  26.599  1.00  0.00    -0.352 N 
ATOM     74  C   UNL A   1      30.834  25.536  26.168  1.00  0.00     0.258 C 
ATOM     75  H   UNL A   1      30.440  26.997  27.475  1.00  0.00     0.163 HD
ATOM     76  O   UNL A   1      30.323  24.670  26.869  1.00  0.00    -0.269 OA
BRANCH  74  77
ATOM     77  C   UNL A   1      31.427  25.244  24.850  1.00  0.00     0.121 A 
ATOM     78  C   UNL A   1      32.649  24.698  24.801  1.00  0.00     0.110 A 
ATOM     79  C   UNL A   1      30.781  25.637  23.587  1.00  0.00     0.266 A 
ATOM     80  N   UNL A   1      33.416  24.716  23.649  1.00  0.00    -0.299 N 
ATOM     81  N   UNL A   1      31.597  25.614  22.488  1.00  0.00    -0.273 N 
ATOM     82  O   UNL A   1      29.618  26.013  23.509  1.00  0.00    -0.268 OA
ATOM     83  C   UNL A   1      32.919  25.265  22.469  1.00  0.00     0.328 A 
ATOM     84  H   UNL A   1      31.192  25.872  21.628  1.00  0.00     0.175 HD
ATOM     85  O   UNL A   1      33.592  25.423  21.455  1.00  0.00    -0.248 OA
BRANCH  80  86
ATOM     86  C   UNL A   1      34.834  24.376  23.740  1.00  0.00     0.131 C 
BRANCH  86  87
ATOM     87  C   UNL A   1      35.223  22.916  23.444  1.00  0.00     0.025 C 
ATOM     88  C   UNL A   1      34.576  21.860  24.352  1.00  0.00     0.022 C 
ATOM     89  C   UNL A   1      36.726  22.643  23.462  1.00  0.00     0.142 C 
ATOM     90  C   UNL A   1      35.442  21.661  25.591  1.00  0.00     0.137 C 
ATOM     91  S   UNL A   1      37.115  21.990  25.076  1.00  0.00     0.150 S 
ATOM     92  O   UNL A   1      37.660  23.059  25.891  1.00  0.00    -0.229 OA
ATOM     93  O   UNL A   1      37.807  20.732  24.904  1.00  0.00    -0.229 OA
ENDBRANCH  86  87
ENDBRANCH  80  86
ENDBRANCH  74  77
ENDBRANCH  72  73
ENDBRANCH  71  72
ENDBRANCH   1  71
TORSDOF 15
ENDMDL
