MODEL 1
REMARK VINA RESULT:     -14.3      0.000      0.000
REMARK SMILES Cc1ccccc1-c1c(Cl)ccc2c1C=C(C(=O)NCCCNC(=O)c1ccc(-c3c4nc(c(-c5cc(S(=O)(=O)[O-])ccc5F)c5ccc([nH]5)c(-c5cc(S(=O)(=O)[O-])ccc5F)c5nc(c(-c6cc(S(=O)(=O)[O-])ccc6F)c6ccc3[nH]6)C=C5)C=C4)cc1)[C@@H](C(F)(F)F)O2
REMARK SMILES IDX 22 1 21 2 20 3 19 4 17 5 18 6 16 8 8 9 9 10 14 11 10 12
REMARK SMILES IDX 11 13 13 14 15 15 12 16 94 17 89 18 7 19 1 20 2 21 3 22 4 23
REMARK SMILES IDX 6 24 5 25 90 26 91 27 92 28 93 29 23 30 24 31 25 33 26 34
REMARK SMILES IDX 27 35 88 36 28 37 87 38 29 39 30 40 31 41 81 42 32 43 86 44
REMARK SMILES IDX 80 45 82 46 33 47 85 48 79 49 78 50 34 52 66 53 46 54 65 55
REMARK SMILES IDX 47 56 50 57 64 58 83 59 48 60 49 61 63 63 84 64 51 65 35 66
REMARK SMILES IDX 36 67 44 68 37 69 43 70 45 71 42 72 38 73 39 74 40 75 41 76
REMARK SMILES IDX 67 77 68 78 76 79 69 80 75 81 77 82 74 83 70 84 71 85 72 86
REMARK SMILES IDX 73 87 52 88 53 89 61 90 54 91 60 92 62 93 59 94 55 95 56 96
REMARK SMILES IDX 57 97 58 98
REMARK H PARENT 19 7 23 32 82 51 50 62
REMARK Flexibility Score: inf
ROOT
ATOM      1  C   UNL A   1      35.501  31.602  27.959  1.00  0.00     0.118 C 
ENDROOT
BRANCH   1   2
ATOM      2  C   UNL A   1      34.191  30.899  27.613  1.00  0.00     0.042 C 
BRANCH   2   3
ATOM      3  C   UNL A   1      34.397  29.453  27.194  1.00  0.00     0.118 C 
BRANCH   3   4
ATOM      4  N   UNL A   1      33.300  28.628  27.666  1.00  0.00    -0.352 N 
ATOM      5  C   UNL A   1      32.390  27.869  27.013  1.00  0.00     0.251 C 
ATOM      6  O   UNL A   1      31.354  27.560  27.605  1.00  0.00    -0.270 OA
ATOM      7  H   UNL A   1      33.198  28.619  28.645  1.00  0.00     0.163 HD
BRANCH   5   8
ATOM      8  C   UNL A   1      32.635  27.305  25.654  1.00  0.00     0.067 C 
ATOM      9  C   UNL A   1      33.069  23.839  24.364  1.00  0.00     0.012 A 
ATOM     10  C   UNL A   1      32.145  22.898  23.850  1.00  0.00     0.049 A 
ATOM     11  C   UNL A   1      32.605  25.171  24.530  1.00  0.00     0.027 A 
ATOM     12  Cl  UNL A   1      32.533  21.213  23.703  1.00  0.00    -0.084 Cl
ATOM     13  C   UNL A   1      30.859  23.276  23.444  1.00  0.00     0.025 A 
ATOM     14  C   UNL A   1      31.350  25.555  24.007  1.00  0.00     0.128 A 
ATOM     15  C   UNL A   1      33.192  26.090  25.520  1.00  0.00     0.026 C 
ATOM     16  C   UNL A   1      30.480  24.611  23.479  1.00  0.00     0.049 A 
ATOM     17  O   UNL A   1      30.861  26.838  24.041  1.00  0.00    -0.475 OA
ATOM     18  C   UNL A   1      31.765  27.849  24.550  1.00  0.00     0.314 C 
BRANCH   9  19
ATOM     19  C   UNL A   1      34.496  23.460  24.560  1.00  0.00    -0.013 A 
ATOM     20  C   UNL A   1      34.354  22.955  27.084  1.00  0.00     0.045 C 
ATOM     21  C   UNL A   1      35.090  23.072  25.777  1.00  0.00    -0.043 A 
ATOM     22  C   UNL A   1      36.462  22.742  25.812  1.00  0.00     0.004 A 
ATOM     23  C   UNL A   1      37.237  22.729  24.657  1.00  0.00     0.000 A 
ATOM     24  C   UNL A   1      35.313  23.443  23.402  1.00  0.00     0.009 A 
ATOM     25  C   UNL A   1      36.656  23.064  23.444  1.00  0.00     0.001 A 
ENDBRANCH   9  19
BRANCH  18  26
ATOM     26  C   UNL A   1      32.576  28.507  23.424  1.00  0.00     0.429 C 
ATOM     27  F   UNL A   1      31.776  29.234  22.602  1.00  0.00    -0.167 F 
ATOM     28  F   UNL A   1      33.509  29.367  23.908  1.00  0.00    -0.167 F 
ATOM     29  F   UNL A   1      33.230  27.615  22.643  1.00  0.00    -0.167 F 
ENDBRANCH  18  26
ENDBRANCH   5   8
ENDBRANCH   3   4
ENDBRANCH   2   3
ENDBRANCH   1   2
BRANCH   1  30
ATOM     30  N   UNL A   1      35.678  31.778  29.400  1.00  0.00    -0.352 N 
ATOM     31  C   UNL A   1      36.394  31.001  30.304  1.00  0.00     0.251 C 
ATOM     32  H   UNL A   1      35.226  32.562  29.787  1.00  0.00     0.163 HD
ATOM     33  O   UNL A   1      36.493  31.301  31.469  1.00  0.00    -0.269 OA
BRANCH  31  34
ATOM     34  C   UNL A   1      37.142  29.841  29.763  1.00  0.00     0.039 A 
ATOM     35  C   UNL A   1      37.414  28.788  30.640  1.00  0.00     0.014 A 
ATOM     36  C   UNL A   1      37.783  29.934  28.533  1.00  0.00     0.014 A 
ATOM     37  C   UNL A   1      38.519  27.977  30.397  1.00  0.00     0.010 A 
ATOM     38  C   UNL A   1      38.939  29.201  28.345  1.00  0.00     0.010 A 
ATOM     39  C   UNL A   1      39.343  28.271  29.309  1.00  0.00    -0.014 A 
BRANCH  39  40
ATOM     40  C   UNL A   1      40.702  27.749  29.195  1.00  0.00     0.031 A 
ATOM     41  C   UNL A   1      40.945  26.374  28.720  1.00  0.00     0.074 A 
ATOM     42  C   UNL A   1      41.759  28.524  29.526  1.00  0.00     0.049 A 
ATOM     43  N   UNL A   1      41.938  25.638  29.091  1.00  0.00    -0.248 NA
ATOM     44  C   UNL A   1      40.039  25.703  27.798  1.00  0.00     0.031 C 
ATOM     45  C   UNL A   1      43.173  28.237  29.298  1.00  0.00     0.029 A 
ATOM     46  N   UNL A   1      41.762  29.632  30.368  1.00  0.00    -0.354 N 
ATOM     47  C   UNL A   1      41.972  24.539  28.264  1.00  0.00     0.074 A 
ATOM     48  C   UNL A   1      40.732  24.595  27.522  1.00  0.00     0.031 C 
ATOM     49  C   UNL A   1      43.906  28.952  30.165  1.00  0.00     0.029 A 
ATOM     50  C   UNL A   1      42.986  29.631  31.060  1.00  0.00     0.049 A 
ATOM     51  H   UNL A   1      41.040  30.294  30.463  1.00  0.00     0.167 HD
ATOM     52  C   UNL A   1      43.102  23.778  28.185  1.00  0.00     0.034 A 
ATOM     53  C   UNL A   1      43.023  29.584  32.423  1.00  0.00     0.034 A 
ATOM     54  C   UNL A   1      44.142  24.251  29.100  1.00  0.00     0.049 A 
ATOM     55  C   UNL A   1      43.715  28.358  32.967  1.00  0.00     0.074 A 
ATOM     56  C   UNL A   1      45.277  25.024  28.910  1.00  0.00     0.029 A 
ATOM     57  N   UNL A   1      43.943  24.180  30.476  1.00  0.00    -0.354 N 
ATOM     58  N   UNL A   1      44.036  27.316  32.251  1.00  0.00    -0.248 NA
ATOM     59  C   UNL A   1      44.063  28.195  34.376  1.00  0.00     0.031 C 
ATOM     60  C   UNL A   1      45.717  25.479  30.180  1.00  0.00     0.029 A 
ATOM     61  C   UNL A   1      44.870  24.960  31.146  1.00  0.00     0.049 A 
ATOM     62  H   UNL A   1      43.239  23.649  30.913  1.00  0.00     0.167 HD
ATOM     63  C   UNL A   1      44.539  26.336  33.067  1.00  0.00     0.074 A 
ATOM     64  C   UNL A   1      44.588  26.959  34.379  1.00  0.00     0.031 C 
ATOM     65  C   UNL A   1      44.837  25.086  32.599  1.00  0.00     0.034 A 
BRANCH  52  66
ATOM     66  C   UNL A   1      43.366  22.822  27.041  1.00  0.00     0.023 A 
ATOM     67  C   UNL A   1      42.837  21.514  27.086  1.00  0.00     0.031 A 
ATOM     68  C   UNL A   1      44.162  23.109  25.916  1.00  0.00     0.131 A 
ATOM     69  C   UNL A   1      43.199  20.542  26.135  1.00  0.00     0.055 A 
ATOM     70  C   UNL A   1      44.586  22.125  25.012  1.00  0.00     0.041 A 
ATOM     71  F   UNL A   1      44.522  24.365  25.616  1.00  0.00    -0.206 F 
ATOM     72  C   UNL A   1      44.118  20.826  25.129  1.00  0.00     0.022 A 
BRANCH  69  73
ATOM     73  S   UNL A   1      42.438  18.896  26.215  1.00  0.00     0.124 S 
ATOM     74  O   UNL A   1      42.565  18.561  27.629  1.00  0.00    -0.237 OA
ATOM     75  O   UNL A   1      41.088  19.160  25.731  1.00  0.00    -0.237 OA
ATOM     76  O   UNL A   1      43.267  18.094  25.315  1.00  0.00    -0.744 OA
ENDBRANCH  69  73
ENDBRANCH  52  66
BRANCH  53  77
ATOM     77  C   UNL A   1      41.869  30.283  33.058  1.00  0.00     0.023 A 
ATOM     78  C   UNL A   1      41.912  31.693  33.060  1.00  0.00     0.031 A 
ATOM     79  C   UNL A   1      40.627  29.662  33.239  1.00  0.00     0.131 A 
ATOM     80  C   UNL A   1      40.722  32.431  33.028  1.00  0.00     0.055 A 
ATOM     81  C   UNL A   1      39.446  30.414  33.306  1.00  0.00     0.041 A 
ATOM     82  F   UNL A   1      40.519  28.326  33.213  1.00  0.00    -0.206 F 
ATOM     83  C   UNL A   1      39.485  31.800  33.147  1.00  0.00     0.022 A 
BRANCH  80  84
ATOM     84  S   UNL A   1      40.824  34.169  32.525  1.00  0.00     0.124 S 
ATOM     85  O   UNL A   1      39.491  34.660  32.845  1.00  0.00    -0.237 OA
ATOM     86  O   UNL A   1      41.912  34.682  33.357  1.00  0.00    -0.237 OA
ATOM     87  O   UNL A   1      41.151  34.117  31.101  1.00  0.00    -0.744 OA
ENDBRANCH  80  84
ENDBRANCH  53  77
BRANCH  65  88
ATOM     88  C   UNL A   1      45.207  23.901  33.466  1.00  0.00     0.023 A 
ATOM     89  C   UNL A   1      46.507  23.671  33.943  1.00  0.00     0.031 A 
ATOM     90  C   UNL A   1      44.227  22.976  33.898  1.00  0.00     0.131 A 
ATOM     91  C   UNL A   1      46.820  22.522  34.690  1.00  0.00     0.055 A 
ATOM     92  C   UNL A   1      44.523  21.882  34.719  1.00  0.00     0.041 A 
ATOM     93  F   UNL A   1      42.939  23.095  33.542  1.00  0.00    -0.206 F 
ATOM     94  C   UNL A   1      45.832  21.634  35.101  1.00  0.00     0.022 A 
BRANCH  91  95
ATOM     95  S   UNL A   1      48.566  22.172  35.029  1.00  0.00     0.124 S 
ATOM     96  O   UNL A   1      49.210  23.405  34.581  1.00  0.00    -0.237 OA
ATOM     97  O   UNL A   1      48.567  21.944  36.469  1.00  0.00    -0.237 OA
ATOM     98  O   UNL A   1      48.847  20.994  34.211  1.00  0.00    -0.744 OA
ENDBRANCH  91  95
ENDBRANCH  65  88
ENDBRANCH  39  40
ENDBRANCH  31  34
ENDBRANCH   1  30
TORSDOF 15
ENDMDL
MODEL 2
REMARK VINA RESULT:     -13.9      4.320     10.491
REMARK SMILES Cc1ccccc1-c1c(Cl)ccc2c1C=C(C(=O)NCCCNC(=O)c1ccc(-c3c4nc(c(-c5cc(S(=O)(=O)[O-])ccc5F)c5ccc([nH]5)c(-c5cc(S(=O)(=O)[O-])ccc5F)c5nc(c(-c6cc(S(=O)(=O)[O-])ccc6F)c6ccc3[nH]6)C=C5)C=C4)cc1)[C@@H](C(F)(F)F)O2
REMARK SMILES IDX 22 1 21 2 20 3 19 4 17 5 18 6 16 8 8 9 9 10 14 11 10 12
REMARK SMILES IDX 11 13 13 14 15 15 12 16 94 17 89 18 7 19 1 20 2 21 3 22 4 23
REMARK SMILES IDX 6 24 5 25 90 26 91 27 92 28 93 29 23 30 24 31 25 33 26 34
REMARK SMILES IDX 27 35 88 36 28 37 87 38 29 39 30 40 31 41 81 42 32 43 86 44
REMARK SMILES IDX 80 45 82 46 33 47 85 48 79 49 78 50 34 52 66 53 46 54 65 55
REMARK SMILES IDX 47 56 50 57 64 58 83 59 48 60 49 61 63 63 84 64 51 65 35 66
REMARK SMILES IDX 36 67 44 68 37 69 43 70 45 71 42 72 38 73 39 74 40 75 41 76
REMARK SMILES IDX 67 77 68 78 76 79 69 80 75 81 77 82 74 83 70 84 71 85 72 86
REMARK SMILES IDX 73 87 52 88 53 89 61 90 54 91 60 92 62 93 59 94 55 95 56 96
REMARK SMILES IDX 57 97 58 98
REMARK H PARENT 19 7 23 32 82 51 50 62
REMARK Flexibility Score: inf
ROOT
ATOM      1  C   UNL A   1      39.729  22.906  27.051  1.00  0.00     0.118 C 
ENDROOT
BRANCH   1   2
ATOM      2  C   UNL A   1      38.567  23.428  26.209  1.00  0.00     0.042 C 
BRANCH   2   3
ATOM      3  C   UNL A   1      37.837  22.319  25.471  1.00  0.00     0.118 C 
BRANCH   3   4
ATOM      4  N   UNL A   1      37.377  22.790  24.177  1.00  0.00    -0.352 N 
ATOM      5  C   UNL A   1      36.139  22.942  23.655  1.00  0.00     0.251 C 
ATOM      6  O   UNL A   1      36.025  23.013  22.429  1.00  0.00    -0.270 OA
ATOM      7  H   UNL A   1      38.103  23.045  23.562  1.00  0.00     0.163 HD
BRANCH   5   8
ATOM      8  C   UNL A   1      34.924  23.135  24.500  1.00  0.00     0.067 C 
ATOM      9  C   UNL A   1      32.203  25.676  24.522  1.00  0.00     0.012 A 
ATOM     10  C   UNL A   1      30.940  25.715  23.884  1.00  0.00     0.049 A 
ATOM     11  C   UNL A   1      32.892  24.434  24.506  1.00  0.00     0.027 A 
ATOM     12  Cl  UNL A   1      30.036  27.189  23.723  1.00  0.00    -0.084 Cl
ATOM     13  C   UNL A   1      30.357  24.566  23.336  1.00  0.00     0.025 A 
ATOM     14  C   UNL A   1      32.239  23.266  24.055  1.00  0.00     0.128 A 
ATOM     15  C   UNL A   1      34.360  24.349  24.598  1.00  0.00     0.026 C 
ATOM     16  C   UNL A   1      30.985  23.335  23.464  1.00  0.00     0.049 A 
ATOM     17  O   UNL A   1      32.795  22.011  24.088  1.00  0.00    -0.475 OA
ATOM     18  C   UNL A   1      34.086  21.904  24.736  1.00  0.00     0.314 C 
BRANCH   9  19
ATOM     19  C   UNL A   1      32.687  26.849  25.302  1.00  0.00    -0.013 A 
ATOM     20  C   UNL A   1      33.984  27.996  23.391  1.00  0.00     0.045 C 
ATOM     21  C   UNL A   1      33.497  27.893  24.811  1.00  0.00    -0.043 A 
ATOM     22  C   UNL A   1      33.882  28.943  25.672  1.00  0.00     0.004 A 
ATOM     23  C   UNL A   1      33.430  29.010  26.986  1.00  0.00     0.000 A 
ATOM     24  C   UNL A   1      32.248  26.943  26.646  1.00  0.00     0.009 A 
ATOM     25  C   UNL A   1      32.596  28.014  27.470  1.00  0.00     0.001 A 
ENDBRANCH   9  19
BRANCH  18  26
ATOM     26  C   UNL A   1      33.950  21.557  26.226  1.00  0.00     0.429 C 
ATOM     27  F   UNL A   1      33.225  22.498  26.884  1.00  0.00    -0.167 F 
ATOM     28  F   UNL A   1      33.306  20.377  26.414  1.00  0.00    -0.167 F 
ATOM     29  F   UNL A   1      35.140  21.464  26.866  1.00  0.00    -0.167 F 
ENDBRANCH  18  26
ENDBRANCH   5   8
ENDBRANCH   3   4
ENDBRANCH   2   3
ENDBRANCH   1   2
BRANCH   1  30
ATOM     30  N   UNL A   1      41.029  23.353  26.550  1.00  0.00    -0.352 N 
ATOM     31  C   UNL A   1      41.530  24.643  26.419  1.00  0.00     0.251 C 
ATOM     32  H   UNL A   1      41.638  22.635  26.264  1.00  0.00     0.163 HD
ATOM     33  O   UNL A   1      42.652  24.858  26.033  1.00  0.00    -0.269 OA
BRANCH  31  34
ATOM     34  C   UNL A   1      40.673  25.758  26.890  1.00  0.00     0.039 A 
ATOM     35  C   UNL A   1      40.804  26.987  26.237  1.00  0.00     0.014 A 
ATOM     36  C   UNL A   1      39.995  25.657  28.099  1.00  0.00     0.014 A 
ATOM     37  C   UNL A   1      40.483  28.152  26.926  1.00  0.00     0.010 A 
ATOM     38  C   UNL A   1      39.777  26.814  28.822  1.00  0.00     0.010 A 
ATOM     39  C   UNL A   1      40.084  28.058  28.261  1.00  0.00    -0.014 A 
BRANCH  39  40
ATOM     40  C   UNL A   1      40.108  29.204  29.166  1.00  0.00     0.031 A 
ATOM     41  C   UNL A   1      39.022  30.203  29.145  1.00  0.00     0.074 A 
ATOM     42  C   UNL A   1      41.128  29.363  30.037  1.00  0.00     0.049 A 
ATOM     43  N   UNL A   1      39.176  31.453  29.427  1.00  0.00    -0.248 NA
ATOM     44  C   UNL A   1      37.661  29.860  28.757  1.00  0.00     0.031 C 
ATOM     45  C   UNL A   1      41.218  30.330  31.129  1.00  0.00     0.029 A 
ATOM     46  N   UNL A   1      42.409  28.827  29.943  1.00  0.00    -0.354 N 
ATOM     47  C   UNL A   1      37.923  32.010  29.544  1.00  0.00     0.074 A 
ATOM     48  C   UNL A   1      37.019  30.993  29.052  1.00  0.00     0.031 C 
ATOM     49  C   UNL A   1      42.511  30.520  31.433  1.00  0.00     0.029 A 
ATOM     50  C   UNL A   1      43.302  29.777  30.470  1.00  0.00     0.049 A 
ATOM     51  H   UNL A   1      42.647  27.946  29.575  1.00  0.00     0.167 HD
ATOM     52  C   UNL A   1      37.765  33.209  30.176  1.00  0.00     0.034 A 
ATOM     53  C   UNL A   1      44.315  30.286  29.711  1.00  0.00     0.034 A 
ATOM     54  C   UNL A   1      39.045  33.774  30.601  1.00  0.00     0.049 A 
ATOM     55  C   UNL A   1      44.223  31.778  29.502  1.00  0.00     0.074 A 
ATOM     56  C   UNL A   1      39.695  33.808  31.825  1.00  0.00     0.029 A 
ATOM     57  N   UNL A   1      39.983  34.167  29.650  1.00  0.00    -0.354 N 
ATOM     58  N   UNL A   1      43.174  32.497  29.790  1.00  0.00    -0.248 NA
ATOM     59  C   UNL A   1      45.297  32.570  28.910  1.00  0.00     0.031 C 
ATOM     60  C   UNL A   1      41.052  34.152  31.592  1.00  0.00     0.029 A 
ATOM     61  C   UNL A   1      41.223  34.359  30.233  1.00  0.00     0.049 A 
ATOM     62  H   UNL A   1      39.791  34.291  28.692  1.00  0.00     0.167 HD
ATOM     63  C   UNL A   1      43.373  33.787  29.371  1.00  0.00     0.074 A 
ATOM     64  C   UNL A   1      44.741  33.792  28.879  1.00  0.00     0.031 C 
ATOM     65  C   UNL A   1      42.383  34.729  29.430  1.00  0.00     0.034 A 
BRANCH  52  66
ATOM     66  C   UNL A   1      36.424  33.689  30.692  1.00  0.00     0.023 A 
ATOM     67  C   UNL A   1      35.512  34.303  29.808  1.00  0.00     0.031 A 
ATOM     68  C   UNL A   1      36.006  33.625  32.035  1.00  0.00     0.131 A 
ATOM     69  C   UNL A   1      34.335  34.918  30.275  1.00  0.00     0.055 A 
ATOM     70  C   UNL A   1      34.877  34.301  32.515  1.00  0.00     0.041 A 
ATOM     71  F   UNL A   1      36.647  32.860  32.931  1.00  0.00    -0.206 F 
ATOM     72  C   UNL A   1      34.041  34.970  31.635  1.00  0.00     0.022 A 
BRANCH  69  73
ATOM     73  S   UNL A   1      33.176  35.638  29.079  1.00  0.00     0.124 S 
ATOM     74  O   UNL A   1      34.052  36.455  28.246  1.00  0.00    -0.237 OA
ATOM     75  O   UNL A   1      32.609  34.451  28.450  1.00  0.00    -0.237 OA
ATOM     76  O   UNL A   1      32.246  36.392  29.919  1.00  0.00    -0.744 OA
ENDBRANCH  69  73
ENDBRANCH  52  66
BRANCH  53  77
ATOM     77  C   UNL A   1      44.851  29.303  28.726  1.00  0.00     0.023 A 
ATOM     78  C   UNL A   1      45.701  28.300  29.237  1.00  0.00     0.031 A 
ATOM     79  C   UNL A   1      44.240  29.079  27.486  1.00  0.00     0.131 A 
ATOM     80  C   UNL A   1      45.751  27.042  28.623  1.00  0.00     0.055 A 
ATOM     81  C   UNL A   1      44.374  27.850  26.825  1.00  0.00     0.041 A 
ATOM     82  F   UNL A   1      43.396  29.981  26.965  1.00  0.00    -0.206 F 
ATOM     83  C   UNL A   1      45.089  26.808  27.418  1.00  0.00     0.022 A 
BRANCH  80  84
ATOM     84  S   UNL A   1      46.435  25.665  29.580  1.00  0.00     0.124 S 
ATOM     85  O   UNL A   1      47.108  24.881  28.553  1.00  0.00    -0.237 OA
ATOM     86  O   UNL A   1      47.306  26.341  30.540  1.00  0.00    -0.237 OA
ATOM     87  O   UNL A   1      45.269  25.032  30.192  1.00  0.00    -0.744 OA
ENDBRANCH  80  84
ENDBRANCH  53  77
BRANCH  65  88
ATOM     88  C   UNL A   1      42.461  36.109  28.811  1.00  0.00     0.023 A 
ATOM     89  C   UNL A   1      43.043  37.211  29.456  1.00  0.00     0.031 A 
ATOM     90  C   UNL A   1      41.993  36.349  27.497  1.00  0.00     0.131 A 
ATOM     91  C   UNL A   1      43.034  38.490  28.871  1.00  0.00     0.055 A 
ATOM     92  C   UNL A   1      42.068  37.603  26.880  1.00  0.00     0.041 A 
ATOM     93  F   UNL A   1      41.443  35.376  26.756  1.00  0.00    -0.206 F 
ATOM     94  C   UNL A   1      42.569  38.691  27.577  1.00  0.00     0.022 A 
BRANCH  91  95
ATOM     95  S   UNL A   1      43.560  39.897  29.886  1.00  0.00     0.124 S 
ATOM     96  O   UNL A   1      43.928  39.241  31.140  1.00  0.00    -0.237 OA
ATOM     97  O   UNL A   1      44.667  40.446  29.111  1.00  0.00    -0.237 OA
ATOM     98  O   UNL A   1      42.368  40.739  29.954  1.00  0.00    -0.744 OA
ENDBRANCH  91  95
ENDBRANCH  65  88
ENDBRANCH  39  40
ENDBRANCH  31  34
ENDBRANCH   1  30
TORSDOF 15
ENDMDL
MODEL 3
REMARK VINA RESULT:     -13.8      2.539      3.745
REMARK SMILES Cc1ccccc1-c1c(Cl)ccc2c1C=C(C(=O)NCCCNC(=O)c1ccc(-c3c4nc(c(-c5cc(S(=O)(=O)[O-])ccc5F)c5ccc([nH]5)c(-c5cc(S(=O)(=O)[O-])ccc5F)c5nc(c(-c6cc(S(=O)(=O)[O-])ccc6F)c6ccc3[nH]6)C=C5)C=C4)cc1)[C@@H](C(F)(F)F)O2
REMARK SMILES IDX 22 1 21 2 20 3 19 4 17 5 18 6 16 8 8 9 9 10 14 11 10 12
REMARK SMILES IDX 11 13 13 14 15 15 12 16 94 17 89 18 7 19 1 20 2 21 3 22 4 23
REMARK SMILES IDX 6 24 5 25 90 26 91 27 92 28 93 29 23 30 24 31 25 33 26 34
REMARK SMILES IDX 27 35 88 36 28 37 87 38 29 39 30 40 31 41 81 42 32 43 86 44
REMARK SMILES IDX 80 45 82 46 33 47 85 48 79 49 78 50 34 52 66 53 46 54 65 55
REMARK SMILES IDX 47 56 50 57 64 58 83 59 48 60 49 61 63 63 84 64 51 65 35 66
REMARK SMILES IDX 36 67 44 68 37 69 43 70 45 71 42 72 38 73 39 74 40 75 41 76
REMARK SMILES IDX 67 77 68 78 76 79 69 80 75 81 77 82 74 83 70 84 71 85 72 86
REMARK SMILES IDX 73 87 52 88 53 89 61 90 54 91 60 92 62 93 59 94 55 95 56 96
REMARK SMILES IDX 57 97 58 98
REMARK H PARENT 19 7 23 32 82 51 50 62
REMARK Flexibility Score: inf
ROOT
ATOM      1  C   UNL A   1      34.998  31.801  27.626  1.00  0.00     0.118 C 
ENDROOT
BRANCH   1   2
ATOM      2  C   UNL A   1      34.993  30.383  28.192  1.00  0.00     0.042 C 
BRANCH   2   3
ATOM      3  C   UNL A   1      34.586  29.343  27.161  1.00  0.00     0.118 C 
BRANCH   3   4
ATOM      4  N   UNL A   1      33.447  28.578  27.635  1.00  0.00    -0.352 N 
ATOM      5  C   UNL A   1      32.507  27.855  26.984  1.00  0.00     0.251 C 
ATOM      6  O   UNL A   1      31.453  27.604  27.572  1.00  0.00    -0.270 OA
ATOM      7  H   UNL A   1      33.338  28.587  28.613  1.00  0.00     0.163 HD
BRANCH   5   8
ATOM      8  C   UNL A   1      32.734  27.263  25.634  1.00  0.00     0.067 C 
ATOM      9  C   UNL A   1      33.073  23.767  24.400  1.00  0.00     0.012 A 
ATOM     10  C   UNL A   1      32.123  22.842  23.904  1.00  0.00     0.049 A 
ATOM     11  C   UNL A   1      32.644  25.112  24.545  1.00  0.00     0.027 A 
ATOM     12  Cl  UNL A   1      32.467  21.144  23.784  1.00  0.00    -0.084 Cl
ATOM     13  C   UNL A   1      30.847  23.247  23.495  1.00  0.00     0.025 A 
ATOM     14  C   UNL A   1      31.399  25.521  24.019  1.00  0.00     0.128 A 
ATOM     15  C   UNL A   1      33.258  26.032  25.519  1.00  0.00     0.026 C 
ATOM     16  C   UNL A   1      30.503  24.592  23.508  1.00  0.00     0.049 A 
ATOM     17  O   UNL A   1      30.944  26.816  24.032  1.00  0.00    -0.475 OA
ATOM     18  C   UNL A   1      31.875  27.812  24.523  1.00  0.00     0.314 C 
BRANCH   9  19
ATOM     19  C   UNL A   1      34.490  23.353  24.600  1.00  0.00    -0.013 A 
ATOM     20  C   UNL A   1      34.310  22.776  27.106  1.00  0.00     0.045 C 
ATOM     21  C   UNL A   1      35.063  22.917  25.811  1.00  0.00    -0.043 A 
ATOM     22  C   UNL A   1      36.428  22.558  25.851  1.00  0.00     0.004 A 
ATOM     23  C   UNL A   1      37.215  22.565  24.703  1.00  0.00     0.000 A 
ATOM     24  C   UNL A   1      35.319  23.354  23.451  1.00  0.00     0.009 A 
ATOM     25  C   UNL A   1      36.654  22.948  23.495  1.00  0.00     0.001 A 
ENDBRANCH   9  19
BRANCH  18  26
ATOM     26  C   UNL A   1      32.701  28.430  23.385  1.00  0.00     0.429 C 
ATOM     27  F   UNL A   1      33.685  29.231  23.872  1.00  0.00    -0.167 F 
ATOM     28  F   UNL A   1      33.317  27.482  22.634  1.00  0.00    -0.167 F 
ATOM     29  F   UNL A   1      31.964  29.188  22.539  1.00  0.00    -0.167 F 
ENDBRANCH  18  26
ENDBRANCH   5   8
ENDBRANCH   3   4
ENDBRANCH   2   3
ENDBRANCH   1   2
BRANCH   1  30
ATOM     30  N   UNL A   1      34.096  32.696  28.350  1.00  0.00    -0.352 N 
ATOM     31  C   UNL A   1      34.335  33.464  29.484  1.00  0.00     0.251 C 
ATOM     32  H   UNL A   1      33.187  32.765  27.981  1.00  0.00     0.163 HD
ATOM     33  O   UNL A   1      33.500  34.203  29.945  1.00  0.00    -0.269 OA
BRANCH  31  34
ATOM     34  C   UNL A   1      35.707  33.440  30.047  1.00  0.00     0.039 A 
ATOM     35  C   UNL A   1      36.704  34.112  29.334  1.00  0.00     0.014 A 
ATOM     36  C   UNL A   1      36.029  32.554  31.068  1.00  0.00     0.014 A 
ATOM     37  C   UNL A   1      38.025  33.696  29.470  1.00  0.00     0.010 A 
ATOM     38  C   UNL A   1      37.321  32.068  31.126  1.00  0.00     0.010 A 
ATOM     39  C   UNL A   1      38.304  32.593  30.279  1.00  0.00    -0.014 A 
BRANCH  39  40
ATOM     40  C   UNL A   1      39.558  31.850  30.183  1.00  0.00     0.031 A 
ATOM     41  C   UNL A   1      39.598  30.518  29.549  1.00  0.00     0.074 A 
ATOM     42  C   UNL A   1      40.701  32.377  30.675  1.00  0.00     0.049 A 
ATOM     43  N   UNL A   1      40.415  29.576  29.883  1.00  0.00    -0.248 NA
ATOM     44  C   UNL A   1      38.670  30.134  28.495  1.00  0.00     0.031 C 
ATOM     45  C   UNL A   1      42.059  31.866  30.499  1.00  0.00     0.029 A 
ATOM     46  N   UNL A   1      40.825  33.360  31.651  1.00  0.00    -0.354 N 
ATOM     47  C   UNL A   1      40.328  28.592  28.925  1.00  0.00     0.074 A 
ATOM     48  C   UNL A   1      39.182  28.958  28.122  1.00  0.00     0.031 C 
ATOM     49  C   UNL A   1      42.829  32.332  31.494  1.00  0.00     0.029 A 
ATOM     50  C   UNL A   1      41.969  33.057  32.411  1.00  0.00     0.049 A 
ATOM     51  H   UNL A   1      40.223  34.127  31.786  1.00  0.00     0.167 HD
ATOM     52  C   UNL A   1      41.313  27.654  28.819  1.00  0.00     0.034 A 
ATOM     53  C   UNL A   1      41.883  32.847  33.756  1.00  0.00     0.034 A 
ATOM     54  C   UNL A   1      42.339  27.821  29.849  1.00  0.00     0.049 A 
ATOM     55  C   UNL A   1      42.305  31.461  34.180  1.00  0.00     0.074 A 
ATOM     56  C   UNL A   1      43.602  28.392  29.830  1.00  0.00     0.029 A 
ATOM     57  N   UNL A   1      42.017  27.629  31.190  1.00  0.00    -0.354 N 
ATOM     58  N   UNL A   1      42.500  30.468  33.356  1.00  0.00    -0.248 NA
ATOM     59  C   UNL A   1      42.501  31.076  35.574  1.00  0.00     0.031 C 
ATOM     60  C   UNL A   1      44.006  28.609  31.173  1.00  0.00     0.029 A 
ATOM     61  C   UNL A   1      43.005  28.144  32.010  1.00  0.00     0.049 A 
ATOM     62  H   UNL A   1      41.198  27.187  31.511  1.00  0.00     0.167 HD
ATOM     63  C   UNL A   1      42.757  29.326  34.069  1.00  0.00     0.074 A 
ATOM     64  C   UNL A   1      42.803  29.773  35.451  1.00  0.00     0.031 C 
ATOM     65  C   UNL A   1      42.873  28.105  33.462  1.00  0.00     0.034 A 
BRANCH  52  66
ATOM     66  C   UNL A   1      41.502  26.804  27.579  1.00  0.00     0.023 A 
ATOM     67  C   UNL A   1      41.411  25.400  27.673  1.00  0.00     0.031 A 
ATOM     68  C   UNL A   1      41.822  27.301  26.301  1.00  0.00     0.131 A 
ATOM     69  C   UNL A   1      41.751  24.567  26.589  1.00  0.00     0.055 A 
ATOM     70  C   UNL A   1      42.234  26.477  25.245  1.00  0.00     0.041 A 
ATOM     71  F   UNL A   1      41.700  28.603  26.006  1.00  0.00    -0.206 F 
ATOM     72  C   UNL A   1      42.218  25.099  25.391  1.00  0.00     0.022 A 
BRANCH  69  73
ATOM     73  S   UNL A   1      41.556  22.771  26.757  1.00  0.00     0.124 S 
ATOM     74  O   UNL A   1      42.135  22.276  25.512  1.00  0.00    -0.237 OA
ATOM     75  O   UNL A   1      42.308  22.493  27.975  1.00  0.00    -0.237 OA
ATOM     76  O   UNL A   1      40.108  22.596  26.875  1.00  0.00    -0.744 OA
ENDBRANCH  69  73
ENDBRANCH  52  66
BRANCH  53  77
ATOM     77  C   UNL A   1      40.818  33.665  34.404  1.00  0.00     0.023 A 
ATOM     78  C   UNL A   1      39.683  32.967  34.867  1.00  0.00     0.031 A 
ATOM     79  C   UNL A   1      41.071  34.936  34.935  1.00  0.00     0.131 A 
ATOM     80  C   UNL A   1      38.968  33.445  35.973  1.00  0.00     0.055 A 
ATOM     81  C   UNL A   1      40.289  35.453  35.977  1.00  0.00     0.041 A 
ATOM     82  F   UNL A   1      42.152  35.633  34.558  1.00  0.00    -0.206 F 
ATOM     83  C   UNL A   1      39.266  34.685  36.536  1.00  0.00     0.022 A 
BRANCH  80  84
ATOM     84  S   UNL A   1      37.868  32.286  36.827  1.00  0.00     0.124 S 
ATOM     85  O   UNL A   1      36.658  33.079  36.995  1.00  0.00    -0.237 OA
ATOM     86  O   UNL A   1      37.777  31.173  35.884  1.00  0.00    -0.237 OA
ATOM     87  O   UNL A   1      38.578  31.953  38.060  1.00  0.00    -0.744 OA
ENDBRANCH  80  84
ENDBRANCH  53  77
BRANCH  65  88
ATOM     88  C   UNL A   1      42.959  26.780  34.191  1.00  0.00     0.023 A 
ATOM     89  C   UNL A   1      44.089  25.949  34.147  1.00  0.00     0.031 A 
ATOM     90  C   UNL A   1      41.903  26.329  35.018  1.00  0.00     0.131 A 
ATOM     91  C   UNL A   1      44.102  24.696  34.784  1.00  0.00     0.055 A 
ATOM     92  C   UNL A   1      41.953  25.124  35.727  1.00  0.00     0.041 A 
ATOM     93  F   UNL A   1      40.778  27.042  35.175  1.00  0.00    -0.206 F 
ATOM     94  C   UNL A   1      43.048  24.284  35.593  1.00  0.00     0.022 A 
BRANCH  91  95
ATOM     95  S   UNL A   1      45.491  23.580  34.450  1.00  0.00     0.124 S 
ATOM     96  O   UNL A   1      44.855  22.547  33.634  1.00  0.00    -0.237 OA
ATOM     97  O   UNL A   1      46.430  24.450  33.750  1.00  0.00    -0.237 OA
ATOM     98  O   UNL A   1      45.914  23.146  35.779  1.00  0.00    -0.744 OA
ENDBRANCH  91  95
ENDBRANCH  65  88
ENDBRANCH  39  40
ENDBRANCH  31  34
ENDBRANCH   1  30
TORSDOF 15
ENDMDL
