MODEL 1
REMARK VINA RESULT:     -11.1      0.000      0.000
REMARK SMILES COc1cc(F)ccc1NCC(C)(C)C(=O)NCCCNC(=O)c1ccc(-c2c3nc(c(-c4cc(S(=O)(=O)[O-])ccc4F)c4ccc([nH]4)c(-c4cc(S(=O)(=O)[O-])ccc4F)c4nc(c(-c5cc(S(=O)(=O)[O-])ccc5F)c5ccc2[nH]5)C=C4)C=C3)cc1
REMARK SMILES IDX 18 1 17 2 15 3 16 4 12 6 13 7 14 8 11 9 10 10 9 12 3 13 4 14
REMARK SMILES IDX 5 15 8 16 6 17 7 18 2 19 1 20 19 21 20 22 21 23 22 24 23 26
REMARK SMILES IDX 24 27 25 28 86 29 26 30 85 31 27 32 28 33 29 34 79 35 30 36
REMARK SMILES IDX 84 37 78 38 80 39 31 40 83 41 77 42 76 43 32 45 64 46 44 47
REMARK SMILES IDX 63 48 45 49 48 50 62 51 81 52 46 53 47 54 61 56 82 57 49 58
REMARK SMILES IDX 33 59 34 60 42 61 35 62 41 63 43 64 40 65 36 66 37 67 38 68
REMARK SMILES IDX 39 69 65 70 66 71 74 72 67 73 73 74 75 75 72 76 68 77 69 78
REMARK SMILES IDX 70 79 71 80 50 81 51 82 59 83 52 84 58 85 60 86 57 87 53 88
REMARK SMILES IDX 54 89 55 90 56 91
REMARK H PARENT 17 5 10 11 21 25 80 44 48 55
REMARK Flexibility Score: inf
ROOT
ATOM      1  C   UNL A   1      31.771  30.400  26.088  1.00  0.00     0.117 C 
ENDROOT
BRANCH   1   2
ATOM      2  N   UNL A   1      31.114  30.145  24.819  1.00  0.00    -0.356 N 
ATOM      3  C   UNL A   1      31.137  29.086  23.965  1.00  0.00     0.227 C 
ATOM      4  O   UNL A   1      30.744  29.333  22.822  1.00  0.00    -0.274 OA
ATOM      5  H   UNL A   1      30.539  30.884  24.515  1.00  0.00     0.163 HD
BRANCH   3   6
ATOM      6  C   UNL A   1      31.675  27.702  24.376  1.00  0.00     0.061 C 
ATOM      7  C   UNL A   1      31.185  27.261  25.766  1.00  0.00     0.023 C 
ATOM      8  C   UNL A   1      33.216  27.737  24.319  1.00  0.00     0.023 C 
BRANCH   6   9
ATOM      9  C   UNL A   1      31.230  26.632  23.335  1.00  0.00     0.129 C 
BRANCH   9  10
ATOM     10  N   UNL A   1      31.121  25.284  23.871  1.00  0.00    -0.381 N 
ATOM     11  H   UNL A   1      30.255  25.031  24.265  1.00  0.00     0.160 HD
BRANCH  10  12
ATOM     12  C   UNL A   1      32.121  24.321  23.886  1.00  0.00     0.077 A 
ATOM     13  C   UNL A   1      32.357  23.598  25.084  1.00  0.00     0.144 A 
ATOM     14  C   UNL A   1      33.359  22.624  25.146  1.00  0.00     0.087 A 
ATOM     15  C   UNL A   1      34.141  22.376  24.025  1.00  0.00     0.127 A 
ATOM     16  C   UNL A   1      32.935  24.037  22.780  1.00  0.00     0.032 A 
ATOM     17  F   UNL A   1      35.101  21.444  24.085  1.00  0.00    -0.207 F 
ATOM     18  C   UNL A   1      33.940  23.071  22.844  1.00  0.00     0.041 A 
BRANCH  13  19
ATOM     19  O   UNL A   1      31.504  23.885  26.130  1.00  0.00    -0.494 OA
ATOM     20  C   UNL A   1      30.664  22.820  26.556  1.00  0.00     0.278 C 
ENDBRANCH  13  19
ENDBRANCH  10  12
ENDBRANCH   9  10
ENDBRANCH   6   9
ENDBRANCH   3   6
ENDBRANCH   1   2
BRANCH   1  21
ATOM     21  C   UNL A   1      31.523  31.826  26.564  1.00  0.00     0.042 C 
BRANCH  21  22
ATOM     22  C   UNL A   1      32.701  32.437  27.313  1.00  0.00     0.118 C 
BRANCH  22  23
ATOM     23  N   UNL A   1      32.526  33.863  27.554  1.00  0.00    -0.352 N 
ATOM     24  C   UNL A   1      33.104  34.676  28.497  1.00  0.00     0.251 C 
ATOM     25  H   UNL A   1      31.895  34.314  26.946  1.00  0.00     0.163 HD
ATOM     26  O   UNL A   1      32.648  35.803  28.682  1.00  0.00    -0.269 OA
BRANCH  24  27
ATOM     27  C   UNL A   1      34.248  34.192  29.299  1.00  0.00     0.039 A 
ATOM     28  C   UNL A   1      34.008  33.349  30.386  1.00  0.00     0.014 A 
ATOM     29  C   UNL A   1      35.556  34.574  28.985  1.00  0.00     0.014 A 
ATOM     30  C   UNL A   1      35.084  32.830  31.110  1.00  0.00     0.010 A 
ATOM     31  C   UNL A   1      36.628  33.985  29.647  1.00  0.00     0.010 A 
ATOM     32  C   UNL A   1      36.405  33.107  30.717  1.00  0.00    -0.014 A 
BRANCH  32  33
ATOM     33  C   UNL A   1      37.563  32.482  31.407  1.00  0.00     0.031 A 
ATOM     34  C   UNL A   1      38.292  31.330  30.770  1.00  0.00     0.074 A 
ATOM     35  C   UNL A   1      37.925  32.920  32.630  1.00  0.00     0.049 A 
ATOM     36  N   UNL A   1      39.272  30.609  31.250  1.00  0.00    -0.248 NA
ATOM     37  C   UNL A   1      37.847  30.918  29.429  1.00  0.00     0.031 C 
ATOM     38  C   UNL A   1      37.276  34.010  33.363  1.00  0.00     0.029 A 
ATOM     39  N   UNL A   1      38.926  32.506  33.474  1.00  0.00    -0.354 N 
ATOM     40  C   UNL A   1      39.557  29.658  30.276  1.00  0.00     0.074 A 
ATOM     41  C   UNL A   1      38.606  29.856  29.204  1.00  0.00     0.031 C 
ATOM     42  C   UNL A   1      37.923  34.207  34.523  1.00  0.00     0.029 A 
ATOM     43  C   UNL A   1      38.994  33.224  34.645  1.00  0.00     0.049 A 
ATOM     44  H   UNL A   1      39.537  31.764  33.261  1.00  0.00     0.167 HD
ATOM     45  C   UNL A   1      40.537  28.724  30.266  1.00  0.00     0.034 A 
ATOM     46  C   UNL A   1      39.818  33.102  35.705  1.00  0.00     0.034 A 
ATOM     47  C   UNL A   1      41.492  28.551  31.332  1.00  0.00     0.049 A 
ATOM     48  C   UNL A   1      40.873  32.029  35.690  1.00  0.00     0.074 A 
ATOM     49  C   UNL A   1      42.551  27.663  31.398  1.00  0.00     0.029 A 
ATOM     50  N   UNL A   1      41.505  29.276  32.515  1.00  0.00    -0.354 N 
ATOM     51  N   UNL A   1      41.131  31.143  34.756  1.00  0.00    -0.248 NA
ATOM     52  C   UNL A   1      41.745  31.934  36.869  1.00  0.00     0.031 C 
ATOM     53  C   UNL A   1      43.161  27.803  32.646  1.00  0.00     0.029 A 
ATOM     54  C   UNL A   1      42.535  28.832  33.329  1.00  0.00     0.049 A 
ATOM     55  H   UNL A   1      40.876  29.998  32.743  1.00  0.00     0.167 HD
ATOM     56  C   UNL A   1      42.212  30.403  35.224  1.00  0.00     0.074 A 
ATOM     57  C   UNL A   1      42.558  30.945  36.522  1.00  0.00     0.031 C 
ATOM     58  C   UNL A   1      42.862  29.373  34.628  1.00  0.00     0.034 A 
BRANCH  45  59
ATOM     59  C   UNL A   1      40.625  27.811  29.072  1.00  0.00     0.023 A 
ATOM     60  C   UNL A   1      41.542  28.046  28.033  1.00  0.00     0.031 A 
ATOM     61  C   UNL A   1      39.808  26.671  28.987  1.00  0.00     0.131 A 
ATOM     62  C   UNL A   1      41.591  27.177  26.933  1.00  0.00     0.055 A 
ATOM     63  C   UNL A   1      39.907  25.774  27.922  1.00  0.00     0.041 A 
ATOM     64  F   UNL A   1      38.902  26.407  29.942  1.00  0.00    -0.206 F 
ATOM     65  C   UNL A   1      40.798  26.028  26.884  1.00  0.00     0.022 A 
BRANCH  62  66
ATOM     66  S   UNL A   1      42.654  27.610  25.531  1.00  0.00     0.124 S 
ATOM     67  O   UNL A   1      42.568  26.402  24.714  1.00  0.00    -0.237 OA
ATOM     68  O   UNL A   1      41.998  28.794  24.989  1.00  0.00    -0.237 OA
ATOM     69  O   UNL A   1      43.957  27.847  26.149  1.00  0.00    -0.744 OA
ENDBRANCH  62  66
ENDBRANCH  45  59
BRANCH  46  70
ATOM     70  C   UNL A   1      39.673  34.023  36.867  1.00  0.00     0.023 A 
ATOM     71  C   UNL A   1      39.093  33.585  38.067  1.00  0.00     0.031 A 
ATOM     72  C   UNL A   1      40.133  35.350  36.799  1.00  0.00     0.131 A 
ATOM     73  C   UNL A   1      38.970  34.471  39.148  1.00  0.00     0.055 A 
ATOM     74  C   UNL A   1      40.045  36.217  37.890  1.00  0.00     0.041 A 
ATOM     75  F   UNL A   1      40.705  35.813  35.677  1.00  0.00    -0.206 F 
ATOM     76  C   UNL A   1      39.455  35.780  39.072  1.00  0.00     0.022 A 
BRANCH  73  77
ATOM     77  S   UNL A   1      38.145  33.897  40.658  1.00  0.00     0.124 S 
ATOM     78  O   UNL A   1      37.021  33.145  40.113  1.00  0.00    -0.237 OA
ATOM     79  O   UNL A   1      39.195  33.112  41.299  1.00  0.00    -0.237 OA
ATOM     80  O   UNL A   1      37.793  35.138  41.344  1.00  0.00    -0.744 OA
ENDBRANCH  73  77
ENDBRANCH  46  70
BRANCH  58  81
ATOM     81  C   UNL A   1      44.042  28.777  35.350  1.00  0.00     0.023 A 
ATOM     82  C   UNL A   1      43.889  27.721  36.263  1.00  0.00     0.031 A 
ATOM     83  C   UNL A   1      45.342  29.234  35.069  1.00  0.00     0.131 A 
ATOM     84  C   UNL A   1      45.021  27.168  36.880  1.00  0.00     0.055 A 
ATOM     85  C   UNL A   1      46.466  28.647  35.649  1.00  0.00     0.041 A 
ATOM     86  F   UNL A   1      45.540  30.239  34.201  1.00  0.00    -0.206 F 
ATOM     87  C   UNL A   1      46.308  27.610  36.565  1.00  0.00     0.022 A 
BRANCH  84  88
ATOM     88  S   UNL A   1      44.787  25.874  38.129  1.00  0.00     0.124 S 
ATOM     89  O   UNL A   1      46.163  25.581  38.520  1.00  0.00    -0.237 OA
ATOM     90  O   UNL A   1      43.970  26.546  39.133  1.00  0.00    -0.237 OA
ATOM     91  O   UNL A   1      44.111  24.806  37.395  1.00  0.00    -0.744 OA
ENDBRANCH  84  88
ENDBRANCH  58  81
ENDBRANCH  32  33
ENDBRANCH  24  27
ENDBRANCH  22  23
ENDBRANCH  21  22
ENDBRANCH   1  21
TORSDOF 17
ENDMDL
MODEL 2
REMARK VINA RESULT:     -11.0      1.755      2.145
REMARK SMILES COc1cc(F)ccc1NCC(C)(C)C(=O)NCCCNC(=O)c1ccc(-c2c3nc(c(-c4cc(S(=O)(=O)[O-])ccc4F)c4ccc([nH]4)c(-c4cc(S(=O)(=O)[O-])ccc4F)c4nc(c(-c5cc(S(=O)(=O)[O-])ccc5F)c5ccc2[nH]5)C=C4)C=C3)cc1
REMARK SMILES IDX 18 1 17 2 15 3 16 4 12 6 13 7 14 8 11 9 10 10 9 12 3 13 4 14
REMARK SMILES IDX 5 15 8 16 6 17 7 18 2 19 1 20 19 21 20 22 21 23 22 24 23 26
REMARK SMILES IDX 24 27 25 28 86 29 26 30 85 31 27 32 28 33 29 34 79 35 30 36
REMARK SMILES IDX 84 37 78 38 80 39 31 40 83 41 77 42 76 43 32 45 64 46 44 47
REMARK SMILES IDX 63 48 45 49 48 50 62 51 81 52 46 53 47 54 61 56 82 57 49 58
REMARK SMILES IDX 33 59 34 60 42 61 35 62 41 63 43 64 40 65 36 66 37 67 38 68
REMARK SMILES IDX 39 69 65 70 66 71 74 72 67 73 73 74 75 75 72 76 68 77 69 78
REMARK SMILES IDX 70 79 71 80 50 81 51 82 59 83 52 84 58 85 60 86 57 87 53 88
REMARK SMILES IDX 54 89 55 90 56 91
REMARK H PARENT 17 5 10 11 21 25 80 44 48 55
REMARK Flexibility Score: inf
ROOT
ATOM      1  C   UNL A   1      31.702  30.678  25.897  1.00  0.00     0.117 C 
ENDROOT
BRANCH   1   2
ATOM      2  N   UNL A   1      33.008  30.066  26.064  1.00  0.00    -0.356 N 
ATOM      3  C   UNL A   1      33.407  28.776  26.232  1.00  0.00     0.227 C 
ATOM      4  O   UNL A   1      34.547  28.642  26.687  1.00  0.00    -0.274 OA
ATOM      5  H   UNL A   1      33.751  30.711  26.055  1.00  0.00     0.163 HD
BRANCH   3   6
ATOM      6  C   UNL A   1      32.483  27.578  25.941  1.00  0.00     0.061 C 
ATOM      7  C   UNL A   1      31.854  27.640  24.538  1.00  0.00     0.023 C 
ATOM      8  C   UNL A   1      31.396  27.519  27.033  1.00  0.00     0.023 C 
BRANCH   6   9
ATOM      9  C   UNL A   1      33.288  26.250  26.061  1.00  0.00     0.129 C 
BRANCH   9  10
ATOM     10  N   UNL A   1      33.879  25.794  24.813  1.00  0.00    -0.381 N 
ATOM     11  H   UNL A   1      33.604  26.264  23.992  1.00  0.00     0.160 HD
BRANCH  10  12
ATOM     12  C   UNL A   1      34.792  24.758  24.664  1.00  0.00     0.077 A 
ATOM     13  C   UNL A   1      34.770  23.993  23.468  1.00  0.00     0.144 A 
ATOM     14  C   UNL A   1      35.665  22.936  23.279  1.00  0.00     0.087 A 
ATOM     15  C   UNL A   1      36.574  22.623  24.281  1.00  0.00     0.127 A 
ATOM     16  C   UNL A   1      35.726  24.406  25.647  1.00  0.00     0.032 A 
ATOM     17  F   UNL A   1      37.432  21.609  24.100  1.00  0.00    -0.207 F 
ATOM     18  C   UNL A   1      36.615  23.345  25.461  1.00  0.00     0.041 A 
BRANCH  13  19
ATOM     19  O   UNL A   1      33.860  24.404  22.516  1.00  0.00    -0.494 OA
ATOM     20  C   UNL A   1      33.193  23.369  21.806  1.00  0.00     0.278 C 
ENDBRANCH  13  19
ENDBRANCH  10  12
ENDBRANCH   9  10
ENDBRANCH   6   9
ENDBRANCH   3   6
ENDBRANCH   1   2
BRANCH   1  21
ATOM     21  C   UNL A   1      31.503  31.835  26.868  1.00  0.00     0.042 C 
BRANCH  21  22
ATOM     22  C   UNL A   1      32.801  32.509  27.295  1.00  0.00     0.118 C 
BRANCH  22  23
ATOM     23  N   UNL A   1      32.622  33.926  27.582  1.00  0.00    -0.352 N 
ATOM     24  C   UNL A   1      33.201  34.711  28.549  1.00  0.00     0.251 C 
ATOM     25  H   UNL A   1      31.987  34.394  26.992  1.00  0.00     0.163 HD
ATOM     26  O   UNL A   1      32.742  35.829  28.771  1.00  0.00    -0.269 OA
BRANCH  24  27
ATOM     27  C   UNL A   1      34.350  34.206  29.330  1.00  0.00     0.039 A 
ATOM     28  C   UNL A   1      34.111  33.491  30.505  1.00  0.00     0.014 A 
ATOM     29  C   UNL A   1      35.662  34.442  28.909  1.00  0.00     0.014 A 
ATOM     30  C   UNL A   1      35.186  32.950  31.215  1.00  0.00     0.010 A 
ATOM     31  C   UNL A   1      36.722  33.826  29.565  1.00  0.00     0.010 A 
ATOM     32  C   UNL A   1      36.497  33.073  30.726  1.00  0.00    -0.014 A 
BRANCH  32  33
ATOM     33  C   UNL A   1      37.642  32.417  31.409  1.00  0.00     0.031 A 
ATOM     34  C   UNL A   1      38.354  31.264  30.754  1.00  0.00     0.074 A 
ATOM     35  C   UNL A   1      38.006  32.826  32.641  1.00  0.00     0.049 A 
ATOM     36  N   UNL A   1      39.320  30.519  31.224  1.00  0.00    -0.248 NA
ATOM     37  C   UNL A   1      37.908  30.885  29.404  1.00  0.00     0.031 C 
ATOM     38  C   UNL A   1      37.372  33.913  33.391  1.00  0.00     0.029 A 
ATOM     39  N   UNL A   1      38.996  32.381  33.481  1.00  0.00    -0.354 N 
ATOM     40  C   UNL A   1      39.593  29.581  30.235  1.00  0.00     0.074 A 
ATOM     41  C   UNL A   1      38.650  29.814  29.163  1.00  0.00     0.031 C 
ATOM     42  C   UNL A   1      38.017  34.079  34.557  1.00  0.00     0.029 A 
ATOM     43  C   UNL A   1      39.072  33.077  34.665  1.00  0.00     0.049 A 
ATOM     44  H   UNL A   1      39.596  31.633  33.257  1.00  0.00     0.167 HD
ATOM     45  C   UNL A   1      40.557  28.631  30.212  1.00  0.00     0.034 A 
ATOM     46  C   UNL A   1      39.889  32.921  35.726  1.00  0.00     0.034 A 
ATOM     47  C   UNL A   1      41.505  28.422  31.277  1.00  0.00     0.049 A 
ATOM     48  C   UNL A   1      40.927  31.831  35.696  1.00  0.00     0.074 A 
ATOM     49  C   UNL A   1      42.549  27.516  31.331  1.00  0.00     0.029 A 
ATOM     50  N   UNL A   1      41.526  29.125  32.474  1.00  0.00    -0.354 N 
ATOM     51  N   UNL A   1      41.173  30.958  34.746  1.00  0.00    -0.248 NA
ATOM     52  C   UNL A   1      41.792  31.701  36.876  1.00  0.00     0.031 C 
ATOM     53  C   UNL A   1      43.157  27.623  32.584  1.00  0.00     0.029 A 
ATOM     54  C   UNL A   1      42.544  28.651  33.283  1.00  0.00     0.049 A 
ATOM     55  H   UNL A   1      40.908  29.854  32.712  1.00  0.00     0.167 HD
ATOM     56  C   UNL A   1      42.240  30.192  35.205  1.00  0.00     0.074 A 
ATOM     57  C   UNL A   1      42.590  30.705  36.514  1.00  0.00     0.031 C 
ATOM     58  C   UNL A   1      42.876  29.162  34.592  1.00  0.00     0.034 A 
BRANCH  45  59
ATOM     59  C   UNL A   1      40.636  27.738  29.001  1.00  0.00     0.023 A 
ATOM     60  C   UNL A   1      41.566  27.972  27.974  1.00  0.00     0.031 A 
ATOM     61  C   UNL A   1      39.794  26.618  28.888  1.00  0.00     0.131 A 
ATOM     62  C   UNL A   1      41.605  27.123  26.858  1.00  0.00     0.055 A 
ATOM     63  C   UNL A   1      39.882  25.738  27.808  1.00  0.00     0.041 A 
ATOM     64  F   UNL A   1      38.876  26.356  29.832  1.00  0.00    -0.206 F 
ATOM     65  C   UNL A   1      40.787  25.992  26.781  1.00  0.00     0.022 A 
BRANCH  62  66
ATOM     66  S   UNL A   1      42.687  27.558  25.472  1.00  0.00     0.124 S 
ATOM     67  O   UNL A   1      42.051  28.776  24.975  1.00  0.00    -0.237 OA
ATOM     68  O   UNL A   1      43.981  27.733  26.122  1.00  0.00    -0.237 OA
ATOM     69  O   UNL A   1      42.587  26.403  24.583  1.00  0.00    -0.744 OA
ENDBRANCH  62  66
ENDBRANCH  45  59
BRANCH  46  70
ATOM     70  C   UNL A   1      39.755  33.823  36.904  1.00  0.00     0.023 A 
ATOM     71  C   UNL A   1      40.708  34.821  37.160  1.00  0.00     0.031 A 
ATOM     72  C   UNL A   1      38.660  33.713  37.778  1.00  0.00     0.131 A 
ATOM     73  C   UNL A   1      40.558  35.660  38.275  1.00  0.00     0.055 A 
ATOM     74  C   UNL A   1      38.493  34.575  38.863  1.00  0.00     0.041 A 
ATOM     75  F   UNL A   1      37.716  32.781  37.568  1.00  0.00    -0.206 F 
ATOM     76  C   UNL A   1      39.449  35.553  39.120  1.00  0.00     0.022 A 
BRANCH  73  77
ATOM     77  S   UNL A   1      41.846  36.888  38.624  1.00  0.00     0.124 S 
ATOM     78  O   UNL A   1      41.079  37.943  39.276  1.00  0.00    -0.237 OA
ATOM     79  O   UNL A   1      42.761  36.137  39.477  1.00  0.00    -0.237 OA
ATOM     80  O   UNL A   1      42.366  37.220  37.299  1.00  0.00    -0.744 OA
ENDBRANCH  73  77
ENDBRANCH  46  70
BRANCH  58  81
ATOM     81  C   UNL A   1      44.042  28.534  35.308  1.00  0.00     0.023 A 
ATOM     82  C   UNL A   1      43.866  27.479  36.218  1.00  0.00     0.031 A 
ATOM     83  C   UNL A   1      45.353  28.958  35.024  1.00  0.00     0.131 A 
ATOM     84  C   UNL A   1      44.985  26.895  36.829  1.00  0.00     0.055 A 
ATOM     85  C   UNL A   1      46.463  28.341  35.598  1.00  0.00     0.041 A 
ATOM     86  F   UNL A   1      45.573  29.961  34.159  1.00  0.00    -0.206 F 
ATOM     87  C   UNL A   1      46.282  27.305  36.510  1.00  0.00     0.022 A 
BRANCH  84  88
ATOM     88  S   UNL A   1      44.724  25.603  38.075  1.00  0.00     0.124 S 
ATOM     89  O   UNL A   1      46.056  25.017  38.186  1.00  0.00    -0.237 OA
ATOM     90  O   UNL A   1      44.264  26.365  39.231  1.00  0.00    -0.237 OA
ATOM     91  O   UNL A   1      43.715  24.737  37.465  1.00  0.00    -0.744 OA
ENDBRANCH  84  88
ENDBRANCH  58  81
ENDBRANCH  32  33
ENDBRANCH  24  27
ENDBRANCH  22  23
ENDBRANCH  21  22
ENDBRANCH   1  21
TORSDOF 17
ENDMDL
MODEL 3
REMARK VINA RESULT:     -10.9      5.743      8.893
REMARK SMILES COc1cc(F)ccc1NCC(C)(C)C(=O)NCCCNC(=O)c1ccc(-c2c3nc(c(-c4cc(S(=O)(=O)[O-])ccc4F)c4ccc([nH]4)c(-c4cc(S(=O)(=O)[O-])ccc4F)c4nc(c(-c5cc(S(=O)(=O)[O-])ccc5F)c5ccc2[nH]5)C=C4)C=C3)cc1
REMARK SMILES IDX 18 1 17 2 15 3 16 4 12 6 13 7 14 8 11 9 10 10 9 12 3 13 4 14
REMARK SMILES IDX 5 15 8 16 6 17 7 18 2 19 1 20 19 21 20 22 21 23 22 24 23 26
REMARK SMILES IDX 24 27 25 28 86 29 26 30 85 31 27 32 28 33 29 34 79 35 30 36
REMARK SMILES IDX 84 37 78 38 80 39 31 40 83 41 77 42 76 43 32 45 64 46 44 47
REMARK SMILES IDX 63 48 45 49 48 50 62 51 81 52 46 53 47 54 61 56 82 57 49 58
REMARK SMILES IDX 33 59 34 60 42 61 35 62 41 63 43 64 40 65 36 66 37 67 38 68
REMARK SMILES IDX 39 69 65 70 66 71 74 72 67 73 73 74 75 75 72 76 68 77 69 78
REMARK SMILES IDX 70 79 71 80 50 81 51 82 59 83 52 84 58 85 60 86 57 87 53 88
REMARK SMILES IDX 54 89 55 90 56 91
REMARK H PARENT 17 5 10 11 21 25 80 44 48 55
REMARK Flexibility Score: inf
ROOT
ATOM      1  C   UNL A   1      35.340  22.988  23.680  1.00  0.00     0.117 C 
ENDROOT
BRANCH   1   2
ATOM      2  N   UNL A   1      34.092  22.252  23.766  1.00  0.00    -0.356 N 
ATOM      3  C   UNL A   1      32.976  22.414  24.527  1.00  0.00     0.227 C 
ATOM      4  O   UNL A   1      32.249  21.420  24.599  1.00  0.00    -0.274 OA
ATOM      5  H   UNL A   1      34.043  21.483  23.154  1.00  0.00     0.163 HD
BRANCH   3   6
ATOM      6  C   UNL A   1      32.678  23.717  25.294  1.00  0.00     0.061 C 
ATOM      7  C   UNL A   1      33.879  24.207  26.123  1.00  0.00     0.023 C 
ATOM      8  C   UNL A   1      31.443  23.489  26.190  1.00  0.00     0.023 C 
BRANCH   6   9
ATOM      9  C   UNL A   1      32.281  24.841  24.290  1.00  0.00     0.129 C 
BRANCH   9  10
ATOM     10  N   UNL A   1      31.251  25.743  24.781  1.00  0.00    -0.381 N 
ATOM     11  H   UNL A   1      30.316  25.462  24.652  1.00  0.00     0.160 HD
BRANCH  10  12
ATOM     12  C   UNL A   1      31.457  26.963  25.410  1.00  0.00     0.077 A 
ATOM     13  C   UNL A   1      31.604  28.129  24.613  1.00  0.00     0.144 A 
ATOM     14  C   UNL A   1      31.822  29.377  25.204  1.00  0.00     0.087 A 
ATOM     15  C   UNL A   1      31.910  29.472  26.587  1.00  0.00     0.127 A 
ATOM     16  C   UNL A   1      31.555  27.107  26.801  1.00  0.00     0.032 A 
ATOM     17  F   UNL A   1      32.119  30.668  27.154  1.00  0.00    -0.207 F 
ATOM     18  C   UNL A   1      31.779  28.352  27.391  1.00  0.00     0.041 A 
BRANCH  13  19
ATOM     19  O   UNL A   1      31.460  27.941  23.254  1.00  0.00    -0.494 OA
ATOM     20  C   UNL A   1      30.485  28.754  22.614  1.00  0.00     0.278 C 
ENDBRANCH  13  19
ENDBRANCH  10  12
ENDBRANCH   9  10
ENDBRANCH   6   9
ENDBRANCH   3   6
ENDBRANCH   1   2
BRANCH   1  21
ATOM     21  C   UNL A   1      36.536  22.090  23.974  1.00  0.00     0.042 C 
BRANCH  21  22
ATOM     22  C   UNL A   1      36.839  21.937  25.459  1.00  0.00     0.118 C 
BRANCH  22  23
ATOM     23  N   UNL A   1      37.875  20.946  25.714  1.00  0.00    -0.352 N 
ATOM     24  C   UNL A   1      39.182  21.115  26.101  1.00  0.00     0.251 C 
ATOM     25  H   UNL A   1      37.596  20.010  25.590  1.00  0.00     0.163 HD
ATOM     26  O   UNL A   1      39.956  20.162  26.038  1.00  0.00    -0.269 OA
BRANCH  24  27
ATOM     27  C   UNL A   1      39.657  22.435  26.567  1.00  0.00     0.039 A 
ATOM     28  C   UNL A   1      40.675  22.492  27.521  1.00  0.00     0.014 A 
ATOM     29  C   UNL A   1      39.096  23.615  26.071  1.00  0.00     0.014 A 
ATOM     30  C   UNL A   1      41.181  23.733  27.919  1.00  0.00     0.010 A 
ATOM     31  C   UNL A   1      39.662  24.843  26.397  1.00  0.00     0.010 A 
ATOM     32  C   UNL A   1      40.710  24.916  27.325  1.00  0.00    -0.014 A 
BRANCH  32  33
ATOM     33  C   UNL A   1      41.305  26.236  27.657  1.00  0.00     0.031 A 
ATOM     34  C   UNL A   1      42.717  26.555  27.245  1.00  0.00     0.074 A 
ATOM     35  C   UNL A   1      40.592  27.128  28.374  1.00  0.00     0.049 A 
ATOM     36  N   UNL A   1      43.433  27.618  27.508  1.00  0.00    -0.248 NA
ATOM     37  C   UNL A   1      43.427  25.537  26.453  1.00  0.00     0.031 C 
ATOM     38  C   UNL A   1      39.224  26.922  28.857  1.00  0.00     0.029 A 
ATOM     39  N   UNL A   1      40.912  28.386  28.822  1.00  0.00    -0.354 N 
ATOM     40  C   UNL A   1      44.674  27.395  26.922  1.00  0.00     0.074 A 
ATOM     41  C   UNL A   1      44.634  26.071  26.341  1.00  0.00     0.031 C 
ATOM     42  C   UNL A   1      38.809  28.030  29.492  1.00  0.00     0.029 A 
ATOM     43  C   UNL A   1      39.896  29.003  29.514  1.00  0.00     0.049 A 
ATOM     44  H   UNL A   1      41.789  28.806  28.663  1.00  0.00     0.167 HD
ATOM     45  C   UNL A   1      45.738  28.229  26.853  1.00  0.00     0.034 A 
ATOM     46  C   UNL A   1      39.845  30.211  30.109  1.00  0.00     0.034 A 
ATOM     47  C   UNL A   1      45.758  29.555  27.418  1.00  0.00     0.049 A 
ATOM     48  C   UNL A   1      41.055  31.104  30.055  1.00  0.00     0.074 A 
ATOM     49  C   UNL A   1      46.772  30.495  27.364  1.00  0.00     0.029 A 
ATOM     50  N   UNL A   1      44.721  30.129  28.140  1.00  0.00    -0.354 N 
ATOM     51  N   UNL A   1      42.218  30.878  29.490  1.00  0.00    -0.248 NA
ATOM     52  C   UNL A   1      40.950  32.410  30.720  1.00  0.00     0.031 C 
ATOM     53  C   UNL A   1      46.376  31.608  28.108  1.00  0.00     0.029 A 
ATOM     54  C   UNL A   1      45.084  31.397  28.562  1.00  0.00     0.049 A 
ATOM     55  H   UNL A   1      43.855  29.698  28.325  1.00  0.00     0.167 HD
ATOM     56  C   UNL A   1      42.975  32.025  29.709  1.00  0.00     0.074 A 
ATOM     57  C   UNL A   1      42.138  32.941  30.457  1.00  0.00     0.031 C 
ATOM     58  C   UNL A   1      44.245  32.296  29.318  1.00  0.00     0.034 A 
BRANCH  45  59
ATOM     59  C   UNL A   1      46.974  27.734  26.149  1.00  0.00     0.023 A 
ATOM     60  C   UNL A   1      47.168  27.939  24.772  1.00  0.00     0.031 A 
ATOM     61  C   UNL A   1      47.988  27.079  26.869  1.00  0.00     0.131 A 
ATOM     62  C   UNL A   1      48.329  27.458  24.150  1.00  0.00     0.055 A 
ATOM     63  C   UNL A   1      49.171  26.660  26.257  1.00  0.00     0.041 A 
ATOM     64  F   UNL A   1      47.848  26.841  28.183  1.00  0.00    -0.206 F 
ATOM     65  C   UNL A   1      49.343  26.843  24.888  1.00  0.00     0.022 A 
BRANCH  62  66
ATOM     66  S   UNL A   1      48.462  27.579  22.346  1.00  0.00     0.124 S 
ATOM     67  O   UNL A   1      47.170  28.164  21.996  1.00  0.00    -0.237 OA
ATOM     68  O   UNL A   1      49.623  28.443  22.171  1.00  0.00    -0.237 OA
ATOM     69  O   UNL A   1      48.647  26.192  21.923  1.00  0.00    -0.744 OA
ENDBRANCH  62  66
ENDBRANCH  45  59
BRANCH  46  70
ATOM     70  C   UNL A   1      38.601  30.642  30.806  1.00  0.00     0.023 A 
ATOM     71  C   UNL A   1      37.592  31.334  30.119  1.00  0.00     0.031 A 
ATOM     72  C   UNL A   1      38.396  30.349  32.166  1.00  0.00     0.131 A 
ATOM     73  C   UNL A   1      36.428  31.726  30.797  1.00  0.00     0.055 A 
ATOM     74  C   UNL A   1      37.220  30.706  32.827  1.00  0.00     0.041 A 
ATOM     75  F   UNL A   1      39.327  29.679  32.863  1.00  0.00    -0.206 F 
ATOM     76  C   UNL A   1      36.229  31.404  32.143  1.00  0.00     0.022 A 
BRANCH  73  77
ATOM     77  S   UNL A   1      35.177  32.687  29.902  1.00  0.00     0.124 S 
ATOM     78  O   UNL A   1      35.976  33.779  29.359  1.00  0.00    -0.237 OA
ATOM     79  O   UNL A   1      34.678  31.713  28.936  1.00  0.00    -0.237 OA
ATOM     80  O   UNL A   1      34.227  33.065  30.947  1.00  0.00    -0.744 OA
ENDBRANCH  73  77
ENDBRANCH  46  70
BRANCH  58  81
ATOM     81  C   UNL A   1      44.808  33.651  29.658  1.00  0.00     0.023 A 
ATOM     82  C   UNL A   1      44.616  34.760  28.818  1.00  0.00     0.031 A 
ATOM     83  C   UNL A   1      45.491  33.844  30.873  1.00  0.00     0.131 A 
ATOM     84  C   UNL A   1      45.122  36.013  29.196  1.00  0.00     0.055 A 
ATOM     85  C   UNL A   1      45.948  35.102  31.264  1.00  0.00     0.041 A 
ATOM     86  F   UNL A   1      45.697  32.815  31.711  1.00  0.00    -0.206 F 
ATOM     87  C   UNL A   1      45.768  36.194  30.421  1.00  0.00     0.022 A 
BRANCH  84  88
ATOM     88  S   UNL A   1      44.948  37.405  28.047  1.00  0.00     0.124 S 
ATOM     89  O   UNL A   1      43.596  37.205  27.534  1.00  0.00    -0.237 OA
ATOM     90  O   UNL A   1      45.135  38.560  28.917  1.00  0.00    -0.237 OA
ATOM     91  O   UNL A   1      46.018  37.184  27.075  1.00  0.00    -0.744 OA
ENDBRANCH  84  88
ENDBRANCH  58  81
ENDBRANCH  32  33
ENDBRANCH  24  27
ENDBRANCH  22  23
ENDBRANCH  21  22
ENDBRANCH   1  21
TORSDOF 17
ENDMDL
