MODEL 1
REMARK VINA RESULT:     -13.7      0.000      0.000
REMARK SMILES O=C(Cc1c(C(=O)c2cc3c(cn2)CCCC3)[nH]c2cc(Cl)ccc12)NCCCNC(=O)c1ccc(-c2c3nc(c(-c4cc(S(=O)(=O)[O-])ccc4F)c4ccc([nH]4)c(-c4cc(S(=O)(=O)[O-])ccc4F)c4nc(c(-c5cc(S(=O)(=O)[O-])ccc5F)c5ccc2[nH]5)C=C4)C=C3)cc1
REMARK SMILES IDX 28 1 27 2 26 3 1 4 2 5 3 7 4 8 5 9 25 10 18 11 19 12 24 13
REMARK SMILES IDX 20 15 23 16 21 17 22 18 6 19 7 20 8 21 9 22 13 23 10 24
REMARK SMILES IDX 12 25 11 26 17 27 14 28 16 29 15 30 29 31 30 32 31 33 32 35
REMARK SMILES IDX 33 36 34 37 95 38 35 39 94 40 36 41 37 42 38 43 88 44 39 45
REMARK SMILES IDX 93 46 87 47 89 48 40 49 92 50 86 51 85 52 41 54 73 55 53 56
REMARK SMILES IDX 72 57 54 58 57 59 71 60 90 61 55 62 56 63 70 65 91 66 58 67
REMARK SMILES IDX 42 68 43 69 51 70 44 71 50 72 52 73 49 74 45 75 46 76 47 77
REMARK SMILES IDX 48 78 74 79 75 80 83 81 76 82 82 83 84 84 81 85 77 86 78 87
REMARK SMILES IDX 79 88 80 89 59 90 60 91 68 92 61 93 67 94 69 95 66 96 62 97
REMARK SMILES IDX 63 98 64 99 65 100
REMARK H PARENT 26 6 18 14 30 34 89 53 57 64
REMARK Flexibility Score: inf
ROOT
ATOM      1  C   UNL A   1      36.307  21.566  24.279  1.00  0.00     0.042 C 
ENDROOT
BRANCH   1   2
ATOM      2  C   UNL A   1      36.300  22.961  23.664  1.00  0.00     0.117 C 
BRANCH   2   3
ATOM      3  N   UNL A   1      35.491  23.903  24.408  1.00  0.00    -0.356 N 
ATOM      4  O   UNL A   1      34.293  24.657  22.610  1.00  0.00    -0.275 OA
ATOM      5  C   UNL A   1      34.499  24.666  23.822  1.00  0.00     0.224 C 
ATOM      6  H   UNL A   1      35.654  24.005  25.374  1.00  0.00     0.163 HD
BRANCH   5   7
ATOM      7  C   UNL A   1      33.764  25.620  24.761  1.00  0.00     0.138 C 
BRANCH   7   8
ATOM      8  C   UNL A   1      32.265  25.441  24.748  1.00  0.00    -0.002 A 
ATOM      9  C   UNL A   1      31.532  24.376  25.277  1.00  0.00     0.093 A 
ATOM     10  C   UNL A   1      31.330  26.363  24.169  1.00  0.00     0.004 A 
ATOM     11  N   UNL A   1      30.202  24.713  25.140  1.00  0.00    -0.351 N 
ATOM     12  C   UNL A   1      30.053  25.883  24.438  1.00  0.00     0.048 A 
ATOM     13  C   UNL A   1      31.458  27.579  23.462  1.00  0.00     0.012 A 
ATOM     14  H   UNL A   1      29.455  24.183  25.501  1.00  0.00     0.167 HD
ATOM     15  C   UNL A   1      28.889  26.551  24.035  1.00  0.00     0.047 A 
ATOM     16  C   UNL A   1      30.306  28.262  23.047  1.00  0.00     0.021 A 
ATOM     17  C   UNL A   1      29.045  27.749  23.332  1.00  0.00     0.043 A 
ATOM     18  Cl  UNL A   1      27.643  28.600  22.807  1.00  0.00    -0.084 Cl
BRANCH   9  19
ATOM     19  C   UNL A   1      32.025  23.147  25.897  1.00  0.00     0.227 C 
ATOM     20  O   UNL A   1      32.363  23.071  27.075  1.00  0.00    -0.285 OA
BRANCH  19  21
ATOM     21  C   UNL A   1      32.178  21.927  25.054  1.00  0.00     0.113 A 
ATOM     22  C   UNL A   1      32.522  20.711  25.639  1.00  0.00     0.036 A 
ATOM     23  N   UNL A   1      31.957  22.087  23.728  1.00  0.00    -0.252 NA
ATOM     24  C   UNL A   1      32.645  19.586  24.816  1.00  0.00    -0.041 A 
ATOM     25  C   UNL A   1      32.060  20.984  22.959  1.00  0.00     0.115 A 
ATOM     26  C   UNL A   1      32.413  19.726  23.439  1.00  0.00    -0.026 A 
ATOM     27  C   UNL A   1      33.075  18.267  25.408  1.00  0.00     0.036 C 
ATOM     28  C   UNL A   1      32.456  18.552  22.498  1.00  0.00     0.037 C 
ATOM     29  C   UNL A   1      32.785  17.073  24.497  1.00  0.00     0.005 C 
ATOM     30  C   UNL A   1      33.228  17.364  23.068  1.00  0.00     0.005 C 
ENDBRANCH  19  21
ENDBRANCH   9  19
ENDBRANCH   7   8
ENDBRANCH   5   7
ENDBRANCH   2   3
ENDBRANCH   1   2
BRANCH   1  31
ATOM     31  C   UNL A   1      36.982  21.469  25.644  1.00  0.00     0.118 C 
BRANCH  31  32
ATOM     32  N   UNL A   1      38.130  20.571  25.674  1.00  0.00    -0.352 N 
ATOM     33  C   UNL A   1      39.428  20.801  26.073  1.00  0.00     0.251 C 
ATOM     34  H   UNL A   1      37.948  19.656  25.360  1.00  0.00     0.163 HD
ATOM     35  O   UNL A   1      40.269  19.917  25.920  1.00  0.00    -0.269 OA
BRANCH  33  36
ATOM     36  C   UNL A   1      39.822  22.111  26.639  1.00  0.00     0.039 A 
ATOM     37  C   UNL A   1      39.294  23.304  26.143  1.00  0.00     0.014 A 
ATOM     38  C   UNL A   1      40.755  22.145  27.682  1.00  0.00     0.014 A 
ATOM     39  C   UNL A   1      39.833  24.522  26.555  1.00  0.00     0.010 A 
ATOM     40  C   UNL A   1      41.235  23.373  28.151  1.00  0.00     0.010 A 
ATOM     41  C   UNL A   1      40.823  24.571  27.549  1.00  0.00    -0.014 A 
BRANCH  41  42
ATOM     42  C   UNL A   1      41.426  25.880  27.922  1.00  0.00     0.031 A 
ATOM     43  C   UNL A   1      42.819  26.241  27.474  1.00  0.00     0.074 A 
ATOM     44  C   UNL A   1      40.694  26.774  28.615  1.00  0.00     0.049 A 
ATOM     45  N   UNL A   1      43.479  27.356  27.659  1.00  0.00    -0.248 NA
ATOM     46  C   UNL A   1      43.571  25.220  26.726  1.00  0.00     0.031 C 
ATOM     47  C   UNL A   1      39.334  26.539  29.100  1.00  0.00     0.029 A 
ATOM     48  N   UNL A   1      40.971  28.060  29.009  1.00  0.00    -0.354 N 
ATOM     49  C   UNL A   1      44.722  27.169  27.062  1.00  0.00     0.074 A 
ATOM     50  C   UNL A   1      44.740  25.820  26.544  1.00  0.00     0.031 C 
ATOM     51  C   UNL A   1      38.875  27.658  29.677  1.00  0.00     0.029 A 
ATOM     52  C   UNL A   1      39.926  28.674  29.661  1.00  0.00     0.049 A 
ATOM     53  H   UNL A   1      41.835  28.500  28.842  1.00  0.00     0.167 HD
ATOM     54  C   UNL A   1      45.745  28.050  26.939  1.00  0.00     0.034 A 
ATOM     55  C   UNL A   1      39.821  29.910  30.191  1.00  0.00     0.034 A 
ATOM     56  C   UNL A   1      45.709  29.401  27.438  1.00  0.00     0.049 A 
ATOM     57  C   UNL A   1      40.982  30.863  30.063  1.00  0.00     0.074 A 
ATOM     58  C   UNL A   1      46.689  30.373  27.337  1.00  0.00     0.029 A 
ATOM     59  N   UNL A   1      44.646  29.974  28.120  1.00  0.00    -0.354 N 
ATOM     60  N   UNL A   1      42.130  30.683  29.454  1.00  0.00    -0.248 NA
ATOM     61  C   UNL A   1      40.838  32.185  30.688  1.00  0.00     0.031 C 
ATOM     62  C   UNL A   1      46.242  31.515  28.004  1.00  0.00     0.029 A 
ATOM     63  C   UNL A   1      44.957  31.280  28.466  1.00  0.00     0.049 A 
ATOM     64  H   UNL A   1      43.798  29.521  28.328  1.00  0.00     0.167 HD
ATOM     65  C   UNL A   1      42.837  31.872  29.607  1.00  0.00     0.074 A 
ATOM     66  C   UNL A   1      41.976  32.775  30.342  1.00  0.00     0.031 C 
ATOM     67  C   UNL A   1      44.089  32.182  29.185  1.00  0.00     0.034 A 
BRANCH  54  68
ATOM     68  C   UNL A   1      46.996  27.606  26.222  1.00  0.00     0.023 A 
ATOM     69  C   UNL A   1      47.170  27.898  24.855  1.00  0.00     0.031 A 
ATOM     70  C   UNL A   1      47.950  26.788  26.853  1.00  0.00     0.131 A 
ATOM     71  C   UNL A   1      48.253  27.350  24.158  1.00  0.00     0.055 A 
ATOM     72  C   UNL A   1      49.048  26.274  26.162  1.00  0.00     0.041 A 
ATOM     73  F   UNL A   1      47.829  26.480  28.155  1.00  0.00    -0.206 F 
ATOM     74  C   UNL A   1      49.196  26.545  24.805  1.00  0.00     0.022 A 
BRANCH  71  75
ATOM     75  S   UNL A   1      48.450  27.607  22.374  1.00  0.00     0.124 S 
ATOM     76  O   UNL A   1      47.217  28.316  22.035  1.00  0.00    -0.237 OA
ATOM     77  O   UNL A   1      49.668  28.409  22.312  1.00  0.00    -0.237 OA
ATOM     78  O   UNL A   1      48.555  26.256  21.833  1.00  0.00    -0.744 OA
ENDBRANCH  71  75
ENDBRANCH  54  68
BRANCH  55  79
ATOM     79  C   UNL A   1      38.538  30.314  30.839  1.00  0.00     0.023 A 
ATOM     80  C   UNL A   1      37.532  30.969  30.105  1.00  0.00     0.031 A 
ATOM     81  C   UNL A   1      38.351  30.158  32.222  1.00  0.00     0.131 A 
ATOM     82  C   UNL A   1      36.424  31.510  30.771  1.00  0.00     0.055 A 
ATOM     83  C   UNL A   1      37.210  30.633  32.870  1.00  0.00     0.041 A 
ATOM     84  F   UNL A   1      39.289  29.551  32.967  1.00  0.00    -0.206 F 
ATOM     85  C   UNL A   1      36.248  31.333  32.146  1.00  0.00     0.022 A 
BRANCH  82  86
ATOM     86  S   UNL A   1      35.255  32.590  29.898  1.00  0.00     0.124 S 
ATOM     87  O   UNL A   1      34.768  31.715  28.836  1.00  0.00    -0.237 OA
ATOM     88  O   UNL A   1      34.292  32.900  30.953  1.00  0.00    -0.237 OA
ATOM     89  O   UNL A   1      36.080  33.712  29.464  1.00  0.00    -0.744 OA
ENDBRANCH  82  86
ENDBRANCH  55  79
BRANCH  67  90
ATOM     90  C   UNL A   1      44.637  33.555  29.490  1.00  0.00     0.023 A 
ATOM     91  C   UNL A   1      44.444  34.611  28.579  1.00  0.00     0.031 A 
ATOM     92  C   UNL A   1      45.479  33.774  30.595  1.00  0.00     0.131 A 
ATOM     93  C   UNL A   1      45.115  35.826  28.768  1.00  0.00     0.055 A 
ATOM     94  C   UNL A   1      46.111  35.000  30.801  1.00  0.00     0.041 A 
ATOM     95  F   UNL A   1      45.703  32.795  31.485  1.00  0.00    -0.206 F 
ATOM     96  C   UNL A   1      45.942  36.028  29.877  1.00  0.00     0.022 A 
BRANCH  93  97
ATOM     97  S   UNL A   1      45.012  37.155  27.537  1.00  0.00     0.124 S 
ATOM     98  O   UNL A   1      43.614  37.073  27.122  1.00  0.00    -0.237 OA
ATOM     99  O   UNL A   1      45.361  38.334  28.326  1.00  0.00    -0.237 OA
ATOM    100  O   UNL A   1      45.986  36.771  26.520  1.00  0.00    -0.744 OA
ENDBRANCH  93  97
ENDBRANCH  67  90
ENDBRANCH  41  42
ENDBRANCH  33  36
ENDBRANCH  31  32
ENDBRANCH   1  31
TORSDOF 16
ENDMDL
MODEL 2
REMARK VINA RESULT:     -13.3      1.652      3.849
REMARK SMILES O=C(Cc1c(C(=O)c2cc3c(cn2)CCCC3)[nH]c2cc(Cl)ccc12)NCCCNC(=O)c1ccc(-c2c3nc(c(-c4cc(S(=O)(=O)[O-])ccc4F)c4ccc([nH]4)c(-c4cc(S(=O)(=O)[O-])ccc4F)c4nc(c(-c5cc(S(=O)(=O)[O-])ccc5F)c5ccc2[nH]5)C=C4)C=C3)cc1
REMARK SMILES IDX 28 1 27 2 26 3 1 4 2 5 3 7 4 8 5 9 25 10 18 11 19 12 24 13
REMARK SMILES IDX 20 15 23 16 21 17 22 18 6 19 7 20 8 21 9 22 13 23 10 24
REMARK SMILES IDX 12 25 11 26 17 27 14 28 16 29 15 30 29 31 30 32 31 33 32 35
REMARK SMILES IDX 33 36 34 37 95 38 35 39 94 40 36 41 37 42 38 43 88 44 39 45
REMARK SMILES IDX 93 46 87 47 89 48 40 49 92 50 86 51 85 52 41 54 73 55 53 56
REMARK SMILES IDX 72 57 54 58 57 59 71 60 90 61 55 62 56 63 70 65 91 66 58 67
REMARK SMILES IDX 42 68 43 69 51 70 44 71 50 72 52 73 49 74 45 75 46 76 47 77
REMARK SMILES IDX 48 78 74 79 75 80 83 81 76 82 82 83 84 84 81 85 77 86 78 87
REMARK SMILES IDX 79 88 80 89 59 90 60 91 68 92 61 93 67 94 69 95 66 96 62 97
REMARK SMILES IDX 63 98 64 99 65 100
REMARK H PARENT 26 6 18 14 30 34 89 53 57 64
REMARK Flexibility Score: inf
ROOT
ATOM      1  C   UNL A   1      36.965  22.205  23.516  1.00  0.00     0.042 C 
ENDROOT
BRANCH   1   2
ATOM      2  C   UNL A   1      35.924  23.247  23.124  1.00  0.00     0.117 C 
BRANCH   2   3
ATOM      3  N   UNL A   1      34.575  22.861  23.481  1.00  0.00    -0.356 N 
ATOM      4  O   UNL A   1      33.553  23.933  21.737  1.00  0.00    -0.275 OA
ATOM      5  C   UNL A   1      33.471  23.204  22.724  1.00  0.00     0.224 C 
ATOM      6  H   UNL A   1      34.437  22.332  24.300  1.00  0.00     0.163 HD
BRANCH   5   7
ATOM      7  C   UNL A   1      32.127  22.726  23.268  1.00  0.00     0.138 C 
BRANCH   7   8
ATOM      8  C   UNL A   1      32.253  21.710  24.377  1.00  0.00    -0.002 A 
ATOM      9  C   UNL A   1      32.122  21.930  25.750  1.00  0.00     0.093 A 
ATOM     10  C   UNL A   1      32.542  20.317  24.189  1.00  0.00     0.004 A 
ATOM     11  N   UNL A   1      32.194  20.692  26.352  1.00  0.00    -0.351 N 
ATOM     12  C   UNL A   1      32.489  19.710  25.439  1.00  0.00     0.048 A 
ATOM     13  C   UNL A   1      32.817  19.513  23.061  1.00  0.00     0.012 A 
ATOM     14  H   UNL A   1      32.051  20.532  27.313  1.00  0.00     0.167 HD
ATOM     15  C   UNL A   1      32.701  18.338  25.627  1.00  0.00     0.047 A 
ATOM     16  C   UNL A   1      33.034  18.139  23.227  1.00  0.00     0.021 A 
ATOM     17  C   UNL A   1      32.977  17.568  24.494  1.00  0.00     0.043 A 
ATOM     18  Cl  UNL A   1      33.253  15.877  24.678  1.00  0.00    -0.084 Cl
BRANCH   9  19
ATOM     19  C   UNL A   1      31.910  23.193  26.456  1.00  0.00     0.227 C 
ATOM     20  O   UNL A   1      31.307  23.280  27.523  1.00  0.00    -0.285 OA
BRANCH  19  21
ATOM     21  C   UNL A   1      32.403  24.456  25.836  1.00  0.00     0.113 A 
ATOM     22  C   UNL A   1      31.502  25.364  25.287  1.00  0.00     0.036 A 
ATOM     23  N   UNL A   1      33.744  24.645  25.854  1.00  0.00    -0.252 NA
ATOM     24  C   UNL A   1      32.003  26.543  24.723  1.00  0.00    -0.041 A 
ATOM     25  C   UNL A   1      34.200  25.799  25.325  1.00  0.00     0.115 A 
ATOM     26  C   UNL A   1      33.388  26.765  24.737  1.00  0.00    -0.026 A 
ATOM     27  C   UNL A   1      31.059  27.521  24.067  1.00  0.00     0.036 C 
ATOM     28  C   UNL A   1      33.999  28.038  24.216  1.00  0.00     0.037 C 
ATOM     29  C   UNL A   1      31.672  28.906  23.861  1.00  0.00     0.005 C 
ATOM     30  C   UNL A   1      33.072  28.795  23.267  1.00  0.00     0.005 C 
ENDBRANCH  19  21
ENDBRANCH   9  19
ENDBRANCH   7   8
ENDBRANCH   5   7
ENDBRANCH   2   3
ENDBRANCH   1   2
BRANCH   1  31
ATOM     31  C   UNL A   1      37.072  21.937  25.015  1.00  0.00     0.118 C 
BRANCH  31  32
ATOM     32  N   UNL A   1      38.037  20.901  25.363  1.00  0.00    -0.352 N 
ATOM     33  C   UNL A   1      39.230  20.991  26.044  1.00  0.00     0.251 C 
ATOM     34  H   UNL A   1      37.797  19.994  25.064  1.00  0.00     0.163 HD
ATOM     35  O   UNL A   1      39.943  19.994  26.142  1.00  0.00    -0.269 OA
BRANCH  33  36
ATOM     36  C   UNL A   1      39.676  22.282  26.618  1.00  0.00     0.039 A 
ATOM     37  C   UNL A   1      39.101  23.489  26.221  1.00  0.00     0.014 A 
ATOM     38  C   UNL A   1      40.705  22.281  27.566  1.00  0.00     0.014 A 
ATOM     39  C   UNL A   1      39.674  24.694  26.623  1.00  0.00     0.010 A 
ATOM     40  C   UNL A   1      41.227  23.494  28.032  1.00  0.00     0.010 A 
ATOM     41  C   UNL A   1      40.756  24.711  27.518  1.00  0.00    -0.014 A 
BRANCH  41  42
ATOM     42  C   UNL A   1      41.392  26.008  27.879  1.00  0.00     0.031 A 
ATOM     43  C   UNL A   1      42.776  26.349  27.393  1.00  0.00     0.074 A 
ATOM     44  C   UNL A   1      40.694  26.910  28.597  1.00  0.00     0.049 A 
ATOM     45  N   UNL A   1      43.459  27.453  27.563  1.00  0.00    -0.248 NA
ATOM     46  C   UNL A   1      43.490  25.320  26.620  1.00  0.00     0.031 C 
ATOM     47  C   UNL A   1      39.345  26.695  29.120  1.00  0.00     0.029 A 
ATOM     48  N   UNL A   1      41.003  28.190  28.989  1.00  0.00    -0.354 N 
ATOM     49  C   UNL A   1      44.681  27.249  26.930  1.00  0.00     0.074 A 
ATOM     50  C   UNL A   1      44.662  25.902  26.406  1.00  0.00     0.031 C 
ATOM     51  C   UNL A   1      38.921  27.818  29.715  1.00  0.00     0.029 A 
ATOM     52  C   UNL A   1      39.987  28.817  29.673  1.00  0.00     0.049 A 
ATOM     53  H   UNL A   1      41.869  28.617  28.798  1.00  0.00     0.167 HD
ATOM     54  C   UNL A   1      45.714  28.113  26.781  1.00  0.00     0.034 A 
ATOM     55  C   UNL A   1      39.917  30.053  30.211  1.00  0.00     0.034 A 
ATOM     56  C   UNL A   1      45.715  29.462  27.287  1.00  0.00     0.049 A 
ATOM     57  C   UNL A   1      41.090  30.987  30.054  1.00  0.00     0.074 A 
ATOM     58  C   UNL A   1      46.707  30.420  27.162  1.00  0.00     0.029 A 
ATOM     59  N   UNL A   1      44.682  30.049  28.002  1.00  0.00    -0.354 N 
ATOM     60  N   UNL A   1      42.217  30.791  29.412  1.00  0.00    -0.248 NA
ATOM     61  C   UNL A   1      40.985  32.308  30.689  1.00  0.00     0.031 C 
ATOM     62  C   UNL A   1      46.298  31.565  27.847  1.00  0.00     0.029 A 
ATOM     63  C   UNL A   1      45.023  31.348  28.345  1.00  0.00     0.049 A 
ATOM     64  H   UNL A   1      43.832  29.609  28.233  1.00  0.00     0.167 HD
ATOM     65  C   UNL A   1      42.947  31.969  29.549  1.00  0.00     0.074 A 
ATOM     66  C   UNL A   1      42.122  32.882  30.313  1.00  0.00     0.031 C 
ATOM     67  C   UNL A   1      44.191  32.260  29.092  1.00  0.00     0.034 A 
BRANCH  54  68
ATOM     68  C   UNL A   1      46.937  27.654  26.027  1.00  0.00     0.023 A 
ATOM     69  C   UNL A   1      47.081  27.959  24.660  1.00  0.00     0.031 A 
ATOM     70  C   UNL A   1      47.890  26.808  26.623  1.00  0.00     0.131 A 
ATOM     71  C   UNL A   1      48.134  27.397  23.928  1.00  0.00     0.055 A 
ATOM     72  C   UNL A   1      48.958  26.280  25.898  1.00  0.00     0.041 A 
ATOM     73  F   UNL A   1      47.796  26.486  27.924  1.00  0.00    -0.206 F 
ATOM     74  C   UNL A   1      49.077  26.565  24.540  1.00  0.00     0.022 A 
BRANCH  71  75
ATOM     75  S   UNL A   1      48.290  27.672  22.142  1.00  0.00     0.124 S 
ATOM     76  O   UNL A   1      46.996  28.268  21.816  1.00  0.00    -0.237 OA
ATOM     77  O   UNL A   1      49.430  28.582  22.070  1.00  0.00    -0.237 OA
ATOM     78  O   UNL A   1      48.513  26.337  21.599  1.00  0.00    -0.744 OA
ENDBRANCH  71  75
ENDBRANCH  54  68
BRANCH  55  79
ATOM     79  C   UNL A   1      38.660  30.474  30.898  1.00  0.00     0.023 A 
ATOM     80  C   UNL A   1      37.611  31.077  30.180  1.00  0.00     0.031 A 
ATOM     81  C   UNL A   1      38.541  30.388  32.295  1.00  0.00     0.131 A 
ATOM     82  C   UNL A   1      36.528  31.638  30.868  1.00  0.00     0.055 A 
ATOM     83  C   UNL A   1      37.424  30.882  32.971  1.00  0.00     0.041 A 
ATOM     84  F   UNL A   1      39.521  29.833  33.024  1.00  0.00    -0.206 F 
ATOM     85  C   UNL A   1      36.419  31.531  32.258  1.00  0.00     0.022 A 
BRANCH  82  86
ATOM     86  S   UNL A   1      35.303  32.655  29.998  1.00  0.00     0.124 S 
ATOM     87  O   UNL A   1      36.108  33.790  29.558  1.00  0.00    -0.237 OA
ATOM     88  O   UNL A   1      34.860  31.748  28.940  1.00  0.00    -0.237 OA
ATOM     89  O   UNL A   1      34.306  32.946  31.021  1.00  0.00    -0.744 OA
ENDBRANCH  82  86
ENDBRANCH  55  79
BRANCH  67  90
ATOM     90  C   UNL A   1      44.770  33.623  29.388  1.00  0.00     0.023 A 
ATOM     91  C   UNL A   1      44.624  34.669  28.457  1.00  0.00     0.031 A 
ATOM     92  C   UNL A   1      45.594  33.838  30.507  1.00  0.00     0.131 A 
ATOM     93  C   UNL A   1      45.324  35.868  28.641  1.00  0.00     0.055 A 
ATOM     94  C   UNL A   1      46.255  35.049  30.707  1.00  0.00     0.041 A 
ATOM     95  F   UNL A   1      45.773  32.867  31.417  1.00  0.00    -0.206 F 
ATOM     96  C   UNL A   1      46.133  36.067  29.764  1.00  0.00     0.022 A 
BRANCH  93  97
ATOM     97  S   UNL A   1      45.283  37.180  27.387  1.00  0.00     0.124 S 
ATOM     98  O   UNL A   1      46.200  36.659  26.376  1.00  0.00    -0.237 OA
ATOM     99  O   UNL A   1      43.874  37.194  27.003  1.00  0.00    -0.237 OA
ATOM    100  O   UNL A   1      45.750  38.364  28.100  1.00  0.00    -0.744 OA
ENDBRANCH  93  97
ENDBRANCH  67  90
ENDBRANCH  41  42
ENDBRANCH  33  36
ENDBRANCH  31  32
ENDBRANCH   1  31
TORSDOF 16
ENDMDL
MODEL 3
REMARK VINA RESULT:     -13.3      1.987      2.222
REMARK SMILES O=C(Cc1c(C(=O)c2cc3c(cn2)CCCC3)[nH]c2cc(Cl)ccc12)NCCCNC(=O)c1ccc(-c2c3nc(c(-c4cc(S(=O)(=O)[O-])ccc4F)c4ccc([nH]4)c(-c4cc(S(=O)(=O)[O-])ccc4F)c4nc(c(-c5cc(S(=O)(=O)[O-])ccc5F)c5ccc2[nH]5)C=C4)C=C3)cc1
REMARK SMILES IDX 28 1 27 2 26 3 1 4 2 5 3 7 4 8 5 9 25 10 18 11 19 12 24 13
REMARK SMILES IDX 20 15 23 16 21 17 22 18 6 19 7 20 8 21 9 22 13 23 10 24
REMARK SMILES IDX 12 25 11 26 17 27 14 28 16 29 15 30 29 31 30 32 31 33 32 35
REMARK SMILES IDX 33 36 34 37 95 38 35 39 94 40 36 41 37 42 38 43 88 44 39 45
REMARK SMILES IDX 93 46 87 47 89 48 40 49 92 50 86 51 85 52 41 54 73 55 53 56
REMARK SMILES IDX 72 57 54 58 57 59 71 60 90 61 55 62 56 63 70 65 91 66 58 67
REMARK SMILES IDX 42 68 43 69 51 70 44 71 50 72 52 73 49 74 45 75 46 76 47 77
REMARK SMILES IDX 48 78 74 79 75 80 83 81 76 82 82 83 84 84 81 85 77 86 78 87
REMARK SMILES IDX 79 88 80 89 59 90 60 91 68 92 61 93 67 94 69 95 66 96 62 97
REMARK SMILES IDX 63 98 64 99 65 100
REMARK H PARENT 26 6 18 14 30 34 89 53 57 64
REMARK Flexibility Score: inf
ROOT
ATOM      1  C   UNL A   1      35.640  21.648  24.239  1.00  0.00     0.042 C 
ENDROOT
BRANCH   1   2
ATOM      2  C   UNL A   1      35.409  22.940  23.462  1.00  0.00     0.117 C 
BRANCH   2   3
ATOM      3  N   UNL A   1      34.720  23.951  24.236  1.00  0.00    -0.356 N 
ATOM      4  O   UNL A   1      34.113  25.243  22.448  1.00  0.00    -0.275 OA
ATOM      5  C   UNL A   1      34.074  25.027  23.658  1.00  0.00     0.224 C 
ATOM      6  H   UNL A   1      34.712  23.869  25.217  1.00  0.00     0.163 HD
BRANCH   5   7
ATOM      7  C   UNL A   1      33.420  26.002  24.635  1.00  0.00     0.138 C 
BRANCH   7   8
ATOM      8  C   UNL A   1      31.916  26.043  24.527  1.00  0.00    -0.002 A 
ATOM      9  C   UNL A   1      30.999  25.144  25.078  1.00  0.00     0.093 A 
ATOM     10  C   UNL A   1      31.167  27.040  23.815  1.00  0.00     0.004 A 
ATOM     11  N   UNL A   1      29.746  25.659  24.822  1.00  0.00    -0.351 N 
ATOM     12  C   UNL A   1      29.818  26.776  24.027  1.00  0.00     0.048 A 
ATOM     13  C   UNL A   1      31.519  28.161  23.032  1.00  0.00     0.012 A 
ATOM     14  H   UNL A   1      28.907  25.275  25.166  1.00  0.00     0.167 HD
ATOM     15  C   UNL A   1      28.795  27.570  23.493  1.00  0.00     0.047 A 
ATOM     16  C   UNL A   1      30.511  28.967  22.486  1.00  0.00     0.021 A 
ATOM     17  C   UNL A   1      29.172  28.669  22.716  1.00  0.00     0.043 A 
ATOM     18  Cl  UNL A   1      27.949  29.670  22.031  1.00  0.00    -0.084 Cl
BRANCH   9  19
ATOM     19  C   UNL A   1      31.263  23.913  25.821  1.00  0.00     0.227 C 
ATOM     20  O   UNL A   1      31.252  23.846  27.047  1.00  0.00    -0.285 OA
BRANCH  19  21
ATOM     21  C   UNL A   1      31.614  22.677  25.065  1.00  0.00     0.113 A 
ATOM     22  C   UNL A   1      31.986  21.522  25.746  1.00  0.00     0.036 A 
ATOM     23  N   UNL A   1      31.539  22.763  23.715  1.00  0.00    -0.252 NA
ATOM     24  C   UNL A   1      32.298  20.379  25.000  1.00  0.00    -0.041 A 
ATOM     25  C   UNL A   1      31.823  21.643  23.020  1.00  0.00     0.115 A 
ATOM     26  C   UNL A   1      32.220  20.441  23.601  1.00  0.00    -0.026 A 
ATOM     27  C   UNL A   1      32.762  19.128  25.705  1.00  0.00     0.036 C 
ATOM     28  C   UNL A   1      32.470  19.238  22.732  1.00  0.00     0.037 C 
ATOM     29  C   UNL A   1      32.681  17.877  24.828  1.00  0.00     0.005 C 
ATOM     30  C   UNL A   1      33.264  18.146  23.446  1.00  0.00     0.005 C 
ENDBRANCH  19  21
ENDBRANCH   9  19
ENDBRANCH   7   8
ENDBRANCH   5   7
ENDBRANCH   2   3
ENDBRANCH   1   2
BRANCH   1  31
ATOM     31  C   UNL A   1      36.580  21.778  25.434  1.00  0.00     0.118 C 
BRANCH  31  32
ATOM     32  N   UNL A   1      37.634  20.771  25.468  1.00  0.00    -0.352 N 
ATOM     33  C   UNL A   1      38.935  20.863  25.911  1.00  0.00     0.251 C 
ATOM     34  H   UNL A   1      37.375  19.888  25.121  1.00  0.00     0.163 HD
ATOM     35  O   UNL A   1      39.691  19.907  25.755  1.00  0.00    -0.269 OA
BRANCH  33  36
ATOM     36  C   UNL A   1      39.435  22.112  26.530  1.00  0.00     0.039 A 
ATOM     37  C   UNL A   1      38.931  23.359  26.157  1.00  0.00     0.014 A 
ATOM     38  C   UNL A   1      40.444  22.032  27.496  1.00  0.00     0.014 A 
ATOM     39  C   UNL A   1      39.559  24.520  26.604  1.00  0.00     0.010 A 
ATOM     40  C   UNL A   1      41.018  23.202  28.007  1.00  0.00     0.010 A 
ATOM     41  C   UNL A   1      40.622  24.456  27.519  1.00  0.00    -0.014 A 
BRANCH  41  42
ATOM     42  C   UNL A   1      41.316  25.708  27.929  1.00  0.00     0.031 A 
ATOM     43  C   UNL A   1      42.726  25.990  27.477  1.00  0.00     0.074 A 
ATOM     44  C   UNL A   1      40.652  26.624  28.660  1.00  0.00     0.049 A 
ATOM     45  N   UNL A   1      43.461  27.051  27.692  1.00  0.00    -0.248 NA
ATOM     46  C   UNL A   1      43.400  24.947  26.687  1.00  0.00     0.031 C 
ATOM     47  C   UNL A   1      39.284  26.465  29.153  1.00  0.00     0.029 A 
ATOM     48  N   UNL A   1      41.019  27.874  29.094  1.00  0.00    -0.354 N 
ATOM     49  C   UNL A   1      44.683  26.802  27.074  1.00  0.00     0.074 A 
ATOM     50  C   UNL A   1      44.605  25.473  26.511  1.00  0.00     0.031 C 
ATOM     51  C   UNL A   1      38.908  27.591  29.773  1.00  0.00     0.029 A 
ATOM     52  C   UNL A   1      40.025  28.534  29.778  1.00  0.00     0.049 A 
ATOM     53  H   UNL A   1      41.910  28.261  28.932  1.00  0.00     0.167 HD
ATOM     54  C   UNL A   1      45.762  27.615  26.969  1.00  0.00     0.034 A 
ATOM     55  C   UNL A   1      40.008  29.756  30.351  1.00  0.00     0.034 A 
ATOM     56  C   UNL A   1      45.822  28.948  27.514  1.00  0.00     0.049 A 
ATOM     57  C   UNL A   1      41.230  30.633  30.242  1.00  0.00     0.074 A 
ATOM     58  C   UNL A   1      46.864  29.855  27.434  1.00  0.00     0.029 A 
ATOM     59  N   UNL A   1      44.807  29.567  28.227  1.00  0.00    -0.354 N 
ATOM     60  N   UNL A   1      42.357  30.396  29.614  1.00  0.00    -0.248 NA
ATOM     61  C   UNL A   1      41.181  31.939  30.913  1.00  0.00     0.031 C 
ATOM     62  C   UNL A   1      46.502  31.001  28.145  1.00  0.00     0.029 A 
ATOM     63  C   UNL A   1      45.208  30.837  28.614  1.00  0.00     0.049 A 
ATOM     64  H   UNL A   1      43.932  29.165  28.430  1.00  0.00     0.167 HD
ATOM     65  C   UNL A   1      43.144  31.530  29.799  1.00  0.00     0.074 A 
ATOM     66  C   UNL A   1      42.353  32.463  30.574  1.00  0.00     0.031 C 
ATOM     67  C   UNL A   1      44.410  31.769  29.373  1.00  0.00     0.034 A 
BRANCH  54  68
ATOM     68  C   UNL A   1      46.973  27.114  26.223  1.00  0.00     0.023 A 
ATOM     69  C   UNL A   1      48.002  26.445  26.913  1.00  0.00     0.031 A 
ATOM     70  C   UNL A   1      47.170  27.412  24.863  1.00  0.00     0.131 A 
ATOM     71  C   UNL A   1      49.192  26.123  26.250  1.00  0.00     0.055 A 
ATOM     72  C   UNL A   1      48.344  27.057  24.196  1.00  0.00     0.041 A 
ATOM     73  F   UNL A   1      46.220  28.049  24.160  1.00  0.00    -0.206 F 
ATOM     74  C   UNL A   1      49.367  26.420  24.894  1.00  0.00     0.022 A 
BRANCH  71  75
ATOM     75  S   UNL A   1      50.585  25.365  27.130  1.00  0.00     0.124 S 
ATOM     76  O   UNL A   1      51.023  26.458  27.996  1.00  0.00    -0.237 OA
ATOM     77  O   UNL A   1      49.943  24.247  27.814  1.00  0.00    -0.237 OA
ATOM     78  O   UNL A   1      51.518  25.004  26.068  1.00  0.00    -0.744 OA
ENDBRANCH  71  75
ENDBRANCH  54  68
BRANCH  55  79
ATOM     79  C   UNL A   1      38.761  30.223  31.028  1.00  0.00     0.023 A 
ATOM     80  C   UNL A   1      37.792  30.963  30.327  1.00  0.00     0.031 A 
ATOM     81  C   UNL A   1      38.580  30.037  32.408  1.00  0.00     0.131 A 
ATOM     82  C   UNL A   1      36.729  31.555  31.022  1.00  0.00     0.055 A 
ATOM     83  C   UNL A   1      37.479  30.566  33.084  1.00  0.00     0.041 A 
ATOM     84  F   UNL A   1      39.484  29.348  33.122  1.00  0.00    -0.206 F 
ATOM     85  C   UNL A   1      36.557  31.348  32.394  1.00  0.00     0.022 A 
BRANCH  82  86
ATOM     86  S   UNL A   1      35.624  32.734  30.197  1.00  0.00     0.124 S 
ATOM     87  O   UNL A   1      35.523  32.168  28.856  1.00  0.00    -0.237 OA
ATOM     88  O   UNL A   1      34.417  32.635  31.016  1.00  0.00    -0.237 OA
ATOM     89  O   UNL A   1      36.336  34.002  30.297  1.00  0.00    -0.744 OA
ENDBRANCH  82  86
ENDBRANCH  55  79
BRANCH  67  90
ATOM     90  C   UNL A   1      45.053  33.091  29.718  1.00  0.00     0.023 A 
ATOM     91  C   UNL A   1      45.711  33.255  30.952  1.00  0.00     0.031 A 
ATOM     92  C   UNL A   1      44.876  34.223  28.902  1.00  0.00     0.131 A 
ATOM     93  C   UNL A   1      46.134  34.528  31.352  1.00  0.00     0.055 A 
ATOM     94  C   UNL A   1      45.337  35.481  29.287  1.00  0.00     0.041 A 
ATOM     95  F   UNL A   1      44.245  34.119  27.722  1.00  0.00    -0.206 F 
ATOM     96  C   UNL A   1      45.957  35.641  30.524  1.00  0.00     0.022 A 
BRANCH  93  97
ATOM     97  S   UNL A   1      46.847  34.805  32.998  1.00  0.00     0.124 S 
ATOM     98  O   UNL A   1      45.684  35.254  33.759  1.00  0.00    -0.237 OA
ATOM     99  O   UNL A   1      47.346  33.477  33.345  1.00  0.00    -0.237 OA
ATOM    100  O   UNL A   1      47.871  35.820  32.772  1.00  0.00    -0.744 OA
ENDBRANCH  93  97
ENDBRANCH  67  90
ENDBRANCH  41  42
ENDBRANCH  33  36
ENDBRANCH  31  32
ENDBRANCH   1  31
TORSDOF 16
ENDMDL
