MODEL 1
REMARK VINA RESULT:     -12.0      0.000      0.000
REMARK SMILES Cc1ccc2occ(/C=N/NC(=O)CCC(=O)Nc3ccc(C(=O)NCCCNC(=O)c4ccc(-c5c6nc(c(-c7cc(S(=O)(=O)[O-])ccc7F)c7ccc([nH]7)c(-c7cc(S(=O)(=O)[O-])ccc7F)c7nc(c(-c8cc(S(=O)(=O)[O-])ccc8F)c8ccc5[nH]8)C=C7)C=C6)cc4)cc3)c(=O)c2c1
REMARK SMILES IDX 23 1 24 2 25 3 22 5 19 6 20 7 96 8 21 9 95 10 18 11 16 12
REMARK SMILES IDX 17 13 15 15 14 16 12 17 11 18 13 20 10 21 9 22 8 23 1 24
REMARK SMILES IDX 2 25 3 26 100 27 4 28 99 29 5 30 97 31 6 32 98 33 7 34 26 35
REMARK SMILES IDX 27 36 28 37 29 38 30 39 31 41 32 42 33 43 94 44 34 45 93 46
REMARK SMILES IDX 35 47 36 48 37 49 87 50 38 51 92 52 86 53 88 54 39 55 91 56
REMARK SMILES IDX 85 57 84 58 40 60 72 61 52 62 71 63 53 64 56 65 70 66 89 67
REMARK SMILES IDX 54 68 55 69 69 71 90 72 57 73 41 74 42 75 50 76 43 77 49 78
REMARK SMILES IDX 51 79 48 80 44 81 45 82 46 83 47 84 73 85 74 86 82 87 75 88
REMARK SMILES IDX 81 89 83 90 80 91 76 92 77 93 78 94 79 95 58 96 59 97 67 98
REMARK SMILES IDX 60 99 66 100 68 101 65 102 61 103 62 104 63 105 64 106
REMARK H PARENT 25 4 18 14 11 19 29 40 88 59 56 70
REMARK Flexibility Score: inf
ROOT
ATOM      1  C   UNL A   1      33.664  29.012  25.337  1.00  0.00     0.251 C 
ATOM      2  O   UNL A   1      33.977  29.079  24.149  1.00  0.00    -0.269 OA
ATOM      3  N   UNL A   1      33.807  30.141  26.122  1.00  0.00    -0.352 N 
ATOM      4  H   UNL A   1      34.219  30.895  25.643  1.00  0.00     0.163 HD
ENDROOT
BRANCH   1   5
ATOM      5  C   UNL A   1      33.081  27.745  25.850  1.00  0.00     0.039 A 
ATOM      6  C   UNL A   1      31.769  25.318  26.488  1.00  0.00     0.041 A 
ATOM      7  C   UNL A   1      33.125  25.314  26.154  1.00  0.00     0.027 A 
ATOM      8  C   UNL A   1      31.135  26.534  26.482  1.00  0.00     0.027 A 
ATOM      9  C   UNL A   1      33.764  26.520  25.775  1.00  0.00     0.016 A 
ATOM     10  C   UNL A   1      31.811  27.726  26.362  1.00  0.00     0.016 A 
BRANCH   6  11
ATOM     11  N   UNL A   1      31.112  24.157  26.930  1.00  0.00    -0.326 N 
ATOM     12  C   UNL A   1      30.539  23.111  26.246  1.00  0.00     0.224 C 
ATOM     13  O   UNL A   1      29.800  22.354  26.890  1.00  0.00    -0.275 OA
ATOM     14  H   UNL A   1      31.052  24.078  27.910  1.00  0.00     0.169 HD
BRANCH  12  15
ATOM     15  C   UNL A   1      30.891  22.760  24.799  1.00  0.00     0.110 C 
BRANCH  15  16
ATOM     16  C   UNL A   1      32.290  22.261  24.388  1.00  0.00     0.112 C 
BRANCH  16  17
ATOM     17  C   UNL A   1      33.124  22.981  23.317  1.00  0.00     0.240 C 
ATOM     18  N   UNL A   1      32.623  24.081  22.658  1.00  0.00    -0.247 N 
ATOM     19  H   UNL A   1      33.205  24.512  21.992  1.00  0.00     0.193 HD
ATOM     20  O   UNL A   1      34.284  22.622  23.084  1.00  0.00    -0.273 OA
BRANCH  18  21
ATOM     21  N   UNL A   1      31.392  24.619  22.852  1.00  0.00    -0.180 NA
ATOM     22  C   UNL A   1      31.436  25.888  23.084  1.00  0.00     0.148 C 
BRANCH  22  23
ATOM     23  C   UNL A   1      30.289  26.792  23.032  1.00  0.00     0.078 A 
ATOM     24  C   UNL A   1      28.835  32.814  22.588  1.00  0.00     0.044 C 
ATOM     25  C   UNL A   1      28.588  31.352  22.803  1.00  0.00    -0.050 A 
ATOM     26  C   UNL A   1      27.381  30.874  23.337  1.00  0.00     0.007 A 
ATOM     27  C   UNL A   1      29.591  30.442  22.473  1.00  0.00     0.019 A 
ATOM     28  C   UNL A   1      27.180  29.503  23.543  1.00  0.00     0.048 A 
ATOM     29  C   UNL A   1      29.397  29.085  22.722  1.00  0.00     0.066 A 
ATOM     30  C   UNL A   1      28.197  28.604  23.241  1.00  0.00     0.137 A 
ATOM     31  C   UNL A   1      30.506  28.156  22.529  1.00  0.00     0.201 A 
ATOM     32  O   UNL A   1      27.978  27.271  23.503  1.00  0.00    -0.463 OA
ATOM     33  O   UNL A   1      31.569  28.510  22.033  1.00  0.00    -0.288 OA
ATOM     34  C   UNL A   1      29.071  26.432  23.444  1.00  0.00     0.209 A 
ENDBRANCH  22  23
ENDBRANCH  18  21
ENDBRANCH  16  17
ENDBRANCH  15  16
ENDBRANCH  12  15
ENDBRANCH   6  11
ENDBRANCH   1   5
BRANCH   3  35
ATOM     35  C   UNL A   1      33.475  30.457  27.515  1.00  0.00     0.118 C 
BRANCH  35  36
ATOM     36  C   UNL A   1      32.539  31.670  27.617  1.00  0.00     0.042 C 
BRANCH  36  37
ATOM     37  C   UNL A   1      33.159  32.923  27.010  1.00  0.00     0.118 C 
BRANCH  37  38
ATOM     38  N   UNL A   1      32.844  34.107  27.799  1.00  0.00    -0.352 N 
ATOM     39  C   UNL A   1      33.368  34.544  28.989  1.00  0.00     0.251 C 
ATOM     40  H   UNL A   1      32.143  34.684  27.418  1.00  0.00     0.163 HD
ATOM     41  O   UNL A   1      32.823  35.472  29.574  1.00  0.00    -0.269 OA
BRANCH  39  42
ATOM     42  C   UNL A   1      34.559  33.887  29.572  1.00  0.00     0.039 A 
ATOM     43  C   UNL A   1      34.366  32.904  30.547  1.00  0.00     0.014 A 
ATOM     44  C   UNL A   1      35.852  34.246  29.188  1.00  0.00     0.014 A 
ATOM     45  C   UNL A   1      35.467  32.245  31.096  1.00  0.00     0.010 A 
ATOM     46  C   UNL A   1      36.945  33.538  29.682  1.00  0.00     0.010 A 
ATOM     47  C   UNL A   1      36.764  32.530  30.642  1.00  0.00    -0.014 A 
BRANCH  47  48
ATOM     48  C   UNL A   1      37.940  31.780  31.154  1.00  0.00     0.031 A 
ATOM     49  C   UNL A   1      38.532  32.122  32.493  1.00  0.00     0.074 A 
ATOM     50  C   UNL A   1      38.507  30.832  30.383  1.00  0.00     0.049 A 
ATOM     51  N   UNL A   1      39.600  31.638  33.075  1.00  0.00    -0.248 NA
ATOM     52  C   UNL A   1      37.846  33.165  33.269  1.00  0.00     0.031 C 
ATOM     53  C   UNL A   1      38.038  30.432  29.054  1.00  0.00     0.029 A 
ATOM     54  N   UNL A   1      39.605  30.036  30.598  1.00  0.00    -0.354 N 
ATOM     55  C   UNL A   1      39.721  32.324  34.279  1.00  0.00     0.074 A 
ATOM     56  C   UNL A   1      38.653  33.301  34.311  1.00  0.00     0.031 C 
ATOM     57  C   UNL A   1      38.822  29.448  28.588  1.00  0.00     0.029 A 
ATOM     58  C   UNL A   1      39.884  29.186  29.552  1.00  0.00     0.049 A 
ATOM     59  H   UNL A   1      40.142  30.071  31.422  1.00  0.00     0.167 HD
ATOM     60  C   UNL A   1      40.626  32.139  35.273  1.00  0.00     0.034 A 
ATOM     61  C   UNL A   1      40.892  28.306  29.383  1.00  0.00     0.034 A 
ATOM     62  C   UNL A   1      41.684  31.158  35.220  1.00  0.00     0.049 A 
ATOM     63  C   UNL A   1      41.919  28.160  30.478  1.00  0.00     0.074 A 
ATOM     64  C   UNL A   1      42.625  30.853  36.187  1.00  0.00     0.029 A 
ATOM     65  N   UNL A   1      41.950  30.329  34.136  1.00  0.00    -0.354 N 
ATOM     66  N   UNL A   1      41.993  28.783  31.631  1.00  0.00    -0.248 NA
ATOM     67  C   UNL A   1      42.995  27.187  30.249  1.00  0.00     0.031 C 
ATOM     68  C   UNL A   1      43.507  29.905  35.659  1.00  0.00     0.029 A 
ATOM     69  C   UNL A   1      43.064  29.546  34.397  1.00  0.00     0.049 A 
ATOM     70  H   UNL A   1      41.424  30.304  33.304  1.00  0.00     0.167 HD
ATOM     71  C   UNL A   1      43.103  28.249  32.280  1.00  0.00     0.074 A 
ATOM     72  C   UNL A   1      43.657  27.245  31.395  1.00  0.00     0.031 C 
ATOM     73  C   UNL A   1      43.614  28.555  33.500  1.00  0.00     0.034 A 
BRANCH  60  74
ATOM     74  C   UNL A   1      40.526  33.042  36.480  1.00  0.00     0.023 A 
ATOM     75  C   UNL A   1      39.757  32.692  37.604  1.00  0.00     0.031 A 
ATOM     76  C   UNL A   1      41.187  34.284  36.500  1.00  0.00     0.131 A 
ATOM     77  C   UNL A   1      39.598  33.605  38.658  1.00  0.00     0.055 A 
ATOM     78  C   UNL A   1      41.098  35.150  37.592  1.00  0.00     0.041 A 
ATOM     79  F   UNL A   1      41.919  34.687  35.449  1.00  0.00    -0.206 F 
ATOM     80  C   UNL A   1      40.286  34.820  38.673  1.00  0.00     0.022 A 
BRANCH  77  81
ATOM     81  S   UNL A   1      38.354  33.250  39.929  1.00  0.00     0.124 S 
ATOM     82  O   UNL A   1      38.327  34.508  40.674  1.00  0.00    -0.237 OA
ATOM     83  O   UNL A   1      37.168  32.951  39.136  1.00  0.00    -0.237 OA
ATOM     84  O   UNL A   1      38.921  32.117  40.658  1.00  0.00    -0.744 OA
ENDBRANCH  77  81
ENDBRANCH  60  74
BRANCH  61  85
ATOM     85  C   UNL A   1      40.993  27.504  28.130  1.00  0.00     0.023 A 
ATOM     86  C   UNL A   1      40.705  26.130  28.128  1.00  0.00     0.031 A 
ATOM     87  C   UNL A   1      41.427  28.086  26.926  1.00  0.00     0.131 A 
ATOM     88  C   UNL A   1      40.902  25.374  26.963  1.00  0.00     0.055 A 
ATOM     89  C   UNL A   1      41.562  27.341  25.752  1.00  0.00     0.041 A 
ATOM     90  F   UNL A   1      41.716  29.396  26.869  1.00  0.00    -0.206 F 
ATOM     91  C   UNL A   1      41.314  25.973  25.770  1.00  0.00     0.022 A 
BRANCH  88  92
ATOM     92  S   UNL A   1      40.711  23.573  27.055  1.00  0.00     0.124 S 
ATOM     93  O   UNL A   1      41.524  23.132  25.926  1.00  0.00    -0.237 OA
ATOM     94  O   UNL A   1      41.240  23.279  28.382  1.00  0.00    -0.237 OA
ATOM     95  O   UNL A   1      39.271  23.375  26.902  1.00  0.00    -0.744 OA
ENDBRANCH  88  92
ENDBRANCH  61  85
BRANCH  73  96
ATOM     96  C   UNL A   1      44.808  27.754  33.967  1.00  0.00     0.023 A 
ATOM     97  C   UNL A   1      44.665  26.546  34.669  1.00  0.00     0.031 A 
ATOM     98  C   UNL A   1      46.111  28.217  33.707  1.00  0.00     0.131 A 
ATOM     99  C   UNL A   1      45.803  25.871  35.139  1.00  0.00     0.055 A 
ATOM    100  C   UNL A   1      47.240  27.506  34.116  1.00  0.00     0.041 A 
ATOM    101  F   UNL A   1      46.310  29.368  33.045  1.00  0.00    -0.206 F 
ATOM    102  C   UNL A   1      47.089  26.332  34.848  1.00  0.00     0.022 A 
BRANCH  99 103
ATOM    103  S   UNL A   1      45.579  24.431  36.219  1.00  0.00     0.124 S 
ATOM    104  O   UNL A   1      46.749  23.622  35.891  1.00  0.00    -0.237 OA
ATOM    105  O   UNL A   1      45.574  25.034  37.547  1.00  0.00    -0.237 OA
ATOM    106  O   UNL A   1      44.299  23.873  35.787  1.00  0.00    -0.744 OA
ENDBRANCH  99 103
ENDBRANCH  73  96
ENDBRANCH  47  48
ENDBRANCH  39  42
ENDBRANCH  37  38
ENDBRANCH  36  37
ENDBRANCH  35  36
ENDBRANCH   3  35
TORSDOF 19
ENDMDL
MODEL 2
REMARK VINA RESULT:     -12.0      2.050      3.038
REMARK SMILES Cc1ccc2occ(/C=N/NC(=O)CCC(=O)Nc3ccc(C(=O)NCCCNC(=O)c4ccc(-c5c6nc(c(-c7cc(S(=O)(=O)[O-])ccc7F)c7ccc([nH]7)c(-c7cc(S(=O)(=O)[O-])ccc7F)c7nc(c(-c8cc(S(=O)(=O)[O-])ccc8F)c8ccc5[nH]8)C=C7)C=C6)cc4)cc3)c(=O)c2c1
REMARK SMILES IDX 23 1 24 2 25 3 22 5 19 6 20 7 96 8 21 9 95 10 18 11 16 12
REMARK SMILES IDX 17 13 15 15 14 16 12 17 11 18 13 20 10 21 9 22 8 23 1 24
REMARK SMILES IDX 2 25 3 26 100 27 4 28 99 29 5 30 97 31 6 32 98 33 7 34 26 35
REMARK SMILES IDX 27 36 28 37 29 38 30 39 31 41 32 42 33 43 94 44 34 45 93 46
REMARK SMILES IDX 35 47 36 48 37 49 87 50 38 51 92 52 86 53 88 54 39 55 91 56
REMARK SMILES IDX 85 57 84 58 40 60 72 61 52 62 71 63 53 64 56 65 70 66 89 67
REMARK SMILES IDX 54 68 55 69 69 71 90 72 57 73 41 74 42 75 50 76 43 77 49 78
REMARK SMILES IDX 51 79 48 80 44 81 45 82 46 83 47 84 73 85 74 86 82 87 75 88
REMARK SMILES IDX 81 89 83 90 80 91 76 92 77 93 78 94 79 95 58 96 59 97 67 98
REMARK SMILES IDX 60 99 66 100 68 101 65 102 61 103 62 104 63 105 64 106
REMARK H PARENT 25 4 18 14 11 19 29 40 88 59 56 70
REMARK Flexibility Score: inf
ROOT
ATOM      1  C   UNL A   1      31.159  26.328  26.685  1.00  0.00     0.251 C 
ATOM      2  O   UNL A   1      30.025  25.853  26.722  1.00  0.00    -0.269 OA
ATOM      3  N   UNL A   1      31.334  27.649  27.057  1.00  0.00    -0.352 N 
ATOM      4  H   UNL A   1      30.487  28.107  27.263  1.00  0.00     0.163 HD
ENDROOT
BRANCH   1   5
ATOM      5  C   UNL A   1      32.292  25.443  26.313  1.00  0.00     0.039 A 
ATOM      6  C   UNL A   1      34.625  23.882  25.936  1.00  0.00     0.041 A 
ATOM      7  C   UNL A   1      33.427  23.271  26.314  1.00  0.00     0.027 A 
ATOM      8  C   UNL A   1      34.599  25.243  25.770  1.00  0.00     0.027 A 
ATOM      9  C   UNL A   1      32.278  24.060  26.562  1.00  0.00     0.016 A 
ATOM     10  C   UNL A   1      33.431  25.970  25.764  1.00  0.00     0.016 A 
BRANCH   6  11
ATOM     11  N   UNL A   1      35.770  23.132  25.619  1.00  0.00    -0.326 N 
ATOM     12  C   UNL A   1      36.031  21.783  25.686  1.00  0.00     0.224 C 
ATOM     13  O   UNL A   1      37.215  21.433  25.591  1.00  0.00    -0.275 OA
ATOM     14  H   UNL A   1      36.524  23.671  25.288  1.00  0.00     0.169 HD
BRANCH  12  15
ATOM     15  C   UNL A   1      34.934  20.716  25.711  1.00  0.00     0.110 C 
BRANCH  15  16
ATOM     16  C   UNL A   1      34.996  19.449  24.837  1.00  0.00     0.112 C 
BRANCH  16  17
ATOM     17  C   UNL A   1      33.724  18.722  24.374  1.00  0.00     0.240 C 
ATOM     18  N   UNL A   1      32.565  19.423  24.129  1.00  0.00    -0.247 N 
ATOM     19  H   UNL A   1      31.783  18.910  23.821  1.00  0.00     0.193 HD
ATOM     20  O   UNL A   1      33.747  17.507  24.147  1.00  0.00    -0.273 OA
BRANCH  18  21
ATOM     21  N   UNL A   1      32.410  20.763  24.281  1.00  0.00    -0.180 NA
ATOM     22  C   UNL A   1      32.406  21.392  23.153  1.00  0.00     0.148 C 
BRANCH  22  23
ATOM     23  C   UNL A   1      31.964  22.771  22.962  1.00  0.00     0.078 A 
ATOM     24  C   UNL A   1      34.142  28.539  22.209  1.00  0.00     0.044 C 
ATOM     25  C   UNL A   1      33.109  27.478  22.439  1.00  0.00    -0.050 A 
ATOM     26  C   UNL A   1      31.808  27.789  22.864  1.00  0.00     0.007 A 
ATOM     27  C   UNL A   1      33.455  26.144  22.236  1.00  0.00     0.019 A 
ATOM     28  C   UNL A   1      30.865  26.778  23.088  1.00  0.00     0.048 A 
ATOM     29  C   UNL A   1      32.521  25.143  22.502  1.00  0.00     0.066 A 
ATOM     30  C   UNL A   1      31.226  25.447  22.913  1.00  0.00     0.137 A 
ATOM     31  C   UNL A   1      32.936  23.745  22.446  1.00  0.00     0.201 A 
ATOM     32  O   UNL A   1      30.285  24.482  23.189  1.00  0.00    -0.463 OA
ATOM     33  O   UNL A   1      34.046  23.413  22.048  1.00  0.00    -0.288 OA
ATOM     34  C   UNL A   1      30.726  23.178  23.261  1.00  0.00     0.209 A 
ENDBRANCH  22  23
ENDBRANCH  18  21
ENDBRANCH  16  17
ENDBRANCH  15  16
ENDBRANCH  12  15
ENDBRANCH   6  11
ENDBRANCH   1   5
BRANCH   3  35
ATOM     35  C   UNL A   1      32.508  28.513  27.212  1.00  0.00     0.118 C 
BRANCH  35  36
ATOM     36  C   UNL A   1      32.125  30.000  27.217  1.00  0.00     0.042 C 
BRANCH  36  37
ATOM     37  C   UNL A   1      33.219  30.874  26.613  1.00  0.00     0.118 C 
BRANCH  37  38
ATOM     38  N   UNL A   1      33.167  32.230  27.143  1.00  0.00    -0.352 N 
ATOM     39  C   UNL A   1      33.946  32.841  28.092  1.00  0.00     0.251 C 
ATOM     40  H   UNL A   1      32.460  32.797  26.758  1.00  0.00     0.163 HD
ATOM     41  O   UNL A   1      33.608  33.937  28.523  1.00  0.00    -0.269 OA
BRANCH  39  42
ATOM     42  C   UNL A   1      35.163  32.176  28.606  1.00  0.00     0.039 A 
ATOM     43  C   UNL A   1      36.353  32.908  28.651  1.00  0.00     0.014 A 
ATOM     44  C   UNL A   1      35.148  30.842  29.018  1.00  0.00     0.014 A 
ATOM     45  C   UNL A   1      37.513  32.318  29.158  1.00  0.00     0.010 A 
ATOM     46  C   UNL A   1      36.285  30.279  29.591  1.00  0.00     0.010 A 
ATOM     47  C   UNL A   1      37.480  31.011  29.667  1.00  0.00    -0.014 A 
BRANCH  47  48
ATOM     48  C   UNL A   1      38.682  30.397  30.287  1.00  0.00     0.031 A 
ATOM     49  C   UNL A   1      39.192  30.898  31.610  1.00  0.00     0.074 A 
ATOM     50  C   UNL A   1      39.345  29.426  29.627  1.00  0.00     0.049 A 
ATOM     51  N   UNL A   1      40.265  30.546  32.271  1.00  0.00    -0.248 NA
ATOM     52  C   UNL A   1      38.404  31.954  32.261  1.00  0.00     0.031 C 
ATOM     53  C   UNL A   1      38.961  28.877  28.325  1.00  0.00     0.029 A 
ATOM     54  N   UNL A   1      40.485  28.735  29.954  1.00  0.00    -0.354 N 
ATOM     55  C   UNL A   1      40.288  31.344  33.411  1.00  0.00     0.074 A 
ATOM     56  C   UNL A   1      39.155  32.240  33.314  1.00  0.00     0.031 C 
ATOM     57  C   UNL A   1      39.830  27.915  27.980  1.00  0.00     0.029 A 
ATOM     58  C   UNL A   1      40.866  27.817  29.002  1.00  0.00     0.049 A 
ATOM     59  H   UNL A   1      40.983  28.882  30.790  1.00  0.00     0.167 HD
ATOM     60  C   UNL A   1      41.161  31.314  34.449  1.00  0.00     0.034 A 
ATOM     61  C   UNL A   1      41.938  27.001  28.950  1.00  0.00     0.034 A 
ATOM     62  C   UNL A   1      42.284  30.411  34.525  1.00  0.00     0.049 A 
ATOM     63  C   UNL A   1      42.926  27.028  30.090  1.00  0.00     0.074 A 
ATOM     64  C   UNL A   1      43.202  30.263  35.550  1.00  0.00     0.029 A 
ATOM     65  N   UNL A   1      42.652  29.511  33.532  1.00  0.00    -0.354 N 
ATOM     66  N   UNL A   1      42.908  27.754  31.184  1.00  0.00    -0.248 NA
ATOM     67  C   UNL A   1      44.074  26.118  29.991  1.00  0.00     0.031 C 
ATOM     68  C   UNL A   1      44.170  29.337  35.143  1.00  0.00     0.029 A 
ATOM     69  C   UNL A   1      43.806  28.837  33.904  1.00  0.00     0.049 A 
ATOM     70  H   UNL A   1      42.165  29.373  32.687  1.00  0.00     0.167 HD
ATOM     71  C   UNL A   1      44.023  27.362  31.918  1.00  0.00     0.074 A 
ATOM     72  C   UNL A   1      44.682  26.326  31.149  1.00  0.00     0.031 C 
ATOM     73  C   UNL A   1      44.460  27.811  33.122  1.00  0.00     0.034 A 
BRANCH  60  74
ATOM     74  C   UNL A   1      40.948  32.312  35.565  1.00  0.00     0.023 A 
ATOM     75  C   UNL A   1      39.927  32.149  36.518  1.00  0.00     0.031 A 
ATOM     76  C   UNL A   1      41.759  33.457  35.662  1.00  0.00     0.131 A 
ATOM     77  C   UNL A   1      39.689  33.152  37.470  1.00  0.00     0.055 A 
ATOM     78  C   UNL A   1      41.575  34.407  36.669  1.00  0.00     0.041 A 
ATOM     79  F   UNL A   1      42.736  33.682  34.770  1.00  0.00    -0.206 F 
ATOM     80  C   UNL A   1      40.524  34.267  37.571  1.00  0.00     0.022 A 
BRANCH  77  81
ATOM     81  S   UNL A   1      38.178  33.056  38.468  1.00  0.00     0.124 S 
ATOM     82  O   UNL A   1      38.262  34.290  39.248  1.00  0.00    -0.237 OA
ATOM     83  O   UNL A   1      37.132  33.011  37.454  1.00  0.00    -0.237 OA
ATOM     84  O   UNL A   1      38.354  31.828  39.241  1.00  0.00    -0.744 OA
ENDBRANCH  77  81
ENDBRANCH  60  74
BRANCH  61  85
ATOM     85  C   UNL A   1      42.147  26.099  27.781  1.00  0.00     0.023 A 
ATOM     86  C   UNL A   1      41.712  24.765  27.812  1.00  0.00     0.031 A 
ATOM     87  C   UNL A   1      42.829  26.542  26.633  1.00  0.00     0.131 A 
ATOM     88  C   UNL A   1      42.006  23.907  26.743  1.00  0.00     0.055 A 
ATOM     89  C   UNL A   1      43.065  25.700  25.544  1.00  0.00     0.041 A 
ATOM     90  F   UNL A   1      43.267  27.808  26.548  1.00  0.00    -0.206 F 
ATOM     91  C   UNL A   1      42.666  24.369  25.601  1.00  0.00     0.022 A 
BRANCH  88  92
ATOM     92  S   UNL A   1      41.603  22.146  26.906  1.00  0.00     0.124 S 
ATOM     93  O   UNL A   1      40.189  22.198  27.262  1.00  0.00    -0.237 OA
ATOM     94  O   UNL A   1      41.912  21.639  25.574  1.00  0.00    -0.237 OA
ATOM     95  O   UNL A   1      42.497  21.690  27.968  1.00  0.00    -0.744 OA
ENDBRANCH  88  92
ENDBRANCH  61  85
BRANCH  73  96
ATOM     96  C   UNL A   1      45.685  27.144  33.703  1.00  0.00     0.023 A 
ATOM     97  C   UNL A   1      45.598  25.982  34.489  1.00  0.00     0.031 A 
ATOM     98  C   UNL A   1      46.962  27.688  33.468  1.00  0.00     0.131 A 
ATOM     99  C   UNL A   1      46.758  25.436  35.061  1.00  0.00     0.055 A 
ATOM    100  C   UNL A   1      48.118  27.100  33.982  1.00  0.00     0.041 A 
ATOM    101  F   UNL A   1      47.106  28.799  32.729  1.00  0.00    -0.206 F 
ATOM    102  C   UNL A   1      48.018  25.975  34.795  1.00  0.00     0.022 A 
BRANCH  99 103
ATOM    103  S   UNL A   1      46.588  24.066  36.237  1.00  0.00     0.124 S 
ATOM    104  O   UNL A   1      45.535  23.266  35.619  1.00  0.00    -0.237 OA
ATOM    105  O   UNL A   1      47.923  23.478  36.229  1.00  0.00    -0.237 OA
ATOM    106  O   UNL A   1      46.211  24.729  37.484  1.00  0.00    -0.744 OA
ENDBRANCH  99 103
ENDBRANCH  73  96
ENDBRANCH  47  48
ENDBRANCH  39  42
ENDBRANCH  37  38
ENDBRANCH  36  37
ENDBRANCH  35  36
ENDBRANCH   3  35
TORSDOF 19
ENDMDL
MODEL 3
REMARK VINA RESULT:     -11.8      5.931      9.109
REMARK SMILES Cc1ccc2occ(/C=N/NC(=O)CCC(=O)Nc3ccc(C(=O)NCCCNC(=O)c4ccc(-c5c6nc(c(-c7cc(S(=O)(=O)[O-])ccc7F)c7ccc([nH]7)c(-c7cc(S(=O)(=O)[O-])ccc7F)c7nc(c(-c8cc(S(=O)(=O)[O-])ccc8F)c8ccc5[nH]8)C=C7)C=C6)cc4)cc3)c(=O)c2c1
REMARK SMILES IDX 23 1 24 2 25 3 22 5 19 6 20 7 96 8 21 9 95 10 18 11 16 12
REMARK SMILES IDX 17 13 15 15 14 16 12 17 11 18 13 20 10 21 9 22 8 23 1 24
REMARK SMILES IDX 2 25 3 26 100 27 4 28 99 29 5 30 97 31 6 32 98 33 7 34 26 35
REMARK SMILES IDX 27 36 28 37 29 38 30 39 31 41 32 42 33 43 94 44 34 45 93 46
REMARK SMILES IDX 35 47 36 48 37 49 87 50 38 51 92 52 86 53 88 54 39 55 91 56
REMARK SMILES IDX 85 57 84 58 40 60 72 61 52 62 71 63 53 64 56 65 70 66 89 67
REMARK SMILES IDX 54 68 55 69 69 71 90 72 57 73 41 74 42 75 50 76 43 77 49 78
REMARK SMILES IDX 51 79 48 80 44 81 45 82 46 83 47 84 73 85 74 86 82 87 75 88
REMARK SMILES IDX 81 89 83 90 80 91 76 92 77 93 78 94 79 95 58 96 59 97 67 98
REMARK SMILES IDX 60 99 66 100 68 101 65 102 61 103 62 104 63 105 64 106
REMARK H PARENT 25 4 18 14 11 19 29 40 88 59 56 70
REMARK Flexibility Score: inf
ROOT
ATOM      1  C   UNL A   1      36.551  23.113  24.175  1.00  0.00     0.251 C 
ATOM      2  O   UNL A   1      36.685  22.624  23.054  1.00  0.00    -0.269 OA
ATOM      3  N   UNL A   1      37.680  23.309  24.949  1.00  0.00    -0.352 N 
ATOM      4  H   UNL A   1      38.501  22.965  24.529  1.00  0.00     0.163 HD
ENDROOT
BRANCH   1   5
ATOM      5  C   UNL A   1      35.195  23.535  24.612  1.00  0.00     0.039 A 
ATOM      6  C   UNL A   1      32.736  24.263  25.813  1.00  0.00     0.041 A 
ATOM      7  C   UNL A   1      33.581  25.247  25.295  1.00  0.00     0.027 A 
ATOM      8  C   UNL A   1      33.164  22.964  25.709  1.00  0.00     0.027 A 
ATOM      9  C   UNL A   1      34.838  24.886  24.752  1.00  0.00     0.016 A 
ATOM     10  C   UNL A   1      34.258  22.598  24.960  1.00  0.00     0.016 A 
BRANCH   6  11
ATOM     11  N   UNL A   1      31.456  24.570  26.304  1.00  0.00    -0.326 N 
ATOM     12  C   UNL A   1      30.385  25.217  25.732  1.00  0.00     0.224 C 
ATOM     13  O   UNL A   1      29.474  25.578  26.489  1.00  0.00    -0.275 OA
ATOM     14  H   UNL A   1      31.295  24.266  27.226  1.00  0.00     0.169 HD
BRANCH  12  15
ATOM     15  C   UNL A   1      30.204  25.366  24.219  1.00  0.00     0.110 C 
BRANCH  15  16
ATOM     16  C   UNL A   1      30.599  26.650  23.464  1.00  0.00     0.112 C 
BRANCH  16  17
ATOM     17  C   UNL A   1      29.870  27.982  23.696  1.00  0.00     0.240 C 
ATOM     18  N   UNL A   1      30.538  29.065  24.225  1.00  0.00    -0.247 N 
ATOM     19  H   UNL A   1      30.026  29.898  24.340  1.00  0.00     0.193 HD
ATOM     20  O   UNL A   1      28.693  28.120  23.346  1.00  0.00    -0.273 OA
BRANCH  18  21
ATOM     21  N   UNL A   1      31.841  29.076  24.603  1.00  0.00    -0.180 NA
ATOM     22  C   UNL A   1      32.042  29.778  25.668  1.00  0.00     0.148 C 
BRANCH  22  23
ATOM     23  C   UNL A   1      33.255  29.739  26.482  1.00  0.00     0.078 A 
ATOM     24  C   UNL A   1      37.411  33.447  29.232  1.00  0.00     0.044 C 
ATOM     25  C   UNL A   1      36.834  32.154  28.741  1.00  0.00    -0.050 A 
ATOM     26  C   UNL A   1      37.593  30.975  28.689  1.00  0.00     0.007 A 
ATOM     27  C   UNL A   1      35.508  32.126  28.313  1.00  0.00     0.019 A 
ATOM     28  C   UNL A   1      37.035  29.782  28.211  1.00  0.00     0.048 A 
ATOM     29  C   UNL A   1      34.975  30.945  27.800  1.00  0.00     0.066 A 
ATOM     30  C   UNL A   1      35.721  29.769  27.756  1.00  0.00     0.137 A 
ATOM     31  C   UNL A   1      33.644  30.960  27.203  1.00  0.00     0.201 A 
ATOM     32  O   UNL A   1      35.225  28.589  27.251  1.00  0.00    -0.463 OA
ATOM     33  O   UNL A   1      32.923  31.949  27.251  1.00  0.00    -0.288 OA
ATOM     34  C   UNL A   1      34.026  28.652  26.573  1.00  0.00     0.209 A 
ENDBRANCH  22  23
ENDBRANCH  18  21
ENDBRANCH  16  17
ENDBRANCH  15  16
ENDBRANCH  12  15
ENDBRANCH   6  11
ENDBRANCH   1   5
BRANCH   3  35
ATOM     35  C   UNL A   1      37.918  23.919  26.261  1.00  0.00     0.118 C 
BRANCH  35  36
ATOM     36  C   UNL A   1      39.277  23.505  26.845  1.00  0.00     0.042 C 
BRANCH  36  37
ATOM     37  C   UNL A   1      40.238  24.684  26.947  1.00  0.00     0.118 C 
BRANCH  37  38
ATOM     38  N   UNL A   1      41.315  24.576  25.972  1.00  0.00    -0.352 N 
ATOM     39  C   UNL A   1      42.273  25.487  25.606  1.00  0.00     0.251 C 
ATOM     40  H   UNL A   1      41.362  23.713  25.501  1.00  0.00     0.163 HD
ATOM     41  O   UNL A   1      42.971  25.255  24.626  1.00  0.00    -0.269 OA
BRANCH  39  42
ATOM     42  C   UNL A   1      42.444  26.744  26.367  1.00  0.00     0.039 A 
ATOM     43  C   UNL A   1      43.264  26.730  27.499  1.00  0.00     0.014 A 
ATOM     44  C   UNL A   1      41.790  27.919  25.992  1.00  0.00     0.014 A 
ATOM     45  C   UNL A   1      43.469  27.906  28.223  1.00  0.00     0.010 A 
ATOM     46  C   UNL A   1      42.053  29.107  26.671  1.00  0.00     0.010 A 
ATOM     47  C   UNL A   1      42.895  29.113  27.794  1.00  0.00    -0.014 A 
BRANCH  47  48
ATOM     48  C   UNL A   1      43.169  30.390  28.502  1.00  0.00     0.031 A 
ATOM     49  C   UNL A   1      42.274  30.843  29.622  1.00  0.00     0.074 A 
ATOM     50  C   UNL A   1      44.193  31.166  28.094  1.00  0.00     0.049 A 
ATOM     51  N   UNL A   1      42.302  31.958  30.305  1.00  0.00    -0.248 NA
ATOM     52  C   UNL A   1      41.186  29.931  30.004  1.00  0.00     0.031 C 
ATOM     53  C   UNL A   1      45.113  30.844  27.001  1.00  0.00     0.029 A 
ATOM     54  N   UNL A   1      44.628  32.388  28.542  1.00  0.00    -0.354 N 
ATOM     55  C   UNL A   1      41.232  31.889  31.191  1.00  0.00     0.074 A 
ATOM     56  C   UNL A   1      40.539  30.649  30.911  1.00  0.00     0.031 C 
ATOM     57  C   UNL A   1      46.020  31.827  26.885  1.00  0.00     0.029 A 
ATOM     58  C   UNL A   1      45.714  32.876  27.851  1.00  0.00     0.049 A 
ATOM     59  H   UNL A   1      44.203  32.871  29.287  1.00  0.00     0.167 HD
ATOM     60  C   UNL A   1      40.876  32.768  32.162  1.00  0.00     0.034 A 
ATOM     61  C   UNL A   1      46.377  34.043  27.971  1.00  0.00     0.034 A 
ATOM     62  C   UNL A   1      41.582  33.999  32.425  1.00  0.00     0.049 A 
ATOM     63  C   UNL A   1      45.926  35.030  29.019  1.00  0.00     0.074 A 
ATOM     64  C   UNL A   1      41.338  34.938  33.411  1.00  0.00     0.029 A 
ATOM     65  N   UNL A   1      42.664  34.470  31.690  1.00  0.00    -0.354 N 
ATOM     66  N   UNL A   1      44.940  34.929  29.881  1.00  0.00    -0.248 NA
ATOM     67  C   UNL A   1      46.682  36.285  29.114  1.00  0.00     0.031 C 
ATOM     68  C   UNL A   1      42.214  36.012  33.222  1.00  0.00     0.029 A 
ATOM     69  C   UNL A   1      43.068  35.705  32.177  1.00  0.00     0.049 A 
ATOM     70  H   UNL A   1      43.081  33.998  30.934  1.00  0.00     0.167 HD
ATOM     71  C   UNL A   1      44.983  36.092  30.644  1.00  0.00     0.074 A 
ATOM     72  C   UNL A   1      46.099  36.872  30.149  1.00  0.00     0.031 C 
ATOM     73  C   UNL A   1      44.178  36.479  31.667  1.00  0.00     0.034 A 
BRANCH  60  74
ATOM     74  C   UNL A   1      39.650  32.438  32.982  1.00  0.00     0.023 A 
ATOM     75  C   UNL A   1      38.382  32.949  32.654  1.00  0.00     0.031 A 
ATOM     76  C   UNL A   1      39.752  31.622  34.123  1.00  0.00     0.131 A 
ATOM     77  C   UNL A   1      37.289  32.713  33.502  1.00  0.00     0.055 A 
ATOM     78  C   UNL A   1      38.642  31.315  34.912  1.00  0.00     0.041 A 
ATOM     79  F   UNL A   1      40.938  31.121  34.502  1.00  0.00    -0.206 F 
ATOM     80  C   UNL A   1      37.404  31.875  34.613  1.00  0.00     0.022 A 
BRANCH  77  81
ATOM     81  S   UNL A   1      35.758  33.644  33.221  1.00  0.00     0.124 S 
ATOM     82  O   UNL A   1      36.252  35.020  33.195  1.00  0.00    -0.237 OA
ATOM     83  O   UNL A   1      35.292  33.109  31.947  1.00  0.00    -0.237 OA
ATOM     84  O   UNL A   1      34.934  33.309  34.380  1.00  0.00    -0.744 OA
ENDBRANCH  77  81
ENDBRANCH  60  74
BRANCH  61  85
ATOM     85  C   UNL A   1      47.526  34.356  27.073  1.00  0.00     0.023 A 
ATOM     86  C   UNL A   1      48.844  34.065  27.461  1.00  0.00     0.031 A 
ATOM     87  C   UNL A   1      47.331  34.995  25.836  1.00  0.00     0.131 A 
ATOM     88  C   UNL A   1      49.917  34.457  26.647  1.00  0.00     0.055 A 
ATOM     89  C   UNL A   1      48.399  35.328  25.000  1.00  0.00     0.041 A 
ATOM     90  F   UNL A   1      46.093  35.297  25.415  1.00  0.00    -0.206 F 
ATOM     91  C   UNL A   1      49.703  35.073  25.412  1.00  0.00     0.022 A 
BRANCH  88  92
ATOM     92  S   UNL A   1      51.605  34.243  27.274  1.00  0.00     0.124 S 
ATOM     93  O   UNL A   1      51.926  35.593  27.726  1.00  0.00    -0.237 OA
ATOM     94  O   UNL A   1      51.416  33.243  28.319  1.00  0.00    -0.237 OA
ATOM     95  O   UNL A   1      52.347  33.784  26.101  1.00  0.00    -0.744 OA
ENDBRANCH  88  92
ENDBRANCH  61  85
BRANCH  73  96
ATOM     96  C   UNL A   1      44.511  37.784  32.350  1.00  0.00     0.023 A 
ATOM     97  C   UNL A   1      43.819  38.973  32.062  1.00  0.00     0.031 A 
ATOM     98  C   UNL A   1      45.547  37.837  33.302  1.00  0.00     0.131 A 
ATOM     99  C   UNL A   1      44.208  40.175  32.675  1.00  0.00     0.055 A 
ATOM    100  C   UNL A   1      45.883  39.021  33.958  1.00  0.00     0.041 A 
ATOM    101  F   UNL A   1      46.246  36.734  33.613  1.00  0.00    -0.206 F 
ATOM    102  C   UNL A   1      45.221  40.202  33.636  1.00  0.00     0.022 A 
BRANCH  99 103
ATOM    103  S   UNL A   1      43.437  41.722  32.127  1.00  0.00     0.124 S 
ATOM    104  O   UNL A   1      43.789  41.751  30.711  1.00  0.00    -0.237 OA
ATOM    105  O   UNL A   1      42.028  41.494  32.428  1.00  0.00    -0.237 OA
ATOM    106  O   UNL A   1      44.088  42.741  32.949  1.00  0.00    -0.744 OA
ENDBRANCH  99 103
ENDBRANCH  73  96
ENDBRANCH  47  48
ENDBRANCH  39  42
ENDBRANCH  37  38
ENDBRANCH  36  37
ENDBRANCH  35  36
ENDBRANCH   3  35
TORSDOF 19
ENDMDL
