MODEL 1
REMARK VINA RESULT:     -12.3      0.000      0.000
REMARK SMILES CC(C)(C[N@@H+]1C[C@@H]2C[NH2+]C[C@H]2C1(C)C)C(=O)NCCCNC(=O)c1ccc(-c2c3nc(c(-c4cc(S(=O)(=O)[O-])ccc4F)c4ccc([nH]4)c(-c4cc(S(=O)(=O)[O-])ccc4F)c4nc(c(-c5cc(S(=O)(=O)[O-])ccc5F)c5ccc2[nH]5)C=C4)C=C3)cc1
REMARK SMILES IDX 19 1 18 2 17 3 15 4 16 5 2 7 1 8 3 9 4 10 5 11 6 12 12 13
REMARK SMILES IDX 7 15 11 16 13 17 14 18 8 19 10 20 9 21 20 24 21 25 22 26
REMARK SMILES IDX 23 28 24 29 25 30 86 31 26 32 85 33 27 34 28 35 29 36 79 37
REMARK SMILES IDX 30 38 84 39 78 40 80 41 31 42 83 43 77 44 76 45 32 47 64 48
REMARK SMILES IDX 44 49 63 50 45 51 48 52 62 53 81 54 46 55 47 56 61 58 82 59
REMARK SMILES IDX 49 60 33 61 34 62 42 63 35 64 41 65 43 66 40 67 36 68 37 69
REMARK SMILES IDX 38 70 39 71 65 72 66 73 74 74 67 75 73 76 75 77 72 78 68 79
REMARK SMILES IDX 69 80 70 81 71 82 50 83 51 84 59 85 52 86 58 87 60 88 57 89
REMARK SMILES IDX 53 90 54 91 55 92 56 93
REMARK H PARENT 17 6 5 14 9 22 9 23 21 27 80 46 48 57
REMARK Flexibility Score: inf
ROOT
ATOM      1  C   UNL A   1      33.260  28.916  23.309  1.00  0.00     0.042 C 
ENDROOT
BRANCH   1   2
ATOM      2  C   UNL A   1      32.238  27.915  22.778  1.00  0.00     0.117 C 
BRANCH   2   3
ATOM      3  N   UNL A   1      32.672  27.139  21.623  1.00  0.00    -0.355 N 
ATOM      4  C   UNL A   1      32.882  25.803  21.428  1.00  0.00     0.231 C 
ATOM      5  O   UNL A   1      32.967  25.441  20.248  1.00  0.00    -0.274 OA
ATOM      6  H   UNL A   1      32.849  27.687  20.825  1.00  0.00     0.163 HD
BRANCH   4   7
ATOM      7  C   UNL A   1      32.977  24.790  22.580  1.00  0.00     0.092 C 
ATOM      8  C   UNL A   1      33.277  23.362  22.050  1.00  0.00     0.027 C 
ATOM      9  C   UNL A   1      31.564  24.653  23.199  1.00  0.00     0.027 C 
BRANCH   7  10
ATOM     10  C   UNL A   1      34.045  25.212  23.636  1.00  0.00     0.279 C 
BRANCH  10  11
ATOM     11  N   UNL A   1      34.297  24.341  24.767  1.00  0.00    -0.329 N 
ATOM     12  C   UNL A   1      33.480  24.527  25.975  1.00  0.00     0.272 C 
ATOM     13  C   UNL A   1      35.374  23.352  25.002  1.00  0.00     0.101 C 
ATOM     14  H   UNL A   1      34.313  24.054  23.788  1.00  0.00     0.348 HD
ATOM     15  C   UNL A   1      33.352  23.071  26.282  1.00  0.00     0.114 C 
ATOM     16  C   UNL A   1      34.795  22.606  26.225  1.00  0.00     0.119 C 
ATOM     17  C   UNL A   1      35.764  22.375  23.893  1.00  0.00     0.079 C 
ATOM     18  C   UNL A   1      36.673  24.077  25.420  1.00  0.00     0.079 C 
ATOM     19  C   UNL A   1      32.903  22.443  27.565  1.00  0.00     0.270 C 
ATOM     20  C   UNL A   1      34.535  21.125  26.373  1.00  0.00     0.271 C 
ATOM     21  N   UNL A   1      33.480  21.071  27.437  1.00  0.00    -0.345 N 
ATOM     22  H   UNL A   1      32.752  20.409  27.171  1.00  0.00     0.346 HD
ATOM     23  H   UNL A   1      33.881  20.765  28.324  1.00  0.00     0.346 HD
ENDBRANCH  10  11
ENDBRANCH   7  10
ENDBRANCH   4   7
ENDBRANCH   2   3
ENDBRANCH   1   2
BRANCH   1  24
ATOM     24  C   UNL A   1      33.384  28.981  24.824  1.00  0.00     0.118 C 
BRANCH  24  25
ATOM     25  N   UNL A   1      32.719  30.146  25.386  1.00  0.00    -0.352 N 
ATOM     26  C   UNL A   1      32.949  30.849  26.541  1.00  0.00     0.251 C 
ATOM     27  H   UNL A   1      31.974  30.491  24.843  1.00  0.00     0.163 HD
ATOM     28  O   UNL A   1      32.089  31.652  26.915  1.00  0.00    -0.269 OA
BRANCH  26  29
ATOM     29  C   UNL A   1      34.175  30.656  27.349  1.00  0.00     0.039 A 
ATOM     30  C   UNL A   1      34.417  29.396  27.909  1.00  0.00     0.014 A 
ATOM     31  C   UNL A   1      35.053  31.707  27.626  1.00  0.00     0.014 A 
ATOM     32  C   UNL A   1      35.561  29.177  28.684  1.00  0.00     0.010 A 
ATOM     33  C   UNL A   1      36.235  31.468  28.329  1.00  0.00     0.010 A 
ATOM     34  C   UNL A   1      36.501  30.201  28.870  1.00  0.00    -0.014 A 
BRANCH  34  35
ATOM     35  C   UNL A   1      37.761  29.970  29.630  1.00  0.00     0.031 A 
ATOM     36  C   UNL A   1      38.826  29.060  29.077  1.00  0.00     0.074 A 
ATOM     37  C   UNL A   1      37.919  30.530  30.847  1.00  0.00     0.049 A 
ATOM     38  N   UNL A   1      39.941  28.656  29.631  1.00  0.00    -0.248 NA
ATOM     39  C   UNL A   1      38.591  28.510  27.733  1.00  0.00     0.031 C 
ATOM     40  C   UNL A   1      36.949  31.408  31.505  1.00  0.00     0.029 A 
ATOM     41  N   UNL A   1      38.948  30.438  31.752  1.00  0.00    -0.354 N 
ATOM     42  C   UNL A   1      40.533  27.795  28.712  1.00  0.00     0.074 A 
ATOM     43  C   UNL A   1      39.623  27.692  27.591  1.00  0.00     0.031 C 
ATOM     44  C   UNL A   1      37.437  31.788  32.696  1.00  0.00     0.029 A 
ATOM     45  C   UNL A   1      38.727  31.143  32.913  1.00  0.00     0.049 A 
ATOM     46  H   UNL A   1      39.765  29.917  31.586  1.00  0.00     0.167 HD
ATOM     47  C   UNL A   1      41.733  27.165  28.788  1.00  0.00     0.034 A 
ATOM     48  C   UNL A   1      39.471  31.248  34.033  1.00  0.00     0.034 A 
ATOM     49  C   UNL A   1      42.637  27.288  29.906  1.00  0.00     0.049 A 
ATOM     50  C   UNL A   1      40.787  30.514  34.105  1.00  0.00     0.074 A 
ATOM     51  C   UNL A   1      43.895  26.732  30.062  1.00  0.00     0.029 A 
ATOM     52  N   UNL A   1      42.380  28.013  31.062  1.00  0.00    -0.354 N 
ATOM     53  N   UNL A   1      41.348  29.733  33.211  1.00  0.00    -0.248 NA
ATOM     54  C   UNL A   1      41.574  30.684  35.334  1.00  0.00     0.031 C 
ATOM     55  C   UNL A   1      44.369  27.065  31.336  1.00  0.00     0.029 A 
ATOM     56  C   UNL A   1      43.442  27.895  31.946  1.00  0.00     0.049 A 
ATOM     57  H   UNL A   1      41.562  28.536  31.231  1.00  0.00     0.167 HD
ATOM     58  C   UNL A   1      42.569  29.348  33.757  1.00  0.00     0.074 A 
ATOM     59  C   UNL A   1      42.668  29.993  35.050  1.00  0.00     0.031 C 
ATOM     60  C   UNL A   1      43.526  28.538  33.236  1.00  0.00     0.034 A 
BRANCH  47  61
ATOM     61  C   UNL A   1      42.123  26.267  27.637  1.00  0.00     0.023 A 
ATOM     62  C   UNL A   1      41.680  24.935  27.556  1.00  0.00     0.031 A 
ATOM     63  C   UNL A   1      42.961  26.743  26.611  1.00  0.00     0.131 A 
ATOM     64  C   UNL A   1      42.132  24.107  26.517  1.00  0.00     0.055 A 
ATOM     65  C   UNL A   1      43.342  25.938  25.536  1.00  0.00     0.041 A 
ATOM     66  F   UNL A   1      43.432  28.000  26.643  1.00  0.00    -0.206 F 
ATOM     67  C   UNL A   1      42.939  24.606  25.492  1.00  0.00     0.022 A 
BRANCH  64  68
ATOM     68  S   UNL A   1      41.762  22.333  26.599  1.00  0.00     0.124 S 
ATOM     69  O   UNL A   1      42.382  21.962  27.869  1.00  0.00    -0.237 OA
ATOM     70  O   UNL A   1      40.303  22.313  26.571  1.00  0.00    -0.237 OA
ATOM     71  O   UNL A   1      42.417  21.791  25.412  1.00  0.00    -0.744 OA
ENDBRANCH  64  68
ENDBRANCH  47  61
BRANCH  48  72
ATOM     72  C   UNL A   1      38.993  32.061  35.188  1.00  0.00     0.023 A 
ATOM     73  C   UNL A   1      38.491  31.445  36.346  1.00  0.00     0.031 A 
ATOM     74  C   UNL A   1      38.980  33.466  35.131  1.00  0.00     0.131 A 
ATOM     75  C   UNL A   1      37.947  32.228  37.376  1.00  0.00     0.055 A 
ATOM     76  C   UNL A   1      38.491  34.243  36.184  1.00  0.00     0.041 A 
ATOM     77  F   UNL A   1      39.452  34.107  34.051  1.00  0.00    -0.206 F 
ATOM     78  C   UNL A   1      37.956  33.623  37.309  1.00  0.00     0.022 A 
BRANCH  75  79
ATOM     79  S   UNL A   1      37.136  31.390  38.767  1.00  0.00     0.124 S 
ATOM     80  O   UNL A   1      35.889  32.137  38.875  1.00  0.00    -0.237 OA
ATOM     81  O   UNL A   1      37.027  30.022  38.272  1.00  0.00    -0.237 OA
ATOM     82  O   UNL A   1      38.076  31.579  39.870  1.00  0.00    -0.744 OA
ENDBRANCH  75  79
ENDBRANCH  48  72
BRANCH  60  83
ATOM     83  C   UNL A   1      44.783  28.350  34.050  1.00  0.00     0.023 A 
ATOM     84  C   UNL A   1      45.890  29.206  33.915  1.00  0.00     0.031 A 
ATOM     85  C   UNL A   1      44.877  27.287  34.966  1.00  0.00     0.131 A 
ATOM     86  C   UNL A   1      47.062  28.951  34.641  1.00  0.00     0.055 A 
ATOM     87  C   UNL A   1      46.026  27.075  35.730  1.00  0.00     0.041 A 
ATOM     88  F   UNL A   1      43.852  26.436  35.134  1.00  0.00    -0.206 F 
ATOM     89  C   UNL A   1      47.131  27.902  35.561  1.00  0.00     0.022 A 
BRANCH  86  90
ATOM     90  S   UNL A   1      48.534  29.958  34.301  1.00  0.00     0.124 S 
ATOM     91  O   UNL A   1      48.018  31.313  34.461  1.00  0.00    -0.237 OA
ATOM     92  O   UNL A   1      49.465  29.506  35.330  1.00  0.00    -0.237 OA
ATOM     93  O   UNL A   1      48.895  29.587  32.935  1.00  0.00    -0.744 OA
ENDBRANCH  86  90
ENDBRANCH  60  83
ENDBRANCH  34  35
ENDBRANCH  26  29
ENDBRANCH  24  25
ENDBRANCH   1  24
TORSDOF 15
ENDMDL
MODEL 2
REMARK VINA RESULT:     -12.3      4.606      9.879
REMARK SMILES CC(C)(C[N@@H+]1C[C@@H]2C[NH2+]C[C@H]2C1(C)C)C(=O)NCCCNC(=O)c1ccc(-c2c3nc(c(-c4cc(S(=O)(=O)[O-])ccc4F)c4ccc([nH]4)c(-c4cc(S(=O)(=O)[O-])ccc4F)c4nc(c(-c5cc(S(=O)(=O)[O-])ccc5F)c5ccc2[nH]5)C=C4)C=C3)cc1
REMARK SMILES IDX 19 1 18 2 17 3 15 4 16 5 2 7 1 8 3 9 4 10 5 11 6 12 12 13
REMARK SMILES IDX 7 15 11 16 13 17 14 18 8 19 10 20 9 21 20 24 21 25 22 26
REMARK SMILES IDX 23 28 24 29 25 30 86 31 26 32 85 33 27 34 28 35 29 36 79 37
REMARK SMILES IDX 30 38 84 39 78 40 80 41 31 42 83 43 77 44 76 45 32 47 64 48
REMARK SMILES IDX 44 49 63 50 45 51 48 52 62 53 81 54 46 55 47 56 61 58 82 59
REMARK SMILES IDX 49 60 33 61 34 62 42 63 35 64 41 65 43 66 40 67 36 68 37 69
REMARK SMILES IDX 38 70 39 71 65 72 66 73 74 74 67 75 73 76 75 77 72 78 68 79
REMARK SMILES IDX 69 80 70 81 71 82 50 83 51 84 59 85 52 86 58 87 60 88 57 89
REMARK SMILES IDX 53 90 54 91 55 92 56 93
REMARK H PARENT 17 6 5 14 9 22 9 23 21 27 80 46 48 57
REMARK Flexibility Score: inf
ROOT
ATOM      1  C   UNL A   1      35.335  21.932  26.379  1.00  0.00     0.042 C 
ENDROOT
BRANCH   1   2
ATOM      2  C   UNL A   1      33.926  21.387  26.166  1.00  0.00     0.117 C 
BRANCH   2   3
ATOM      3  N   UNL A   1      32.900  21.967  27.024  1.00  0.00    -0.355 N 
ATOM      4  C   UNL A   1      31.937  22.912  26.811  1.00  0.00     0.231 C 
ATOM      5  O   UNL A   1      31.041  22.965  27.663  1.00  0.00    -0.274 OA
ATOM      6  H   UNL A   1      32.901  21.604  27.939  1.00  0.00     0.163 HD
BRANCH   4   7
ATOM      7  C   UNL A   1      31.925  23.839  25.585  1.00  0.00     0.092 C 
ATOM      8  C   UNL A   1      31.907  23.024  24.264  1.00  0.00     0.027 C 
ATOM      9  C   UNL A   1      33.292  24.567  25.538  1.00  0.00     0.027 C 
BRANCH   7  10
ATOM     10  C   UNL A   1      30.727  24.837  25.624  1.00  0.00     0.279 C 
BRANCH  10  11
ATOM     11  N   UNL A   1      30.941  26.209  25.209  1.00  0.00    -0.329 N 
ATOM     12  C   UNL A   1      31.197  27.212  26.253  1.00  0.00     0.272 C 
ATOM     13  C   UNL A   1      30.796  26.850  23.882  1.00  0.00     0.101 C 
ATOM     14  H   UNL A   1      31.290  25.385  24.720  1.00  0.00     0.348 HD
ATOM     15  C   UNL A   1      32.220  27.970  25.472  1.00  0.00     0.114 C 
ATOM     16  C   UNL A   1      31.507  28.195  24.151  1.00  0.00     0.119 C 
ATOM     17  C   UNL A   1      31.364  26.164  22.640  1.00  0.00     0.079 C 
ATOM     18  C   UNL A   1      29.303  27.118  23.587  1.00  0.00     0.079 C 
ATOM     19  C   UNL A   1      32.747  29.344  25.746  1.00  0.00     0.270 C 
ATOM     20  C   UNL A   1      32.668  28.800  23.397  1.00  0.00     0.271 C 
ATOM     21  N   UNL A   1      33.280  29.726  24.404  1.00  0.00    -0.345 N 
ATOM     22  H   UNL A   1      34.296  29.631  24.391  1.00  0.00     0.346 HD
ATOM     23  H   UNL A   1      33.049  30.695  24.188  1.00  0.00     0.346 HD
ENDBRANCH  10  11
ENDBRANCH   7  10
ENDBRANCH   4   7
ENDBRANCH   2   3
ENDBRANCH   1   2
BRANCH   1  24
ATOM     24  C   UNL A   1      36.287  21.755  25.206  1.00  0.00     0.118 C 
BRANCH  24  25
ATOM     25  N   UNL A   1      37.269  20.710  25.440  1.00  0.00    -0.352 N 
ATOM     26  C   UNL A   1      38.603  20.774  25.752  1.00  0.00     0.251 C 
ATOM     27  H   UNL A   1      36.915  19.794  25.362  1.00  0.00     0.163 HD
ATOM     28  O   UNL A   1      39.274  19.742  25.660  1.00  0.00    -0.269 OA
BRANCH  26  29
ATOM     29  C   UNL A   1      39.253  22.037  26.172  1.00  0.00     0.039 A 
ATOM     30  C   UNL A   1      40.357  21.971  27.030  1.00  0.00     0.014 A 
ATOM     31  C   UNL A   1      38.755  23.287  25.795  1.00  0.00     0.014 A 
ATOM     32  C   UNL A   1      40.993  23.143  27.453  1.00  0.00     0.010 A 
ATOM     33  C   UNL A   1      39.439  24.452  26.149  1.00  0.00     0.010 A 
ATOM     34  C   UNL A   1      40.564  24.394  26.986  1.00  0.00    -0.014 A 
BRANCH  34  35
ATOM     35  C   UNL A   1      41.270  25.649  27.365  1.00  0.00     0.031 A 
ATOM     36  C   UNL A   1      40.566  26.698  28.186  1.00  0.00     0.074 A 
ATOM     37  C   UNL A   1      42.523  25.871  26.919  1.00  0.00     0.049 A 
ATOM     38  N   UNL A   1      40.975  27.893  28.531  1.00  0.00    -0.248 NA
ATOM     39  C   UNL A   1      39.213  26.369  28.657  1.00  0.00     0.031 C 
ATOM     40  C   UNL A   1      43.302  24.946  26.093  1.00  0.00     0.029 A 
ATOM     41  N   UNL A   1      43.360  26.947  27.087  1.00  0.00    -0.354 N 
ATOM     42  C   UNL A   1      39.927  28.463  29.246  1.00  0.00     0.074 A 
ATOM     43  C   UNL A   1      38.843  27.502  29.233  1.00  0.00     0.031 C 
ATOM     44  C   UNL A   1      44.506  25.484  25.844  1.00  0.00     0.029 A 
ATOM     45  C   UNL A   1      44.570  26.812  26.445  1.00  0.00     0.049 A 
ATOM     46  H   UNL A   1      43.116  27.740  27.616  1.00  0.00     0.167 HD
ATOM     47  C   UNL A   1      39.879  29.667  29.871  1.00  0.00     0.034 A 
ATOM     48  C   UNL A   1      45.608  27.666  26.339  1.00  0.00     0.034 A 
ATOM     49  C   UNL A   1      40.973  30.608  29.887  1.00  0.00     0.049 A 
ATOM     50  C   UNL A   1      45.520  29.010  27.017  1.00  0.00     0.074 A 
ATOM     51  C   UNL A   1      41.047  31.832  30.530  1.00  0.00     0.029 A 
ATOM     52  N   UNL A   1      42.183  30.435  29.229  1.00  0.00    -0.354 N 
ATOM     53  N   UNL A   1      44.534  29.518  27.720  1.00  0.00    -0.248 NA
ATOM     54  C   UNL A   1      46.688  29.892  26.897  1.00  0.00     0.031 C 
ATOM     55  C   UNL A   1      42.271  32.427  30.206  1.00  0.00     0.029 A 
ATOM     56  C   UNL A   1      42.997  31.541  29.425  1.00  0.00     0.049 A 
ATOM     57  H   UNL A   1      42.429  29.642  28.698  1.00  0.00     0.167 HD
ATOM     58  C   UNL A   1      44.978  30.763  28.153  1.00  0.00     0.074 A 
ATOM     59  C   UNL A   1      46.325  30.923  27.644  1.00  0.00     0.031 C 
ATOM     60  C   UNL A   1      44.335  31.691  28.907  1.00  0.00     0.034 A 
BRANCH  47  61
ATOM     61  C   UNL A   1      38.592  30.039  30.568  1.00  0.00     0.023 A 
ATOM     62  C   UNL A   1      37.585  30.773  29.917  1.00  0.00     0.031 A 
ATOM     63  C   UNL A   1      38.372  29.670  31.908  1.00  0.00     0.131 A 
ATOM     64  C   UNL A   1      36.440  31.175  30.624  1.00  0.00     0.055 A 
ATOM     65  C   UNL A   1      37.194  30.002  32.581  1.00  0.00     0.041 A 
ATOM     66  F   UNL A   1      39.304  28.985  32.589  1.00  0.00    -0.206 F 
ATOM     67  C   UNL A   1      36.225  30.771  31.943  1.00  0.00     0.022 A 
BRANCH  64  68
ATOM     68  S   UNL A   1      35.301  32.345  29.835  1.00  0.00     0.124 S 
ATOM     69  O   UNL A   1      36.208  33.426  29.455  1.00  0.00    -0.237 OA
ATOM     70  O   UNL A   1      34.750  31.558  28.736  1.00  0.00    -0.237 OA
ATOM     71  O   UNL A   1      34.359  32.677  30.900  1.00  0.00    -0.744 OA
ENDBRANCH  64  68
ENDBRANCH  47  61
BRANCH  48  72
ATOM     72  C   UNL A   1      46.816  27.295  25.547  1.00  0.00     0.023 A 
ATOM     73  C   UNL A   1      47.001  27.778  24.241  1.00  0.00     0.031 A 
ATOM     74  C   UNL A   1      47.779  26.409  26.064  1.00  0.00     0.131 A 
ATOM     75  C   UNL A   1      48.090  27.331  23.477  1.00  0.00     0.055 A 
ATOM     76  C   UNL A   1      48.892  26.013  25.320  1.00  0.00     0.041 A 
ATOM     77  F   UNL A   1      47.655  25.920  27.308  1.00  0.00    -0.206 F 
ATOM     78  C   UNL A   1      49.044  26.463  24.012  1.00  0.00     0.022 A 
BRANCH  75  79
ATOM     79  S   UNL A   1      48.188  27.827  21.735  1.00  0.00     0.124 S 
ATOM     80  O   UNL A   1      48.324  26.538  21.067  1.00  0.00    -0.237 OA
ATOM     81  O   UNL A   1      46.917  28.518  21.545  1.00  0.00    -0.237 OA
ATOM     82  O   UNL A   1      49.373  28.681  21.692  1.00  0.00    -0.744 OA
ENDBRANCH  75  79
ENDBRANCH  48  72
BRANCH  60  83
ATOM     83  C   UNL A   1      45.107  32.938  29.266  1.00  0.00     0.023 A 
ATOM     84  C   UNL A   1      45.065  34.093  28.467  1.00  0.00     0.031 A 
ATOM     85  C   UNL A   1      45.907  32.962  30.423  1.00  0.00     0.131 A 
ATOM     86  C   UNL A   1      45.853  35.204  28.803  1.00  0.00     0.055 A 
ATOM     87  C   UNL A   1      46.642  34.093  30.785  1.00  0.00     0.041 A 
ATOM     88  F   UNL A   1      45.987  31.886  31.221  1.00  0.00    -0.206 F 
ATOM     89  C   UNL A   1      46.627  35.217  29.967  1.00  0.00     0.022 A 
BRANCH  86  90
ATOM     90  S   UNL A   1      45.923  36.604  27.650  1.00  0.00     0.124 S 
ATOM     91  O   UNL A   1      46.701  37.580  28.405  1.00  0.00    -0.237 OA
ATOM     92  O   UNL A   1      46.588  36.019  26.490  1.00  0.00    -0.237 OA
ATOM     93  O   UNL A   1      44.519  36.952  27.447  1.00  0.00    -0.744 OA
ENDBRANCH  86  90
ENDBRANCH  60  83
ENDBRANCH  34  35
ENDBRANCH  26  29
ENDBRANCH  24  25
ENDBRANCH   1  24
TORSDOF 15
ENDMDL
MODEL 3
REMARK VINA RESULT:     -12.3      1.930      2.444
REMARK SMILES CC(C)(C[N@@H+]1C[C@@H]2C[NH2+]C[C@H]2C1(C)C)C(=O)NCCCNC(=O)c1ccc(-c2c3nc(c(-c4cc(S(=O)(=O)[O-])ccc4F)c4ccc([nH]4)c(-c4cc(S(=O)(=O)[O-])ccc4F)c4nc(c(-c5cc(S(=O)(=O)[O-])ccc5F)c5ccc2[nH]5)C=C4)C=C3)cc1
REMARK SMILES IDX 19 1 18 2 17 3 15 4 16 5 2 7 1 8 3 9 4 10 5 11 6 12 12 13
REMARK SMILES IDX 7 15 11 16 13 17 14 18 8 19 10 20 9 21 20 24 21 25 22 26
REMARK SMILES IDX 23 28 24 29 25 30 86 31 26 32 85 33 27 34 28 35 29 36 79 37
REMARK SMILES IDX 30 38 84 39 78 40 80 41 31 42 83 43 77 44 76 45 32 47 64 48
REMARK SMILES IDX 44 49 63 50 45 51 48 52 62 53 81 54 46 55 47 56 61 58 82 59
REMARK SMILES IDX 49 60 33 61 34 62 42 63 35 64 41 65 43 66 40 67 36 68 37 69
REMARK SMILES IDX 38 70 39 71 65 72 66 73 74 74 67 75 73 76 75 77 72 78 68 79
REMARK SMILES IDX 69 80 70 81 71 82 50 83 51 84 59 85 52 86 58 87 60 88 57 89
REMARK SMILES IDX 53 90 54 91 55 92 56 93
REMARK H PARENT 17 6 5 14 9 22 9 23 21 27 80 46 48 57
REMARK Flexibility Score: inf
ROOT
ATOM      1  C   UNL A   1      31.777  28.960  26.751  1.00  0.00     0.042 C 
ENDROOT
BRANCH   1   2
ATOM      2  C   UNL A   1      32.308  27.534  26.868  1.00  0.00     0.117 C 
BRANCH   2   3
ATOM      3  N   UNL A   1      31.290  26.491  26.882  1.00  0.00    -0.355 N 
ATOM      4  C   UNL A   1      30.907  25.555  25.964  1.00  0.00     0.231 C 
ATOM      5  O   UNL A   1      30.208  24.632  26.400  1.00  0.00    -0.274 OA
ATOM      6  H   UNL A   1      30.777  26.455  27.721  1.00  0.00     0.163 HD
BRANCH   4   7
ATOM      7  C   UNL A   1      31.330  25.604  24.487  1.00  0.00     0.092 C 
ATOM      8  C   UNL A   1      30.932  26.954  23.832  1.00  0.00     0.027 C 
ATOM      9  C   UNL A   1      30.471  24.568  23.721  1.00  0.00     0.027 C 
BRANCH   7  10
ATOM     10  C   UNL A   1      32.858  25.346  24.313  1.00  0.00     0.279 C 
BRANCH  10  11
ATOM     11  N   UNL A   1      33.401  24.057  24.693  1.00  0.00    -0.329 N 
ATOM     12  C   UNL A   1      33.815  23.870  26.091  1.00  0.00     0.272 C 
ATOM     13  C   UNL A   1      33.776  22.886  23.868  1.00  0.00     0.101 C 
ATOM     14  H   UNL A   1      32.623  24.201  24.050  1.00  0.00     0.348 HD
ATOM     15  C   UNL A   1      33.320  22.464  26.196  1.00  0.00     0.114 C 
ATOM     16  C   UNL A   1      33.940  21.817  24.971  1.00  0.00     0.119 C 
ATOM     17  C   UNL A   1      32.836  22.401  22.765  1.00  0.00     0.079 C 
ATOM     18  C   UNL A   1      35.145  23.132  23.195  1.00  0.00     0.079 C 
ATOM     19  C   UNL A   1      33.653  21.453  27.249  1.00  0.00     0.270 C 
ATOM     20  C   UNL A   1      33.248  20.478  25.079  1.00  0.00     0.271 C 
ATOM     21  N   UNL A   1      33.320  20.178  26.546  1.00  0.00    -0.345 N 
ATOM     22  H   UNL A   1      32.420  19.824  26.872  1.00  0.00     0.346 HD
ATOM     23  H   UNL A   1      34.028  19.468  26.733  1.00  0.00     0.346 HD
ENDBRANCH  10  11
ENDBRANCH   7  10
ENDBRANCH   4   7
ENDBRANCH   2   3
ENDBRANCH   1   2
BRANCH   1  24
ATOM     24  C   UNL A   1      32.623  29.905  25.912  1.00  0.00     0.118 C 
BRANCH  24  25
ATOM     25  N   UNL A   1      32.434  31.298  26.282  1.00  0.00    -0.352 N 
ATOM     26  C   UNL A   1      33.057  32.077  27.224  1.00  0.00     0.251 C 
ATOM     27  H   UNL A   1      31.736  31.765  25.768  1.00  0.00     0.163 HD
ATOM     28  O   UNL A   1      32.546  33.164  27.512  1.00  0.00    -0.269 OA
BRANCH  26  29
ATOM     29  C   UNL A   1      34.298  31.645  27.907  1.00  0.00     0.039 A 
ATOM     30  C   UNL A   1      35.355  32.556  28.018  1.00  0.00     0.014 A 
ATOM     31  C   UNL A   1      34.469  30.340  28.376  1.00  0.00     0.014 A 
ATOM     32  C   UNL A   1      36.545  32.182  28.651  1.00  0.00     0.010 A 
ATOM     33  C   UNL A   1      35.623  29.992  29.080  1.00  0.00     0.010 A 
ATOM     34  C   UNL A   1      36.677  30.907  29.222  1.00  0.00    -0.014 A 
BRANCH  34  35
ATOM     35  C   UNL A   1      37.907  30.512  29.963  1.00  0.00     0.031 A 
ATOM     36  C   UNL A   1      38.885  29.545  29.349  1.00  0.00     0.074 A 
ATOM     37  C   UNL A   1      38.112  30.975  31.213  1.00  0.00     0.049 A 
ATOM     38  N   UNL A   1      39.957  29.005  29.873  1.00  0.00    -0.248 NA
ATOM     39  C   UNL A   1      38.606  29.108  27.973  1.00  0.00     0.031 C 
ATOM     40  C   UNL A   1      37.224  31.894  31.929  1.00  0.00     0.029 A 
ATOM     41  N   UNL A   1      39.124  30.730  32.108  1.00  0.00    -0.354 N 
ATOM     42  C   UNL A   1      40.470  28.154  28.899  1.00  0.00     0.074 A 
ATOM     43  C   UNL A   1      39.558  28.209  27.776  1.00  0.00     0.031 C 
ATOM     44  C   UNL A   1      37.741  32.149  33.141  1.00  0.00     0.029 A 
ATOM     45  C   UNL A   1      38.965  31.376  33.313  1.00  0.00     0.049 A 
ATOM     46  H   UNL A   1      39.890  30.147  31.906  1.00  0.00     0.167 HD
ATOM     47  C   UNL A   1      41.606  27.413  28.930  1.00  0.00     0.034 A 
ATOM     48  C   UNL A   1      39.712  31.338  34.435  1.00  0.00     0.034 A 
ATOM     49  C   UNL A   1      42.514  27.379  30.052  1.00  0.00     0.049 A 
ATOM     50  C   UNL A   1      40.954  30.483  34.457  1.00  0.00     0.074 A 
ATOM     51  C   UNL A   1      43.715  26.701  30.169  1.00  0.00     0.029 A 
ATOM     52  N   UNL A   1      42.320  28.048  31.253  1.00  0.00    -0.354 N 
ATOM     53  N   UNL A   1      41.444  29.714  33.512  1.00  0.00    -0.248 NA
ATOM     54  C   UNL A   1      41.749  30.499  35.692  1.00  0.00     0.031 C 
ATOM     55  C   UNL A   1      44.213  26.905  31.460  1.00  0.00     0.029 A 
ATOM     56  C   UNL A   1      43.364  27.775  32.126  1.00  0.00     0.049 A 
ATOM     57  H   UNL A   1      41.554  28.632  31.458  1.00  0.00     0.167 HD
ATOM     58  C   UNL A   1      42.622  29.182  34.029  1.00  0.00     0.074 A 
ATOM     59  C   UNL A   1      42.775  29.731  35.361  1.00  0.00     0.031 C 
ATOM     60  C   UNL A   1      43.502  28.323  33.454  1.00  0.00     0.034 A 
BRANCH  47  61
ATOM     61  C   UNL A   1      41.916  26.560  27.723  1.00  0.00     0.023 A 
ATOM     62  C   UNL A   1      41.591  25.192  27.681  1.00  0.00     0.031 A 
ATOM     63  C   UNL A   1      42.558  27.116  26.601  1.00  0.00     0.131 A 
ATOM     64  C   UNL A   1      41.971  24.414  26.577  1.00  0.00     0.055 A 
ATOM     65  C   UNL A   1      42.860  26.353  25.470  1.00  0.00     0.041 A 
ATOM     66  F   UNL A   1      42.911  28.411  26.588  1.00  0.00    -0.206 F 
ATOM     67  C   UNL A   1      42.580  24.990  25.459  1.00  0.00     0.022 A 
BRANCH  64  68
ATOM     68  S   UNL A   1      41.781  22.613  26.679  1.00  0.00     0.124 S 
ATOM     69  O   UNL A   1      42.277  22.190  25.371  1.00  0.00    -0.237 OA
ATOM     70  O   UNL A   1      42.623  22.271  27.822  1.00  0.00    -0.237 OA
ATOM     71  O   UNL A   1      40.347  22.431  26.883  1.00  0.00    -0.744 OA
ENDBRANCH  64  68
ENDBRANCH  47  61
BRANCH  48  72
ATOM     72  C   UNL A   1      39.306  32.115  35.642  1.00  0.00     0.023 A 
ATOM     73  C   UNL A   1      38.581  31.509  36.681  1.00  0.00     0.031 A 
ATOM     74  C   UNL A   1      39.590  33.488  35.751  1.00  0.00     0.131 A 
ATOM     75  C   UNL A   1      38.118  32.284  37.755  1.00  0.00     0.055 A 
ATOM     76  C   UNL A   1      39.177  34.242  36.851  1.00  0.00     0.041 A 
ATOM     77  F   UNL A   1      40.284  34.117  34.789  1.00  0.00    -0.206 F 
ATOM     78  C   UNL A   1      38.422  33.643  37.854  1.00  0.00     0.022 A 
BRANCH  75  79
ATOM     79  S   UNL A   1      37.024  31.506  38.977  1.00  0.00     0.124 S 
ATOM     80  O   UNL A   1      36.872  30.165  38.426  1.00  0.00    -0.237 OA
ATOM     81  O   UNL A   1      37.812  31.614  40.200  1.00  0.00    -0.237 OA
ATOM     82  O   UNL A   1      35.823  32.338  38.935  1.00  0.00    -0.744 OA
ENDBRANCH  75  79
ENDBRANCH  48  72
BRANCH  60  83
ATOM     83  C   UNL A   1      44.734  27.967  34.251  1.00  0.00     0.023 A 
ATOM     84  C   UNL A   1      44.769  26.851  35.104  1.00  0.00     0.031 A 
ATOM     85  C   UNL A   1      45.886  28.769  34.162  1.00  0.00     0.131 A 
ATOM     86  C   UNL A   1      45.912  26.599  35.877  1.00  0.00     0.055 A 
ATOM     87  C   UNL A   1      47.042  28.478  34.889  1.00  0.00     0.041 A 
ATOM     88  F   UNL A   1      45.907  29.849  33.365  1.00  0.00    -0.206 F 
ATOM     89  C   UNL A   1      47.055  27.396  35.762  1.00  0.00     0.022 A 
BRANCH  86  90
ATOM     90  S   UNL A   1      45.856  25.267  37.108  1.00  0.00     0.124 S 
ATOM     91  O   UNL A   1      45.159  24.211  36.380  1.00  0.00    -0.237 OA
ATOM     92  O   UNL A   1      47.271  25.029  37.375  1.00  0.00    -0.237 OA
ATOM     93  O   UNL A   1      45.108  25.855  38.217  1.00  0.00    -0.744 OA
ENDBRANCH  86  90
ENDBRANCH  60  83
ENDBRANCH  34  35
ENDBRANCH  26  29
ENDBRANCH  24  25
ENDBRANCH   1  24
TORSDOF 15
ENDMDL
