MODEL 1
REMARK VINA RESULT:     -12.4      0.000      0.000
REMARK SMILES NS(=O)(=O)c1ccc(N2N=C(C(=O)NCCCNC(=O)c3ccc(-c4c5nc(c(-c6cc(S(=O)(=O)[O-])ccc6F)c6ccc([nH]6)c(-c6cc(S(=O)(=O)[O-])ccc6F)c6nc(c(-c7cc(S(=O)(=O)[O-])ccc7F)c7ccc4[nH]7)C=C6)C=C5)cc3)C[C@H]2c2ccco2)cc1
REMARK SMILES IDX 16 1 15 2 14 3 12 4 13 5 11 7 9 8 10 9 85 10 84 11 8 12 5 13
REMARK SMILES IDX 6 14 92 15 7 16 91 17 2 18 3 19 4 20 1 21 86 24 87 25 90 26
REMARK SMILES IDX 88 27 89 28 17 29 18 30 19 31 20 33 21 34 22 35 83 36 23 37
REMARK SMILES IDX 82 38 24 39 25 40 26 41 76 42 27 43 81 44 75 45 77 46 28 47
REMARK SMILES IDX 80 48 74 49 73 50 29 52 61 53 41 54 60 55 42 56 45 57 59 58
REMARK SMILES IDX 78 59 43 60 44 61 58 63 79 64 46 65 30 66 31 67 39 68 32 69
REMARK SMILES IDX 38 70 40 71 37 72 33 73 34 74 35 75 36 76 62 77 63 78 71 79
REMARK SMILES IDX 64 80 70 81 72 82 69 83 65 84 66 85 67 86 68 87 47 88 48 89
REMARK SMILES IDX 56 90 49 91 55 92 57 93 54 94 50 95 51 96 52 97 53 98
REMARK H PARENT 14 6 1 22 1 23 18 32 77 51 45 62
REMARK Flexibility Score: inf
ROOT
ATOM      1  C   UNL A   1      32.243  28.331  26.755  1.00  0.00     0.042 C 
ENDROOT
BRANCH   1   2
ATOM      2  C   UNL A   1      31.993  27.144  25.834  1.00  0.00     0.118 C 
BRANCH   2   3
ATOM      3  N   UNL A   1      31.202  26.118  26.488  1.00  0.00    -0.351 N 
ATOM      4  C   UNL A   1      31.220  24.747  26.503  1.00  0.00     0.267 C 
ATOM      5  O   UNL A   1      30.319  24.175  27.115  1.00  0.00    -0.268 OA
ATOM      6  H   UNL A   1      30.487  26.493  27.052  1.00  0.00     0.163 HD
BRANCH   4   7
ATOM      7  C   UNL A   1      32.303  23.899  25.856  1.00  0.00     0.128 C 
ATOM      8  N   UNL A   1      33.466  22.157  25.432  1.00  0.00    -0.254 N 
ATOM      9  N   UNL A   1      32.310  22.606  25.994  1.00  0.00    -0.171 NA
ATOM     10  C   UNL A   1      34.208  23.194  24.707  1.00  0.00     0.180 C 
ATOM     11  C   UNL A   1      33.417  24.461  25.043  1.00  0.00     0.099 C 
BRANCH   8  12
ATOM     12  C   UNL A   1      33.616  20.809  25.120  1.00  0.00     0.060 A 
ATOM     13  C   UNL A   1      33.883  18.069  24.559  1.00  0.00     0.082 A 
ATOM     14  C   UNL A   1      35.022  18.871  24.651  1.00  0.00     0.024 A 
ATOM     15  C   UNL A   1      32.613  18.624  24.711  1.00  0.00     0.024 A 
ATOM     16  C   UNL A   1      34.881  20.238  24.918  1.00  0.00     0.029 A 
ATOM     17  C   UNL A   1      32.489  19.985  24.992  1.00  0.00     0.029 A 
BRANCH  13  18
ATOM     18  S   UNL A   1      34.014  16.345  24.206  1.00  0.00     0.238 S 
ATOM     19  O   UNL A   1      35.000  15.759  25.091  1.00  0.00    -0.207 OA
ATOM     20  O   UNL A   1      34.056  16.170  22.778  1.00  0.00    -0.207 OA
BRANCH  18  21
ATOM     21  N   UNL A   1      32.547  15.708  24.716  1.00  0.00    -0.225 NA
ATOM     22  H   UNL A   1      32.617  15.435  25.696  1.00  0.00     0.137 HD
ATOM     23  H   UNL A   1      32.316  14.890  24.151  1.00  0.00     0.137 HD
ENDBRANCH  18  21
ENDBRANCH  13  18
ENDBRANCH   8  12
BRANCH  10  24
ATOM     24  C   UNL A   1      35.668  23.346  25.026  1.00  0.00     0.128 A 
ATOM     25  C   UNL A   1      36.799  23.431  24.236  1.00  0.00     0.048 A 
ATOM     26  O   UNL A   1      36.030  23.428  26.342  1.00  0.00    -0.467 OA
ATOM     27  C   UNL A   1      37.898  23.576  25.117  1.00  0.00     0.042 A 
ATOM     28  C   UNL A   1      37.375  23.585  26.386  1.00  0.00     0.195 A 
ENDBRANCH  10  24
ENDBRANCH   4   7
ENDBRANCH   2   3
ENDBRANCH   1   2
BRANCH   1  29
ATOM     29  C   UNL A   1      33.569  29.029  26.479  1.00  0.00     0.118 C 
BRANCH  29  30
ATOM     30  N   UNL A   1      33.556  30.412  26.934  1.00  0.00    -0.352 N 
ATOM     31  C   UNL A   1      34.368  31.064  27.826  1.00  0.00     0.251 C 
ATOM     32  H   UNL A   1      32.849  30.970  26.535  1.00  0.00     0.163 HD
ATOM     33  O   UNL A   1      34.007  32.153  28.263  1.00  0.00    -0.269 OA
BRANCH  31  34
ATOM     34  C   UNL A   1      35.653  30.472  28.260  1.00  0.00     0.039 A 
ATOM     35  C   UNL A   1      35.688  29.736  29.449  1.00  0.00     0.014 A 
ATOM     36  C   UNL A   1      36.834  30.695  27.547  1.00  0.00     0.014 A 
ATOM     37  C   UNL A   1      36.898  29.206  29.903  1.00  0.00     0.010 A 
ATOM     38  C   UNL A   1      38.018  30.085  27.948  1.00  0.00     0.010 A 
ATOM     39  C   UNL A   1      38.071  29.364  29.148  1.00  0.00    -0.014 A 
BRANCH  39  40
ATOM     40  C   UNL A   1      39.374  28.847  29.637  1.00  0.00     0.031 A 
ATOM     41  C   UNL A   1      40.064  29.532  30.789  1.00  0.00     0.074 A 
ATOM     42  C   UNL A   1      39.954  27.798  29.022  1.00  0.00     0.049 A 
ATOM     43  N   UNL A   1      41.227  29.279  31.331  1.00  0.00    -0.248 NA
ATOM     44  C   UNL A   1      39.365  30.682  31.384  1.00  0.00     0.031 C 
ATOM     45  C   UNL A   1      39.406  27.087  27.865  1.00  0.00     0.029 A 
ATOM     46  N   UNL A   1      41.132  27.148  29.283  1.00  0.00    -0.354 N 
ATOM     47  C   UNL A   1      41.408  30.250  32.312  1.00  0.00     0.074 A 
ATOM     48  C   UNL A   1      40.269  31.138  32.236  1.00  0.00     0.031 C 
ATOM     49  C   UNL A   1      40.232  26.080  27.537  1.00  0.00     0.029 A 
ATOM     50  C   UNL A   1      41.381  26.094  28.435  1.00  0.00     0.049 A 
ATOM     51  H   UNL A   1      41.742  27.410  30.010  1.00  0.00     0.167 HD
ATOM     52  C   UNL A   1      42.415  30.373  33.213  1.00  0.00     0.034 A 
ATOM     53  C   UNL A   1      42.418  25.236  28.392  1.00  0.00     0.034 A 
ATOM     54  C   UNL A   1      43.530  29.460  33.289  1.00  0.00     0.049 A 
ATOM     55  C   UNL A   1      43.510  25.370  29.423  1.00  0.00     0.074 A 
ATOM     56  C   UNL A   1      44.587  29.457  34.182  1.00  0.00     0.029 A 
ATOM     57  N   UNL A   1      43.727  28.379  32.439  1.00  0.00    -0.354 N 
ATOM     58  N   UNL A   1      43.646  26.267  30.373  1.00  0.00    -0.248 NA
ATOM     59  C   UNL A   1      44.572  24.358  29.390  1.00  0.00     0.031 C 
ATOM     60  C   UNL A   1      45.448  28.407  33.840  1.00  0.00     0.029 A 
ATOM     61  C   UNL A   1      44.893  27.711  32.778  1.00  0.00     0.049 A 
ATOM     62  H   UNL A   1      43.126  28.123  31.702  1.00  0.00     0.167 HD
ATOM     63  C   UNL A   1      44.795  25.906  31.073  1.00  0.00     0.074 A 
ATOM     64  C   UNL A   1      45.296  24.699  30.445  1.00  0.00     0.031 C 
ATOM     65  C   UNL A   1      45.382  26.512  32.137  1.00  0.00     0.034 A 
BRANCH  52  66
ATOM     66  C   UNL A   1      42.354  31.548  34.162  1.00  0.00     0.023 A 
ATOM     67  C   UNL A   1      41.573  31.512  35.333  1.00  0.00     0.031 A 
ATOM     68  C   UNL A   1      43.042  32.740  33.872  1.00  0.00     0.131 A 
ATOM     69  C   UNL A   1      41.424  32.668  36.114  1.00  0.00     0.055 A 
ATOM     70  C   UNL A   1      42.962  33.859  34.703  1.00  0.00     0.041 A 
ATOM     71  F   UNL A   1      43.788  32.845  32.762  1.00  0.00    -0.206 F 
ATOM     72  C   UNL A   1      42.135  33.834  35.823  1.00  0.00     0.022 A 
BRANCH  69  73
ATOM     73  S   UNL A   1      40.163  32.672  37.419  1.00  0.00     0.124 S 
ATOM     74  O   UNL A   1      39.625  34.026  37.301  1.00  0.00    -0.237 OA
ATOM     75  O   UNL A   1      39.276  31.593  37.004  1.00  0.00    -0.237 OA
ATOM     76  O   UNL A   1      40.930  32.418  38.636  1.00  0.00    -0.744 OA
ENDBRANCH  69  73
ENDBRANCH  52  66
BRANCH  53  77
ATOM     77  C   UNL A   1      42.470  24.164  27.358  1.00  0.00     0.023 A 
ATOM     78  C   UNL A   1      41.773  22.958  27.534  1.00  0.00     0.031 A 
ATOM     79  C   UNL A   1      43.247  24.314  26.197  1.00  0.00     0.131 A 
ATOM     80  C   UNL A   1      41.907  21.928  26.590  1.00  0.00     0.055 A 
ATOM     81  C   UNL A   1      43.338  23.306  25.236  1.00  0.00     0.041 A 
ATOM     82  F   UNL A   1      43.922  25.453  25.975  1.00  0.00    -0.206 F 
ATOM     83  C   UNL A   1      42.676  22.098  25.437  1.00  0.00     0.022 A 
BRANCH  80  84
ATOM     84  S   UNL A   1      41.121  20.330  26.932  1.00  0.00     0.124 S 
ATOM     85  O   UNL A   1      40.906  20.407  28.373  1.00  0.00    -0.237 OA
ATOM     86  O   UNL A   1      39.925  20.397  26.100  1.00  0.00    -0.237 OA
ATOM     87  O   UNL A   1      42.124  19.359  26.500  1.00  0.00    -0.744 OA
ENDBRANCH  80  84
ENDBRANCH  53  77
BRANCH  65  88
ATOM     88  C   UNL A   1      46.605  25.839  32.710  1.00  0.00     0.023 A 
ATOM     89  C   UNL A   1      47.866  25.948  32.099  1.00  0.00     0.031 A 
ATOM     90  C   UNL A   1      46.495  25.042  33.864  1.00  0.00     0.131 A 
ATOM     91  C   UNL A   1      48.950  25.210  32.596  1.00  0.00     0.055 A 
ATOM     92  C   UNL A   1      47.593  24.363  34.394  1.00  0.00     0.041 A 
ATOM     93  F   UNL A   1      45.315  24.902  34.489  1.00  0.00    -0.206 F 
ATOM     94  C   UNL A   1      48.825  24.430  33.749  1.00  0.00     0.022 A 
BRANCH  91  95
ATOM     95  S   UNL A   1      50.493  25.183  31.643  1.00  0.00     0.124 S 
ATOM     96  O   UNL A   1      50.039  25.595  30.319  1.00  0.00    -0.237 OA
ATOM     97  O   UNL A   1      51.319  26.147  32.362  1.00  0.00    -0.237 OA
ATOM     98  O   UNL A   1      50.932  23.793  31.743  1.00  0.00    -0.744 OA
ENDBRANCH  91  95
ENDBRANCH  65  88
ENDBRANCH  39  40
ENDBRANCH  31  34
ENDBRANCH  29  30
ENDBRANCH   1  29
TORSDOF 17
ENDMDL
MODEL 2
REMARK VINA RESULT:     -12.3      1.723      2.105
REMARK SMILES NS(=O)(=O)c1ccc(N2N=C(C(=O)NCCCNC(=O)c3ccc(-c4c5nc(c(-c6cc(S(=O)(=O)[O-])ccc6F)c6ccc([nH]6)c(-c6cc(S(=O)(=O)[O-])ccc6F)c6nc(c(-c7cc(S(=O)(=O)[O-])ccc7F)c7ccc4[nH]7)C=C6)C=C5)cc3)C[C@H]2c2ccco2)cc1
REMARK SMILES IDX 16 1 15 2 14 3 12 4 13 5 11 7 9 8 10 9 85 10 84 11 8 12 5 13
REMARK SMILES IDX 6 14 92 15 7 16 91 17 2 18 3 19 4 20 1 21 86 24 87 25 90 26
REMARK SMILES IDX 88 27 89 28 17 29 18 30 19 31 20 33 21 34 22 35 83 36 23 37
REMARK SMILES IDX 82 38 24 39 25 40 26 41 76 42 27 43 81 44 75 45 77 46 28 47
REMARK SMILES IDX 80 48 74 49 73 50 29 52 61 53 41 54 60 55 42 56 45 57 59 58
REMARK SMILES IDX 78 59 43 60 44 61 58 63 79 64 46 65 30 66 31 67 39 68 32 69
REMARK SMILES IDX 38 70 40 71 37 72 33 73 34 74 35 75 36 76 62 77 63 78 71 79
REMARK SMILES IDX 64 80 70 81 72 82 69 83 65 84 66 85 67 86 68 87 47 88 48 89
REMARK SMILES IDX 56 90 49 91 55 92 57 93 54 94 50 95 51 96 52 97 53 98
REMARK H PARENT 14 6 1 22 1 23 18 32 77 51 45 62
REMARK Flexibility Score: inf
ROOT
ATOM      1  C   UNL A   1      32.547  28.239  25.399  1.00  0.00     0.042 C 
ENDROOT
BRANCH   1   2
ATOM      2  C   UNL A   1      32.140  26.848  25.868  1.00  0.00     0.118 C 
BRANCH   2   3
ATOM      3  N   UNL A   1      31.169  26.246  24.973  1.00  0.00    -0.351 N 
ATOM      4  C   UNL A   1      31.173  25.168  24.125  1.00  0.00     0.267 C 
ATOM      5  O   UNL A   1      30.176  24.992  23.427  1.00  0.00    -0.268 OA
ATOM      6  H   UNL A   1      30.306  26.722  24.975  1.00  0.00     0.163 HD
BRANCH   4   7
ATOM      7  C   UNL A   1      32.308  24.160  24.031  1.00  0.00     0.128 C 
ATOM      8  N   UNL A   1      33.358  22.326  24.348  1.00  0.00    -0.254 N 
ATOM      9  N   UNL A   1      32.140  22.930  24.419  1.00  0.00    -0.171 NA
ATOM     10  C   UNL A   1      34.385  23.150  23.700  1.00  0.00     0.180 C 
ATOM     11  C   UNL A   1      33.664  24.488  23.513  1.00  0.00     0.099 C 
BRANCH   8  12
ATOM     12  C   UNL A   1      33.455  20.938  24.373  1.00  0.00     0.060 A 
ATOM     13  C   UNL A   1      33.709  18.140  24.369  1.00  0.00     0.082 A 
ATOM     14  C   UNL A   1      32.488  18.725  24.027  1.00  0.00     0.024 A 
ATOM     15  C   UNL A   1      34.792  18.932  24.745  1.00  0.00     0.024 A 
ATOM     16  C   UNL A   1      32.366  20.119  24.043  1.00  0.00     0.029 A 
ATOM     17  C   UNL A   1      34.659  20.322  24.741  1.00  0.00     0.029 A 
BRANCH  13  18
ATOM     18  S   UNL A   1      33.902  16.386  24.379  1.00  0.00     0.238 S 
ATOM     19  O   UNL A   1      34.336  15.955  23.065  1.00  0.00    -0.207 OA
ATOM     20  O   UNL A   1      32.770  15.803  25.050  1.00  0.00    -0.207 OA
BRANCH  18  21
ATOM     21  N   UNL A   1      35.228  16.124  25.376  1.00  0.00    -0.225 NA
ATOM     22  H   UNL A   1      35.992  16.739  25.094  1.00  0.00     0.137 HD
ATOM     23  H   UNL A   1      35.526  15.152  25.295  1.00  0.00     0.137 HD
ENDBRANCH  18  21
ENDBRANCH  13  18
ENDBRANCH   8  12
BRANCH  10  24
ATOM     24  C   UNL A   1      35.692  23.316  24.422  1.00  0.00     0.128 A 
ATOM     25  C   UNL A   1      37.003  23.068  24.062  1.00  0.00     0.048 A 
ATOM     26  O   UNL A   1      35.659  23.812  25.696  1.00  0.00    -0.467 OA
ATOM     27  C   UNL A   1      37.804  23.435  25.171  1.00  0.00     0.042 A 
ATOM     28  C   UNL A   1      36.939  23.897  26.133  1.00  0.00     0.195 A 
ENDBRANCH  10  24
ENDBRANCH   4   7
ENDBRANCH   2   3
ENDBRANCH   1   2
BRANCH   1  29
ATOM     29  C   UNL A   1      33.820  28.743  26.067  1.00  0.00     0.118 C 
BRANCH  29  30
ATOM     30  N   UNL A   1      33.720  30.150  26.426  1.00  0.00    -0.352 N 
ATOM     31  C   UNL A   1      34.410  30.883  27.358  1.00  0.00     0.251 C 
ATOM     32  H   UNL A   1      33.049  30.659  25.916  1.00  0.00     0.163 HD
ATOM     33  O   UNL A   1      33.975  31.985  27.680  1.00  0.00    -0.269 OA
BRANCH  31  34
ATOM     34  C   UNL A   1      35.654  30.361  27.969  1.00  0.00     0.039 A 
ATOM     35  C   UNL A   1      36.851  30.470  27.256  1.00  0.00     0.014 A 
ATOM     36  C   UNL A   1      35.638  29.703  29.202  1.00  0.00     0.014 A 
ATOM     37  C   UNL A   1      38.029  29.944  27.791  1.00  0.00     0.010 A 
ATOM     38  C   UNL A   1      36.827  29.269  29.777  1.00  0.00     0.010 A 
ATOM     39  C   UNL A   1      38.029  29.352  29.064  1.00  0.00    -0.014 A 
BRANCH  39  40
ATOM     40  C   UNL A   1      39.262  28.748  29.629  1.00  0.00     0.031 A 
ATOM     41  C   UNL A   1      39.870  29.326  30.882  1.00  0.00     0.074 A 
ATOM     42  C   UNL A   1      39.854  27.716  28.998  1.00  0.00     0.049 A 
ATOM     43  N   UNL A   1      40.969  28.986  31.505  1.00  0.00    -0.248 NA
ATOM     44  C   UNL A   1      39.166  30.465  31.490  1.00  0.00     0.031 C 
ATOM     45  C   UNL A   1      39.386  27.105  27.752  1.00  0.00     0.029 A 
ATOM     46  N   UNL A   1      40.978  26.998  29.317  1.00  0.00    -0.354 N 
ATOM     47  C   UNL A   1      41.098  29.884  32.562  1.00  0.00     0.074 A 
ATOM     48  C   UNL A   1      40.005  30.825  32.447  1.00  0.00     0.031 C 
ATOM     49  C   UNL A   1      40.198  26.086  27.429  1.00  0.00     0.029 A 
ATOM     50  C   UNL A   1      41.261  25.991  28.424  1.00  0.00     0.049 A 
ATOM     51  H   UNL A   1      41.529  27.186  30.110  1.00  0.00     0.167 HD
ATOM     52  C   UNL A   1      42.023  29.903  33.554  1.00  0.00     0.034 A 
ATOM     53  C   UNL A   1      42.264  25.091  28.414  1.00  0.00     0.034 A 
ATOM     54  C   UNL A   1      43.090  28.939  33.666  1.00  0.00     0.049 A 
ATOM     55  C   UNL A   1      43.262  25.110  29.543  1.00  0.00     0.074 A 
ATOM     56  C   UNL A   1      44.061  28.831  34.646  1.00  0.00     0.029 A 
ATOM     57  N   UNL A   1      43.322  27.906  32.765  1.00  0.00    -0.354 N 
ATOM     58  N   UNL A   1      43.346  25.938  30.561  1.00  0.00    -0.248 NA
ATOM     59  C   UNL A   1      44.283  24.057  29.536  1.00  0.00     0.031 C 
ATOM     60  C   UNL A   1      44.908  27.768  34.310  1.00  0.00     0.029 A 
ATOM     61  C   UNL A   1      44.426  27.167  33.159  1.00  0.00     0.049 A 
ATOM     62  H   UNL A   1      42.781  27.726  31.962  1.00  0.00     0.167 HD
ATOM     63  C   UNL A   1      44.412  25.482  31.333  1.00  0.00     0.074 A 
ATOM     64  C   UNL A   1      44.921  24.296  30.671  1.00  0.00     0.031 C 
ATOM     65  C   UNL A   1      44.923  25.991  32.483  1.00  0.00     0.034 A 
BRANCH  52  66
ATOM     66  C   UNL A   1      41.922  31.017  34.572  1.00  0.00     0.023 A 
ATOM     67  C   UNL A   1      40.871  31.069  35.507  1.00  0.00     0.031 A 
ATOM     68  C   UNL A   1      42.855  32.068  34.579  1.00  0.00     0.131 A 
ATOM     69  C   UNL A   1      40.727  32.189  36.339  1.00  0.00     0.055 A 
ATOM     70  C   UNL A   1      42.757  33.137  35.472  1.00  0.00     0.041 A 
ATOM     71  F   UNL A   1      43.869  32.088  33.699  1.00  0.00    -0.206 F 
ATOM     72  C   UNL A   1      41.677  33.211  36.348  1.00  0.00     0.022 A 
BRANCH  69  73
ATOM     73  S   UNL A   1      39.192  32.366  37.291  1.00  0.00     0.124 S 
ATOM     74  O   UNL A   1      39.705  32.480  38.655  1.00  0.00    -0.237 OA
ATOM     75  O   UNL A   1      38.605  33.574  36.726  1.00  0.00    -0.237 OA
ATOM     76  O   UNL A   1      38.469  31.128  37.007  1.00  0.00    -0.744 OA
ENDBRANCH  69  73
ENDBRANCH  52  66
BRANCH  53  77
ATOM     77  C   UNL A   1      42.367  24.087  27.319  1.00  0.00     0.023 A 
ATOM     78  C   UNL A   1      41.637  22.889  27.367  1.00  0.00     0.031 A 
ATOM     79  C   UNL A   1      43.227  24.293  26.226  1.00  0.00     0.131 A 
ATOM     80  C   UNL A   1      41.818  21.919  26.369  1.00  0.00     0.055 A 
ATOM     81  C   UNL A   1      43.366  23.346  25.209  1.00  0.00     0.041 A 
ATOM     82  F   UNL A   1      43.938  25.428  26.125  1.00  0.00    -0.206 F 
ATOM     83  C   UNL A   1      42.669  22.144  25.285  1.00  0.00     0.022 A 
BRANCH  80  84
ATOM     84  S   UNL A   1      40.980  20.321  26.551  1.00  0.00     0.124 S 
ATOM     85  O   UNL A   1      41.964  19.403  25.990  1.00  0.00    -0.237 OA
ATOM     86  O   UNL A   1      40.782  20.247  27.994  1.00  0.00    -0.237 OA
ATOM     87  O   UNL A   1      39.759  20.487  25.765  1.00  0.00    -0.744 OA
ENDBRANCH  80  84
ENDBRANCH  53  77
BRANCH  65  88
ATOM     88  C   UNL A   1      46.062  25.228  33.115  1.00  0.00     0.023 A 
ATOM     89  C   UNL A   1      45.836  24.177  34.020  1.00  0.00     0.031 A 
ATOM     90  C   UNL A   1      47.393  25.588  32.836  1.00  0.00     0.131 A 
ATOM     91  C   UNL A   1      46.921  23.574  34.675  1.00  0.00     0.055 A 
ATOM     92  C   UNL A   1      48.470  24.939  33.440  1.00  0.00     0.041 A 
ATOM     93  F   UNL A   1      47.667  26.585  31.979  1.00  0.00    -0.206 F 
ATOM     94  C   UNL A   1      48.236  23.939  34.379  1.00  0.00     0.022 A 
BRANCH  91  95
ATOM     95  S   UNL A   1      46.582  22.396  36.012  1.00  0.00     0.124 S 
ATOM     96  O   UNL A   1      45.468  23.035  36.705  1.00  0.00    -0.237 OA
ATOM     97  O   UNL A   1      46.261  21.177  35.277  1.00  0.00    -0.237 OA
ATOM     98  O   UNL A   1      47.836  22.357  36.760  1.00  0.00    -0.744 OA
ENDBRANCH  91  95
ENDBRANCH  65  88
ENDBRANCH  39  40
ENDBRANCH  31  34
ENDBRANCH  29  30
ENDBRANCH   1  29
TORSDOF 17
ENDMDL
MODEL 3
REMARK VINA RESULT:     -12.2      4.933     10.092
REMARK SMILES NS(=O)(=O)c1ccc(N2N=C(C(=O)NCCCNC(=O)c3ccc(-c4c5nc(c(-c6cc(S(=O)(=O)[O-])ccc6F)c6ccc([nH]6)c(-c6cc(S(=O)(=O)[O-])ccc6F)c6nc(c(-c7cc(S(=O)(=O)[O-])ccc7F)c7ccc4[nH]7)C=C6)C=C5)cc3)C[C@H]2c2ccco2)cc1
REMARK SMILES IDX 16 1 15 2 14 3 12 4 13 5 11 7 9 8 10 9 85 10 84 11 8 12 5 13
REMARK SMILES IDX 6 14 92 15 7 16 91 17 2 18 3 19 4 20 1 21 86 24 87 25 90 26
REMARK SMILES IDX 88 27 89 28 17 29 18 30 19 31 20 33 21 34 22 35 83 36 23 37
REMARK SMILES IDX 82 38 24 39 25 40 26 41 76 42 27 43 81 44 75 45 77 46 28 47
REMARK SMILES IDX 80 48 74 49 73 50 29 52 61 53 41 54 60 55 42 56 45 57 59 58
REMARK SMILES IDX 78 59 43 60 44 61 58 63 79 64 46 65 30 66 31 67 39 68 32 69
REMARK SMILES IDX 38 70 40 71 37 72 33 73 34 74 35 75 36 76 62 77 63 78 71 79
REMARK SMILES IDX 64 80 70 81 72 82 69 83 65 84 66 85 67 86 68 87 47 88 48 89
REMARK SMILES IDX 56 90 49 91 55 92 57 93 54 94 50 95 51 96 52 97 53 98
REMARK H PARENT 14 6 1 22 1 23 18 32 77 51 45 62
REMARK Flexibility Score: inf
ROOT
ATOM      1  C   UNL A   1      36.621  22.358  24.085  1.00  0.00     0.042 C 
ENDROOT
BRANCH   1   2
ATOM      2  C   UNL A   1      35.520  23.331  23.686  1.00  0.00     0.118 C 
BRANCH   2   3
ATOM      3  N   UNL A   1      34.262  22.646  23.451  1.00  0.00    -0.351 N 
ATOM      4  C   UNL A   1      32.942  22.946  23.673  1.00  0.00     0.267 C 
ATOM      5  O   UNL A   1      32.113  22.071  23.428  1.00  0.00    -0.268 OA
ATOM      6  H   UNL A   1      34.384  21.761  23.036  1.00  0.00     0.163 HD
BRANCH   4   7
ATOM      7  C   UNL A   1      32.442  24.299  24.154  1.00  0.00     0.128 C 
ATOM      8  N   UNL A   1      31.720  26.306  24.019  1.00  0.00    -0.254 N 
ATOM      9  N   UNL A   1      31.934  25.157  23.320  1.00  0.00    -0.171 NA
ATOM     10  C   UNL A   1      31.932  26.162  25.463  1.00  0.00     0.180 C 
ATOM     11  C   UNL A   1      32.500  24.745  25.573  1.00  0.00     0.099 C 
BRANCH   8  12
ATOM     12  C   UNL A   1      30.885  27.294  23.505  1.00  0.00     0.060 A 
ATOM     13  C   UNL A   1      29.239  29.343  22.512  1.00  0.00     0.082 A 
ATOM     14  C   UNL A   1      28.673  28.287  23.229  1.00  0.00     0.024 A 
ATOM     15  C   UNL A   1      30.609  29.371  22.257  1.00  0.00     0.024 A 
ATOM     16  C   UNL A   1      29.498  27.263  23.711  1.00  0.00     0.029 A 
ATOM     17  C   UNL A   1      31.420  28.351  22.757  1.00  0.00     0.029 A 
BRANCH  13  18
ATOM     18  S   UNL A   1      28.235  30.645  21.872  1.00  0.00     0.238 S 
ATOM     19  O   UNL A   1      27.173  30.925  22.817  1.00  0.00    -0.207 OA
ATOM     20  O   UNL A   1      27.982  30.388  20.479  1.00  0.00    -0.207 OA
BRANCH  18  21
ATOM     21  N   UNL A   1      29.228  31.997  21.930  1.00  0.00    -0.225 NA
ATOM     22  H   UNL A   1      29.025  32.533  22.774  1.00  0.00     0.137 HD
ATOM     23  H   UNL A   1      29.059  32.579  21.109  1.00  0.00     0.137 HD
ENDBRANCH  18  21
ENDBRANCH  13  18
ENDBRANCH   8  12
BRANCH  10  24
ATOM     24  C   UNL A   1      32.818  27.173  26.133  1.00  0.00     0.128 A 
ATOM     25  C   UNL A   1      34.123  27.572  25.915  1.00  0.00     0.048 A 
ATOM     26  O   UNL A   1      32.297  27.886  27.178  1.00  0.00    -0.467 OA
ATOM     27  C   UNL A   1      34.405  28.578  26.871  1.00  0.00     0.042 A 
ATOM     28  C   UNL A   1      33.255  28.743  27.604  1.00  0.00     0.195 A 
ENDBRANCH  10  24
ENDBRANCH   4   7
ENDBRANCH   2   3
ENDBRANCH   1   2
BRANCH   1  29
ATOM     29  C   UNL A   1      37.048  22.508  25.540  1.00  0.00     0.118 C 
BRANCH  29  30
ATOM     30  N   UNL A   1      38.075  21.543  25.904  1.00  0.00    -0.352 N 
ATOM     31  C   UNL A   1      39.360  21.733  26.345  1.00  0.00     0.251 C 
ATOM     32  H   UNL A   1      37.803  20.600  25.820  1.00  0.00     0.163 HD
ATOM     33  O   UNL A   1      40.134  20.780  26.330  1.00  0.00    -0.269 OA
BRANCH  31  34
ATOM     34  C   UNL A   1      39.811  23.057  26.829  1.00  0.00     0.039 A 
ATOM     35  C   UNL A   1      39.360  24.204  26.169  1.00  0.00     0.014 A 
ATOM     36  C   UNL A   1      40.728  23.174  27.876  1.00  0.00     0.014 A 
ATOM     37  C   UNL A   1      39.808  25.462  26.577  1.00  0.00     0.010 A 
ATOM     38  C   UNL A   1      41.097  24.431  28.345  1.00  0.00     0.010 A 
ATOM     39  C   UNL A   1      40.669  25.587  27.679  1.00  0.00    -0.014 A 
BRANCH  39  40
ATOM     40  C   UNL A   1      41.191  26.912  28.100  1.00  0.00     0.031 A 
ATOM     41  C   UNL A   1      42.633  27.264  27.835  1.00  0.00     0.074 A 
ATOM     42  C   UNL A   1      40.388  27.773  28.753  1.00  0.00     0.049 A 
ATOM     43  N   UNL A   1      43.301  28.338  28.169  1.00  0.00    -0.248 NA
ATOM     44  C   UNL A   1      43.439  26.252  27.135  1.00  0.00     0.031 C 
ATOM     45  C   UNL A   1      38.990  27.522  29.110  1.00  0.00     0.029 A 
ATOM     46  N   UNL A   1      40.631  29.034  29.233  1.00  0.00    -0.354 N 
ATOM     47  C   UNL A   1      44.608  28.120  27.741  1.00  0.00     0.074 A 
ATOM     48  C   UNL A   1      44.650  26.782  27.192  1.00  0.00     0.031 C 
ATOM     49  C   UNL A   1      38.492  28.607  29.725  1.00  0.00     0.029 A 
ATOM     50  C   UNL A   1      39.541  29.615  29.836  1.00  0.00     0.049 A 
ATOM     51  H   UNL A   1      41.505  29.481  29.154  1.00  0.00     0.167 HD
ATOM     52  C   UNL A   1      45.667  28.967  27.774  1.00  0.00     0.034 A 
ATOM     53  C   UNL A   1      39.403  30.827  30.409  1.00  0.00     0.034 A 
ATOM     54  C   UNL A   1      45.597  30.308  28.302  1.00  0.00     0.049 A 
ATOM     55  C   UNL A   1      40.583  31.765  30.406  1.00  0.00     0.074 A 
ATOM     56  C   UNL A   1      46.589  31.272  28.353  1.00  0.00     0.029 A 
ATOM     57  N   UNL A   1      44.463  30.878  28.867  1.00  0.00    -0.354 N 
ATOM     58  N   UNL A   1      41.802  31.562  29.957  1.00  0.00    -0.248 NA
ATOM     59  C   UNL A   1      40.360  33.104  30.961  1.00  0.00     0.031 C 
ATOM     60  C   UNL A   1      46.070  32.403  28.994  1.00  0.00     0.029 A 
ATOM     61  C   UNL A   1      44.733  32.173  29.280  1.00  0.00     0.049 A 
ATOM     62  H   UNL A   1      43.592  30.428  28.962  1.00  0.00     0.167 HD
ATOM     63  C   UNL A   1      42.481  32.763  30.148  1.00  0.00     0.074 A 
ATOM     64  C   UNL A   1      41.527  33.686  30.731  1.00  0.00     0.031 C 
ATOM     65  C   UNL A   1      43.772  33.077  29.867  1.00  0.00     0.034 A 
BRANCH  52  66
ATOM     66  C   UNL A   1      46.985  28.448  27.243  1.00  0.00     0.023 A 
ATOM     67  C   UNL A   1      47.198  28.248  25.867  1.00  0.00     0.031 A 
ATOM     68  C   UNL A   1      48.024  28.099  28.123  1.00  0.00     0.131 A 
ATOM     69  C   UNL A   1      48.376  27.630  25.421  1.00  0.00     0.055 A 
ATOM     70  C   UNL A   1      49.232  27.569  27.665  1.00  0.00     0.041 A 
ATOM     71  F   UNL A   1      47.876  28.247  29.449  1.00  0.00    -0.206 F 
ATOM     72  C   UNL A   1      49.407  27.314  26.308  1.00  0.00     0.022 A 
BRANCH  69  73
ATOM     73  S   UNL A   1      48.472  27.099  23.689  1.00  0.00     0.124 S 
ATOM     74  O   UNL A   1      47.685  25.868  23.716  1.00  0.00    -0.237 OA
ATOM     75  O   UNL A   1      47.873  28.223  22.980  1.00  0.00    -0.237 OA
ATOM     76  O   UNL A   1      49.903  26.910  23.466  1.00  0.00    -0.744 OA
ENDBRANCH  69  73
ENDBRANCH  52  66
BRANCH  53  77
ATOM     77  C   UNL A   1      38.104  31.235  31.012  1.00  0.00     0.023 A 
ATOM     78  C   UNL A   1      37.116  31.867  30.240  1.00  0.00     0.031 A 
ATOM     79  C   UNL A   1      37.845  31.034  32.379  1.00  0.00     0.131 A 
ATOM     80  C   UNL A   1      35.937  32.322  30.850  1.00  0.00     0.055 A 
ATOM     81  C   UNL A   1      36.649  31.444  32.970  1.00  0.00     0.041 A 
ATOM     82  F   UNL A   1      38.751  30.422  33.159  1.00  0.00    -0.206 F 
ATOM     83  C   UNL A   1      35.692  32.105  32.207  1.00  0.00     0.022 A 
BRANCH  80  84
ATOM     84  S   UNL A   1      34.758  33.274  29.853  1.00  0.00     0.124 S 
ATOM     85  O   UNL A   1      35.638  34.217  29.171  1.00  0.00    -0.237 OA
ATOM     86  O   UNL A   1      34.160  32.237  29.020  1.00  0.00    -0.237 OA
ATOM     87  O   UNL A   1      33.866  33.861  30.851  1.00  0.00    -0.744 OA
ENDBRANCH  80  84
ENDBRANCH  53  77
BRANCH  65  88
ATOM     88  C   UNL A   1      44.199  34.498  30.145  1.00  0.00     0.023 A 
ATOM     89  C   UNL A   1      44.056  35.515  29.185  1.00  0.00     0.031 A 
ATOM     90  C   UNL A   1      44.796  34.827  31.375  1.00  0.00     0.131 A 
ATOM     91  C   UNL A   1      44.575  36.793  29.440  1.00  0.00     0.055 A 
ATOM     92  C   UNL A   1      45.250  36.118  31.649  1.00  0.00     0.041 A 
ATOM     93  F   UNL A   1      44.957  33.895  32.328  1.00  0.00    -0.206 F 
ATOM     94  C   UNL A   1      45.157  37.104  30.671  1.00  0.00     0.022 A 
BRANCH  91  95
ATOM     95  S   UNL A   1      44.593  38.007  28.093  1.00  0.00     0.124 S 
ATOM     96  O   UNL A   1      44.765  37.157  26.919  1.00  0.00    -0.237 OA
ATOM     97  O   UNL A   1      43.288  38.645  28.232  1.00  0.00    -0.237 OA
ATOM     98  O   UNL A   1      45.737  38.858  28.415  1.00  0.00    -0.744 OA
ENDBRANCH  91  95
ENDBRANCH  65  88
ENDBRANCH  39  40
ENDBRANCH  31  34
ENDBRANCH  29  30
ENDBRANCH   1  29
TORSDOF 17
ENDMDL
