MODEL 1
REMARK VINA RESULT:     -12.5      0.000      0.000
REMARK SMILES O=C(NCCCNC(=O)[C@H]1C[C@@H](O)CN1C(=O)c1cc(F)c(F)cc1Cl)c1ccc(-c2c3nc(c(-c4cc(S(=O)(=O)[O-])ccc4F)c4ccc([nH]4)c(-c4cc(S(=O)(=O)[O-])ccc4F)c4nc(c(-c5cc(S(=O)(=O)[O-])ccc5F)c5ccc2[nH]5)C=C4)C=C3)cc1
REMARK SMILES IDX 4 1 3 2 1 3 2 4 27 6 28 7 89 8 29 9 88 10 30 11 31 12 32 13
REMARK SMILES IDX 82 14 33 15 87 16 81 17 83 18 34 19 86 20 80 21 79 22 35 24
REMARK SMILES IDX 67 25 47 26 66 27 48 28 51 29 65 30 84 31 49 32 50 33 64 35
REMARK SMILES IDX 85 36 52 37 36 38 37 39 45 40 38 41 44 42 46 43 43 44 39 45
REMARK SMILES IDX 40 46 41 47 42 48 68 49 69 50 77 51 70 52 76 53 78 54 75 55
REMARK SMILES IDX 71 56 72 57 73 58 74 59 53 60 54 61 62 62 55 63 61 64 63 65
REMARK SMILES IDX 60 66 56 67 57 68 58 69 59 70 5 71 6 72 7 73 8 74 9 76 10 77
REMARK SMILES IDX 11 78 15 79 12 80 14 81 16 82 17 83 18 84 19 85 25 86 20 87
REMARK SMILES IDX 24 88 26 89 21 90 22 91 23 92 13 93
REMARK H PARENT 3 5 83 23 51 34 7 75 13 94
REMARK Flexibility Score: inf
ROOT
ATOM      1  C   UNL A   1      38.969  20.524  25.812  1.00  0.00     0.118 C 
ENDROOT
BRANCH   1   2
ATOM      2  N   UNL A   1      39.978  19.488  26.008  1.00  0.00    -0.352 N 
ATOM      3  O   UNL A   1      42.020  18.566  26.000  1.00  0.00    -0.269 OA
ATOM      4  C   UNL A   1      41.340  19.582  26.122  1.00  0.00     0.251 C 
ATOM      5  H   UNL A   1      39.622  18.573  26.067  1.00  0.00     0.163 HD
BRANCH   4   6
ATOM      6  C   UNL A   1      41.987  20.879  26.414  1.00  0.00     0.039 A 
ATOM      7  C   UNL A   1      42.384  21.159  27.725  1.00  0.00     0.014 A 
ATOM      8  C   UNL A   1      42.122  21.850  25.419  1.00  0.00     0.014 A 
ATOM      9  C   UNL A   1      42.928  22.408  28.032  1.00  0.00     0.010 A 
ATOM     10  C   UNL A   1      42.751  23.053  25.705  1.00  0.00     0.010 A 
ATOM     11  C   UNL A   1      43.120  23.360  27.021  1.00  0.00    -0.014 A 
BRANCH  11  12
ATOM     12  C   UNL A   1      43.642  24.717  27.313  1.00  0.00     0.031 A 
ATOM     13  C   UNL A   1      42.705  25.774  27.827  1.00  0.00     0.074 A 
ATOM     14  C   UNL A   1      44.924  25.015  27.037  1.00  0.00     0.049 A 
ATOM     15  N   UNL A   1      42.930  27.043  28.038  1.00  0.00    -0.248 NA
ATOM     16  C   UNL A   1      41.320  25.357  28.107  1.00  0.00     0.031 C 
ATOM     17  C   UNL A   1      45.904  24.072  26.500  1.00  0.00     0.029 A 
ATOM     18  N   UNL A   1      45.617  26.193  27.151  1.00  0.00    -0.354 N 
ATOM     19  C   UNL A   1      41.712  27.580  28.438  1.00  0.00     0.074 A 
ATOM     20  C   UNL A   1      40.740  26.514  28.386  1.00  0.00     0.031 C 
ATOM     21  C   UNL A   1      47.077  24.702  26.351  1.00  0.00     0.029 A 
ATOM     22  C   UNL A   1      46.921  26.107  26.724  1.00  0.00     0.049 A 
ATOM     23  H   UNL A   1      45.219  27.022  27.505  1.00  0.00     0.167 HD
ATOM     24  C   UNL A   1      41.442  28.844  28.836  1.00  0.00     0.034 A 
ATOM     25  C   UNL A   1      47.877  27.054  26.625  1.00  0.00     0.034 A 
ATOM     26  C   UNL A   1      42.444  29.874  28.924  1.00  0.00     0.049 A 
ATOM     27  C   UNL A   1      47.562  28.455  27.078  1.00  0.00     0.074 A 
ATOM     28  C   UNL A   1      42.301  31.156  29.419  1.00  0.00     0.029 A 
ATOM     29  N   UNL A   1      43.760  29.748  28.503  1.00  0.00    -0.354 N 
ATOM     30  N   UNL A   1      46.436  28.927  27.562  1.00  0.00    -0.248 NA
ATOM     31  C   UNL A   1      48.635  29.453  26.983  1.00  0.00     0.031 C 
ATOM     32  C   UNL A   1      43.503  31.833  29.215  1.00  0.00     0.029 A 
ATOM     33  C   UNL A   1      44.428  30.949  28.678  1.00  0.00     0.049 A 
ATOM     34  H   UNL A   1      44.160  28.927  28.136  1.00  0.00     0.167 HD
ATOM     35  C   UNL A   1      46.666  30.271  27.839  1.00  0.00     0.074 A 
ATOM     36  C   UNL A   1      48.050  30.531  27.494  1.00  0.00     0.031 C 
ATOM     37  C   UNL A   1      45.808  31.200  28.331  1.00  0.00     0.034 A 
BRANCH  24  38
ATOM     38  C   UNL A   1      40.025  29.201  29.221  1.00  0.00     0.023 A 
ATOM     39  C   UNL A   1      39.656  29.206  30.579  1.00  0.00     0.031 A 
ATOM     40  C   UNL A   1      39.021  29.417  28.260  1.00  0.00     0.131 A 
ATOM     41  C   UNL A   1      38.314  29.390  30.937  1.00  0.00     0.055 A 
ATOM     42  C   UNL A   1      37.694  29.655  28.624  1.00  0.00     0.041 A 
ATOM     43  F   UNL A   1      39.316  29.414  26.950  1.00  0.00    -0.206 F 
ATOM     44  C   UNL A   1      37.334  29.628  29.968  1.00  0.00     0.022 A 
BRANCH  41  45
ATOM     45  S   UNL A   1      37.776  29.247  32.662  1.00  0.00     0.124 S 
ATOM     46  O   UNL A   1      38.855  29.934  33.369  1.00  0.00    -0.237 OA
ATOM     47  O   UNL A   1      36.496  29.951  32.642  1.00  0.00    -0.237 OA
ATOM     48  O   UNL A   1      37.700  27.808  32.889  1.00  0.00    -0.744 OA
ENDBRANCH  41  45
ENDBRANCH  24  38
BRANCH  25  49
ATOM     49  C   UNL A   1      49.224  26.647  26.131  1.00  0.00     0.023 A 
ATOM     50  C   UNL A   1      50.284  26.428  27.031  1.00  0.00     0.031 A 
ATOM     51  C   UNL A   1      49.516  26.663  24.757  1.00  0.00     0.131 A 
ATOM     52  C   UNL A   1      51.597  26.342  26.552  1.00  0.00     0.055 A 
ATOM     53  C   UNL A   1      50.817  26.497  24.280  1.00  0.00     0.041 A 
ATOM     54  F   UNL A   1      48.540  26.881  23.862  1.00  0.00    -0.206 F 
ATOM     55  C   UNL A   1      51.870  26.360  25.181  1.00  0.00     0.022 A 
BRANCH  52  56
ATOM     56  S   UNL A   1      53.006  26.381  27.696  1.00  0.00     0.124 S 
ATOM     57  O   UNL A   1      53.610  27.676  27.396  1.00  0.00    -0.237 OA
ATOM     58  O   UNL A   1      52.337  26.282  28.992  1.00  0.00    -0.237 OA
ATOM     59  O   UNL A   1      53.795  25.215  27.315  1.00  0.00    -0.744 OA
ENDBRANCH  52  56
ENDBRANCH  25  49
BRANCH  37  60
ATOM     60  C   UNL A   1      46.296  32.617  28.524  1.00  0.00     0.023 A 
ATOM     61  C   UNL A   1      46.342  33.499  27.425  1.00  0.00     0.031 A 
ATOM     62  C   UNL A   1      46.903  33.020  29.725  1.00  0.00     0.131 A 
ATOM     63  C   UNL A   1      47.047  34.704  27.528  1.00  0.00     0.055 A 
ATOM     64  C   UNL A   1      47.552  34.251  29.840  1.00  0.00     0.041 A 
ATOM     65  F   UNL A   1      46.893  32.213  30.797  1.00  0.00    -0.206 F 
ATOM     66  C   UNL A   1      47.644  35.089  28.732  1.00  0.00     0.022 A 
BRANCH  63  67
ATOM     67  S   UNL A   1      47.312  35.759  26.074  1.00  0.00     0.124 S 
ATOM     68  O   UNL A   1      46.797  34.919  24.994  1.00  0.00    -0.237 OA
ATOM     69  O   UNL A   1      46.500  36.930  26.395  1.00  0.00    -0.237 OA
ATOM     70  O   UNL A   1      48.754  35.979  26.057  1.00  0.00    -0.744 OA
ENDBRANCH  63  67
ENDBRANCH  37  60
ENDBRANCH  11  12
ENDBRANCH   4   6
ENDBRANCH   1   2
BRANCH   1  71
ATOM     71  C   UNL A   1      37.780  20.009  25.009  1.00  0.00     0.042 C 
BRANCH  71  72
ATOM     72  C   UNL A   1      36.622  21.002  24.945  1.00  0.00     0.117 C 
BRANCH  72  73
ATOM     73  N   UNL A   1      35.918  21.115  26.197  1.00  0.00    -0.354 N 
ATOM     74  C   UNL A   1      34.854  21.886  26.543  1.00  0.00     0.242 C 
ATOM     75  H   UNL A   1      36.264  20.541  26.917  1.00  0.00     0.163 HD
ATOM     76  O   UNL A   1      34.470  21.777  27.714  1.00  0.00    -0.273 OA
BRANCH  74  77
ATOM     77  C   UNL A   1      34.131  22.866  25.575  1.00  0.00     0.177 C 
ATOM     78  C   UNL A   1      35.016  23.967  24.957  1.00  0.00     0.069 C 
ATOM     79  N   UNL A   1      33.342  22.333  24.455  1.00  0.00    -0.324 N 
ATOM     80  C   UNL A   1      34.740  23.947  23.449  1.00  0.00     0.136 C 
ATOM     81  C   UNL A   1      33.397  23.247  23.321  1.00  0.00     0.152 C 
BRANCH  79  82
ATOM     82  C   UNL A   1      32.274  21.475  24.696  1.00  0.00     0.256 C 
ATOM     83  O   UNL A   1      31.213  21.801  25.199  1.00  0.00    -0.269 OA
BRANCH  82  84
ATOM     84  C   UNL A   1      32.462  20.054  24.337  1.00  0.00     0.061 A 
ATOM     85  C   UNL A   1      32.877  19.174  25.346  1.00  0.00     0.057 A 
ATOM     86  C   UNL A   1      32.268  19.594  23.027  1.00  0.00     0.056 A 
ATOM     87  C   UNL A   1      33.150  17.853  25.020  1.00  0.00     0.159 A 
ATOM     88  C   UNL A   1      32.531  18.257  22.718  1.00  0.00     0.063 A 
ATOM     89  Cl  UNL A   1      31.777  20.633  21.740  1.00  0.00    -0.083 Cl
ATOM     90  F   UNL A   1      33.603  17.024  25.970  1.00  0.00    -0.204 F 
ATOM     91  C   UNL A   1      32.983  17.399  23.716  1.00  0.00     0.160 A 
ATOM     92  F   UNL A   1      33.274  16.128  23.405  1.00  0.00    -0.204 F 
ENDBRANCH  82  84
ENDBRANCH  79  82
BRANCH  80  93
ATOM     93  O   UNL A   1      35.761  23.254  22.737  1.00  0.00    -0.391 OA
ATOM     94  H   UNL A   1      35.856  23.639  21.851  1.00  0.00     0.211 HD
ENDBRANCH  80  93
ENDBRANCH  74  77
ENDBRANCH  72  73
ENDBRANCH  71  72
ENDBRANCH   1  71
TORSDOF 16
ENDMDL
MODEL 2
REMARK VINA RESULT:     -12.4      1.893      3.016
REMARK SMILES O=C(NCCCNC(=O)[C@H]1C[C@@H](O)CN1C(=O)c1cc(F)c(F)cc1Cl)c1ccc(-c2c3nc(c(-c4cc(S(=O)(=O)[O-])ccc4F)c4ccc([nH]4)c(-c4cc(S(=O)(=O)[O-])ccc4F)c4nc(c(-c5cc(S(=O)(=O)[O-])ccc5F)c5ccc2[nH]5)C=C4)C=C3)cc1
REMARK SMILES IDX 4 1 3 2 1 3 2 4 27 6 28 7 89 8 29 9 88 10 30 11 31 12 32 13
REMARK SMILES IDX 82 14 33 15 87 16 81 17 83 18 34 19 86 20 80 21 79 22 35 24
REMARK SMILES IDX 67 25 47 26 66 27 48 28 51 29 65 30 84 31 49 32 50 33 64 35
REMARK SMILES IDX 85 36 52 37 36 38 37 39 45 40 38 41 44 42 46 43 43 44 39 45
REMARK SMILES IDX 40 46 41 47 42 48 68 49 69 50 77 51 70 52 76 53 78 54 75 55
REMARK SMILES IDX 71 56 72 57 73 58 74 59 53 60 54 61 62 62 55 63 61 64 63 65
REMARK SMILES IDX 60 66 56 67 57 68 58 69 59 70 5 71 6 72 7 73 8 74 9 76 10 77
REMARK SMILES IDX 11 78 15 79 12 80 14 81 16 82 17 83 18 84 19 85 25 86 20 87
REMARK SMILES IDX 24 88 26 89 21 90 22 91 23 92 13 93
REMARK H PARENT 3 5 83 23 51 34 7 75 13 94
REMARK Flexibility Score: inf
ROOT
ATOM      1  C   UNL A   1      39.385  20.266  26.226  1.00  0.00     0.118 C 
ENDROOT
BRANCH   1   2
ATOM      2  N   UNL A   1      40.469  19.295  26.130  1.00  0.00    -0.352 N 
ATOM      3  O   UNL A   1      42.527  18.534  25.674  1.00  0.00    -0.269 OA
ATOM      4  C   UNL A   1      41.822  19.479  26.023  1.00  0.00     0.251 C 
ATOM      5  H   UNL A   1      40.181  18.354  26.144  1.00  0.00     0.163 HD
BRANCH   4   6
ATOM      6  C   UNL A   1      42.436  20.783  26.348  1.00  0.00     0.039 A 
ATOM      7  C   UNL A   1      42.646  21.120  27.690  1.00  0.00     0.014 A 
ATOM      8  C   UNL A   1      42.722  21.708  25.341  1.00  0.00     0.014 A 
ATOM      9  C   UNL A   1      43.155  22.378  28.016  1.00  0.00     0.010 A 
ATOM     10  C   UNL A   1      43.318  22.920  25.662  1.00  0.00     0.010 A 
ATOM     11  C   UNL A   1      43.500  23.283  27.003  1.00  0.00    -0.014 A 
BRANCH  11  12
ATOM     12  C   UNL A   1      43.991  24.648  27.307  1.00  0.00     0.031 A 
ATOM     13  C   UNL A   1      43.030  25.679  27.832  1.00  0.00     0.074 A 
ATOM     14  C   UNL A   1      45.266  24.979  27.034  1.00  0.00     0.049 A 
ATOM     15  N   UNL A   1      43.226  26.951  28.054  1.00  0.00    -0.248 NA
ATOM     16  C   UNL A   1      41.656  25.228  28.108  1.00  0.00     0.031 C 
ATOM     17  C   UNL A   1      46.266  24.064  26.488  1.00  0.00     0.029 A 
ATOM     18  N   UNL A   1      45.932  26.172  27.158  1.00  0.00    -0.354 N 
ATOM     19  C   UNL A   1      41.997  27.456  28.459  1.00  0.00     0.074 A 
ATOM     20  C   UNL A   1      41.049  26.369  28.398  1.00  0.00     0.031 C 
ATOM     21  C   UNL A   1      47.425  24.722  26.344  1.00  0.00     0.029 A 
ATOM     22  C   UNL A   1      47.236  26.120  26.730  1.00  0.00     0.049 A 
ATOM     23  H   UNL A   1      45.514  26.987  27.521  1.00  0.00     0.167 HD
ATOM     24  C   UNL A   1      41.697  28.710  28.869  1.00  0.00     0.034 A 
ATOM     25  C   UNL A   1      48.171  27.089  26.640  1.00  0.00     0.034 A 
ATOM     26  C   UNL A   1      42.675  29.762  28.966  1.00  0.00     0.049 A 
ATOM     27  C   UNL A   1      47.824  28.478  27.106  1.00  0.00     0.074 A 
ATOM     28  C   UNL A   1      42.504  31.036  29.474  1.00  0.00     0.029 A 
ATOM     29  N   UNL A   1      43.994  29.670  28.544  1.00  0.00    -0.354 N 
ATOM     30  N   UNL A   1      46.688  28.919  27.595  1.00  0.00    -0.248 NA
ATOM     31  C   UNL A   1      48.874  29.501  27.020  1.00  0.00     0.031 C 
ATOM     32  C   UNL A   1      43.690  31.742  29.275  1.00  0.00     0.029 A 
ATOM     33  C   UNL A   1      44.634  30.884  28.730  1.00  0.00     0.049 A 
ATOM     34  H   UNL A   1      44.413  28.862  28.169  1.00  0.00     0.167 HD
ATOM     35  C   UNL A   1      46.887  30.265  27.884  1.00  0.00     0.074 A 
ATOM     36  C   UNL A   1      48.264  30.560  27.541  1.00  0.00     0.031 C 
ATOM     37  C   UNL A   1      46.009  31.170  28.385  1.00  0.00     0.034 A 
BRANCH  24  38
ATOM     38  C   UNL A   1      40.273  29.031  29.258  1.00  0.00     0.023 A 
ATOM     39  C   UNL A   1      39.886  28.944  30.608  1.00  0.00     0.031 A 
ATOM     40  C   UNL A   1      39.280  29.302  28.300  1.00  0.00     0.131 A 
ATOM     41  C   UNL A   1      38.539  29.095  30.959  1.00  0.00     0.055 A 
ATOM     42  C   UNL A   1      37.947  29.507  28.661  1.00  0.00     0.041 A 
ATOM     43  F   UNL A   1      39.592  29.388  26.997  1.00  0.00    -0.206 F 
ATOM     44  C   UNL A   1      37.570  29.389  29.995  1.00  0.00     0.022 A 
BRANCH  41  45
ATOM     45  S   UNL A   1      37.980  28.835  32.665  1.00  0.00     0.124 S 
ATOM     46  O   UNL A   1      36.636  29.409  32.629  1.00  0.00    -0.237 OA
ATOM     47  O   UNL A   1      38.034  27.380  32.784  1.00  0.00    -0.237 OA
ATOM     48  O   UNL A   1      38.949  29.570  33.469  1.00  0.00    -0.744 OA
ENDBRANCH  41  45
ENDBRANCH  24  38
BRANCH  25  49
ATOM     49  C   UNL A   1      49.527  26.717  26.142  1.00  0.00     0.023 A 
ATOM     50  C   UNL A   1      50.589  26.504  27.040  1.00  0.00     0.031 A 
ATOM     51  C   UNL A   1      49.820  26.762  24.769  1.00  0.00     0.131 A 
ATOM     52  C   UNL A   1      51.905  26.453  26.562  1.00  0.00     0.055 A 
ATOM     53  C   UNL A   1      51.125  26.630  24.291  1.00  0.00     0.041 A 
ATOM     54  F   UNL A   1      48.842  26.975  23.876  1.00  0.00    -0.206 F 
ATOM     55  C   UNL A   1      52.179  26.500  25.192  1.00  0.00     0.022 A 
BRANCH  52  56
ATOM     56  S   UNL A   1      53.310  26.502  27.710  1.00  0.00     0.124 S 
ATOM     57  O   UNL A   1      54.154  25.420  27.211  1.00  0.00    -0.237 OA
ATOM     58  O   UNL A   1      53.823  27.853  27.492  1.00  0.00    -0.237 OA
ATOM     59  O   UNL A   1      52.700  26.273  29.015  1.00  0.00    -0.744 OA
ENDBRANCH  52  56
ENDBRANCH  25  49
BRANCH  37  60
ATOM     60  C   UNL A   1      46.464  32.596  28.590  1.00  0.00     0.023 A 
ATOM     61  C   UNL A   1      46.515  33.481  27.495  1.00  0.00     0.031 A 
ATOM     62  C   UNL A   1      47.038  33.008  29.805  1.00  0.00     0.131 A 
ATOM     63  C   UNL A   1      47.193  34.700  27.615  1.00  0.00     0.055 A 
ATOM     64  C   UNL A   1      47.660  34.251  29.936  1.00  0.00     0.041 A 
ATOM     65  F   UNL A   1      47.023  32.198  30.875  1.00  0.00    -0.206 F 
ATOM     66  C   UNL A   1      47.758  35.094  28.831  1.00  0.00     0.022 A 
BRANCH  63  67
ATOM     67  S   UNL A   1      47.466  35.764  26.169  1.00  0.00     0.124 S 
ATOM     68  O   UNL A   1      46.221  36.528  26.117  1.00  0.00    -0.237 OA
ATOM     69  O   UNL A   1      48.648  36.524  26.567  1.00  0.00    -0.237 OA
ATOM     70  O   UNL A   1      47.663  34.823  25.072  1.00  0.00    -0.744 OA
ENDBRANCH  63  67
ENDBRANCH  37  60
ENDBRANCH  11  12
ENDBRANCH   4   6
ENDBRANCH   1   2
BRANCH   1  71
ATOM     71  C   UNL A   1      38.440  20.177  25.033  1.00  0.00     0.042 C 
BRANCH  71  72
ATOM     72  C   UNL A   1      37.684  21.477  24.766  1.00  0.00     0.117 C 
BRANCH  72  73
ATOM     73  N   UNL A   1      36.782  21.824  25.835  1.00  0.00    -0.354 N 
ATOM     74  C   UNL A   1      35.429  21.725  25.913  1.00  0.00     0.242 C 
ATOM     75  H   UNL A   1      37.216  22.191  26.638  1.00  0.00     0.163 HD
ATOM     76  O   UNL A   1      34.922  22.120  26.970  1.00  0.00    -0.273 OA
BRANCH  74  77
ATOM     77  C   UNL A   1      34.526  21.168  24.776  1.00  0.00     0.177 C 
ATOM     78  C   UNL A   1      33.545  20.051  25.188  1.00  0.00     0.069 C 
ATOM     79  N   UNL A   1      33.730  22.095  23.958  1.00  0.00    -0.324 N 
ATOM     80  C   UNL A   1      32.173  20.456  24.637  1.00  0.00     0.136 C 
ATOM     81  C   UNL A   1      32.488  21.456  23.538  1.00  0.00     0.152 C 
BRANCH  79  82
ATOM     82  C   UNL A   1      34.356  23.103  23.232  1.00  0.00     0.256 C 
ATOM     83  O   UNL A   1      35.471  23.028  22.746  1.00  0.00    -0.269 OA
BRANCH  82  84
ATOM     84  C   UNL A   1      33.615  24.371  23.069  1.00  0.00     0.061 A 
ATOM     85  C   UNL A   1      32.895  24.559  21.881  1.00  0.00     0.057 A 
ATOM     86  C   UNL A   1      33.651  25.375  24.047  1.00  0.00     0.056 A 
ATOM     87  C   UNL A   1      32.265  25.775  21.659  1.00  0.00     0.159 A 
ATOM     88  C   UNL A   1      32.996  26.588  23.815  1.00  0.00     0.063 A 
ATOM     89  Cl  UNL A   1      34.534  25.208  25.519  1.00  0.00    -0.083 Cl
ATOM     90  F   UNL A   1      31.625  25.979  20.500  1.00  0.00    -0.204 F 
ATOM     91  C   UNL A   1      32.318  26.783  22.616  1.00  0.00     0.160 A 
ATOM     92  F   UNL A   1      31.728  27.963  22.382  1.00  0.00    -0.204 F 
ENDBRANCH  82  84
ENDBRANCH  79  82
BRANCH  80  93
ATOM     93  O   UNL A   1      31.350  21.032  25.648  1.00  0.00    -0.391 OA
ATOM     94  H   UNL A   1      31.030  21.898  25.349  1.00  0.00     0.211 HD
ENDBRANCH  80  93
ENDBRANCH  74  77
ENDBRANCH  72  73
ENDBRANCH  71  72
ENDBRANCH   1  71
TORSDOF 16
ENDMDL
MODEL 3
REMARK VINA RESULT:     -12.3      2.062      2.388
REMARK SMILES O=C(NCCCNC(=O)[C@H]1C[C@@H](O)CN1C(=O)c1cc(F)c(F)cc1Cl)c1ccc(-c2c3nc(c(-c4cc(S(=O)(=O)[O-])ccc4F)c4ccc([nH]4)c(-c4cc(S(=O)(=O)[O-])ccc4F)c4nc(c(-c5cc(S(=O)(=O)[O-])ccc5F)c5ccc2[nH]5)C=C4)C=C3)cc1
REMARK SMILES IDX 4 1 3 2 1 3 2 4 27 6 28 7 89 8 29 9 88 10 30 11 31 12 32 13
REMARK SMILES IDX 82 14 33 15 87 16 81 17 83 18 34 19 86 20 80 21 79 22 35 24
REMARK SMILES IDX 67 25 47 26 66 27 48 28 51 29 65 30 84 31 49 32 50 33 64 35
REMARK SMILES IDX 85 36 52 37 36 38 37 39 45 40 38 41 44 42 46 43 43 44 39 45
REMARK SMILES IDX 40 46 41 47 42 48 68 49 69 50 77 51 70 52 76 53 78 54 75 55
REMARK SMILES IDX 71 56 72 57 73 58 74 59 53 60 54 61 62 62 55 63 61 64 63 65
REMARK SMILES IDX 60 66 56 67 57 68 58 69 59 70 5 71 6 72 7 73 8 74 9 76 10 77
REMARK SMILES IDX 11 78 15 79 12 80 14 81 16 82 17 83 18 84 19 85 25 86 20 87
REMARK SMILES IDX 24 88 26 89 21 90 22 91 23 92 13 93
REMARK H PARENT 3 5 83 23 51 34 7 75 13 94
REMARK Flexibility Score: inf
ROOT
ATOM      1  C   UNL A   1      38.691  20.504  25.731  1.00  0.00     0.118 C 
ENDROOT
BRANCH   1   2
ATOM      2  N   UNL A   1      39.765  19.533  25.905  1.00  0.00    -0.352 N 
ATOM      3  O   UNL A   1      41.868  18.759  25.910  1.00  0.00    -0.269 OA
ATOM      4  C   UNL A   1      41.115  19.717  26.061  1.00  0.00     0.251 C 
ATOM      5  H   UNL A   1      39.475  18.594  25.912  1.00  0.00     0.163 HD
BRANCH   4   6
ATOM      6  C   UNL A   1      41.660  21.040  26.432  1.00  0.00     0.039 A 
ATOM      7  C   UNL A   1      41.889  21.326  27.782  1.00  0.00     0.014 A 
ATOM      8  C   UNL A   1      41.861  22.026  25.464  1.00  0.00     0.014 A 
ATOM      9  C   UNL A   1      42.332  22.596  28.155  1.00  0.00     0.010 A 
ATOM     10  C   UNL A   1      42.394  23.255  25.826  1.00  0.00     0.010 A 
ATOM     11  C   UNL A   1      42.593  23.566  27.177  1.00  0.00    -0.014 A 
BRANCH  11  12
ATOM     12  C   UNL A   1      43.011  24.943  27.534  1.00  0.00     0.031 A 
ATOM     13  C   UNL A   1      42.022  25.872  28.180  1.00  0.00     0.074 A 
ATOM     14  C   UNL A   1      44.240  25.377  27.203  1.00  0.00     0.049 A 
ATOM     15  N   UNL A   1      42.147  27.140  28.467  1.00  0.00    -0.248 NA
ATOM     16  C   UNL A   1      40.701  25.311  28.513  1.00  0.00     0.031 C 
ATOM     17  C   UNL A   1      45.261  24.567  26.540  1.00  0.00     0.029 A 
ATOM     18  N   UNL A   1      44.833  26.605  27.358  1.00  0.00    -0.354 N 
ATOM     19  C   UNL A   1      40.916  27.534  28.979  1.00  0.00     0.074 A 
ATOM     20  C   UNL A   1      40.041  26.387  28.909  1.00  0.00     0.031 C 
ATOM     21  C   UNL A   1      46.361  25.312  26.364  1.00  0.00     0.029 A 
ATOM     22  C   UNL A   1      46.107  26.669  26.847  1.00  0.00     0.049 A 
ATOM     23  H   UNL A   1      44.387  27.367  27.795  1.00  0.00     0.167 HD
ATOM     24  C   UNL A   1      40.562  28.738  29.483  1.00  0.00     0.034 A 
ATOM     25  C   UNL A   1      46.966  27.705  26.758  1.00  0.00     0.034 A 
ATOM     26  C   UNL A   1      41.473  29.849  29.583  1.00  0.00     0.049 A 
ATOM     27  C   UNL A   1      46.560  29.037  27.329  1.00  0.00     0.074 A 
ATOM     28  C   UNL A   1      41.251  31.077  30.177  1.00  0.00     0.029 A 
ATOM     29  N   UNL A   1      42.764  29.874  29.075  1.00  0.00    -0.354 N 
ATOM     30  N   UNL A   1      45.432  29.369  27.914  1.00  0.00    -0.248 NA
ATOM     31  C   UNL A   1      47.532  30.135  27.241  1.00  0.00     0.031 C 
ATOM     32  C   UNL A   1      42.371  31.874  29.949  1.00  0.00     0.029 A 
ATOM     33  C   UNL A   1      43.332  31.117  29.294  1.00  0.00     0.049 A 
ATOM     34  H   UNL A   1      43.209  29.120  28.625  1.00  0.00     0.167 HD
ATOM     35  C   UNL A   1      45.560  30.707  28.273  1.00  0.00     0.074 A 
ATOM     36  C   UNL A   1      46.889  31.117  27.863  1.00  0.00     0.031 C 
ATOM     37  C   UNL A   1      44.659  31.519  28.882  1.00  0.00     0.034 A 
BRANCH  24  38
ATOM     38  C   UNL A   1      39.149  28.936  29.979  1.00  0.00     0.023 A 
ATOM     39  C   UNL A   1      38.217  29.611  29.169  1.00  0.00     0.031 A 
ATOM     40  C   UNL A   1      38.755  28.569  31.278  1.00  0.00     0.131 A 
ATOM     41  C   UNL A   1      36.951  29.928  29.677  1.00  0.00     0.055 A 
ATOM     42  C   UNL A   1      37.473  28.838  31.761  1.00  0.00     0.041 A 
ATOM     43  F   UNL A   1      39.606  27.930  32.097  1.00  0.00    -0.206 F 
ATOM     44  C   UNL A   1      36.570  29.534  30.963  1.00  0.00     0.022 A 
BRANCH  41  45
ATOM     45  S   UNL A   1      35.783  30.933  28.722  1.00  0.00     0.124 S 
ATOM     46  O   UNL A   1      35.056  31.632  29.781  1.00  0.00    -0.237 OA
ATOM     47  O   UNL A   1      36.680  31.768  27.926  1.00  0.00    -0.237 OA
ATOM     48  O   UNL A   1      35.003  29.953  27.975  1.00  0.00    -0.744 OA
ENDBRANCH  41  45
ENDBRANCH  24  38
BRANCH  25  49
ATOM     49  C   UNL A   1      48.308  27.459  26.154  1.00  0.00     0.023 A 
ATOM     50  C   UNL A   1      48.534  27.691  24.785  1.00  0.00     0.031 A 
ATOM     51  C   UNL A   1      49.314  26.810  26.891  1.00  0.00     0.131 A 
ATOM     52  C   UNL A   1      49.688  27.182  24.174  1.00  0.00     0.055 A 
ATOM     53  C   UNL A   1      50.498  26.375  26.293  1.00  0.00     0.041 A 
ATOM     54  F   UNL A   1      49.137  26.556  28.196  1.00  0.00    -0.206 F 
ATOM     55  C   UNL A   1      50.678  26.538  24.922  1.00  0.00     0.022 A 
BRANCH  52  56
ATOM     56  S   UNL A   1      49.857  27.183  22.367  1.00  0.00     0.124 S 
ATOM     57  O   UNL A   1      51.221  26.695  22.185  1.00  0.00    -0.237 OA
ATOM     58  O   UNL A   1      48.797  26.259  21.970  1.00  0.00    -0.237 OA
ATOM     59  O   UNL A   1      49.634  28.578  21.999  1.00  0.00    -0.744 OA
ENDBRANCH  52  56
ENDBRANCH  25  49
BRANCH  37  60
ATOM     60  C   UNL A   1      45.031  32.959  29.146  1.00  0.00     0.023 A 
ATOM     61  C   UNL A   1      44.633  33.963  28.242  1.00  0.00     0.031 A 
ATOM     62  C   UNL A   1      45.943  33.300  30.159  1.00  0.00     0.131 A 
ATOM     63  C   UNL A   1      45.203  35.240  28.322  1.00  0.00     0.055 A 
ATOM     64  C   UNL A   1      46.462  34.591  30.272  1.00  0.00     0.041 A 
ATOM     65  F   UNL A   1      46.360  32.377  31.040  1.00  0.00    -0.206 F 
ATOM     66  C   UNL A   1      46.109  35.561  29.337  1.00  0.00     0.022 A 
BRANCH  63  67
ATOM     67  S   UNL A   1      44.880  36.490  27.047  1.00  0.00     0.124 S 
ATOM     68  O   UNL A   1      46.131  36.483  26.291  1.00  0.00    -0.237 OA
ATOM     69  O   UNL A   1      43.728  35.925  26.349  1.00  0.00    -0.237 OA
ATOM     70  O   UNL A   1      44.619  37.708  27.806  1.00  0.00    -0.744 OA
ENDBRANCH  63  67
ENDBRANCH  37  60
ENDBRANCH  11  12
ENDBRANCH   4   6
ENDBRANCH   1   2
BRANCH   1  71
ATOM     71  C   UNL A   1      37.500  19.901  24.993  1.00  0.00     0.042 C 
BRANCH  71  72
ATOM     72  C   UNL A   1      36.295  20.837  24.929  1.00  0.00     0.117 C 
BRANCH  72  73
ATOM     73  N   UNL A   1      35.742  21.119  26.228  1.00  0.00    -0.354 N 
ATOM     74  C   UNL A   1      34.746  21.967  26.598  1.00  0.00     0.242 C 
ATOM     75  H   UNL A   1      36.151  20.615  26.969  1.00  0.00     0.163 HD
ATOM     76  O   UNL A   1      34.496  22.006  27.809  1.00  0.00    -0.273 OA
BRANCH  74  77
ATOM     77  C   UNL A   1      33.947  22.861  25.608  1.00  0.00     0.177 C 
ATOM     78  C   UNL A   1      34.742  24.008  24.952  1.00  0.00     0.069 C 
ATOM     79  N   UNL A   1      33.195  22.238  24.509  1.00  0.00    -0.324 N 
ATOM     80  C   UNL A   1      34.461  23.924  23.448  1.00  0.00     0.136 C 
ATOM     81  C   UNL A   1      33.175  23.121  23.349  1.00  0.00     0.152 C 
BRANCH  79  82
ATOM     82  C   UNL A   1      32.196  21.309  24.782  1.00  0.00     0.256 C 
ATOM     83  O   UNL A   1      31.142  21.558  25.342  1.00  0.00    -0.269 OA
BRANCH  82  84
ATOM     84  C   UNL A   1      32.455  19.910  24.384  1.00  0.00     0.061 A 
ATOM     85  C   UNL A   1      32.891  19.018  25.373  1.00  0.00     0.057 A 
ATOM     86  C   UNL A   1      32.307  19.484  23.056  1.00  0.00     0.056 A 
ATOM     87  C   UNL A   1      33.230  17.723  25.012  1.00  0.00     0.159 A 
ATOM     88  C   UNL A   1      32.636  18.170  22.712  1.00  0.00     0.063 A 
ATOM     89  Cl  UNL A   1      31.792  20.540  21.792  1.00  0.00    -0.083 Cl
ATOM     90  F   UNL A   1      33.702  16.885  25.945  1.00  0.00    -0.204 F 
ATOM     91  C   UNL A   1      33.108  17.303  23.692  1.00  0.00     0.160 A 
ATOM     92  F   UNL A   1      33.462  16.057  23.347  1.00  0.00    -0.204 F 
ENDBRANCH  82  84
ENDBRANCH  79  82
BRANCH  80  93
ATOM     93  O   UNL A   1      35.528  23.290  22.748  1.00  0.00    -0.391 OA
ATOM     94  H   UNL A   1      36.354  23.407  23.242  1.00  0.00     0.211 HD
ENDBRANCH  80  93
ENDBRANCH  74  77
ENDBRANCH  72  73
ENDBRANCH  71  72
ENDBRANCH   1  71
TORSDOF 16
ENDMDL
