MODEL 1
REMARK VINA RESULT:     -11.4      0.000      0.000
REMARK SMILES CCC(CC)(NC(=O)c1ccc(N)c(F)c1)C(=O)NCCCNC(=O)c1ccc(-c2c3nc(c(-c4cc(S(=O)(=O)[O-])ccc4F)c4ccc([nH]4)c(-c4cc(S(=O)(=O)[O-])ccc4F)c4nc(c(-c5cc(S(=O)(=O)[O-])ccc5F)c5ccc2[nH]5)C=C4)C=C3)cc1
REMARK SMILES IDX 21 1 20 2 19 3 17 4 18 5 3 7 2 8 1 9 4 10 5 11 6 12 7 13
REMARK SMILES IDX 8 15 9 16 10 17 16 18 11 19 14 20 12 21 15 22 13 23 22 26
REMARK SMILES IDX 23 27 24 28 25 30 26 31 27 32 88 33 28 34 87 35 29 36 30 37
REMARK SMILES IDX 31 38 81 39 32 40 86 41 80 42 82 43 33 44 85 45 79 46 78 47
REMARK SMILES IDX 34 49 66 50 46 51 65 52 47 53 50 54 64 55 83 56 48 57 49 58
REMARK SMILES IDX 63 60 84 61 51 62 35 63 36 64 44 65 37 66 43 67 45 68 42 69
REMARK SMILES IDX 38 70 39 71 40 72 41 73 67 74 68 75 76 76 69 77 75 78 77 79
REMARK SMILES IDX 74 80 70 81 71 82 72 83 73 84 52 85 53 86 61 87 54 88 60 89
REMARK SMILES IDX 62 90 59 91 55 92 56 93 57 94 58 95
REMARK H PARENT 19 6 6 14 13 24 13 25 23 29 82 48 50 59
REMARK Flexibility Score: inf
ROOT
ATOM      1  C   UNL A   1      31.463  31.748  26.516  1.00  0.00     0.042 C 
ENDROOT
BRANCH   1   2
ATOM      2  C   UNL A   1      31.546  30.309  26.002  1.00  0.00     0.117 C 
BRANCH   2   3
ATOM      3  N   UNL A   1      31.375  30.049  24.573  1.00  0.00    -0.354 N 
ATOM      4  C   UNL A   1      31.636  28.980  23.743  1.00  0.00     0.245 C 
ATOM      5  O   UNL A   1      31.228  29.099  22.584  1.00  0.00    -0.272 OA
ATOM      6  H   UNL A   1      30.984  30.814  24.092  1.00  0.00     0.163 HD
BRANCH   4   7
ATOM      7  C   UNL A   1      32.314  27.660  24.240  1.00  0.00     0.118 C 
BRANCH   7   8
ATOM      8  C   UNL A   1      31.574  26.958  25.424  1.00  0.00     0.035 C 
ATOM      9  C   UNL A   1      30.240  26.274  25.149  1.00  0.00     0.007 C 
ENDBRANCH   7   8
BRANCH   7  10
ATOM     10  C   UNL A   1      33.707  28.202  24.726  1.00  0.00     0.035 C 
ATOM     11  C   UNL A   1      34.085  28.052  26.188  1.00  0.00     0.007 C 
ENDBRANCH   7  10
BRANCH   7  12
ATOM     12  N   UNL A   1      32.462  26.615  23.170  1.00  0.00    -0.338 N 
ATOM     13  C   UNL A   1      33.307  25.506  23.053  1.00  0.00     0.252 C 
ATOM     14  H   UNL A   1      31.850  26.732  22.409  1.00  0.00     0.164 HD
ATOM     15  O   UNL A   1      33.723  25.256  21.919  1.00  0.00    -0.269 OA
BRANCH  13  16
ATOM     16  C   UNL A   1      33.671  24.548  24.155  1.00  0.00     0.042 A 
ATOM     17  C   UNL A   1      34.804  24.717  24.929  1.00  0.00     0.016 A 
ATOM     18  C   UNL A   1      32.782  23.561  24.596  1.00  0.00     0.055 A 
ATOM     19  C   UNL A   1      35.122  23.958  26.054  1.00  0.00     0.029 A 
ATOM     20  C   UNL A   1      33.069  22.812  25.758  1.00  0.00     0.146 A 
ATOM     21  C   UNL A   1      34.246  22.994  26.498  1.00  0.00     0.068 A 
ATOM     22  F   UNL A   1      32.166  21.917  26.188  1.00  0.00    -0.205 F 
BRANCH  21  23
ATOM     23  N   UNL A   1      34.507  22.363  27.700  1.00  0.00    -0.396 N 
ATOM     24  H   UNL A   1      34.860  22.878  28.461  1.00  0.00     0.156 HD
ATOM     25  H   UNL A   1      34.340  21.397  27.796  1.00  0.00     0.156 HD
ENDBRANCH  21  23
ENDBRANCH  13  16
ENDBRANCH   7  12
ENDBRANCH   4   7
ENDBRANCH   2   3
ENDBRANCH   1   2
BRANCH   1  26
ATOM     26  C   UNL A   1      32.682  32.375  27.188  1.00  0.00     0.118 C 
BRANCH  26  27
ATOM     27  N   UNL A   1      32.494  33.740  27.623  1.00  0.00    -0.352 N 
ATOM     28  C   UNL A   1      33.208  34.476  28.539  1.00  0.00     0.251 C 
ATOM     29  H   UNL A   1      31.743  34.214  27.200  1.00  0.00     0.163 HD
ATOM     30  O   UNL A   1      32.840  35.619  28.788  1.00  0.00    -0.269 OA
BRANCH  28  31
ATOM     31  C   UNL A   1      34.373  33.900  29.256  1.00  0.00     0.039 A 
ATOM     32  C   UNL A   1      34.116  32.979  30.275  1.00  0.00     0.014 A 
ATOM     33  C   UNL A   1      35.693  34.277  28.983  1.00  0.00     0.014 A 
ATOM     34  C   UNL A   1      35.173  32.407  30.989  1.00  0.00     0.010 A 
ATOM     35  C   UNL A   1      36.753  33.661  29.661  1.00  0.00     0.010 A 
ATOM     36  C   UNL A   1      36.505  32.721  30.675  1.00  0.00    -0.014 A 
BRANCH  36  37
ATOM     37  C   UNL A   1      37.623  32.064  31.412  1.00  0.00     0.031 A 
ATOM     38  C   UNL A   1      38.437  30.974  30.764  1.00  0.00     0.074 A 
ATOM     39  C   UNL A   1      37.912  32.455  32.670  1.00  0.00     0.049 A 
ATOM     40  N   UNL A   1      39.458  30.308  31.243  1.00  0.00    -0.248 NA
ATOM     41  C   UNL A   1      38.041  30.570  29.408  1.00  0.00     0.031 C 
ATOM     42  C   UNL A   1      37.186  33.483  33.418  1.00  0.00     0.029 A 
ATOM     43  N   UNL A   1      38.893  32.045  33.541  1.00  0.00    -0.354 N 
ATOM     44  C   UNL A   1      39.828  29.407  30.249  1.00  0.00     0.074 A 
ATOM     45  C   UNL A   1      38.881  29.575  29.166  1.00  0.00     0.031 C 
ATOM     46  C   UNL A   1      37.766  33.644  34.619  1.00  0.00     0.029 A 
ATOM     47  C   UNL A   1      38.872  32.701  34.750  1.00  0.00     0.049 A 
ATOM     48  H   UNL A   1      39.549  31.344  33.320  1.00  0.00     0.167 HD
ATOM     49  C   UNL A   1      40.871  28.538  30.231  1.00  0.00     0.034 A 
ATOM     50  C   UNL A   1      39.647  32.558  35.845  1.00  0.00     0.034 A 
ATOM     51  C   UNL A   1      41.805  28.377  31.321  1.00  0.00     0.049 A 
ATOM     52  C   UNL A   1      40.768  31.549  35.820  1.00  0.00     0.074 A 
ATOM     53  C   UNL A   1      42.918  27.555  31.387  1.00  0.00     0.029 A 
ATOM     54  N   UNL A   1      41.731  29.034  32.542  1.00  0.00    -0.354 N 
ATOM     55  N   UNL A   1      41.135  30.742  34.850  1.00  0.00    -0.248 NA
ATOM     56  C   UNL A   1      41.588  31.439  37.035  1.00  0.00     0.031 C 
ATOM     57  C   UNL A   1      43.465  27.654  32.670  1.00  0.00     0.029 A 
ATOM     58  C   UNL A   1      42.754  28.608  33.379  1.00  0.00     0.049 A 
ATOM     59  H   UNL A   1      41.051  29.706  32.780  1.00  0.00     0.167 HD
ATOM     60  C   UNL A   1      42.248  30.056  35.329  1.00  0.00     0.074 A 
ATOM     61  C   UNL A   1      42.503  30.556  36.664  1.00  0.00     0.031 C 
ATOM     62  C   UNL A   1      42.996  29.101  34.715  1.00  0.00     0.034 A 
BRANCH  49  63
ATOM     63  C   UNL A   1      41.034  27.669  29.004  1.00  0.00     0.023 A 
ATOM     64  C   UNL A   1      42.054  27.901  28.063  1.00  0.00     0.031 A 
ATOM     65  C   UNL A   1      40.151  26.602  28.763  1.00  0.00     0.131 A 
ATOM     66  C   UNL A   1      42.119  27.129  26.893  1.00  0.00     0.055 A 
ATOM     67  C   UNL A   1      40.274  25.781  27.639  1.00  0.00     0.041 A 
ATOM     68  F   UNL A   1      39.145  26.340  29.612  1.00  0.00    -0.206 F 
ATOM     69  C   UNL A   1      41.253  26.052  26.688  1.00  0.00     0.022 A 
BRANCH  66  70
ATOM     70  S   UNL A   1      43.254  27.644  25.575  1.00  0.00     0.124 S 
ATOM     71  O   UNL A   1      43.990  28.725  26.226  1.00  0.00    -0.237 OA
ATOM     72  O   UNL A   1      44.008  26.424  25.314  1.00  0.00    -0.237 OA
ATOM     73  O   UNL A   1      42.361  28.069  24.500  1.00  0.00    -0.744 OA
ENDBRANCH  66  70
ENDBRANCH  49  63
BRANCH  50  74
ATOM     74  C   UNL A   1      39.388  33.375  37.068  1.00  0.00     0.023 A 
ATOM     75  C   UNL A   1      40.042  34.600  37.280  1.00  0.00     0.031 A 
ATOM     76  C   UNL A   1      38.520  32.911  38.074  1.00  0.00     0.131 A 
ATOM     77  C   UNL A   1      39.859  35.292  38.487  1.00  0.00     0.055 A 
ATOM     78  C   UNL A   1      38.293  33.635  39.246  1.00  0.00     0.041 A 
ATOM     79  F   UNL A   1      37.870  31.746  37.927  1.00  0.00    -0.206 F 
ATOM     80  C   UNL A   1      38.976  34.827  39.464  1.00  0.00     0.022 A 
BRANCH  77  81
ATOM     81  S   UNL A   1      40.868  36.766  38.806  1.00  0.00     0.124 S 
ATOM     82  O   UNL A   1      41.669  36.845  37.591  1.00  0.00    -0.237 OA
ATOM     83  O   UNL A   1      39.851  37.799  38.975  1.00  0.00    -0.237 OA
ATOM     84  O   UNL A   1      41.606  36.417  40.018  1.00  0.00    -0.744 OA
ENDBRANCH  77  81
ENDBRANCH  50  74
BRANCH  62  85
ATOM     85  C   UNL A   1      44.193  28.571  35.472  1.00  0.00     0.023 A 
ATOM     86  C   UNL A   1      44.082  27.529  36.408  1.00  0.00     0.031 A 
ATOM     87  C   UNL A   1      45.465  29.135  35.263  1.00  0.00     0.131 A 
ATOM     88  C   UNL A   1      45.207  27.125  37.145  1.00  0.00     0.055 A 
ATOM     89  C   UNL A   1      46.594  28.680  35.946  1.00  0.00     0.041 A 
ATOM     90  F   UNL A   1      45.634  30.137  34.385  1.00  0.00    -0.206 F 
ATOM     91  C   UNL A   1      46.466  27.681  36.906  1.00  0.00     0.022 A 
BRANCH  88  92
ATOM     92  S   UNL A   1      44.983  25.938  38.499  1.00  0.00     0.124 S 
ATOM     93  O   UNL A   1      43.873  26.530  39.240  1.00  0.00    -0.237 OA
ATOM     94  O   UNL A   1      44.685  24.701  37.785  1.00  0.00    -0.237 OA
ATOM     95  O   UNL A   1      46.271  25.959  39.191  1.00  0.00    -0.744 OA
ENDBRANCH  88  92
ENDBRANCH  62  85
ENDBRANCH  36  37
ENDBRANCH  28  31
ENDBRANCH  26  27
ENDBRANCH   1  26
TORSDOF 18
ENDMDL
MODEL 2
REMARK VINA RESULT:     -11.4      2.199      7.955
REMARK SMILES CCC(CC)(NC(=O)c1ccc(N)c(F)c1)C(=O)NCCCNC(=O)c1ccc(-c2c3nc(c(-c4cc(S(=O)(=O)[O-])ccc4F)c4ccc([nH]4)c(-c4cc(S(=O)(=O)[O-])ccc4F)c4nc(c(-c5cc(S(=O)(=O)[O-])ccc5F)c5ccc2[nH]5)C=C4)C=C3)cc1
REMARK SMILES IDX 21 1 20 2 19 3 17 4 18 5 3 7 2 8 1 9 4 10 5 11 6 12 7 13
REMARK SMILES IDX 8 15 9 16 10 17 16 18 11 19 14 20 12 21 15 22 13 23 22 26
REMARK SMILES IDX 23 27 24 28 25 30 26 31 27 32 88 33 28 34 87 35 29 36 30 37
REMARK SMILES IDX 31 38 81 39 32 40 86 41 80 42 82 43 33 44 85 45 79 46 78 47
REMARK SMILES IDX 34 49 66 50 46 51 65 52 47 53 50 54 64 55 83 56 48 57 49 58
REMARK SMILES IDX 63 60 84 61 51 62 35 63 36 64 44 65 37 66 43 67 45 68 42 69
REMARK SMILES IDX 38 70 39 71 40 72 41 73 67 74 68 75 76 76 69 77 75 78 77 79
REMARK SMILES IDX 74 80 70 81 71 82 72 83 73 84 52 85 53 86 61 87 54 88 60 89
REMARK SMILES IDX 62 90 59 91 55 92 56 93 57 94 58 95
REMARK H PARENT 19 6 6 14 13 24 13 25 23 29 82 48 50 59
REMARK Flexibility Score: inf
ROOT
ATOM      1  C   UNL A   1      31.376  31.175  26.097  1.00  0.00     0.042 C 
ENDROOT
BRANCH   1   2
ATOM      2  C   UNL A   1      31.474  29.830  25.373  1.00  0.00     0.117 C 
BRANCH   2   3
ATOM      3  N   UNL A   1      30.977  29.719  24.001  1.00  0.00    -0.354 N 
ATOM      4  C   UNL A   1      31.055  28.758  23.016  1.00  0.00     0.245 C 
ATOM      5  O   UNL A   1      30.384  28.984  22.004  1.00  0.00    -0.272 OA
ATOM      6  H   UNL A   1      30.471  30.514  23.715  1.00  0.00     0.163 HD
BRANCH   4   7
ATOM      7  C   UNL A   1      31.854  27.424  23.189  1.00  0.00     0.118 C 
BRANCH   7   8
ATOM      8  C   UNL A   1      31.296  26.472  24.295  1.00  0.00     0.035 C 
ATOM      9  C   UNL A   1      29.823  26.083  24.252  1.00  0.00     0.007 C 
ENDBRANCH   7   8
BRANCH   7  10
ATOM     10  C   UNL A   1      33.265  27.970  23.613  1.00  0.00     0.035 C 
ATOM     11  C   UNL A   1      34.096  28.729  22.596  1.00  0.00     0.007 C 
ENDBRANCH   7  10
BRANCH   7  12
ATOM     12  N   UNL A   1      31.928  26.596  21.936  1.00  0.00    -0.338 N 
ATOM     13  C   UNL A   1      32.773  25.550  21.551  1.00  0.00     0.252 C 
ATOM     14  H   UNL A   1      31.255  26.835  21.258  1.00  0.00     0.164 HD
ATOM     15  O   UNL A   1      33.100  25.523  20.361  1.00  0.00    -0.269 OA
BRANCH  13  16
ATOM     16  C   UNL A   1      33.236  24.416  22.426  1.00  0.00     0.042 A 
ATOM     17  C   UNL A   1      34.320  24.541  23.276  1.00  0.00     0.016 A 
ATOM     18  C   UNL A   1      32.476  23.253  22.586  1.00  0.00     0.055 A 
ATOM     19  C   UNL A   1      34.710  23.588  24.215  1.00  0.00     0.029 A 
ATOM     20  C   UNL A   1      32.833  22.297  23.562  1.00  0.00     0.146 A 
ATOM     21  C   UNL A   1      33.959  22.447  24.384  1.00  0.00     0.068 A 
ATOM     22  F   UNL A   1      32.047  21.223  23.732  1.00  0.00    -0.205 F 
BRANCH  21  23
ATOM     23  N   UNL A   1      34.274  21.593  25.425  1.00  0.00    -0.396 N 
ATOM     24  H   UNL A   1      35.179  21.602  25.814  1.00  0.00     0.156 HD
ATOM     25  H   UNL A   1      33.594  20.974  25.777  1.00  0.00     0.156 HD
ENDBRANCH  21  23
ENDBRANCH  13  16
ENDBRANCH   7  12
ENDBRANCH   4   7
ENDBRANCH   2   3
ENDBRANCH   1   2
BRANCH   1  26
ATOM     26  C   UNL A   1      32.585  31.703  26.864  1.00  0.00     0.118 C 
BRANCH  26  27
ATOM     27  N   UNL A   1      32.491  33.091  27.255  1.00  0.00    -0.352 N 
ATOM     28  C   UNL A   1      33.333  33.841  28.041  1.00  0.00     0.251 C 
ATOM     29  H   UNL A   1      31.707  33.572  26.906  1.00  0.00     0.163 HD
ATOM     30  O   UNL A   1      33.031  35.005  28.280  1.00  0.00    -0.269 OA
BRANCH  28  31
ATOM     31  C   UNL A   1      34.562  33.257  28.635  1.00  0.00     0.039 A 
ATOM     32  C   UNL A   1      34.404  32.328  29.668  1.00  0.00     0.014 A 
ATOM     33  C   UNL A   1      35.849  33.634  28.237  1.00  0.00     0.014 A 
ATOM     34  C   UNL A   1      35.525  31.749  30.269  1.00  0.00     0.010 A 
ATOM     35  C   UNL A   1      36.969  33.011  28.802  1.00  0.00     0.010 A 
ATOM     36  C   UNL A   1      36.820  32.063  29.828  1.00  0.00    -0.014 A 
BRANCH  36  37
ATOM     37  C   UNL A   1      38.004  31.399  30.447  1.00  0.00     0.031 A 
ATOM     38  C   UNL A   1      38.421  31.725  31.857  1.00  0.00     0.074 A 
ATOM     39  C   UNL A   1      38.704  30.491  29.737  1.00  0.00     0.049 A 
ATOM     40  N   UNL A   1      39.406  31.231  32.564  1.00  0.00    -0.248 NA
ATOM     41  C   UNL A   1      37.638  32.753  32.557  1.00  0.00     0.031 C 
ATOM     42  C   UNL A   1      38.418  30.102  28.354  1.00  0.00     0.029 A 
ATOM     43  N   UNL A   1      39.793  29.725  30.075  1.00  0.00    -0.354 N 
ATOM     44  C   UNL A   1      39.363  31.885  33.792  1.00  0.00     0.074 A 
ATOM     45  C   UNL A   1      38.289  32.853  33.706  1.00  0.00     0.031 C 
ATOM     46  C   UNL A   1      39.286  29.150  27.977  1.00  0.00     0.029 A 
ATOM     47  C   UNL A   1      40.222  28.892  29.067  1.00  0.00     0.049 A 
ATOM     48  H   UNL A   1      40.228  29.768  30.958  1.00  0.00     0.167 HD
ATOM     49  C   UNL A   1      40.131  31.683  34.893  1.00  0.00     0.034 A 
ATOM     50  C   UNL A   1      41.255  28.025  29.017  1.00  0.00     0.034 A 
ATOM     51  C   UNL A   1      41.203  30.717  34.963  1.00  0.00     0.049 A 
ATOM     52  C   UNL A   1      42.126  27.856  30.237  1.00  0.00     0.074 A 
ATOM     53  C   UNL A   1      42.011  30.406  36.043  1.00  0.00     0.029 A 
ATOM     54  N   UNL A   1      41.629  29.917  33.911  1.00  0.00    -0.354 N 
ATOM     55  N   UNL A   1      42.037  28.446  31.407  1.00  0.00    -0.248 NA
ATOM     56  C   UNL A   1      43.231  26.893  30.133  1.00  0.00     0.031 C 
ATOM     57  C   UNL A   1      42.975  29.483  35.621  1.00  0.00     0.029 A 
ATOM     58  C   UNL A   1      42.712  29.144  34.305  1.00  0.00     0.049 A 
ATOM     59  H   UNL A   1      41.221  29.901  33.014  1.00  0.00     0.167 HD
ATOM     60  C   UNL A   1      43.053  27.899  32.186  1.00  0.00     0.074 A 
ATOM     61  C   UNL A   1      43.729  26.921  31.360  1.00  0.00     0.031 C 
ATOM     62  C   UNL A   1      43.392  28.178  33.472  1.00  0.00     0.034 A 
BRANCH  49  63
ATOM     63  C   UNL A   1      39.858  32.550  36.103  1.00  0.00     0.023 A 
ATOM     64  C   UNL A   1      38.979  32.143  37.122  1.00  0.00     0.031 A 
ATOM     65  C   UNL A   1      40.474  33.807  36.233  1.00  0.00     0.131 A 
ATOM     66  C   UNL A   1      38.684  33.012  38.184  1.00  0.00     0.055 A 
ATOM     67  C   UNL A   1      40.243  34.633  37.336  1.00  0.00     0.041 A 
ATOM     68  F   UNL A   1      41.308  34.263  35.284  1.00  0.00    -0.206 F 
ATOM     69  C   UNL A   1      39.331  34.243  38.312  1.00  0.00     0.022 A 
BRANCH  66  70
ATOM     70  S   UNL A   1      37.333  32.575  39.313  1.00  0.00     0.124 S 
ATOM     71  O   UNL A   1      37.562  33.502  40.419  1.00  0.00    -0.237 OA
ATOM     72  O   UNL A   1      36.149  32.829  38.501  1.00  0.00    -0.237 OA
ATOM     73  O   UNL A   1      37.588  31.170  39.626  1.00  0.00    -0.744 OA
ENDBRANCH  66  70
ENDBRANCH  49  63
BRANCH  50  74
ATOM     74  C   UNL A   1      41.542  27.259  27.767  1.00  0.00     0.023 A 
ATOM     75  C   UNL A   1      41.343  25.870  27.702  1.00  0.00     0.031 A 
ATOM     76  C   UNL A   1      42.073  27.901  26.634  1.00  0.00     0.131 A 
ATOM     77  C   UNL A   1      41.721  25.162  26.550  1.00  0.00     0.055 A 
ATOM     78  C   UNL A   1      42.389  27.201  25.468  1.00  0.00     0.041 A 
ATOM     79  F   UNL A   1      42.286  29.226  26.640  1.00  0.00    -0.206 F 
ATOM     80  C   UNL A   1      42.226  25.820  25.427  1.00  0.00     0.022 A 
BRANCH  77  81
ATOM     81  S   UNL A   1      41.634  23.350  26.575  1.00  0.00     0.124 S 
ATOM     82  O   UNL A   1      42.313  23.004  25.332  1.00  0.00    -0.237 OA
ATOM     83  O   UNL A   1      42.346  23.029  27.808  1.00  0.00    -0.237 OA
ATOM     84  O   UNL A   1      40.198  23.079  26.599  1.00  0.00    -0.744 OA
ENDBRANCH  77  81
ENDBRANCH  50  74
BRANCH  62  85
ATOM     85  C   UNL A   1      44.520  27.374  34.078  1.00  0.00     0.023 A 
ATOM     86  C   UNL A   1      44.303  26.127  34.688  1.00  0.00     0.031 A 
ATOM     87  C   UNL A   1      45.835  27.876  34.056  1.00  0.00     0.131 A 
ATOM     88  C   UNL A   1      45.369  25.454  35.307  1.00  0.00     0.055 A 
ATOM     89  C   UNL A   1      46.903  27.168  34.610  1.00  0.00     0.041 A 
ATOM     90  F   UNL A   1      46.105  29.063  33.491  1.00  0.00    -0.206 F 
ATOM     91  C   UNL A   1      46.670  25.957  35.255  1.00  0.00     0.022 A 
BRANCH  88  92
ATOM     92  S   UNL A   1      45.013  23.963  36.278  1.00  0.00     0.124 S 
ATOM     93  O   UNL A   1      46.269  23.226  36.172  1.00  0.00    -0.237 OA
ATOM     94  O   UNL A   1      44.707  24.513  37.595  1.00  0.00    -0.237 OA
ATOM     95  O   UNL A   1      43.879  23.360  35.580  1.00  0.00    -0.744 OA
ENDBRANCH  88  92
ENDBRANCH  62  85
ENDBRANCH  36  37
ENDBRANCH  28  31
ENDBRANCH  26  27
ENDBRANCH   1  26
TORSDOF 18
ENDMDL
MODEL 3
REMARK VINA RESULT:     -11.3      2.140      2.479
REMARK SMILES CCC(CC)(NC(=O)c1ccc(N)c(F)c1)C(=O)NCCCNC(=O)c1ccc(-c2c3nc(c(-c4cc(S(=O)(=O)[O-])ccc4F)c4ccc([nH]4)c(-c4cc(S(=O)(=O)[O-])ccc4F)c4nc(c(-c5cc(S(=O)(=O)[O-])ccc5F)c5ccc2[nH]5)C=C4)C=C3)cc1
REMARK SMILES IDX 21 1 20 2 19 3 17 4 18 5 3 7 2 8 1 9 4 10 5 11 6 12 7 13
REMARK SMILES IDX 8 15 9 16 10 17 16 18 11 19 14 20 12 21 15 22 13 23 22 26
REMARK SMILES IDX 23 27 24 28 25 30 26 31 27 32 88 33 28 34 87 35 29 36 30 37
REMARK SMILES IDX 31 38 81 39 32 40 86 41 80 42 82 43 33 44 85 45 79 46 78 47
REMARK SMILES IDX 34 49 66 50 46 51 65 52 47 53 50 54 64 55 83 56 48 57 49 58
REMARK SMILES IDX 63 60 84 61 51 62 35 63 36 64 44 65 37 66 43 67 45 68 42 69
REMARK SMILES IDX 38 70 39 71 40 72 41 73 67 74 68 75 76 76 69 77 75 78 77 79
REMARK SMILES IDX 74 80 70 81 71 82 72 83 73 84 52 85 53 86 61 87 54 88 60 89
REMARK SMILES IDX 62 90 59 91 55 92 56 93 57 94 58 95
REMARK H PARENT 19 6 6 14 13 24 13 25 23 29 82 48 50 59
REMARK Flexibility Score: inf
ROOT
ATOM      1  C   UNL A   1      31.299  31.418  26.122  1.00  0.00     0.042 C 
ENDROOT
BRANCH   1   2
ATOM      2  C   UNL A   1      31.422  30.071  25.405  1.00  0.00     0.117 C 
BRANCH   2   3
ATOM      3  N   UNL A   1      31.002  29.963  24.008  1.00  0.00    -0.354 N 
ATOM      4  C   UNL A   1      31.085  28.983  23.043  1.00  0.00     0.245 C 
ATOM      5  O   UNL A   1      30.489  29.227  21.989  1.00  0.00    -0.272 OA
ATOM      6  H   UNL A   1      30.558  30.779  23.681  1.00  0.00     0.163 HD
BRANCH   4   7
ATOM      7  C   UNL A   1      31.799  27.611  23.281  1.00  0.00     0.118 C 
BRANCH   7   8
ATOM      8  C   UNL A   1      31.131  26.713  24.371  1.00  0.00     0.035 C 
ATOM      9  C   UNL A   1      29.686  26.271  24.170  1.00  0.00     0.007 C 
ENDBRANCH   7   8
BRANCH   7  10
ATOM     10  C   UNL A   1      33.213  28.088  23.773  1.00  0.00     0.035 C 
ATOM     11  C   UNL A   1      34.138  28.782  22.791  1.00  0.00     0.007 C 
ENDBRANCH   7  10
BRANCH   7  12
ATOM     12  N   UNL A   1      31.894  26.756  22.048  1.00  0.00    -0.338 N 
ATOM     13  C   UNL A   1      32.733  25.690  21.708  1.00  0.00     0.252 C 
ATOM     14  H   UNL A   1      31.244  26.991  21.347  1.00  0.00     0.164 HD
ATOM     15  O   UNL A   1      33.092  25.633  20.529  1.00  0.00    -0.269 OA
BRANCH  13  16
ATOM     16  C   UNL A   1      33.154  24.567  22.619  1.00  0.00     0.042 A 
ATOM     17  C   UNL A   1      32.504  23.347  22.628  1.00  0.00     0.016 A 
ATOM     18  C   UNL A   1      34.348  24.619  23.347  1.00  0.00     0.055 A 
ATOM     19  C   UNL A   1      32.929  22.222  23.332  1.00  0.00     0.029 A 
ATOM     20  C   UNL A   1      34.814  23.476  24.033  1.00  0.00     0.146 A 
ATOM     21  C   UNL A   1      34.107  22.265  24.042  1.00  0.00     0.068 A 
ATOM     22  F   UNL A   1      35.993  23.542  24.670  1.00  0.00    -0.205 F 
BRANCH  21  23
ATOM     23  N   UNL A   1      34.588  21.096  24.603  1.00  0.00    -0.396 N 
ATOM     24  H   UNL A   1      34.056  20.269  24.550  1.00  0.00     0.156 HD
ATOM     25  H   UNL A   1      35.462  21.090  25.056  1.00  0.00     0.156 HD
ENDBRANCH  21  23
ENDBRANCH  13  16
ENDBRANCH   7  12
ENDBRANCH   4   7
ENDBRANCH   2   3
ENDBRANCH   1   2
BRANCH   1  26
ATOM     26  C   UNL A   1      32.519  32.006  26.826  1.00  0.00     0.118 C 
BRANCH  26  27
ATOM     27  N   UNL A   1      32.365  33.378  27.252  1.00  0.00    -0.352 N 
ATOM     28  C   UNL A   1      33.132  34.121  28.118  1.00  0.00     0.251 C 
ATOM     29  H   UNL A   1      31.595  33.852  26.864  1.00  0.00     0.163 HD
ATOM     30  O   UNL A   1      32.786  35.269  28.371  1.00  0.00    -0.269 OA
BRANCH  28  31
ATOM     31  C   UNL A   1      34.331  33.545  28.777  1.00  0.00     0.039 A 
ATOM     32  C   UNL A   1      34.126  32.571  29.759  1.00  0.00     0.014 A 
ATOM     33  C   UNL A   1      35.633  33.971  28.488  1.00  0.00     0.014 A 
ATOM     34  C   UNL A   1      35.217  31.998  30.418  1.00  0.00     0.010 A 
ATOM     35  C   UNL A   1      36.727  33.355  29.110  1.00  0.00     0.010 A 
ATOM     36  C   UNL A   1      36.531  32.363  30.085  1.00  0.00    -0.014 A 
BRANCH  36  37
ATOM     37  C   UNL A   1      37.686  31.705  30.762  1.00  0.00     0.031 A 
ATOM     38  C   UNL A   1      38.510  30.668  30.044  1.00  0.00     0.074 A 
ATOM     39  C   UNL A   1      37.999  32.047  32.028  1.00  0.00     0.049 A 
ATOM     40  N   UNL A   1      39.561  30.009  30.466  1.00  0.00    -0.248 NA
ATOM     41  C   UNL A   1      38.088  30.314  28.682  1.00  0.00     0.031 C 
ATOM     42  C   UNL A   1      37.267  33.020  32.842  1.00  0.00     0.029 A 
ATOM     43  N   UNL A   1      39.013  31.625  32.854  1.00  0.00    -0.354 N 
ATOM     44  C   UNL A   1      39.928  29.164  29.423  1.00  0.00     0.074 A 
ATOM     45  C   UNL A   1      38.947  29.354  28.374  1.00  0.00     0.031 C 
ATOM     46  C   UNL A   1      37.875  33.144  34.032  1.00  0.00     0.029 A 
ATOM     47  C   UNL A   1      39.009  32.227  34.092  1.00  0.00     0.049 A 
ATOM     48  H   UNL A   1      39.682  30.954  32.585  1.00  0.00     0.167 HD
ATOM     49  C   UNL A   1      40.992  28.325  29.338  1.00  0.00     0.034 A 
ATOM     50  C   UNL A   1      39.817  32.056  35.159  1.00  0.00     0.034 A 
ATOM     51  C   UNL A   1      41.960  28.141  30.395  1.00  0.00     0.049 A 
ATOM     52  C   UNL A   1      40.963  31.080  35.059  1.00  0.00     0.074 A 
ATOM     53  C   UNL A   1      43.095  27.348  30.394  1.00  0.00     0.029 A 
ATOM     54  N   UNL A   1      41.902  28.742  31.646  1.00  0.00    -0.354 N 
ATOM     55  N   UNL A   1      41.324  30.328  34.044  1.00  0.00    -0.248 NA
ATOM     56  C   UNL A   1      41.818  30.938  36.245  1.00  0.00     0.031 C 
ATOM     57  C   UNL A   1      43.674  27.405  31.666  1.00  0.00     0.029 A 
ATOM     58  C   UNL A   1      42.957  28.307  32.436  1.00  0.00     0.049 A 
ATOM     59  H   UNL A   1      41.211  29.383  31.932  1.00  0.00     0.167 HD
ATOM     60  C   UNL A   1      42.467  29.651  34.461  1.00  0.00     0.074 A 
ATOM     61  C   UNL A   1      42.745  30.099  35.811  1.00  0.00     0.031 C 
ATOM     62  C   UNL A   1      43.223  28.746  33.786  1.00  0.00     0.034 A 
BRANCH  49  63
ATOM     63  C   UNL A   1      41.144  27.517  28.069  1.00  0.00     0.023 A 
ATOM     64  C   UNL A   1      40.814  26.151  28.017  1.00  0.00     0.031 A 
ATOM     65  C   UNL A   1      41.639  28.116  26.897  1.00  0.00     0.131 A 
ATOM     66  C   UNL A   1      41.052  25.414  26.846  1.00  0.00     0.055 A 
ATOM     67  C   UNL A   1      41.793  27.398  25.708  1.00  0.00     0.041 A 
ATOM     68  F   UNL A   1      41.992  29.411  26.886  1.00  0.00    -0.206 F 
ATOM     69  C   UNL A   1      41.514  26.035  25.683  1.00  0.00     0.022 A 
BRANCH  66  70
ATOM     70  S   UNL A   1      40.893  23.608  26.910  1.00  0.00     0.124 S 
ATOM     71  O   UNL A   1      39.477  23.427  26.597  1.00  0.00    -0.237 OA
ATOM     72  O   UNL A   1      41.834  23.173  25.885  1.00  0.00    -0.237 OA
ATOM     73  O   UNL A   1      41.266  23.279  28.283  1.00  0.00    -0.744 OA
ENDBRANCH  66  70
ENDBRANCH  49  63
BRANCH  50  74
ATOM     74  C   UNL A   1      39.571  32.810  36.424  1.00  0.00     0.023 A 
ATOM     75  C   UNL A   1      38.689  32.322  37.403  1.00  0.00     0.031 A 
ATOM     76  C   UNL A   1      40.174  34.061  36.648  1.00  0.00     0.131 A 
ATOM     77  C   UNL A   1      38.396  33.102  38.533  1.00  0.00     0.055 A 
ATOM     78  C   UNL A   1      39.928  34.805  37.803  1.00  0.00     0.041 A 
ATOM     79  F   UNL A   1      41.024  34.577  35.746  1.00  0.00    -0.206 F 
ATOM     80  C   UNL A   1      39.022  34.332  38.748  1.00  0.00     0.022 A 
BRANCH  77  81
ATOM     81  S   UNL A   1      37.107  32.531  39.674  1.00  0.00     0.124 S 
ATOM     82  O   UNL A   1      37.226  33.495  40.762  1.00  0.00    -0.237 OA
ATOM     83  O   UNL A   1      35.906  32.635  38.852  1.00  0.00    -0.237 OA
ATOM     84  O   UNL A   1      37.521  31.168  40.000  1.00  0.00    -0.744 OA
ENDBRANCH  77  81
ENDBRANCH  50  74
BRANCH  62  85
ATOM     85  C   UNL A   1      44.454  28.216  34.487  1.00  0.00     0.023 A 
ATOM     86  C   UNL A   1      44.419  27.057  35.282  1.00  0.00     0.031 A 
ATOM     87  C   UNL A   1      45.680  28.896  34.368  1.00  0.00     0.131 A 
ATOM     88  C   UNL A   1      45.568  26.649  35.977  1.00  0.00     0.055 A 
ATOM     89  C   UNL A   1      46.838  28.445  35.004  1.00  0.00     0.041 A 
ATOM     90  F   UNL A   1      45.776  30.011  33.626  1.00  0.00    -0.206 F 
ATOM     91  C   UNL A   1      46.782  27.324  35.828  1.00  0.00     0.022 A 
BRANCH  88  92
ATOM     92  S   UNL A   1      45.430  25.287  37.167  1.00  0.00     0.124 S 
ATOM     93  O   UNL A   1      44.008  24.964  37.095  1.00  0.00    -0.237 OA
ATOM     94  O   UNL A   1      46.338  24.290  36.609  1.00  0.00    -0.237 OA
ATOM     95  O   UNL A   1      45.868  25.886  38.427  1.00  0.00    -0.744 OA
ENDBRANCH  88  92
ENDBRANCH  62  85
ENDBRANCH  36  37
ENDBRANCH  28  31
ENDBRANCH  26  27
ENDBRANCH   1  26
TORSDOF 18
ENDMDL
