MODEL 1
REMARK VINA RESULT:     -13.4      0.000      0.000
REMARK SMILES CN1C(=O)C[C@@H](C(=O)NCCCNC(=O)c2ccc(-c3c4nc(c(-c5cc(S(=O)(=O)[O-])ccc5F)c5ccc([nH]5)c(-c5cc(S(=O)(=O)[O-])ccc5F)c5nc(c(-c6cc(S(=O)(=O)[O-])ccc6F)c6ccc3[nH]6)C=C5)C=C4)cc2)C12CCN(C(=O)c1ccccc1-n1cccn1)CC2
REMARK SMILES IDX 11 1 10 2 9 3 7 4 8 5 6 7 1 8 2 9 3 10 79 11 4 12 5 13 80 14
REMARK SMILES IDX 97 15 81 16 96 17 82 18 83 19 84 20 85 21 86 22 90 23 87 24
REMARK SMILES IDX 89 25 88 26 91 27 92 28 95 29 93 30 94 31 12 32 13 33 14 34
REMARK SMILES IDX 15 36 16 37 17 38 78 39 18 40 77 41 19 42 20 43 21 44 71 45
REMARK SMILES IDX 22 46 76 47 70 48 72 49 23 50 75 51 69 52 68 53 24 55 56 56
REMARK SMILES IDX 36 57 55 58 37 59 40 60 54 61 73 62 38 63 39 64 53 66 74 67
REMARK SMILES IDX 41 68 25 69 26 70 34 71 27 72 33 73 35 74 32 75 28 76 29 77
REMARK SMILES IDX 30 78 31 79 57 80 58 81 66 82 59 83 65 84 67 85 64 86 60 87
REMARK SMILES IDX 61 88 62 89 63 90 42 91 43 92 51 93 44 94 50 95 52 96 49 97
REMARK SMILES IDX 45 98 46 99 47 100 48 101
REMARK H PARENT 9 6 13 35 72 54 40 65
REMARK Flexibility Score: inf
ROOT
ATOM      1  C   UNL A   1      31.374  31.594  26.165  1.00  0.00     0.042 C 
ENDROOT
BRANCH   1   2
ATOM      2  C   UNL A   1      31.493  30.170  25.616  1.00  0.00     0.117 C 
BRANCH   2   3
ATOM      3  N   UNL A   1      32.753  29.876  24.938  1.00  0.00    -0.356 N 
ATOM      4  C   UNL A   1      33.091  29.262  23.777  1.00  0.00     0.226 C 
ATOM      5  O   UNL A   1      34.295  29.282  23.488  1.00  0.00    -0.275 OA
ATOM      6  H   UNL A   1      33.537  30.197  25.440  1.00  0.00     0.163 HD
BRANCH   4   7
ATOM      7  C   UNL A   1      32.134  28.526  22.834  1.00  0.00     0.113 C 
ATOM      8  C   UNL A   1      29.414  26.706  24.625  1.00  0.00     0.147 C 
ATOM      9  N   UNL A   1      30.246  27.529  23.769  1.00  0.00    -0.339 N 
ATOM     10  C   UNL A   1      29.791  28.726  23.232  1.00  0.00     0.223 C 
ATOM     11  C   UNL A   1      31.590  27.157  23.298  1.00  0.00     0.058 C 
ATOM     12  O   UNL A   1      28.681  29.220  23.373  1.00  0.00    -0.275 OA
ATOM     13  C   UNL A   1      30.913  29.364  22.465  1.00  0.00     0.116 C 
ATOM     14  C   UNL A   1      32.494  26.482  24.345  1.00  0.00     0.051 C 
ATOM     15  C   UNL A   1      31.400  26.160  22.111  1.00  0.00     0.051 C 
ATOM     16  C   UNL A   1      33.793  25.949  23.750  1.00  0.00     0.122 C 
ATOM     17  C   UNL A   1      32.689  25.497  21.618  1.00  0.00     0.122 C 
ATOM     18  N   UNL A   1      33.483  24.969  22.722  1.00  0.00    -0.338 N 
ATOM     19  C   UNL A   1      33.949  23.654  22.675  1.00  0.00     0.256 C 
ATOM     20  O   UNL A   1      33.715  22.894  21.737  1.00  0.00    -0.269 OA
BRANCH  19  21
ATOM     21  C   UNL A   1      34.823  23.131  23.758  1.00  0.00     0.065 A 
ATOM     22  C   UNL A   1      36.173  22.947  23.407  1.00  0.00     0.016 A 
ATOM     23  C   UNL A   1      34.420  22.879  25.079  1.00  0.00     0.077 A 
ATOM     24  C   UNL A   1      37.113  22.554  24.362  1.00  0.00     0.001 A 
ATOM     25  C   UNL A   1      35.386  22.542  26.047  1.00  0.00     0.029 A 
ATOM     26  C   UNL A   1      36.721  22.367  25.684  1.00  0.00     0.002 A 
BRANCH  23  27
ATOM     27  N   UNL A   1      33.071  22.929  25.500  1.00  0.00    -0.240 N 
ATOM     28  C   UNL A   1      31.989  22.229  25.015  1.00  0.00     0.115 A 
ATOM     29  N   UNL A   1      32.708  23.752  26.519  1.00  0.00    -0.177 NA
ATOM     30  C   UNL A   1      30.898  22.608  25.763  1.00  0.00     0.042 A 
ATOM     31  C   UNL A   1      31.399  23.556  26.667  1.00  0.00     0.135 A 
ENDBRANCH  23  27
ENDBRANCH  19  21
ENDBRANCH   4   7
ENDBRANCH   2   3
ENDBRANCH   1   2
BRANCH   1  32
ATOM     32  C   UNL A   1      32.559  32.033  27.015  1.00  0.00     0.118 C 
BRANCH  32  33
ATOM     33  N   UNL A   1      32.515  33.465  27.269  1.00  0.00    -0.352 N 
ATOM     34  C   UNL A   1      33.124  34.192  28.263  1.00  0.00     0.251 C 
ATOM     35  H   UNL A   1      31.972  33.988  26.636  1.00  0.00     0.163 HD
ATOM     36  O   UNL A   1      32.693  35.310  28.533  1.00  0.00    -0.269 OA
BRANCH  34  37
ATOM     37  C   UNL A   1      34.280  33.638  29.006  1.00  0.00     0.039 A 
ATOM     38  C   UNL A   1      34.054  32.694  30.012  1.00  0.00     0.014 A 
ATOM     39  C   UNL A   1      35.580  34.084  28.754  1.00  0.00     0.014 A 
ATOM     40  C   UNL A   1      35.134  32.167  30.727  1.00  0.00     0.010 A 
ATOM     41  C   UNL A   1      36.661  33.493  29.404  1.00  0.00     0.010 A 
ATOM     42  C   UNL A   1      36.451  32.538  30.409  1.00  0.00    -0.014 A 
BRANCH  42  43
ATOM     43  C   UNL A   1      37.617  31.961  31.133  1.00  0.00     0.031 A 
ATOM     44  C   UNL A   1      38.417  30.848  30.506  1.00  0.00     0.074 A 
ATOM     45  C   UNL A   1      37.919  32.397  32.372  1.00  0.00     0.049 A 
ATOM     46  N   UNL A   1      39.409  30.157  31.006  1.00  0.00    -0.248 NA
ATOM     47  C   UNL A   1      38.030  30.438  29.147  1.00  0.00     0.031 C 
ATOM     48  C   UNL A   1      37.198  33.447  33.097  1.00  0.00     0.029 A 
ATOM     49  N   UNL A   1      38.905  32.013  33.247  1.00  0.00    -0.354 N 
ATOM     50  C   UNL A   1      39.753  29.224  30.033  1.00  0.00     0.074 A 
ATOM     51  C   UNL A   1      38.822  29.397  28.939  1.00  0.00     0.031 C 
ATOM     52  C   UNL A   1      37.780  33.638  34.291  1.00  0.00     0.029 A 
ATOM     53  C   UNL A   1      38.879  32.690  34.445  1.00  0.00     0.049 A 
ATOM     54  H   UNL A   1      39.568  31.316  33.037  1.00  0.00     0.167 HD
ATOM     55  C   UNL A   1      40.765  28.321  30.043  1.00  0.00     0.034 A 
ATOM     56  C   UNL A   1      39.641  32.552  35.549  1.00  0.00     0.034 A 
ATOM     57  C   UNL A   1      41.694  28.174  31.136  1.00  0.00     0.049 A 
ATOM     58  C   UNL A   1      40.742  31.518  35.546  1.00  0.00     0.074 A 
ATOM     59  C   UNL A   1      42.790  27.333  31.226  1.00  0.00     0.029 A 
ATOM     60  N   UNL A   1      41.636  28.877  32.332  1.00  0.00    -0.354 N 
ATOM     61  N   UNL A   1      41.085  30.680  34.594  1.00  0.00    -0.248 NA
ATOM     62  C   UNL A   1      41.564  31.420  36.758  1.00  0.00     0.031 C 
ATOM     63  C   UNL A   1      43.345  27.469  32.502  1.00  0.00     0.029 A 
ATOM     64  C   UNL A   1      42.654  28.462  33.178  1.00  0.00     0.049 A 
ATOM     65  H   UNL A   1      40.970  29.569  32.548  1.00  0.00     0.167 HD
ATOM     66  C   UNL A   1      42.187  29.982  35.083  1.00  0.00     0.074 A 
ATOM     67  C   UNL A   1      42.460  30.511  36.404  1.00  0.00     0.031 C 
ATOM     68  C   UNL A   1      42.912  28.996  34.495  1.00  0.00     0.034 A 
BRANCH  55  69
ATOM     69  C   UNL A   1      40.903  27.406  28.849  1.00  0.00     0.023 A 
ATOM     70  C   UNL A   1      41.880  27.618  27.859  1.00  0.00     0.031 A 
ATOM     71  C   UNL A   1      40.045  26.301  28.697  1.00  0.00     0.131 A 
ATOM     72  C   UNL A   1      41.933  26.781  26.735  1.00  0.00     0.055 A 
ATOM     73  C   UNL A   1      40.158  25.423  27.618  1.00  0.00     0.041 A 
ATOM     74  F   UNL A   1      39.079  26.058  29.596  1.00  0.00    -0.206 F 
ATOM     75  C   UNL A   1      41.097  25.667  26.621  1.00  0.00     0.022 A 
BRANCH  72  76
ATOM     76  S   UNL A   1      43.021  27.244  25.361  1.00  0.00     0.124 S 
ATOM     77  O   UNL A   1      44.198  27.739  26.070  1.00  0.00    -0.237 OA
ATOM     78  O   UNL A   1      43.188  25.981  24.651  1.00  0.00    -0.237 OA
ATOM     79  O   UNL A   1      42.257  28.265  24.647  1.00  0.00    -0.744 OA
ENDBRANCH  72  76
ENDBRANCH  55  69
BRANCH  56  80
ATOM     80  C   UNL A   1      39.389  33.388  36.760  1.00  0.00     0.023 A 
ATOM     81  C   UNL A   1      40.102  34.577  36.981  1.00  0.00     0.031 A 
ATOM     82  C   UNL A   1      38.477  32.977  37.749  1.00  0.00     0.131 A 
ATOM     83  C   UNL A   1      39.941  35.277  38.187  1.00  0.00     0.055 A 
ATOM     84  C   UNL A   1      38.271  33.713  38.917  1.00  0.00     0.041 A 
ATOM     85  F   UNL A   1      37.764  31.850  37.591  1.00  0.00    -0.206 F 
ATOM     86  C   UNL A   1      39.019  34.862  39.150  1.00  0.00     0.022 A 
BRANCH  83  87
ATOM     87  S   UNL A   1      41.044  36.676  38.532  1.00  0.00     0.124 S 
ATOM     88  O   UNL A   1      41.697  36.861  37.240  1.00  0.00    -0.237 OA
ATOM     89  O   UNL A   1      40.100  37.715  38.929  1.00  0.00    -0.237 OA
ATOM     90  O   UNL A   1      41.904  36.175  39.601  1.00  0.00    -0.744 OA
ENDBRANCH  83  87
ENDBRANCH  56  80
BRANCH  68  91
ATOM     91  C   UNL A   1      44.103  28.467  35.256  1.00  0.00     0.023 A 
ATOM     92  C   UNL A   1      43.982  27.440  36.208  1.00  0.00     0.031 A 
ATOM     93  C   UNL A   1      45.382  29.006  35.025  1.00  0.00     0.131 A 
ATOM     94  C   UNL A   1      45.107  27.026  36.936  1.00  0.00     0.055 A 
ATOM     95  C   UNL A   1      46.509  28.541  35.703  1.00  0.00     0.041 A 
ATOM     96  F   UNL A   1      45.558  29.991  34.130  1.00  0.00    -0.206 F 
ATOM     97  C   UNL A   1      46.373  27.555  36.675  1.00  0.00     0.022 A 
BRANCH  94  98
ATOM     98  S   UNL A   1      44.877  25.855  38.301  1.00  0.00     0.124 S 
ATOM     99  O   UNL A   1      43.837  26.510  39.090  1.00  0.00    -0.237 OA
ATOM    100  O   UNL A   1      44.474  24.637  37.604  1.00  0.00    -0.237 OA
ATOM    101  O   UNL A   1      46.194  25.801  38.933  1.00  0.00    -0.744 OA
ENDBRANCH  94  98
ENDBRANCH  68  91
ENDBRANCH  42  43
ENDBRANCH  34  37
ENDBRANCH  32  33
ENDBRANCH   1  32
TORSDOF 15
ENDMDL
MODEL 2
REMARK VINA RESULT:     -13.3      1.785      2.119
REMARK SMILES CN1C(=O)C[C@@H](C(=O)NCCCNC(=O)c2ccc(-c3c4nc(c(-c5cc(S(=O)(=O)[O-])ccc5F)c5ccc([nH]5)c(-c5cc(S(=O)(=O)[O-])ccc5F)c5nc(c(-c6cc(S(=O)(=O)[O-])ccc6F)c6ccc3[nH]6)C=C5)C=C4)cc2)C12CCN(C(=O)c1ccccc1-n1cccn1)CC2
REMARK SMILES IDX 11 1 10 2 9 3 7 4 8 5 6 7 1 8 2 9 3 10 79 11 4 12 5 13 80 14
REMARK SMILES IDX 97 15 81 16 96 17 82 18 83 19 84 20 85 21 86 22 90 23 87 24
REMARK SMILES IDX 89 25 88 26 91 27 92 28 95 29 93 30 94 31 12 32 13 33 14 34
REMARK SMILES IDX 15 36 16 37 17 38 78 39 18 40 77 41 19 42 20 43 21 44 71 45
REMARK SMILES IDX 22 46 76 47 70 48 72 49 23 50 75 51 69 52 68 53 24 55 56 56
REMARK SMILES IDX 36 57 55 58 37 59 40 60 54 61 73 62 38 63 39 64 53 66 74 67
REMARK SMILES IDX 41 68 25 69 26 70 34 71 27 72 33 73 35 74 32 75 28 76 29 77
REMARK SMILES IDX 30 78 31 79 57 80 58 81 66 82 59 83 65 84 67 85 64 86 60 87
REMARK SMILES IDX 61 88 62 89 63 90 42 91 43 92 51 93 44 94 50 95 52 96 49 97
REMARK SMILES IDX 45 98 46 99 47 100 48 101
REMARK H PARENT 9 6 13 35 72 54 40 65
REMARK Flexibility Score: inf
ROOT
ATOM      1  C   UNL A   1      31.246  31.426  26.149  1.00  0.00     0.042 C 
ENDROOT
BRANCH   1   2
ATOM      2  C   UNL A   1      31.367  30.041  25.507  1.00  0.00     0.117 C 
BRANCH   2   3
ATOM      3  N   UNL A   1      32.619  29.801  24.796  1.00  0.00    -0.356 N 
ATOM      4  C   UNL A   1      32.952  29.209  23.622  1.00  0.00     0.226 C 
ATOM      5  O   UNL A   1      34.147  29.278  23.303  1.00  0.00    -0.275 OA
ATOM      6  H   UNL A   1      33.403  30.149  25.281  1.00  0.00     0.163 HD
BRANCH   4   7
ATOM      7  C   UNL A   1      32.001  28.443  22.697  1.00  0.00     0.113 C 
ATOM      8  C   UNL A   1      29.315  26.618  24.534  1.00  0.00     0.147 C 
ATOM      9  N   UNL A   1      30.132  27.438  23.658  1.00  0.00    -0.339 N 
ATOM     10  C   UNL A   1      29.658  28.619  23.103  1.00  0.00     0.223 C 
ATOM     11  C   UNL A   1      31.478  27.076  23.188  1.00  0.00     0.058 C 
ATOM     12  O   UNL A   1      28.541  29.099  23.241  1.00  0.00    -0.275 OA
ATOM     13  C   UNL A   1      30.767  29.258  22.319  1.00  0.00     0.116 C 
ATOM     14  C   UNL A   1      32.396  26.432  24.242  1.00  0.00     0.051 C 
ATOM     15  C   UNL A   1      31.296  26.055  22.020  1.00  0.00     0.051 C 
ATOM     16  C   UNL A   1      33.700  25.906  23.650  1.00  0.00     0.122 C 
ATOM     17  C   UNL A   1      32.592  25.401  21.532  1.00  0.00     0.122 C 
ATOM     18  N   UNL A   1      33.398  24.904  22.642  1.00  0.00    -0.338 N 
ATOM     19  C   UNL A   1      33.883  23.595  22.616  1.00  0.00     0.256 C 
ATOM     20  O   UNL A   1      33.655  22.815  21.692  1.00  0.00    -0.269 OA
BRANCH  19  21
ATOM     21  C   UNL A   1      34.769  23.103  23.703  1.00  0.00     0.065 A 
ATOM     22  C   UNL A   1      36.122  22.945  23.353  1.00  0.00     0.016 A 
ATOM     23  C   UNL A   1      34.373  22.858  25.028  1.00  0.00     0.077 A 
ATOM     24  C   UNL A   1      37.072  22.583  24.311  1.00  0.00     0.001 A 
ATOM     25  C   UNL A   1      35.346  22.552  25.998  1.00  0.00     0.029 A 
ATOM     26  C   UNL A   1      36.685  22.402  25.636  1.00  0.00     0.002 A 
BRANCH  23  27
ATOM     27  N   UNL A   1      33.023  22.883  25.450  1.00  0.00    -0.240 N 
ATOM     28  C   UNL A   1      31.967  22.115  25.012  1.00  0.00     0.115 A 
ATOM     29  N   UNL A   1      32.632  23.752  26.418  1.00  0.00    -0.177 NA
ATOM     30  C   UNL A   1      30.864  22.498  25.739  1.00  0.00     0.042 A 
ATOM     31  C   UNL A   1      31.330  23.517  26.583  1.00  0.00     0.135 A 
ENDBRANCH  23  27
ENDBRANCH  19  21
ENDBRANCH   4   7
ENDBRANCH   2   3
ENDBRANCH   1   2
BRANCH   1  32
ATOM     32  C   UNL A   1      32.452  31.830  26.986  1.00  0.00     0.118 C 
BRANCH  32  33
ATOM     33  N   UNL A   1      32.466  33.266  27.220  1.00  0.00    -0.352 N 
ATOM     34  C   UNL A   1      33.172  33.990  28.150  1.00  0.00     0.251 C 
ATOM     35  H   UNL A   1      31.886  33.795  26.626  1.00  0.00     0.163 HD
ATOM     36  O   UNL A   1      32.793  35.123  28.435  1.00  0.00    -0.269 OA
BRANCH  34  37
ATOM     37  C   UNL A   1      34.371  33.416  28.804  1.00  0.00     0.039 A 
ATOM     38  C   UNL A   1      35.603  34.057  28.651  1.00  0.00     0.014 A 
ATOM     39  C   UNL A   1      34.296  32.221  29.524  1.00  0.00     0.014 A 
ATOM     40  C   UNL A   1      36.745  33.523  29.257  1.00  0.00     0.010 A 
ATOM     41  C   UNL A   1      35.415  31.740  30.200  1.00  0.00     0.010 A 
ATOM     42  C   UNL A   1      36.657  32.377  30.063  1.00  0.00    -0.014 A 
BRANCH  42  43
ATOM     43  C   UNL A   1      37.853  31.814  30.747  1.00  0.00     0.031 A 
ATOM     44  C   UNL A   1      38.712  30.793  30.047  1.00  0.00     0.074 A 
ATOM     45  C   UNL A   1      38.132  32.179  32.015  1.00  0.00     0.049 A 
ATOM     46  N   UNL A   1      39.741  30.125  30.501  1.00  0.00    -0.248 NA
ATOM     47  C   UNL A   1      38.348  30.459  28.661  1.00  0.00     0.031 C 
ATOM     48  C   UNL A   1      37.356  33.135  32.809  1.00  0.00     0.029 A 
ATOM     49  N   UNL A   1      39.138  31.789  32.864  1.00  0.00    -0.354 N 
ATOM     50  C   UNL A   1      40.135  29.281  29.467  1.00  0.00     0.074 A 
ATOM     51  C   UNL A   1      39.195  29.480  28.384  1.00  0.00     0.031 C 
ATOM     52  C   UNL A   1      37.928  33.273  34.015  1.00  0.00     0.029 A 
ATOM     53  C   UNL A   1      39.076  32.378  34.107  1.00  0.00     0.049 A 
ATOM     54  H   UNL A   1      39.838  31.146  32.608  1.00  0.00     0.167 HD
ATOM     55  C   UNL A   1      41.194  28.436  29.417  1.00  0.00     0.034 A 
ATOM     56  C   UNL A   1      39.846  32.205  35.200  1.00  0.00     0.034 A 
ATOM     57  C   UNL A   1      42.131  28.264  30.499  1.00  0.00     0.049 A 
ATOM     58  C   UNL A   1      41.001  31.236  35.129  1.00  0.00     0.074 A 
ATOM     59  C   UNL A   1      43.271  27.480  30.534  1.00  0.00     0.029 A 
ATOM     60  N   UNL A   1      42.036  28.878  31.741  1.00  0.00    -0.354 N 
ATOM     61  N   UNL A   1      41.389  30.486  34.122  1.00  0.00    -0.248 NA
ATOM     62  C   UNL A   1      41.828  31.098  36.334  1.00  0.00     0.031 C 
ATOM     63  C   UNL A   1      43.818  27.557  31.819  1.00  0.00     0.029 A 
ATOM     64  C   UNL A   1      43.075  28.461  32.559  1.00  0.00     0.049 A 
ATOM     65  H   UNL A   1      41.333  29.516  32.003  1.00  0.00     0.167 HD
ATOM     66  C   UNL A   1      42.527  29.817  34.565  1.00  0.00     0.074 A 
ATOM     67  C   UNL A   1      42.772  30.266  35.919  1.00  0.00     0.031 C 
ATOM     68  C   UNL A   1      43.304  28.915  33.911  1.00  0.00     0.034 A 
BRANCH  55  69
ATOM     69  C   UNL A   1      41.381  27.615  28.162  1.00  0.00     0.023 A 
ATOM     70  C   UNL A   1      41.088  26.240  28.123  1.00  0.00     0.031 A 
ATOM     71  C   UNL A   1      41.858  28.218  26.984  1.00  0.00     0.131 A 
ATOM     72  C   UNL A   1      41.335  25.502  26.956  1.00  0.00     0.055 A 
ATOM     73  C   UNL A   1      42.023  27.495  25.801  1.00  0.00     0.041 A 
ATOM     74  F   UNL A   1      42.177  29.521  26.963  1.00  0.00    -0.206 F 
ATOM     75  C   UNL A   1      41.774  26.126  25.785  1.00  0.00     0.022 A 
BRANCH  72  76
ATOM     76  S   UNL A   1      41.200  23.696  27.027  1.00  0.00     0.124 S 
ATOM     77  O   UNL A   1      42.045  23.293  25.905  1.00  0.00    -0.237 OA
ATOM     78  O   UNL A   1      41.716  23.393  28.356  1.00  0.00    -0.237 OA
ATOM     79  O   UNL A   1      39.771  23.451  26.840  1.00  0.00    -0.744 OA
ENDBRANCH  72  76
ENDBRANCH  55  69
BRANCH  56  80
ATOM     80  C   UNL A   1      39.549  32.940  36.466  1.00  0.00     0.023 A 
ATOM     81  C   UNL A   1      38.674  32.407  37.425  1.00  0.00     0.031 A 
ATOM     82  C   UNL A   1      40.083  34.220  36.705  1.00  0.00     0.131 A 
ATOM     83  C   UNL A   1      38.309  33.173  38.544  1.00  0.00     0.055 A 
ATOM     84  C   UNL A   1      39.769  34.950  37.853  1.00  0.00     0.041 A 
ATOM     85  F   UNL A   1      40.928  34.780  35.823  1.00  0.00    -0.206 F 
ATOM     86  C   UNL A   1      38.863  34.434  38.773  1.00  0.00     0.022 A 
BRANCH  83  87
ATOM     87  S   UNL A   1      37.006  32.544  39.638  1.00  0.00     0.124 S 
ATOM     88  O   UNL A   1      37.074  33.485  40.751  1.00  0.00    -0.237 OA
ATOM     89  O   UNL A   1      35.824  32.639  38.787  1.00  0.00    -0.237 OA
ATOM     90  O   UNL A   1      37.445  31.184  39.942  1.00  0.00    -0.744 OA
ENDBRANCH  83  87
ENDBRANCH  56  80
BRANCH  68  91
ATOM     91  C   UNL A   1      44.523  28.400  34.637  1.00  0.00     0.023 A 
ATOM     92  C   UNL A   1      44.486  27.233  35.419  1.00  0.00     0.031 A 
ATOM     93  C   UNL A   1      45.743  29.095  34.547  1.00  0.00     0.131 A 
ATOM     94  C   UNL A   1      45.627  26.828  36.127  1.00  0.00     0.055 A 
ATOM     95  C   UNL A   1      46.894  28.649  35.197  1.00  0.00     0.041 A 
ATOM     96  F   UNL A   1      45.838  30.218  33.817  1.00  0.00    -0.206 F 
ATOM     97  C   UNL A   1      46.837  27.517  36.004  1.00  0.00     0.022 A 
BRANCH  94  98
ATOM     98  S   UNL A   1      45.485  25.445  37.291  1.00  0.00     0.124 S 
ATOM     99  O   UNL A   1      45.179  24.329  36.400  1.00  0.00    -0.237 OA
ATOM    100  O   UNL A   1      46.806  25.421  37.910  1.00  0.00    -0.237 OA
ATOM    101  O   UNL A   1      44.394  25.851  38.174  1.00  0.00    -0.744 OA
ENDBRANCH  94  98
ENDBRANCH  68  91
ENDBRANCH  42  43
ENDBRANCH  34  37
ENDBRANCH  32  33
ENDBRANCH   1  32
TORSDOF 15
ENDMDL
MODEL 3
REMARK VINA RESULT:     -13.1      5.280      8.956
REMARK SMILES CN1C(=O)C[C@@H](C(=O)NCCCNC(=O)c2ccc(-c3c4nc(c(-c5cc(S(=O)(=O)[O-])ccc5F)c5ccc([nH]5)c(-c5cc(S(=O)(=O)[O-])ccc5F)c5nc(c(-c6cc(S(=O)(=O)[O-])ccc6F)c6ccc3[nH]6)C=C5)C=C4)cc2)C12CCN(C(=O)c1ccccc1-n1cccn1)CC2
REMARK SMILES IDX 11 1 10 2 9 3 7 4 8 5 6 7 1 8 2 9 3 10 79 11 4 12 5 13 80 14
REMARK SMILES IDX 97 15 81 16 96 17 82 18 83 19 84 20 85 21 86 22 90 23 87 24
REMARK SMILES IDX 89 25 88 26 91 27 92 28 95 29 93 30 94 31 12 32 13 33 14 34
REMARK SMILES IDX 15 36 16 37 17 38 78 39 18 40 77 41 19 42 20 43 21 44 71 45
REMARK SMILES IDX 22 46 76 47 70 48 72 49 23 50 75 51 69 52 68 53 24 55 56 56
REMARK SMILES IDX 36 57 55 58 37 59 40 60 54 61 73 62 38 63 39 64 53 66 74 67
REMARK SMILES IDX 41 68 25 69 26 70 34 71 27 72 33 73 35 74 32 75 28 76 29 77
REMARK SMILES IDX 30 78 31 79 57 80 58 81 66 82 59 83 65 84 67 85 64 86 60 87
REMARK SMILES IDX 61 88 62 89 63 90 42 91 43 92 51 93 44 94 50 95 52 96 49 97
REMARK SMILES IDX 45 98 46 99 47 100 48 101
REMARK H PARENT 9 6 13 35 72 54 40 65
REMARK Flexibility Score: inf
ROOT
ATOM      1  C   UNL A   1      37.280  20.037  24.697  1.00  0.00     0.042 C 
ENDROOT
BRANCH   1   2
ATOM      2  C   UNL A   1      35.889  20.669  24.799  1.00  0.00     0.117 C 
BRANCH   2   3
ATOM      3  N   UNL A   1      35.583  21.275  26.092  1.00  0.00    -0.356 N 
ATOM      4  C   UNL A   1      34.445  21.500  26.795  1.00  0.00     0.226 C 
ATOM      5  O   UNL A   1      34.597  21.974  27.929  1.00  0.00    -0.275 OA
ATOM      6  H   UNL A   1      36.388  21.594  26.561  1.00  0.00     0.163 HD
BRANCH   4   7
ATOM      7  C   UNL A   1      33.016  21.260  26.299  1.00  0.00     0.113 C 
ATOM      8  C   UNL A   1      32.632  21.767  22.622  1.00  0.00     0.147 C 
ATOM      9  N   UNL A   1      32.647  21.307  23.998  1.00  0.00    -0.339 N 
ATOM     10  C   UNL A   1      32.719  19.959  24.322  1.00  0.00     0.223 C 
ATOM     11  C   UNL A   1      32.490  22.178  25.174  1.00  0.00     0.058 C 
ATOM     12  O   UNL A   1      32.752  19.017  23.543  1.00  0.00    -0.275 OA
ATOM     13  C   UNL A   1      32.795  19.829  25.816  1.00  0.00     0.116 C 
ATOM     14  C   UNL A   1      33.236  23.522  25.106  1.00  0.00     0.051 C 
ATOM     15  C   UNL A   1      30.964  22.480  25.319  1.00  0.00     0.051 C 
ATOM     16  C   UNL A   1      32.881  24.456  26.259  1.00  0.00     0.122 C 
ATOM     17  C   UNL A   1      30.618  23.541  26.368  1.00  0.00     0.122 C 
ATOM     18  N   UNL A   1      31.454  24.729  26.232  1.00  0.00    -0.338 N 
ATOM     19  C   UNL A   1      30.862  25.993  26.185  1.00  0.00     0.256 C 
ATOM     20  O   UNL A   1      29.646  26.164  26.244  1.00  0.00    -0.269 OA
BRANCH  19  21
ATOM     21  C   UNL A   1      31.708  27.214  26.125  1.00  0.00     0.065 A 
ATOM     22  C   UNL A   1      31.779  27.957  27.317  1.00  0.00     0.016 A 
ATOM     23  C   UNL A   1      32.468  27.624  25.018  1.00  0.00     0.077 A 
ATOM     24  C   UNL A   1      32.618  29.070  27.418  1.00  0.00     0.001 A 
ATOM     25  C   UNL A   1      33.354  28.710  25.148  1.00  0.00     0.029 A 
ATOM     26  C   UNL A   1      33.416  29.436  26.338  1.00  0.00     0.002 A 
BRANCH  23  27
ATOM     27  N   UNL A   1      32.380  27.009  23.747  1.00  0.00    -0.240 N 
ATOM     28  C   UNL A   1      31.274  26.844  22.943  1.00  0.00     0.115 A 
ATOM     29  N   UNL A   1      33.492  26.486  23.168  1.00  0.00    -0.177 NA
ATOM     30  C   UNL A   1      31.701  26.205  21.801  1.00  0.00     0.042 A 
ATOM     31  C   UNL A   1      33.074  26.000  22.000  1.00  0.00     0.135 A 
ENDBRANCH  23  27
ENDBRANCH  19  21
ENDBRANCH   4   7
ENDBRANCH   2   3
ENDBRANCH   1   2
BRANCH   1  32
ATOM     32  C   UNL A   1      38.388  20.869  25.328  1.00  0.00     0.118 C 
BRANCH  32  33
ATOM     33  N   UNL A   1      39.256  20.041  26.152  1.00  0.00    -0.352 N 
ATOM     34  C   UNL A   1      40.438  20.367  26.772  1.00  0.00     0.251 C 
ATOM     35  H   UNL A   1      38.952  19.114  26.284  1.00  0.00     0.163 HD
ATOM     36  O   UNL A   1      41.199  19.466  27.114  1.00  0.00    -0.269 OA
BRANCH  34  37
ATOM     37  C   UNL A   1      40.796  21.783  27.023  1.00  0.00     0.039 A 
ATOM     38  C   UNL A   1      41.600  22.098  28.121  1.00  0.00     0.014 A 
ATOM     39  C   UNL A   1      40.298  22.806  26.212  1.00  0.00     0.014 A 
ATOM     40  C   UNL A   1      41.941  23.431  28.375  1.00  0.00     0.010 A 
ATOM     41  C   UNL A   1      40.711  24.121  26.413  1.00  0.00     0.010 A 
ATOM     42  C   UNL A   1      41.525  24.452  27.506  1.00  0.00    -0.014 A 
BRANCH  42  43
ATOM     43  C   UNL A   1      41.908  25.872  27.737  1.00  0.00     0.031 A 
ATOM     44  C   UNL A   1      43.243  26.381  27.255  1.00  0.00     0.074 A 
ATOM     45  C   UNL A   1      41.082  26.685  28.426  1.00  0.00     0.049 A 
ATOM     46  N   UNL A   1      43.795  27.554  27.431  1.00  0.00    -0.248 NA
ATOM     47  C   UNL A   1      44.079  25.435  26.500  1.00  0.00     0.031 C 
ATOM     48  C   UNL A   1      39.778  26.298  28.971  1.00  0.00     0.029 A 
ATOM     49  N   UNL A   1      41.215  28.001  28.795  1.00  0.00    -0.354 N 
ATOM     50  C   UNL A   1      45.046  27.481  26.826  1.00  0.00     0.074 A 
ATOM     51  C   UNL A   1      45.194  26.129  26.332  1.00  0.00     0.031 C 
ATOM     52  C   UNL A   1      39.223  27.358  29.580  1.00  0.00     0.029 A 
ATOM     53  C   UNL A   1      40.150  28.484  29.522  1.00  0.00     0.049 A 
ATOM     54  H   UNL A   1      41.999  28.548  28.562  1.00  0.00     0.167 HD
ATOM     55  C   UNL A   1      45.974  28.458  26.677  1.00  0.00     0.034 A 
ATOM     56  C   UNL A   1      39.949  29.689  30.091  1.00  0.00     0.034 A 
ATOM     57  C   UNL A   1      45.802  29.806  27.161  1.00  0.00     0.049 A 
ATOM     58  C   UNL A   1      41.012  30.750  29.936  1.00  0.00     0.074 A 
ATOM     59  C   UNL A   1      46.652  30.888  27.013  1.00  0.00     0.029 A 
ATOM     60  N   UNL A   1      44.711  30.257  27.892  1.00  0.00    -0.354 N 
ATOM     61  N   UNL A   1      42.167  30.678  29.314  1.00  0.00    -0.248 NA
ATOM     62  C   UNL A   1      40.741  32.056  30.550  1.00  0.00     0.031 C 
ATOM     63  C   UNL A   1      46.115  31.968  27.721  1.00  0.00     0.029 A 
ATOM     64  C   UNL A   1      44.884  31.589  28.232  1.00  0.00     0.049 A 
ATOM     65  H   UNL A   1      43.928  29.710  28.133  1.00  0.00     0.167 HD
ATOM     66  C   UNL A   1      42.740  31.942  29.431  1.00  0.00     0.074 A 
ATOM     67  C   UNL A   1      41.797  32.758  30.167  1.00  0.00     0.031 C 
ATOM     68  C   UNL A   1      43.936  32.391  28.970  1.00  0.00     0.034 A 
BRANCH  55  69
ATOM     69  C   UNL A   1      47.269  28.098  25.986  1.00  0.00     0.023 A 
ATOM     70  C   UNL A   1      47.406  28.156  24.587  1.00  0.00     0.031 A 
ATOM     71  C   UNL A   1      48.387  27.693  26.738  1.00  0.00     0.131 A 
ATOM     72  C   UNL A   1      48.606  27.754  23.982  1.00  0.00     0.055 A 
ATOM     73  C   UNL A   1      49.605  27.374  26.135  1.00  0.00     0.041 A 
ATOM     74  F   UNL A   1      48.313  27.596  28.074  1.00  0.00    -0.206 F 
ATOM     75  C   UNL A   1      49.716  27.390  24.748  1.00  0.00     0.022 A 
BRANCH  72  76
ATOM     76  S   UNL A   1      48.653  27.587  22.178  1.00  0.00     0.124 S 
ATOM     77  O   UNL A   1      47.352  28.133  21.797  1.00  0.00    -0.237 OA
ATOM     78  O   UNL A   1      49.814  28.392  21.816  1.00  0.00    -0.237 OA
ATOM     79  O   UNL A   1      48.802  26.148  21.970  1.00  0.00    -0.744 OA
ENDBRANCH  72  76
ENDBRANCH  55  69
BRANCH  56  80
ATOM     80  C   UNL A   1      38.711  29.965  30.878  1.00  0.00     0.023 A 
ATOM     81  C   UNL A   1      37.670  30.741  30.344  1.00  0.00     0.031 A 
ATOM     82  C   UNL A   1      38.577  29.512  32.203  1.00  0.00     0.131 A 
ATOM     83  C   UNL A   1      36.575  31.095  31.149  1.00  0.00     0.055 A 
ATOM     84  C   UNL A   1      37.454  29.810  32.977  1.00  0.00     0.041 A 
ATOM     85  F   UNL A   1      39.539  28.762  32.766  1.00  0.00    -0.206 F 
ATOM     86  C   UNL A   1      36.452  30.621  32.456  1.00  0.00     0.022 A 
BRANCH  83  87
ATOM     87  S   UNL A   1      35.369  32.283  30.498  1.00  0.00     0.124 S 
ATOM     88  O   UNL A   1      36.205  33.457  30.268  1.00  0.00    -0.237 OA
ATOM     89  O   UNL A   1      34.882  31.598  29.306  1.00  0.00    -0.237 OA
ATOM     90  O   UNL A   1      34.398  32.411  31.583  1.00  0.00    -0.744 OA
ENDBRANCH  83  87
ENDBRANCH  56  80
BRANCH  68  91
ATOM     91  C   UNL A   1      44.263  33.846  29.202  1.00  0.00     0.023 A 
ATOM     92  C   UNL A   1      43.780  34.861  28.357  1.00  0.00     0.031 A 
ATOM     93  C   UNL A   1      45.075  34.222  30.287  1.00  0.00     0.131 A 
ATOM     94  C   UNL A   1      44.162  36.193  28.575  1.00  0.00     0.055 A 
ATOM     95  C   UNL A   1      45.395  35.556  30.540  1.00  0.00     0.041 A 
ATOM     96  F   UNL A   1      45.568  33.296  31.125  1.00  0.00    -0.206 F 
ATOM     97  C   UNL A   1      44.949  36.550  29.673  1.00  0.00     0.022 A 
BRANCH  94  98
ATOM     98  S   UNL A   1      43.698  37.443  27.347  1.00  0.00     0.124 S 
ATOM     99  O   UNL A   1      43.063  38.463  28.177  1.00  0.00    -0.237 OA
ATOM    100  O   UNL A   1      44.988  37.806  26.769  1.00  0.00    -0.237 OA
ATOM    101  O   UNL A   1      42.797  36.724  26.448  1.00  0.00    -0.744 OA
ENDBRANCH  94  98
ENDBRANCH  68  91
ENDBRANCH  42  43
ENDBRANCH  34  37
ENDBRANCH  32  33
ENDBRANCH   1  32
TORSDOF 15
ENDMDL
