MODEL 1
REMARK VINA RESULT:     -12.0      0.000      0.000
REMARK SMILES O=C(NCCCNC(=O)[C@@H]1CCCN(C(=O)[C@H]2CC=CCC2)C1)c1ccc(-c2c3nc(c(-c4cc(S(=O)(=O)[O-])ccc4F)c4ccc([nH]4)c(-c4cc(S(=O)(=O)[O-])ccc4F)c4nc(c(-c5cc(S(=O)(=O)[O-])ccc5F)c5ccc2[nH]5)C=C4)C=C3)cc1
REMARK SMILES IDX 4 1 3 2 1 3 2 4 24 6 25 7 86 8 26 9 85 10 27 11 28 12 29 13
REMARK SMILES IDX 79 14 30 15 84 16 78 17 80 18 31 19 83 20 77 21 76 22 32 24
REMARK SMILES IDX 64 25 44 26 63 27 45 28 48 29 62 30 81 31 46 32 47 33 61 35
REMARK SMILES IDX 82 36 49 37 33 38 34 39 42 40 35 41 41 42 43 43 40 44 36 45
REMARK SMILES IDX 37 46 38 47 39 48 65 49 66 50 74 51 67 52 73 53 75 54 72 55
REMARK SMILES IDX 68 56 69 57 70 58 71 59 50 60 51 61 59 62 52 63 58 64 60 65
REMARK SMILES IDX 57 66 53 67 54 68 55 69 56 70 5 71 6 72 7 73 8 74 9 76 10 77
REMARK SMILES IDX 11 78 23 79 12 80 14 81 13 82 15 83 16 84 17 85 18 86 22 87
REMARK SMILES IDX 19 88 21 89 20 90
REMARK H PARENT 3 5 80 23 48 34 7 75
REMARK Flexibility Score: inf
ROOT
ATOM      1  C   UNL A   1      31.768  31.216  26.670  1.00  0.00     0.118 C 
ENDROOT
BRANCH   1   2
ATOM      2  N   UNL A   1      31.912  32.637  26.940  1.00  0.00    -0.352 N 
ATOM      3  O   UNL A   1      32.578  34.521  27.909  1.00  0.00    -0.269 OA
ATOM      4  C   UNL A   1      32.862  33.356  27.626  1.00  0.00     0.251 C 
ATOM      5  H   UNL A   1      31.192  33.190  26.560  1.00  0.00     0.163 HD
BRANCH   4   6
ATOM      6  C   UNL A   1      34.196  32.825  28.039  1.00  0.00     0.039 A 
ATOM      7  C   UNL A   1      35.351  33.604  28.148  1.00  0.00     0.014 A 
ATOM      8  C   UNL A   1      34.246  31.499  28.506  1.00  0.00     0.014 A 
ATOM      9  C   UNL A   1      36.537  33.057  28.678  1.00  0.00     0.010 A 
ATOM     10  C   UNL A   1      35.412  30.972  29.084  1.00  0.00     0.010 A 
ATOM     11  C   UNL A   1      36.576  31.745  29.184  1.00  0.00    -0.014 A 
BRANCH  11  12
ATOM     12  C   UNL A   1      37.773  31.223  29.921  1.00  0.00     0.031 A 
ATOM     13  C   UNL A   1      38.668  30.161  29.328  1.00  0.00     0.074 A 
ATOM     14  C   UNL A   1      38.019  31.648  31.179  1.00  0.00     0.049 A 
ATOM     15  N   UNL A   1      39.701  29.556  29.865  1.00  0.00    -0.248 NA
ATOM     16  C   UNL A   1      38.352  29.711  27.967  1.00  0.00     0.031 C 
ATOM     17  C   UNL A   1      37.217  32.633  31.907  1.00  0.00     0.029 A 
ATOM     18  N   UNL A   1      39.000  31.295  32.077  1.00  0.00    -0.354 N 
ATOM     19  C   UNL A   1      40.156  28.648  28.913  1.00  0.00     0.074 A 
ATOM     20  C   UNL A   1      39.257  28.759  27.781  1.00  0.00     0.031 C 
ATOM     21  C   UNL A   1      37.742  32.814  33.128  1.00  0.00     0.029 A 
ATOM     22  C   UNL A   1      38.888  31.925  33.296  1.00  0.00     0.049 A 
ATOM     23  H   UNL A   1      39.716  30.653  31.866  1.00  0.00     0.167 HD
ATOM     24  C   UNL A   1      41.226  27.812  28.970  1.00  0.00     0.034 A 
ATOM     25  C   UNL A   1      39.602  31.794  34.434  1.00  0.00     0.034 A 
ATOM     26  C   UNL A   1      42.128  27.704  30.094  1.00  0.00     0.049 A 
ATOM     27  C   UNL A   1      40.757  30.828  34.486  1.00  0.00     0.074 A 
ATOM     28  C   UNL A   1      43.288  26.951  30.198  1.00  0.00     0.029 A 
ATOM     29  N   UNL A   1      41.968  28.343  31.316  1.00  0.00    -0.354 N 
ATOM     30  N   UNL A   1      41.210  30.030  33.550  1.00  0.00    -0.248 NA
ATOM     31  C   UNL A   1      41.500  30.750  35.753  1.00  0.00     0.031 C 
ATOM     32  C   UNL A   1      43.787  27.079  31.501  1.00  0.00     0.029 A 
ATOM     33  C   UNL A   1      42.981  27.968  32.190  1.00  0.00     0.049 A 
ATOM     34  H   UNL A   1      41.241  28.971  31.532  1.00  0.00     0.167 HD
ATOM     35  C   UNL A   1      42.305  29.375  34.108  1.00  0.00     0.074 A 
ATOM     36  C   UNL A   1      42.452  29.878  35.457  1.00  0.00     0.031 C 
ATOM     37  C   UNL A   1      43.119  28.447  33.545  1.00  0.00     0.034 A 
BRANCH  24  38
ATOM     38  C   UNL A   1      41.474  26.915  27.778  1.00  0.00     0.023 A 
ATOM     39  C   UNL A   1      41.059  25.572  27.764  1.00  0.00     0.031 A 
ATOM     40  C   UNL A   1      42.121  27.416  26.634  1.00  0.00     0.131 A 
ATOM     41  C   UNL A   1      41.349  24.760  26.657  1.00  0.00     0.055 A 
ATOM     42  C   UNL A   1      42.341  26.623  25.506  1.00  0.00     0.041 A 
ATOM     43  F   UNL A   1      42.549  28.688  26.593  1.00  0.00    -0.206 F 
ATOM     44  C   UNL A   1      41.966  25.283  25.518  1.00  0.00     0.022 A 
BRANCH  41  45
ATOM     45  S   UNL A   1      41.010  22.982  26.771  1.00  0.00     0.124 S 
ATOM     46  O   UNL A   1      39.565  22.938  26.553  1.00  0.00    -0.237 OA
ATOM     47  O   UNL A   1      41.833  22.433  25.701  1.00  0.00    -0.237 OA
ATOM     48  O   UNL A   1      41.436  22.637  28.126  1.00  0.00    -0.744 OA
ENDBRANCH  41  45
ENDBRANCH  24  38
BRANCH  25  49
ATOM     49  C   UNL A   1      39.225  32.574  35.647  1.00  0.00     0.023 A 
ATOM     50  C   UNL A   1      39.663  33.896  35.822  1.00  0.00     0.031 A 
ATOM     51  C   UNL A   1      38.461  31.988  36.670  1.00  0.00     0.131 A 
ATOM     52  C   UNL A   1      39.367  34.576  37.013  1.00  0.00     0.055 A 
ATOM     53  C   UNL A   1      38.127  32.686  37.831  1.00  0.00     0.041 A 
ATOM     54  F   UNL A   1      38.019  30.726  36.550  1.00  0.00    -0.206 F 
ATOM     55  C   UNL A   1      38.591  33.985  38.013  1.00  0.00     0.022 A 
BRANCH  52  56
ATOM     56  S   UNL A   1      40.080  36.223  37.275  1.00  0.00     0.124 S 
ATOM     57  O   UNL A   1      39.234  36.744  38.346  1.00  0.00    -0.237 OA
ATOM     58  O   UNL A   1      41.455  35.902  37.649  1.00  0.00    -0.237 OA
ATOM     59  O   UNL A   1      39.923  36.875  35.981  1.00  0.00    -0.744 OA
ENDBRANCH  52  56
ENDBRANCH  25  49
BRANCH  37  60
ATOM     60  C   UNL A   1      44.271  27.944  34.382  1.00  0.00     0.023 A 
ATOM     61  C   UNL A   1      44.133  26.849  35.255  1.00  0.00     0.031 A 
ATOM     62  C   UNL A   1      45.522  28.585  34.320  1.00  0.00     0.131 A 
ATOM     63  C   UNL A   1      45.213  26.457  36.063  1.00  0.00     0.055 A 
ATOM     64  C   UNL A   1      46.607  28.158  35.090  1.00  0.00     0.041 A 
ATOM     65  F   UNL A   1      45.711  29.637  33.508  1.00  0.00    -0.206 F 
ATOM     66  C   UNL A   1      46.452  27.096  35.975  1.00  0.00     0.022 A 
BRANCH  63  67
ATOM     67  S   UNL A   1      44.959  25.143  37.289  1.00  0.00     0.124 S 
ATOM     68  O   UNL A   1      45.450  23.965  36.579  1.00  0.00    -0.237 OA
ATOM     69  O   UNL A   1      45.776  25.599  38.409  1.00  0.00    -0.237 OA
ATOM     70  O   UNL A   1      43.517  25.166  37.526  1.00  0.00    -0.744 OA
ENDBRANCH  63  67
ENDBRANCH  37  60
ENDBRANCH  11  12
ENDBRANCH   4   6
ENDBRANCH   1   2
BRANCH   1  71
ATOM     71  C   UNL A   1      31.027  30.966  25.356  1.00  0.00     0.042 C 
BRANCH  71  72
ATOM     72  C   UNL A   1      31.146  29.578  24.748  1.00  0.00     0.117 C 
BRANCH  72  73
ATOM     73  N   UNL A   1      31.671  28.567  25.646  1.00  0.00    -0.356 N 
ATOM     74  C   UNL A   1      31.677  27.216  25.657  1.00  0.00     0.224 C 
ATOM     75  H   UNL A   1      32.128  28.955  26.427  1.00  0.00     0.163 HD
ATOM     76  O   UNL A   1      32.407  26.704  26.520  1.00  0.00    -0.275 OA
BRANCH  74  77
ATOM     77  C   UNL A   1      30.846  26.284  24.772  1.00  0.00     0.098 C 
ATOM     78  C   UNL A   1      30.240  24.997  25.332  1.00  0.00     0.017 C 
ATOM     79  C   UNL A   1      31.476  26.145  23.382  1.00  0.00     0.133 C 
ATOM     80  C   UNL A   1      30.915  23.695  24.902  1.00  0.00     0.022 C 
ATOM     81  N   UNL A   1      32.211  24.894  23.192  1.00  0.00    -0.342 N 
ATOM     82  C   UNL A   1      31.419  23.705  23.458  1.00  0.00     0.119 C 
BRANCH  81  83
ATOM     83  C   UNL A   1      33.538  24.962  22.804  1.00  0.00     0.226 C 
ATOM     84  O   UNL A   1      33.823  25.486  21.715  1.00  0.00    -0.275 OA
BRANCH  83  85
ATOM     85  C   UNL A   1      34.712  24.422  23.642  1.00  0.00     0.083 C 
ATOM     86  C   UNL A   1      34.769  24.791  25.130  1.00  0.00     0.040 C 
ATOM     87  C   UNL A   1      35.080  22.971  23.325  1.00  0.00     0.018 C 
ATOM     88  C   UNL A   1      34.644  23.658  26.099  1.00  0.00    -0.030 C 
ATOM     89  C   UNL A   1      34.537  21.929  24.299  1.00  0.00     0.028 C 
ATOM     90  C   UNL A   1      34.534  22.378  25.728  1.00  0.00    -0.031 C 
ENDBRANCH  83  85
ENDBRANCH  81  83
ENDBRANCH  74  77
ENDBRANCH  72  73
ENDBRANCH  71  72
ENDBRANCH   1  71
TORSDOF 15
ENDMDL
MODEL 2
REMARK VINA RESULT:     -11.9      5.338     10.403
REMARK SMILES O=C(NCCCNC(=O)[C@@H]1CCCN(C(=O)[C@H]2CC=CCC2)C1)c1ccc(-c2c3nc(c(-c4cc(S(=O)(=O)[O-])ccc4F)c4ccc([nH]4)c(-c4cc(S(=O)(=O)[O-])ccc4F)c4nc(c(-c5cc(S(=O)(=O)[O-])ccc5F)c5ccc2[nH]5)C=C4)C=C3)cc1
REMARK SMILES IDX 4 1 3 2 1 3 2 4 24 6 25 7 86 8 26 9 85 10 27 11 28 12 29 13
REMARK SMILES IDX 79 14 30 15 84 16 78 17 80 18 31 19 83 20 77 21 76 22 32 24
REMARK SMILES IDX 64 25 44 26 63 27 45 28 48 29 62 30 81 31 46 32 47 33 61 35
REMARK SMILES IDX 82 36 49 37 33 38 34 39 42 40 35 41 41 42 43 43 40 44 36 45
REMARK SMILES IDX 37 46 38 47 39 48 65 49 66 50 74 51 67 52 73 53 75 54 72 55
REMARK SMILES IDX 68 56 69 57 70 58 71 59 50 60 51 61 59 62 52 63 58 64 60 65
REMARK SMILES IDX 57 66 53 67 54 68 55 69 56 70 5 71 6 72 7 73 8 74 9 76 10 77
REMARK SMILES IDX 11 78 23 79 12 80 14 81 13 82 15 83 16 84 17 85 18 86 22 87
REMARK SMILES IDX 19 88 21 89 20 90
REMARK H PARENT 3 5 80 23 48 34 7 75
REMARK Flexibility Score: inf
ROOT
ATOM      1  C   UNL A   1      37.736  21.050  25.061  1.00  0.00     0.118 C 
ENDROOT
BRANCH   1   2
ATOM      2  N   UNL A   1      38.765  20.175  25.597  1.00  0.00    -0.352 N 
ATOM      3  O   UNL A   1      40.736  19.493  26.362  1.00  0.00    -0.269 OA
ATOM      4  C   UNL A   1      39.942  20.430  26.260  1.00  0.00     0.251 C 
ATOM      5  H   UNL A   1      38.586  19.217  25.459  1.00  0.00     0.163 HD
BRANCH   4   6
ATOM      6  C   UNL A   1      40.311  21.749  26.860  1.00  0.00     0.039 A 
ATOM      7  C   UNL A   1      41.191  21.903  27.934  1.00  0.00     0.014 A 
ATOM      8  C   UNL A   1      39.876  22.906  26.189  1.00  0.00     0.014 A 
ATOM      9  C   UNL A   1      41.596  23.187  28.351  1.00  0.00     0.010 A 
ATOM     10  C   UNL A   1      40.323  24.182  26.571  1.00  0.00     0.010 A 
ATOM     11  C   UNL A   1      41.195  24.342  27.655  1.00  0.00    -0.014 A 
BRANCH  11  12
ATOM     12  C   UNL A   1      41.772  25.689  27.972  1.00  0.00     0.031 A 
ATOM     13  C   UNL A   1      40.955  26.763  28.649  1.00  0.00     0.074 A 
ATOM     14  C   UNL A   1      43.028  25.986  27.573  1.00  0.00     0.049 A 
ATOM     15  N   UNL A   1      41.286  28.001  28.930  1.00  0.00    -0.248 NA
ATOM     16  C   UNL A   1      39.587  26.405  29.045  1.00  0.00     0.031 C 
ATOM     17  C   UNL A   1      43.926  25.072  26.865  1.00  0.00     0.029 A 
ATOM     18  N   UNL A   1      43.762  27.144  27.689  1.00  0.00    -0.354 N 
ATOM     19  C   UNL A   1      40.168  28.576  29.528  1.00  0.00     0.074 A 
ATOM     20  C   UNL A   1      39.137  27.554  29.531  1.00  0.00     0.031 C 
ATOM     21  C   UNL A   1      45.088  25.696  26.621  1.00  0.00     0.029 A 
ATOM     22  C   UNL A   1      45.009  27.070  27.108  1.00  0.00     0.049 A 
ATOM     23  H   UNL A   1      43.428  27.950  28.146  1.00  0.00     0.167 HD
ATOM     24  C   UNL A   1      40.016  29.826  30.037  1.00  0.00     0.034 A 
ATOM     25  C   UNL A   1      45.976  27.999  26.955  1.00  0.00     0.034 A 
ATOM     26  C   UNL A   1      41.044  30.843  30.042  1.00  0.00     0.049 A 
ATOM     27  C   UNL A   1      45.767  29.393  27.490  1.00  0.00     0.074 A 
ATOM     28  C   UNL A   1      41.005  32.103  30.619  1.00  0.00     0.029 A 
ATOM     29  N   UNL A   1      42.283  30.735  29.426  1.00  0.00    -0.354 N 
ATOM     30  N   UNL A   1      44.727  29.891  28.113  1.00  0.00    -0.248 NA
ATOM     31  C   UNL A   1      46.870  30.348  27.302  1.00  0.00     0.031 C 
ATOM     32  C   UNL A   1      42.186  32.780  30.292  1.00  0.00     0.029 A 
ATOM     33  C   UNL A   1      42.996  31.919  29.572  1.00  0.00     0.049 A 
ATOM     34  H   UNL A   1      42.609  29.935  28.953  1.00  0.00     0.167 HD
ATOM     35  C   UNL A   1      45.062  31.210  28.413  1.00  0.00     0.074 A 
ATOM     36  C   UNL A   1      46.402  31.426  27.913  1.00  0.00     0.031 C 
ATOM     37  C   UNL A   1      44.323  32.150  29.054  1.00  0.00     0.034 A 
BRANCH  24  38
ATOM     38  C   UNL A   1      38.668  30.183  30.621  1.00  0.00     0.023 A 
ATOM     39  C   UNL A   1      37.684  30.840  29.861  1.00  0.00     0.031 A 
ATOM     40  C   UNL A   1      38.357  29.846  31.951  1.00  0.00     0.131 A 
ATOM     41  C   UNL A   1      36.462  31.195  30.453  1.00  0.00     0.055 A 
ATOM     42  C   UNL A   1      37.112  30.136  32.512  1.00  0.00     0.041 A 
ATOM     43  F   UNL A   1      39.260  29.227  32.728  1.00  0.00    -0.206 F 
ATOM     44  C   UNL A   1      36.161  30.826  31.766  1.00  0.00     0.022 A 
BRANCH  41  45
ATOM     45  S   UNL A   1      35.317  32.245  29.518  1.00  0.00     0.124 S 
ATOM     46  O   UNL A   1      34.348  32.620  30.547  1.00  0.00    -0.237 OA
ATOM     47  O   UNL A   1      36.185  33.314  29.041  1.00  0.00    -0.237 OA
ATOM     48  O   UNL A   1      34.798  31.352  28.484  1.00  0.00    -0.744 OA
ENDBRANCH  41  45
ENDBRANCH  24  38
BRANCH  25  49
ATOM     49  C   UNL A   1      47.230  27.660  26.225  1.00  0.00     0.023 A 
ATOM     50  C   UNL A   1      47.343  27.872  24.843  1.00  0.00     0.031 A 
ATOM     51  C   UNL A   1      48.316  27.072  26.897  1.00  0.00     0.131 A 
ATOM     52  C   UNL A   1      48.502  27.461  24.167  1.00  0.00     0.055 A 
ATOM     53  C   UNL A   1      49.487  26.711  26.229  1.00  0.00     0.041 A 
ATOM     54  F   UNL A   1      48.257  26.848  28.219  1.00  0.00    -0.206 F 
ATOM     55  C   UNL A   1      49.580  26.894  24.852  1.00  0.00     0.022 A 
BRANCH  52  56
ATOM     56  S   UNL A   1      48.554  27.604  22.360  1.00  0.00     0.124 S 
ATOM     57  O   UNL A   1      47.295  28.291  22.081  1.00  0.00    -0.237 OA
ATOM     58  O   UNL A   1      49.769  28.390  22.154  1.00  0.00    -0.237 OA
ATOM     59  O   UNL A   1      48.625  26.220  21.908  1.00  0.00    -0.744 OA
ENDBRANCH  52  56
ENDBRANCH  25  49
BRANCH  37  60
ATOM     60  C   UNL A   1      44.973  33.494  29.286  1.00  0.00     0.023 A 
ATOM     61  C   UNL A   1      44.911  34.524  28.329  1.00  0.00     0.031 A 
ATOM     62  C   UNL A   1      45.682  33.740  30.476  1.00  0.00     0.131 A 
ATOM     63  C   UNL A   1      45.585  35.734  28.558  1.00  0.00     0.055 A 
ATOM     64  C   UNL A   1      46.308  34.964  30.719  1.00  0.00     0.041 A 
ATOM     65  F   UNL A   1      45.777  32.794  31.422  1.00  0.00    -0.206 F 
ATOM     66  C   UNL A   1      46.271  35.965  29.753  1.00  0.00     0.022 A 
BRANCH  63  67
ATOM     67  S   UNL A   1      45.617  36.983  27.242  1.00  0.00     0.124 S 
ATOM     68  O   UNL A   1      46.436  38.034  27.840  1.00  0.00    -0.237 OA
ATOM     69  O   UNL A   1      46.226  36.254  26.134  1.00  0.00    -0.237 OA
ATOM     70  O   UNL A   1      44.208  37.325  27.056  1.00  0.00    -0.744 OA
ENDBRANCH  63  67
ENDBRANCH  37  60
ENDBRANCH  11  12
ENDBRANCH   4   6
ENDBRANCH   1   2
BRANCH   1  71
ATOM     71  C   UNL A   1      36.411  20.311  24.875  1.00  0.00     0.042 C 
BRANCH  71  72
ATOM     72  C   UNL A   1      35.160  20.984  25.417  1.00  0.00     0.117 C 
BRANCH  72  73
ATOM     73  N   UNL A   1      34.076  20.076  25.740  1.00  0.00    -0.356 N 
ATOM     74  C   UNL A   1      32.816  19.902  25.288  1.00  0.00     0.224 C 
ATOM     75  H   UNL A   1      34.315  19.440  26.454  1.00  0.00     0.163 HD
ATOM     76  O   UNL A   1      32.252  18.873  25.695  1.00  0.00    -0.275 OA
BRANCH  74  77
ATOM     77  C   UNL A   1      32.017  20.855  24.397  1.00  0.00     0.098 C 
ATOM     78  C   UNL A   1      32.491  21.198  22.984  1.00  0.00     0.017 C 
ATOM     79  C   UNL A   1      31.493  22.048  25.203  1.00  0.00     0.133 C 
ATOM     80  C   UNL A   1      33.080  22.596  22.794  1.00  0.00     0.022 C 
ATOM     81  N   UNL A   1      32.266  23.275  25.012  1.00  0.00    -0.342 N 
ATOM     82  C   UNL A   1      32.385  23.678  23.620  1.00  0.00     0.119 C 
BRANCH  81  83
ATOM     83  C   UNL A   1      32.799  23.899  26.127  1.00  0.00     0.226 C 
ATOM     84  O   UNL A   1      33.168  23.206  27.088  1.00  0.00    -0.275 OA
BRANCH  83  85
ATOM     85  C   UNL A   1      32.967  25.424  26.266  1.00  0.00     0.083 C 
ATOM     86  C   UNL A   1      34.073  26.107  25.451  1.00  0.00     0.040 C 
ATOM     87  C   UNL A   1      31.642  26.189  26.318  1.00  0.00     0.018 C 
ATOM     88  C   UNL A   1      33.624  27.088  24.416  1.00  0.00    -0.030 C 
ATOM     89  C   UNL A   1      31.209  26.842  25.009  1.00  0.00     0.028 C 
ATOM     90  C   UNL A   1      32.342  27.413  24.213  1.00  0.00    -0.031 C 
ENDBRANCH  83  85
ENDBRANCH  81  83
ENDBRANCH  74  77
ENDBRANCH  72  73
ENDBRANCH  71  72
ENDBRANCH   1  71
TORSDOF 15
ENDMDL
MODEL 3
REMARK VINA RESULT:     -11.8      2.636      4.015
REMARK SMILES O=C(NCCCNC(=O)[C@@H]1CCCN(C(=O)[C@H]2CC=CCC2)C1)c1ccc(-c2c3nc(c(-c4cc(S(=O)(=O)[O-])ccc4F)c4ccc([nH]4)c(-c4cc(S(=O)(=O)[O-])ccc4F)c4nc(c(-c5cc(S(=O)(=O)[O-])ccc5F)c5ccc2[nH]5)C=C4)C=C3)cc1
REMARK SMILES IDX 4 1 3 2 1 3 2 4 24 6 25 7 86 8 26 9 85 10 27 11 28 12 29 13
REMARK SMILES IDX 79 14 30 15 84 16 78 17 80 18 31 19 83 20 77 21 76 22 32 24
REMARK SMILES IDX 64 25 44 26 63 27 45 28 48 29 62 30 81 31 46 32 47 33 61 35
REMARK SMILES IDX 82 36 49 37 33 38 34 39 42 40 35 41 41 42 43 43 40 44 36 45
REMARK SMILES IDX 37 46 38 47 39 48 65 49 66 50 74 51 67 52 73 53 75 54 72 55
REMARK SMILES IDX 68 56 69 57 70 58 71 59 50 60 51 61 59 62 52 63 58 64 60 65
REMARK SMILES IDX 57 66 53 67 54 68 55 69 56 70 5 71 6 72 7 73 8 74 9 76 10 77
REMARK SMILES IDX 11 78 23 79 12 80 14 81 13 82 15 83 16 84 17 85 18 86 22 87
REMARK SMILES IDX 19 88 21 89 20 90
REMARK H PARENT 3 5 80 23 48 34 7 75
REMARK Flexibility Score: inf
ROOT
ATOM      1  C   UNL A   1      32.778  32.527  27.283  1.00  0.00     0.118 C 
ENDROOT
BRANCH   1   2
ATOM      2  N   UNL A   1      32.589  33.932  27.604  1.00  0.00    -0.352 N 
ATOM      3  O   UNL A   1      32.549  35.820  28.774  1.00  0.00    -0.269 OA
ATOM      4  C   UNL A   1      33.094  34.728  28.604  1.00  0.00     0.251 C 
ATOM      5  H   UNL A   1      31.983  34.404  26.988  1.00  0.00     0.163 HD
BRANCH   4   6
ATOM      6  C   UNL A   1      34.247  34.361  29.482  1.00  0.00     0.039 A 
ATOM      7  C   UNL A   1      34.116  33.779  30.746  1.00  0.00     0.014 A 
ATOM      8  C   UNL A   1      35.535  34.453  28.926  1.00  0.00     0.014 A 
ATOM      9  C   UNL A   1      35.253  33.336  31.452  1.00  0.00     0.010 A 
ATOM     10  C   UNL A   1      36.661  33.962  29.607  1.00  0.00     0.010 A 
ATOM     11  C   UNL A   1      36.537  33.389  30.880  1.00  0.00    -0.014 A 
BRANCH  11  12
ATOM     12  C   UNL A   1      37.719  32.746  31.541  1.00  0.00     0.031 A 
ATOM     13  C   UNL A   1      38.441  31.578  30.914  1.00  0.00     0.074 A 
ATOM     14  C   UNL A   1      38.106  33.164  32.766  1.00  0.00     0.049 A 
ATOM     15  N   UNL A   1      39.436  30.868  31.390  1.00  0.00    -0.248 NA
ATOM     16  C   UNL A   1      37.973  31.142  29.592  1.00  0.00     0.031 C 
ATOM     17  C   UNL A   1      37.478  34.248  33.523  1.00  0.00     0.029 A 
ATOM     18  N   UNL A   1      39.106  32.717  33.599  1.00  0.00    -0.354 N 
ATOM     19  C   UNL A   1      39.712  29.895  30.433  1.00  0.00     0.074 A 
ATOM     20  C   UNL A   1      38.747  30.088  29.366  1.00  0.00     0.031 C 
ATOM     21  C   UNL A   1      38.111  34.390  34.697  1.00  0.00     0.029 A 
ATOM     22  C   UNL A   1      39.158  33.379  34.805  1.00  0.00     0.049 A 
ATOM     23  H   UNL A   1      39.726  31.993  33.354  1.00  0.00     0.167 HD
ATOM     24  C   UNL A   1      40.681  28.943  30.434  1.00  0.00     0.034 A 
ATOM     25  C   UNL A   1      39.937  33.188  35.891  1.00  0.00     0.034 A 
ATOM     26  C   UNL A   1      41.648  28.754  31.492  1.00  0.00     0.049 A 
ATOM     27  C   UNL A   1      40.976  32.097  35.886  1.00  0.00     0.074 A 
ATOM     28  C   UNL A   1      42.719  27.874  31.532  1.00  0.00     0.029 A 
ATOM     29  N   UNL A   1      41.654  29.430  32.705  1.00  0.00    -0.354 N 
ATOM     30  N   UNL A   1      41.263  31.234  34.941  1.00  0.00    -0.248 NA
ATOM     31  C   UNL A   1      41.799  31.958  37.097  1.00  0.00     0.031 C 
ATOM     32  C   UNL A   1      43.326  27.968  32.791  1.00  0.00     0.029 A 
ATOM     33  C   UNL A   1      42.681  28.957  33.512  1.00  0.00     0.049 A 
ATOM     34  H   UNL A   1      41.021  30.141  32.956  1.00  0.00     0.167 HD
ATOM     35  C   UNL A   1      42.316  30.468  35.435  1.00  0.00     0.074 A 
ATOM     36  C   UNL A   1      42.621  30.976  36.755  1.00  0.00     0.031 C 
ATOM     37  C   UNL A   1      42.974  29.442  34.840  1.00  0.00     0.034 A 
BRANCH  24  38
ATOM     38  C   UNL A   1      40.735  28.001  29.253  1.00  0.00     0.023 A 
ATOM     39  C   UNL A   1      41.644  28.190  28.197  1.00  0.00     0.031 A 
ATOM     40  C   UNL A   1      39.877  26.888  29.191  1.00  0.00     0.131 A 
ATOM     41  C   UNL A   1      41.633  27.320  27.097  1.00  0.00     0.055 A 
ATOM     42  C   UNL A   1      39.920  25.984  28.128  1.00  0.00     0.041 A 
ATOM     43  F   UNL A   1      38.980  26.662  30.164  1.00  0.00    -0.206 F 
ATOM     44  C   UNL A   1      40.793  26.204  27.067  1.00  0.00     0.022 A 
BRANCH  41  45
ATOM     45  S   UNL A   1      42.650  27.730  25.654  1.00  0.00     0.124 S 
ATOM     46  O   UNL A   1      43.964  27.937  26.262  1.00  0.00    -0.237 OA
ATOM     47  O   UNL A   1      42.514  26.543  24.821  1.00  0.00    -0.237 OA
ATOM     48  O   UNL A   1      42.024  28.940  25.124  1.00  0.00    -0.744 OA
ENDBRANCH  41  45
ENDBRANCH  24  38
BRANCH  25  49
ATOM     49  C   UNL A   1      39.744  34.029  37.106  1.00  0.00     0.023 A 
ATOM     50  C   UNL A   1      39.079  33.527  38.236  1.00  0.00     0.031 A 
ATOM     51  C   UNL A   1      40.181  35.365  37.134  1.00  0.00     0.131 A 
ATOM     52  C   UNL A   1      38.834  34.369  39.331  1.00  0.00     0.055 A 
ATOM     53  C   UNL A   1      39.979  36.183  38.246  1.00  0.00     0.041 A 
ATOM     54  F   UNL A   1      40.821  35.892  36.078  1.00  0.00    -0.206 F 
ATOM     55  C   UNL A   1      39.290  35.689  39.350  1.00  0.00     0.022 A 
BRANCH  52  56
ATOM     56  S   UNL A   1      37.836  33.738  40.708  1.00  0.00     0.124 S 
ATOM     57  O   UNL A   1      36.721  33.110  40.003  1.00  0.00    -0.237 OA
ATOM     58  O   UNL A   1      38.769  32.825  41.365  1.00  0.00    -0.237 OA
ATOM     59  O   UNL A   1      37.501  34.936  41.467  1.00  0.00    -0.744 OA
ENDBRANCH  52  56
ENDBRANCH  25  49
BRANCH  37  60
ATOM     60  C   UNL A   1      44.122  28.826  35.604  1.00  0.00     0.023 A 
ATOM     61  C   UNL A   1      43.949  27.692  36.419  1.00  0.00     0.031 A 
ATOM     62  C   UNL A   1      45.406  29.396  35.531  1.00  0.00     0.131 A 
ATOM     63  C   UNL A   1      45.029  27.192  37.164  1.00  0.00     0.055 A 
ATOM     64  C   UNL A   1      46.489  28.863  36.235  1.00  0.00     0.041 A 
ATOM     65  F   UNL A   1      45.631  30.480  34.773  1.00  0.00    -0.206 F 
ATOM     66  C   UNL A   1      46.301  27.763  37.065  1.00  0.00     0.022 A 
BRANCH  63  67
ATOM     67  S   UNL A   1      44.739  25.826  38.323  1.00  0.00     0.124 S 
ATOM     68  O   UNL A   1      44.464  26.537  39.568  1.00  0.00    -0.237 OA
ATOM     69  O   UNL A   1      43.603  25.138  37.717  1.00  0.00    -0.237 OA
ATOM     70  O   UNL A   1      45.997  25.081  38.299  1.00  0.00    -0.744 OA
ENDBRANCH  63  67
ENDBRANCH  37  60
ENDBRANCH  11  12
ENDBRANCH   4   6
ENDBRANCH   1   2
BRANCH   1  71
ATOM     71  C   UNL A   1      31.579  31.958  26.525  1.00  0.00     0.042 C 
BRANCH  71  72
ATOM     72  C   UNL A   1      31.707  30.539  25.993  1.00  0.00     0.117 C 
BRANCH  72  73
ATOM     73  N   UNL A   1      31.429  29.501  26.966  1.00  0.00    -0.356 N 
ATOM     74  C   UNL A   1      31.665  28.172  27.032  1.00  0.00     0.224 C 
ATOM     75  H   UNL A   1      30.962  29.843  27.762  1.00  0.00     0.163 HD
ATOM     76  O   UNL A   1      31.438  27.655  28.137  1.00  0.00    -0.275 OA
BRANCH  74  77
ATOM     77  C   UNL A   1      32.114  27.259  25.889  1.00  0.00     0.098 C 
ATOM     78  C   UNL A   1      33.448  27.485  25.176  1.00  0.00     0.017 C 
ATOM     79  C   UNL A   1      30.941  26.925  24.962  1.00  0.00     0.133 C 
ATOM     80  C   UNL A   1      33.365  28.075  23.768  1.00  0.00     0.022 C 
ATOM     81  N   UNL A   1      30.937  27.691  23.716  1.00  0.00    -0.342 N 
ATOM     82  C   UNL A   1      32.171  27.574  22.956  1.00  0.00     0.119 C 
BRANCH  81  83
ATOM     83  C   UNL A   1      29.812  28.433  23.401  1.00  0.00     0.226 C 
ATOM     84  O   UNL A   1      28.694  27.900  23.488  1.00  0.00    -0.275 OA
BRANCH  83  85
ATOM     85  C   UNL A   1      29.846  29.902  22.939  1.00  0.00     0.083 C 
ATOM     86  C   UNL A   1      29.606  30.199  21.453  1.00  0.00     0.040 C 
ATOM     87  C   UNL A   1      29.159  30.869  23.907  1.00  0.00     0.018 C 
ATOM     88  C   UNL A   1      28.382  30.993  21.125  1.00  0.00    -0.030 C 
ATOM     89  C   UNL A   1      27.742  31.285  23.522  1.00  0.00     0.028 C 
ATOM     90  C   UNL A   1      27.544  31.474  22.050  1.00  0.00    -0.031 C 
ENDBRANCH  83  85
ENDBRANCH  81  83
ENDBRANCH  74  77
ENDBRANCH  72  73
ENDBRANCH  71  72
ENDBRANCH   1  71
TORSDOF 15
ENDMDL
