MODEL 1
REMARK VINA RESULT:     -11.5      0.000      0.000
REMARK SMILES CCC(CC)(NC(=O)c1c(C)noc1C)C(=O)NCCCNC(=O)c1ccc(-c2c3nc(c(-c4cc(S(=O)(=O)[O-])ccc4F)c4ccc([nH]4)c(-c4cc(S(=O)(=O)[O-])ccc4F)c4nc(c(-c5cc(S(=O)(=O)[O-])ccc5F)c5ccc2[nH]5)C=C4)C=C3)cc1
REMARK SMILES IDX 20 1 19 2 18 3 16 4 17 5 3 7 2 8 1 9 4 10 5 11 6 12 7 13
REMARK SMILES IDX 8 15 9 16 10 17 14 18 11 19 12 20 13 21 15 22 21 23 22 24
REMARK SMILES IDX 23 25 24 27 25 28 26 29 87 30 27 31 86 32 28 33 29 34 30 35
REMARK SMILES IDX 80 36 31 37 85 38 79 39 81 40 32 41 84 42 78 43 77 44 33 46
REMARK SMILES IDX 65 47 45 48 64 49 46 50 49 51 63 52 82 53 47 54 48 55 62 57
REMARK SMILES IDX 83 58 50 59 34 60 35 61 43 62 36 63 42 64 44 65 41 66 37 67
REMARK SMILES IDX 38 68 39 69 40 70 66 71 67 72 75 73 68 74 74 75 76 76 73 77
REMARK SMILES IDX 69 78 70 79 71 80 72 81 51 82 52 83 60 84 53 85 59 86 61 87
REMARK SMILES IDX 58 88 54 89 55 90 56 91 57 92
REMARK H PARENT 18 6 6 14 22 26 81 45 49 56
REMARK Flexibility Score: inf
ROOT
ATOM      1  C   UNL A   1      31.849  31.247  26.522  1.00  0.00     0.042 C 
ENDROOT
BRANCH   1   2
ATOM      2  C   UNL A   1      32.104  29.889  25.855  1.00  0.00     0.117 C 
BRANCH   2   3
ATOM      3  N   UNL A   1      33.050  29.755  24.744  1.00  0.00    -0.354 N 
ATOM      4  C   UNL A   1      33.306  28.766  23.813  1.00  0.00     0.245 C 
ATOM      5  O   UNL A   1      33.920  29.101  22.795  1.00  0.00    -0.272 OA
ATOM      6  H   UNL A   1      33.631  30.543  24.637  1.00  0.00     0.163 HD
BRANCH   4   7
ATOM      7  C   UNL A   1      32.676  27.367  23.932  1.00  0.00     0.118 C 
BRANCH   7   8
ATOM      8  C   UNL A   1      31.220  27.269  24.465  1.00  0.00     0.035 C 
ATOM      9  C   UNL A   1      30.079  27.689  23.545  1.00  0.00     0.007 C 
ENDBRANCH   7   8
BRANCH   7  10
ATOM     10  C   UNL A   1      33.659  26.648  24.931  1.00  0.00     0.035 C 
ATOM     11  C   UNL A   1      33.075  25.805  26.051  1.00  0.00     0.007 C 
ENDBRANCH   7  10
BRANCH   7  12
ATOM     12  N   UNL A   1      32.684  26.786  22.579  1.00  0.00    -0.337 N 
ATOM     13  C   UNL A   1      33.004  25.551  22.049  1.00  0.00     0.257 C 
ATOM     14  H   UNL A   1      32.393  27.428  21.891  1.00  0.00     0.164 HD
ATOM     15  O   UNL A   1      33.241  25.637  20.837  1.00  0.00    -0.269 OA
BRANCH  13  16
ATOM     16  C   UNL A   1      33.119  24.233  22.701  1.00  0.00     0.105 A 
ATOM     17  C   UNL A   1      31.938  23.560  23.222  1.00  0.00     0.093 A 
ATOM     18  C   UNL A   1      34.129  23.401  23.196  1.00  0.00     0.146 A 
ATOM     19  C   UNL A   1      30.525  24.013  23.252  1.00  0.00     0.071 C 
ATOM     20  N   UNL A   1      32.219  22.386  23.782  1.00  0.00    -0.084 NA
ATOM     21  O   UNL A   1      33.571  22.286  23.749  1.00  0.00    -0.361 OA
ATOM     22  C   UNL A   1      35.587  23.351  23.426  1.00  0.00     0.092 C 
ENDBRANCH  13  16
ENDBRANCH   7  12
ENDBRANCH   4   7
ENDBRANCH   2   3
ENDBRANCH   1   2
BRANCH   1  23
ATOM     23  C   UNL A   1      32.958  31.981  27.263  1.00  0.00     0.118 C 
BRANCH  23  24
ATOM     24  N   UNL A   1      32.654  33.355  27.596  1.00  0.00    -0.352 N 
ATOM     25  C   UNL A   1      33.281  34.184  28.495  1.00  0.00     0.251 C 
ATOM     26  H   UNL A   1      31.893  33.751  27.113  1.00  0.00     0.163 HD
ATOM     27  O   UNL A   1      32.828  35.313  28.678  1.00  0.00    -0.269 OA
BRANCH  25  28
ATOM     28  C   UNL A   1      34.451  33.716  29.280  1.00  0.00     0.039 A 
ATOM     29  C   UNL A   1      34.222  32.827  30.334  1.00  0.00     0.014 A 
ATOM     30  C   UNL A   1      35.754  34.144  29.004  1.00  0.00     0.014 A 
ATOM     31  C   UNL A   1      35.299  32.317  31.066  1.00  0.00     0.010 A 
ATOM     32  C   UNL A   1      36.834  33.597  29.707  1.00  0.00     0.010 A 
ATOM     33  C   UNL A   1      36.619  32.669  30.739  1.00  0.00    -0.014 A 
BRANCH  33  34
ATOM     34  C   UNL A   1      37.765  32.038  31.455  1.00  0.00     0.031 A 
ATOM     35  C   UNL A   1      38.573  30.945  30.809  1.00  0.00     0.074 A 
ATOM     36  C   UNL A   1      38.070  32.443  32.704  1.00  0.00     0.049 A 
ATOM     37  N   UNL A   1      39.608  30.294  31.279  1.00  0.00    -0.248 NA
ATOM     38  C   UNL A   1      38.154  30.521  29.467  1.00  0.00     0.031 C 
ATOM     39  C   UNL A   1      37.345  33.471  33.455  1.00  0.00     0.029 A 
ATOM     40  N   UNL A   1      39.064  32.045  33.566  1.00  0.00    -0.354 N 
ATOM     41  C   UNL A   1      39.966  29.381  30.291  1.00  0.00     0.074 A 
ATOM     42  C   UNL A   1      39.000  29.529  29.222  1.00  0.00     0.031 C 
ATOM     43  C   UNL A   1      37.932  33.639  34.652  1.00  0.00     0.029 A 
ATOM     44  C   UNL A   1      39.049  32.706  34.774  1.00  0.00     0.049 A 
ATOM     45  H   UNL A   1      39.724  31.351  33.340  1.00  0.00     0.167 HD
ATOM     46  C   UNL A   1      41.011  28.515  30.271  1.00  0.00     0.034 A 
ATOM     47  C   UNL A   1      39.837  32.575  35.860  1.00  0.00     0.034 A 
ATOM     48  C   UNL A   1      41.963  28.369  31.347  1.00  0.00     0.049 A 
ATOM     49  C   UNL A   1      40.969  31.577  35.828  1.00  0.00     0.074 A 
ATOM     50  C   UNL A   1      43.082  27.553  31.406  1.00  0.00     0.029 A 
ATOM     51  N   UNL A   1      41.905  29.040  32.562  1.00  0.00    -0.354 N 
ATOM     52  N   UNL A   1      41.327  30.763  34.862  1.00  0.00    -0.248 NA
ATOM     53  C   UNL A   1      41.810  31.491  37.029  1.00  0.00     0.031 C 
ATOM     54  C   UNL A   1      43.654  27.678  32.677  1.00  0.00     0.029 A 
ATOM     55  C   UNL A   1      42.945  28.632  33.387  1.00  0.00     0.049 A 
ATOM     56  H   UNL A   1      41.224  29.709  32.804  1.00  0.00     0.167 HD
ATOM     57  C   UNL A   1      42.453  30.092  35.330  1.00  0.00     0.074 A 
ATOM     58  C   UNL A   1      42.724  30.608  36.655  1.00  0.00     0.031 C 
ATOM     59  C   UNL A   1      43.201  29.139  34.715  1.00  0.00     0.034 A 
BRANCH  46  60
ATOM     60  C   UNL A   1      41.158  27.634  29.051  1.00  0.00     0.023 A 
ATOM     61  C   UNL A   1      42.163  27.861  28.093  1.00  0.00     0.031 A 
ATOM     62  C   UNL A   1      40.274  26.563  28.832  1.00  0.00     0.131 A 
ATOM     63  C   UNL A   1      42.212  27.081  26.928  1.00  0.00     0.055 A 
ATOM     64  C   UNL A   1      40.379  25.738  27.710  1.00  0.00     0.041 A 
ATOM     65  F   UNL A   1      39.284  26.305  29.701  1.00  0.00    -0.206 F 
ATOM     66  C   UNL A   1      41.342  26.005  26.741  1.00  0.00     0.022 A 
BRANCH  63  67
ATOM     67  S   UNL A   1      43.339  27.580  25.597  1.00  0.00     0.124 S 
ATOM     68  O   UNL A   1      44.145  26.373  25.425  1.00  0.00    -0.237 OA
ATOM     69  O   UNL A   1      42.422  27.896  24.509  1.00  0.00    -0.237 OA
ATOM     70  O   UNL A   1      44.054  28.722  26.163  1.00  0.00    -0.744 OA
ENDBRANCH  63  67
ENDBRANCH  46  60
BRANCH  47  71
ATOM     71  C   UNL A   1      39.585  33.394  37.081  1.00  0.00     0.023 A 
ATOM     72  C   UNL A   1      38.901  32.861  38.185  1.00  0.00     0.031 A 
ATOM     73  C   UNL A   1      39.982  34.742  37.139  1.00  0.00     0.131 A 
ATOM     74  C   UNL A   1      38.595  33.683  39.281  1.00  0.00     0.055 A 
ATOM     75  C   UNL A   1      39.722  35.540  38.255  1.00  0.00     0.041 A 
ATOM     76  F   UNL A   1      40.640  35.301  36.111  1.00  0.00    -0.206 F 
ATOM     77  C   UNL A   1      39.013  35.015  39.329  1.00  0.00     0.022 A 
BRANCH  74  78
ATOM     78  S   UNL A   1      37.565  33.008  40.614  1.00  0.00     0.124 S 
ATOM     79  O   UNL A   1      37.106  34.223  41.279  1.00  0.00    -0.237 OA
ATOM     80  O   UNL A   1      36.555  32.264  39.870  1.00  0.00    -0.237 OA
ATOM     81  O   UNL A   1      38.499  32.190  41.383  1.00  0.00    -0.744 OA
ENDBRANCH  74  78
ENDBRANCH  47  71
BRANCH  59  82
ATOM     82  C   UNL A   1      44.411  28.627  35.461  1.00  0.00     0.023 A 
ATOM     83  C   UNL A   1      44.317  27.590  36.405  1.00  0.00     0.031 A 
ATOM     84  C   UNL A   1      45.675  29.200  35.233  1.00  0.00     0.131 A 
ATOM     85  C   UNL A   1      45.455  27.197  37.129  1.00  0.00     0.055 A 
ATOM     86  C   UNL A   1      46.814  28.764  35.911  1.00  0.00     0.041 A 
ATOM     87  F   UNL A   1      45.824  30.197  34.346  1.00  0.00    -0.206 F 
ATOM     88  C   UNL A   1      46.706  27.766  36.875  1.00  0.00     0.022 A 
BRANCH  85  89
ATOM     89  S   UNL A   1      45.262  25.997  38.476  1.00  0.00     0.124 S 
ATOM     90  O   UNL A   1      44.340  26.691  39.371  1.00  0.00    -0.237 OA
ATOM     91  O   UNL A   1      44.722  24.832  37.783  1.00  0.00    -0.237 OA
ATOM     92  O   UNL A   1      46.621  25.836  38.989  1.00  0.00    -0.744 OA
ENDBRANCH  85  89
ENDBRANCH  59  82
ENDBRANCH  33  34
ENDBRANCH  25  28
ENDBRANCH  23  24
ENDBRANCH   1  23
TORSDOF 17
ENDMDL
MODEL 2
REMARK VINA RESULT:     -11.4      6.204     11.395
REMARK SMILES CCC(CC)(NC(=O)c1c(C)noc1C)C(=O)NCCCNC(=O)c1ccc(-c2c3nc(c(-c4cc(S(=O)(=O)[O-])ccc4F)c4ccc([nH]4)c(-c4cc(S(=O)(=O)[O-])ccc4F)c4nc(c(-c5cc(S(=O)(=O)[O-])ccc5F)c5ccc2[nH]5)C=C4)C=C3)cc1
REMARK SMILES IDX 20 1 19 2 18 3 16 4 17 5 3 7 2 8 1 9 4 10 5 11 6 12 7 13
REMARK SMILES IDX 8 15 9 16 10 17 14 18 11 19 12 20 13 21 15 22 21 23 22 24
REMARK SMILES IDX 23 25 24 27 25 28 26 29 87 30 27 31 86 32 28 33 29 34 30 35
REMARK SMILES IDX 80 36 31 37 85 38 79 39 81 40 32 41 84 42 78 43 77 44 33 46
REMARK SMILES IDX 65 47 45 48 64 49 46 50 49 51 63 52 82 53 47 54 48 55 62 57
REMARK SMILES IDX 83 58 50 59 34 60 35 61 43 62 36 63 42 64 44 65 41 66 37 67
REMARK SMILES IDX 38 68 39 69 40 70 66 71 67 72 75 73 68 74 74 75 76 76 73 77
REMARK SMILES IDX 69 78 70 79 71 80 72 81 51 82 52 83 60 84 53 85 59 86 61 87
REMARK SMILES IDX 58 88 54 89 55 90 56 91 57 92
REMARK H PARENT 18 6 6 14 22 26 81 45 49 56
REMARK Flexibility Score: inf
ROOT
ATOM      1  C   UNL A   1      37.542  20.095  24.823  1.00  0.00     0.042 C 
ENDROOT
BRANCH   1   2
ATOM      2  C   UNL A   1      36.200  20.833  24.917  1.00  0.00     0.117 C 
BRANCH   2   3
ATOM      3  N   UNL A   1      35.600  21.158  26.214  1.00  0.00    -0.354 N 
ATOM      4  C   UNL A   1      34.445  21.809  26.603  1.00  0.00     0.245 C 
ATOM      5  O   UNL A   1      34.052  21.608  27.757  1.00  0.00    -0.272 OA
ATOM      6  H   UNL A   1      36.139  20.842  26.975  1.00  0.00     0.163 HD
BRANCH   4   7
ATOM      7  C   UNL A   1      33.574  22.574  25.592  1.00  0.00     0.118 C 
BRANCH   7   8
ATOM      8  C   UNL A   1      33.324  21.920  24.206  1.00  0.00     0.035 C 
ATOM      9  C   UNL A   1      32.508  20.633  24.146  1.00  0.00     0.007 C 
ENDBRANCH   7   8
BRANCH   7  10
ATOM     10  C   UNL A   1      34.382  23.914  25.410  1.00  0.00     0.035 C 
ATOM     11  C   UNL A   1      34.619  24.441  24.006  1.00  0.00     0.007 C 
ENDBRANCH   7  10
BRANCH   7  12
ATOM     12  N   UNL A   1      32.259  22.763  26.227  1.00  0.00    -0.337 N 
ATOM     13  C   UNL A   1      31.390  23.826  26.377  1.00  0.00     0.257 C 
ATOM     14  H   UNL A   1      31.919  21.937  26.643  1.00  0.00     0.164 HD
ATOM     15  O   UNL A   1      30.602  23.627  27.311  1.00  0.00    -0.269 OA
BRANCH  13  16
ATOM     16  C   UNL A   1      31.300  25.097  25.634  1.00  0.00     0.105 A 
ATOM     17  C   UNL A   1      30.916  25.107  24.230  1.00  0.00     0.093 A 
ATOM     18  C   UNL A   1      31.675  26.433  25.808  1.00  0.00     0.146 A 
ATOM     19  C   UNL A   1      30.608  23.973  23.323  1.00  0.00     0.071 C 
ATOM     20  N   UNL A   1      30.890  26.333  23.711  1.00  0.00    -0.084 NA
ATOM     21  O   UNL A   1      31.344  27.149  24.695  1.00  0.00    -0.361 OA
ATOM     22  C   UNL A   1      32.400  27.327  26.733  1.00  0.00     0.092 C 
ENDBRANCH  13  16
ENDBRANCH   7  12
ENDBRANCH   4   7
ENDBRANCH   2   3
ENDBRANCH   1   2
BRANCH   1  23
ATOM     23  C   UNL A   1      38.680  20.408  25.784  1.00  0.00     0.118 C 
BRANCH  23  24
ATOM     24  N   UNL A   1      39.721  19.404  25.835  1.00  0.00    -0.352 N 
ATOM     25  C   UNL A   1      41.056  19.559  26.119  1.00  0.00     0.251 C 
ATOM     26  H   UNL A   1      39.431  18.484  25.639  1.00  0.00     0.163 HD
ATOM     27  O   UNL A   1      41.795  18.577  26.052  1.00  0.00    -0.269 OA
BRANCH  25  28
ATOM     28  C   UNL A   1      41.619  20.893  26.446  1.00  0.00     0.039 A 
ATOM     29  C   UNL A   1      41.919  21.756  25.388  1.00  0.00     0.014 A 
ATOM     30  C   UNL A   1      41.865  21.297  27.762  1.00  0.00     0.014 A 
ATOM     31  C   UNL A   1      42.399  23.043  25.649  1.00  0.00     0.010 A 
ATOM     32  C   UNL A   1      42.303  22.601  28.024  1.00  0.00     0.010 A 
ATOM     33  C   UNL A   1      42.564  23.493  26.970  1.00  0.00    -0.014 A 
BRANCH  33  34
ATOM     34  C   UNL A   1      42.975  24.900  27.241  1.00  0.00     0.031 A 
ATOM     35  C   UNL A   1      42.033  25.866  27.907  1.00  0.00     0.074 A 
ATOM     36  C   UNL A   1      44.203  25.316  26.868  1.00  0.00     0.049 A 
ATOM     37  N   UNL A   1      42.226  27.121  28.229  1.00  0.00    -0.248 NA
ATOM     38  C   UNL A   1      40.696  25.359  28.240  1.00  0.00     0.031 C 
ATOM     39  C   UNL A   1      45.199  24.487  26.185  1.00  0.00     0.029 A 
ATOM     40  N   UNL A   1      44.825  26.533  27.007  1.00  0.00    -0.354 N 
ATOM     41  C   UNL A   1      41.036  27.556  28.804  1.00  0.00     0.074 A 
ATOM     42  C   UNL A   1      40.112  26.443  28.734  1.00  0.00     0.031 C 
ATOM     43  C   UNL A   1      46.313  25.212  25.988  1.00  0.00     0.029 A 
ATOM     44  C   UNL A   1      46.102  26.565  26.491  1.00  0.00     0.049 A 
ATOM     45  H   UNL A   1      44.398  27.309  27.435  1.00  0.00     0.167 HD
ATOM     46  C   UNL A   1      40.748  28.763  29.356  1.00  0.00     0.034 A 
ATOM     47  C   UNL A   1      46.998  27.570  26.422  1.00  0.00     0.034 A 
ATOM     48  C   UNL A   1      41.675  29.869  29.413  1.00  0.00     0.049 A 
ATOM     49  C   UNL A   1      46.641  28.914  27.007  1.00  0.00     0.074 A 
ATOM     50  C   UNL A   1      41.495  31.117  29.989  1.00  0.00     0.029 A 
ATOM     51  N   UNL A   1      42.950  29.872  28.862  1.00  0.00    -0.354 N 
ATOM     52  N   UNL A   1      45.529  29.289  27.599  1.00  0.00    -0.248 NA
ATOM     53  C   UNL A   1      47.662  29.966  26.925  1.00  0.00     0.031 C 
ATOM     54  C   UNL A   1      42.629  31.893  29.724  1.00  0.00     0.029 A 
ATOM     55  C   UNL A   1      43.553  31.108  29.055  1.00  0.00     0.049 A 
ATOM     56  H   UNL A   1      43.367  29.108  28.402  1.00  0.00     0.167 HD
ATOM     57  C   UNL A   1      45.735  30.611  27.986  1.00  0.00     0.074 A 
ATOM     58  C   UNL A   1      47.078  30.960  27.576  1.00  0.00     0.031 C 
ATOM     59  C   UNL A   1      44.889  31.457  28.629  1.00  0.00     0.034 A 
BRANCH  46  60
ATOM     60  C   UNL A   1      39.356  28.955  29.915  1.00  0.00     0.023 A 
ATOM     61  C   UNL A   1      38.333  29.554  29.158  1.00  0.00     0.031 A 
ATOM     62  C   UNL A   1      39.050  28.549  31.226  1.00  0.00     0.131 A 
ATOM     63  C   UNL A   1      37.080  29.799  29.741  1.00  0.00     0.055 A 
ATOM     64  C   UNL A   1      37.777  28.721  31.773  1.00  0.00     0.041 A 
ATOM     65  F   UNL A   1      39.988  27.985  32.003  1.00  0.00    -0.206 F 
ATOM     66  C   UNL A   1      36.787  29.365  31.035  1.00  0.00     0.022 A 
BRANCH  63  67
ATOM     67  S   UNL A   1      35.885  30.818  28.832  1.00  0.00     0.124 S 
ATOM     68  O   UNL A   1      36.768  31.645  28.011  1.00  0.00    -0.237 OA
ATOM     69  O   UNL A   1      35.098  29.821  28.119  1.00  0.00    -0.237 OA
ATOM     70  O   UNL A   1      35.175  31.536  29.889  1.00  0.00    -0.744 OA
ENDBRANCH  63  67
ENDBRANCH  46  60
BRANCH  47  71
ATOM     71  C   UNL A   1      48.321  27.358  25.765  1.00  0.00     0.023 A 
ATOM     72  C   UNL A   1      48.473  27.503  24.376  1.00  0.00     0.031 A 
ATOM     73  C   UNL A   1      49.442  26.960  26.513  1.00  0.00     0.131 A 
ATOM     74  C   UNL A   1      49.706  27.205  23.774  1.00  0.00     0.055 A 
ATOM     75  C   UNL A   1      50.681  26.717  25.915  1.00  0.00     0.041 A 
ATOM     76  F   UNL A   1      49.352  26.809  27.844  1.00  0.00    -0.206 F 
ATOM     77  C   UNL A   1      50.813  26.827  24.536  1.00  0.00     0.022 A 
BRANCH  74  78
ATOM     78  S   UNL A   1      49.819  27.239  21.963  1.00  0.00     0.124 S 
ATOM     79  O   UNL A   1      49.581  28.650  21.677  1.00  0.00    -0.237 OA
ATOM     80  O   UNL A   1      51.178  26.759  21.736  1.00  0.00    -0.237 OA
ATOM     81  O   UNL A   1      48.759  26.328  21.539  1.00  0.00    -0.744 OA
ENDBRANCH  74  78
ENDBRANCH  47  71
BRANCH  59  82
ATOM     82  C   UNL A   1      45.417  32.832  28.966  1.00  0.00     0.023 A 
ATOM     83  C   UNL A   1      45.328  33.904  28.060  1.00  0.00     0.031 A 
ATOM     84  C   UNL A   1      46.033  33.066  30.208  1.00  0.00     0.131 A 
ATOM     85  C   UNL A   1      45.899  35.144  28.387  1.00  0.00     0.055 A 
ATOM     86  C   UNL A   1      46.544  34.319  30.552  1.00  0.00     0.041 A 
ATOM     87  F   UNL A   1      46.150  32.080  31.111  1.00  0.00    -0.206 F 
ATOM     88  C   UNL A   1      46.491  35.363  29.633  1.00  0.00     0.022 A 
BRANCH  85  89
ATOM     89  S   UNL A   1      45.943  36.445  27.123  1.00  0.00     0.124 S 
ATOM     90  O   UNL A   1      46.956  37.352  27.655  1.00  0.00    -0.237 OA
ATOM     91  O   UNL A   1      46.319  35.703  25.923  1.00  0.00    -0.237 OA
ATOM     92  O   UNL A   1      44.580  36.971  27.123  1.00  0.00    -0.744 OA
ENDBRANCH  85  89
ENDBRANCH  59  82
ENDBRANCH  33  34
ENDBRANCH  25  28
ENDBRANCH  23  24
ENDBRANCH   1  23
TORSDOF 17
ENDMDL
MODEL 3
REMARK VINA RESULT:     -11.2      1.590      7.793
REMARK SMILES CCC(CC)(NC(=O)c1c(C)noc1C)C(=O)NCCCNC(=O)c1ccc(-c2c3nc(c(-c4cc(S(=O)(=O)[O-])ccc4F)c4ccc([nH]4)c(-c4cc(S(=O)(=O)[O-])ccc4F)c4nc(c(-c5cc(S(=O)(=O)[O-])ccc5F)c5ccc2[nH]5)C=C4)C=C3)cc1
REMARK SMILES IDX 20 1 19 2 18 3 16 4 17 5 3 7 2 8 1 9 4 10 5 11 6 12 7 13
REMARK SMILES IDX 8 15 9 16 10 17 14 18 11 19 12 20 13 21 15 22 21 23 22 24
REMARK SMILES IDX 23 25 24 27 25 28 26 29 87 30 27 31 86 32 28 33 29 34 30 35
REMARK SMILES IDX 80 36 31 37 85 38 79 39 81 40 32 41 84 42 78 43 77 44 33 46
REMARK SMILES IDX 65 47 45 48 64 49 46 50 49 51 63 52 82 53 47 54 48 55 62 57
REMARK SMILES IDX 83 58 50 59 34 60 35 61 43 62 36 63 42 64 44 65 41 66 37 67
REMARK SMILES IDX 38 68 39 69 40 70 66 71 67 72 75 73 68 74 74 75 76 76 73 77
REMARK SMILES IDX 69 78 70 79 71 80 72 81 51 82 52 83 60 84 53 85 59 86 61 87
REMARK SMILES IDX 58 88 54 89 55 90 56 91 57 92
REMARK H PARENT 18 6 6 14 22 26 81 45 49 56
REMARK Flexibility Score: inf
ROOT
ATOM      1  C   UNL A   1      31.794  31.197  26.611  1.00  0.00     0.042 C 
ENDROOT
BRANCH   1   2
ATOM      2  C   UNL A   1      31.937  29.886  25.828  1.00  0.00     0.117 C 
BRANCH   2   3
ATOM      3  N   UNL A   1      32.860  29.774  24.695  1.00  0.00    -0.354 N 
ATOM      4  C   UNL A   1      33.119  28.791  23.758  1.00  0.00     0.245 C 
ATOM      5  O   UNL A   1      33.701  29.141  22.727  1.00  0.00    -0.272 OA
ATOM      6  H   UNL A   1      33.418  30.576  24.574  1.00  0.00     0.163 HD
BRANCH   4   7
ATOM      7  C   UNL A   1      32.527  27.377  23.892  1.00  0.00     0.118 C 
BRANCH   7   8
ATOM      8  C   UNL A   1      31.044  27.249  24.339  1.00  0.00     0.035 C 
ATOM      9  C   UNL A   1      29.952  27.690  23.371  1.00  0.00     0.007 C 
ENDBRANCH   7   8
BRANCH   7  10
ATOM     10  C   UNL A   1      33.468  26.728  24.976  1.00  0.00     0.035 C 
ATOM     11  C   UNL A   1      32.843  25.902  26.087  1.00  0.00     0.007 C 
ENDBRANCH   7  10
BRANCH   7  12
ATOM     12  N   UNL A   1      32.636  26.748  22.566  1.00  0.00    -0.337 N 
ATOM     13  C   UNL A   1      33.041  25.511  22.103  1.00  0.00     0.257 C 
ATOM     14  H   UNL A   1      32.356  27.350  21.838  1.00  0.00     0.164 HD
ATOM     15  O   UNL A   1      33.341  25.563  20.902  1.00  0.00    -0.269 OA
BRANCH  13  16
ATOM     16  C   UNL A   1      33.178  24.224  22.810  1.00  0.00     0.105 A 
ATOM     17  C   UNL A   1      32.003  23.539  23.331  1.00  0.00     0.093 A 
ATOM     18  C   UNL A   1      34.198  23.443  23.362  1.00  0.00     0.146 A 
ATOM     19  C   UNL A   1      30.577  23.951  23.310  1.00  0.00     0.071 C 
ATOM     20  N   UNL A   1      32.304  22.397  23.946  1.00  0.00    -0.084 NA
ATOM     21  O   UNL A   1      33.659  22.335  23.948  1.00  0.00    -0.361 OA
ATOM     22  C   UNL A   1      35.651  23.445  23.628  1.00  0.00     0.092 C 
ENDBRANCH  13  16
ENDBRANCH   7  12
ENDBRANCH   4   7
ENDBRANCH   2   3
ENDBRANCH   1   2
BRANCH   1  23
ATOM     23  C   UNL A   1      33.015  32.020  26.996  1.00  0.00     0.118 C 
BRANCH  23  24
ATOM     24  N   UNL A   1      32.716  33.337  27.516  1.00  0.00    -0.352 N 
ATOM     25  C   UNL A   1      33.387  34.059  28.474  1.00  0.00     0.251 C 
ATOM     26  H   UNL A   1      31.923  33.774  27.131  1.00  0.00     0.163 HD
ATOM     27  O   UNL A   1      32.932  35.148  28.823  1.00  0.00    -0.269 OA
BRANCH  25  28
ATOM     28  C   UNL A   1      34.608  33.520  29.124  1.00  0.00     0.039 A 
ATOM     29  C   UNL A   1      34.448  32.549  30.117  1.00  0.00     0.014 A 
ATOM     30  C   UNL A   1      35.891  33.959  28.783  1.00  0.00     0.014 A 
ATOM     31  C   UNL A   1      35.571  31.972  30.718  1.00  0.00     0.010 A 
ATOM     32  C   UNL A   1      37.014  33.349  29.353  1.00  0.00     0.010 A 
ATOM     33  C   UNL A   1      36.867  32.340  30.320  1.00  0.00    -0.014 A 
BRANCH  33  34
ATOM     34  C   UNL A   1      38.056  31.645  30.890  1.00  0.00     0.031 A 
ATOM     35  C   UNL A   1      38.578  32.000  32.256  1.00  0.00     0.074 A 
ATOM     36  C   UNL A   1      38.681  30.697  30.163  1.00  0.00     0.049 A 
ATOM     37  N   UNL A   1      39.592  31.492  32.912  1.00  0.00    -0.248 NA
ATOM     38  C   UNL A   1      37.879  33.076  32.970  1.00  0.00     0.031 C 
ATOM     39  C   UNL A   1      38.295  30.282  28.812  1.00  0.00     0.029 A 
ATOM     40  N   UNL A   1      39.770  29.909  30.451  1.00  0.00    -0.354 N 
ATOM     41  C   UNL A   1      39.653  32.184  34.118  1.00  0.00     0.074 A 
ATOM     42  C   UNL A   1      38.606  33.185  34.073  1.00  0.00     0.031 C 
ATOM     43  C   UNL A   1      39.117  29.302  28.401  1.00  0.00     0.029 A 
ATOM     44  C   UNL A   1      40.113  29.044  29.436  1.00  0.00     0.049 A 
ATOM     45  H   UNL A   1      40.259  29.960  31.303  1.00  0.00     0.167 HD
ATOM     46  C   UNL A   1      40.490  31.992  35.169  1.00  0.00     0.034 A 
ATOM     47  C   UNL A   1      41.117  28.149  29.343  1.00  0.00     0.034 A 
ATOM     48  C   UNL A   1      41.536  30.996  35.199  1.00  0.00     0.049 A 
ATOM     49  C   UNL A   1      42.060  27.980  30.510  1.00  0.00     0.074 A 
ATOM     50  C   UNL A   1      42.408  30.691  36.232  1.00  0.00     0.029 A 
ATOM     51  N   UNL A   1      41.867  30.152  34.146  1.00  0.00    -0.354 N 
ATOM     52  N   UNL A   1      42.066  28.605  31.665  1.00  0.00    -0.248 NA
ATOM     53  C   UNL A   1      43.122  26.977  30.364  1.00  0.00     0.031 C 
ATOM     54  C   UNL A   1      43.306  29.717  35.780  1.00  0.00     0.029 A 
ATOM     55  C   UNL A   1      42.948  29.353  34.493  1.00  0.00     0.049 A 
ATOM     56  H   UNL A   1      41.401  30.124  33.279  1.00  0.00     0.167 HD
ATOM     57  C   UNL A   1      43.113  28.045  32.392  1.00  0.00     0.074 A 
ATOM     58  C   UNL A   1      43.703  27.024  31.553  1.00  0.00     0.031 C 
ATOM     59  C   UNL A   1      43.543  28.346  33.645  1.00  0.00     0.034 A 
BRANCH  46  60
ATOM     60  C   UNL A   1      40.324  32.903  36.364  1.00  0.00     0.023 A 
ATOM     61  C   UNL A   1      39.527  32.538  37.464  1.00  0.00     0.031 A 
ATOM     62  C   UNL A   1      40.956  34.158  36.399  1.00  0.00     0.131 A 
ATOM     63  C   UNL A   1      39.322  33.447  38.514  1.00  0.00     0.055 A 
ATOM     64  C   UNL A   1      40.814  35.025  37.484  1.00  0.00     0.041 A 
ATOM     65  F   UNL A   1      41.717  34.569  35.372  1.00  0.00    -0.206 F 
ATOM     66  C   UNL A   1      39.980  34.679  38.543  1.00  0.00     0.022 A 
BRANCH  63  67
ATOM     67  S   UNL A   1      38.075  33.053  39.771  1.00  0.00     0.124 S 
ATOM     68  O   UNL A   1      38.617  31.826  40.350  1.00  0.00    -0.237 OA
ATOM     69  O   UNL A   1      38.107  34.232  40.628  1.00  0.00    -0.237 OA
ATOM     70  O   UNL A   1      36.849  32.878  38.994  1.00  0.00    -0.744 OA
ENDBRANCH  63  67
ENDBRANCH  46  60
BRANCH  47  71
ATOM     71  C   UNL A   1      41.303  27.348  28.098  1.00  0.00     0.023 A 
ATOM     72  C   UNL A   1      40.893  26.007  28.030  1.00  0.00     0.031 A 
ATOM     73  C   UNL A   1      41.939  27.902  26.973  1.00  0.00     0.131 A 
ATOM     74  C   UNL A   1      41.166  25.250  26.879  1.00  0.00     0.055 A 
ATOM     75  C   UNL A   1      42.160  27.160  25.811  1.00  0.00     0.041 A 
ATOM     76  F   UNL A   1      42.349  29.180  26.985  1.00  0.00    -0.206 F 
ATOM     77  C   UNL A   1      41.784  25.822  25.764  1.00  0.00     0.022 A 
BRANCH  74  78
ATOM     78  S   UNL A   1      40.775  23.479  26.889  1.00  0.00     0.124 S 
ATOM     79  O   UNL A   1      41.662  22.973  25.847  1.00  0.00    -0.237 OA
ATOM     80  O   UNL A   1      41.113  23.102  28.258  1.00  0.00    -0.237 OA
ATOM     81  O   UNL A   1      39.351  23.443  26.568  1.00  0.00    -0.744 OA
ENDBRANCH  74  78
ENDBRANCH  47  71
BRANCH  59  82
ATOM     82  C   UNL A   1      44.684  27.523  34.195  1.00  0.00     0.023 A 
ATOM     83  C   UNL A   1      44.470  26.282  34.822  1.00  0.00     0.031 A 
ATOM     84  C   UNL A   1      46.005  27.997  34.104  1.00  0.00     0.131 A 
ATOM     85  C   UNL A   1      45.552  25.587  35.386  1.00  0.00     0.055 A 
ATOM     86  C   UNL A   1      47.085  27.273  34.612  1.00  0.00     0.041 A 
ATOM     87  F   UNL A   1      46.269  29.177  33.521  1.00  0.00    -0.206 F 
ATOM     88  C   UNL A   1      46.860  26.066  35.269  1.00  0.00     0.022 A 
BRANCH  85  89
ATOM     89  S   UNL A   1      45.220  24.092  36.358  1.00  0.00     0.124 S 
ATOM     90  O   UNL A   1      46.473  23.356  36.221  1.00  0.00    -0.237 OA
ATOM     91  O   UNL A   1      44.942  24.636  37.684  1.00  0.00    -0.237 OA
ATOM     92  O   UNL A   1      44.071  23.492  35.683  1.00  0.00    -0.744 OA
ENDBRANCH  85  89
ENDBRANCH  59  82
ENDBRANCH  33  34
ENDBRANCH  25  28
ENDBRANCH  23  24
ENDBRANCH   1  23
TORSDOF 17
ENDMDL
