MODEL 1
REMARK VINA RESULT:     -12.5      0.000      0.000
REMARK SMILES Cc1ccc(CSCC(=O)N[C@H]2C=C[C@@H](C(=O)NCCCNC(=O)c3ccc(-c4c5nc(c(-c6cc(S(=O)(=O)[O-])ccc6F)c6ccc([nH]6)c(-c6cc(S(=O)(=O)[O-])ccc6F)c6nc(c(-c7cc(S(=O)(=O)[O-])ccc7F)c7ccc4[nH]7)C=C6)C=C5)cc3)C2)cc1
REMARK SMILES IDX 19 1 18 2 16 3 17 4 15 6 12 7 13 8 88 9 14 10 11 11 9 12
REMARK SMILES IDX 10 13 8 15 7 16 6 17 5 18 1 19 2 20 3 21 90 22 4 23 89 24
REMARK SMILES IDX 20 25 21 26 22 27 23 28 24 30 25 31 26 32 87 33 27 34 86 35
REMARK SMILES IDX 28 36 29 37 30 38 80 39 31 40 85 41 79 42 81 43 32 44 84 45
REMARK SMILES IDX 78 46 77 47 33 49 65 50 45 51 64 52 46 53 49 54 63 55 82 56
REMARK SMILES IDX 47 57 48 58 62 60 83 61 50 62 34 63 35 64 43 65 36 66 42 67
REMARK SMILES IDX 44 68 41 69 37 70 38 71 39 72 40 73 66 74 67 75 75 76 68 77
REMARK SMILES IDX 74 78 76 79 73 80 69 81 70 82 71 83 72 84 51 85 52 86 60 87
REMARK SMILES IDX 53 88 59 89 61 90 58 91 54 92 55 93 56 94 57 95
REMARK H PARENT 18 5 11 14 22 29 81 48 49 59
REMARK Flexibility Score: inf
ROOT
ATOM      1  C   UNL A   1      34.543  31.607  27.621  1.00  0.00     0.117 C 
ENDROOT
BRANCH   1   2
ATOM      2  N   UNL A   1      33.225  31.033  27.406  1.00  0.00    -0.356 N 
ATOM      3  C   UNL A   1      32.826  29.894  26.781  1.00  0.00     0.227 C 
ATOM      4  O   UNL A   1      31.614  29.653  26.746  1.00  0.00    -0.274 OA
ATOM      5  H   UNL A   1      32.486  31.567  27.780  1.00  0.00     0.163 HD
BRANCH   3   6
ATOM      6  C   UNL A   1      33.798  28.926  26.096  1.00  0.00     0.103 C 
ATOM      7  C   UNL A   1      33.801  26.592  25.272  1.00  0.00     0.106 C 
ATOM      8  C   UNL A   1      33.693  27.584  24.172  1.00  0.00    -0.006 C 
ATOM      9  C   UNL A   1      33.684  27.467  26.543  1.00  0.00     0.047 C 
ATOM     10  C   UNL A   1      33.689  28.849  24.610  1.00  0.00    -0.016 C 
BRANCH   7  11
ATOM     11  N   UNL A   1      32.765  25.570  25.307  1.00  0.00    -0.349 N 
ATOM     12  C   UNL A   1      32.254  24.679  24.421  1.00  0.00     0.230 C 
ATOM     13  O   UNL A   1      31.629  23.728  24.905  1.00  0.00    -0.274 OA
ATOM     14  H   UNL A   1      32.328  25.511  26.187  1.00  0.00     0.164 HD
BRANCH  12  15
ATOM     15  C   UNL A   1      32.393  24.813  22.924  1.00  0.00     0.169 C 
BRANCH  15  16
ATOM     16  S   UNL A   1      31.378  26.096  22.140  1.00  0.00    -0.147 SA
BRANCH  16  17
ATOM     17  C   UNL A   1      30.246  26.588  23.467  1.00  0.00     0.105 C 
BRANCH  17  18
ATOM     18  C   UNL A   1      29.575  27.917  23.268  1.00  0.00    -0.038 A 
ATOM     19  C   UNL A   1      27.532  31.704  23.538  1.00  0.00     0.044 C 
ATOM     20  C   UNL A   1      28.243  30.401  23.333  1.00  0.00    -0.051 A 
ATOM     21  C   UNL A   1      29.621  30.327  23.570  1.00  0.00     0.004 A 
ATOM     22  C   UNL A   1      27.540  29.228  23.032  1.00  0.00     0.004 A 
ATOM     23  C   UNL A   1      30.280  29.097  23.542  1.00  0.00     0.005 A 
ATOM     24  C   UNL A   1      28.202  27.996  22.990  1.00  0.00     0.005 A 
ENDBRANCH  17  18
ENDBRANCH  16  17
ENDBRANCH  15  16
ENDBRANCH  12  15
ENDBRANCH   7  11
ENDBRANCH   3   6
ENDBRANCH   1   2
BRANCH   1  25
ATOM     25  C   UNL A   1      34.519  32.637  28.744  1.00  0.00     0.042 C 
BRANCH  25  26
ATOM     26  C   UNL A   1      35.096  32.125  30.061  1.00  0.00     0.118 C 
BRANCH  26  27
ATOM     27  N   UNL A   1      36.555  32.209  30.155  1.00  0.00    -0.352 N 
ATOM     28  C   UNL A   1      37.593  31.348  29.816  1.00  0.00     0.251 C 
ATOM     29  H   UNL A   1      36.867  33.059  30.542  1.00  0.00     0.163 HD
ATOM     30  O   UNL A   1      38.729  31.764  29.775  1.00  0.00    -0.269 OA
BRANCH  28  31
ATOM     31  C   UNL A   1      37.362  29.984  29.259  1.00  0.00     0.039 A 
ATOM     32  C   UNL A   1      37.441  29.031  30.286  1.00  0.00     0.014 A 
ATOM     33  C   UNL A   1      37.844  29.689  28.001  1.00  0.00     0.014 A 
ATOM     34  C   UNL A   1      38.505  28.154  30.258  1.00  0.00     0.010 A 
ATOM     35  C   UNL A   1      38.948  28.866  27.977  1.00  0.00     0.010 A 
ATOM     36  C   UNL A   1      39.348  28.218  29.157  1.00  0.00    -0.014 A 
BRANCH  36  37
ATOM     37  C   UNL A   1      40.714  27.735  29.185  1.00  0.00     0.031 A 
ATOM     38  C   UNL A   1      40.955  26.347  28.768  1.00  0.00     0.074 A 
ATOM     39  C   UNL A   1      41.735  28.531  29.573  1.00  0.00     0.049 A 
ATOM     40  N   UNL A   1      41.988  25.658  29.097  1.00  0.00    -0.248 NA
ATOM     41  C   UNL A   1      39.971  25.581  28.012  1.00  0.00     0.031 C 
ATOM     42  C   UNL A   1      43.163  28.268  29.410  1.00  0.00     0.029 A 
ATOM     43  N   UNL A   1      41.714  29.669  30.359  1.00  0.00    -0.354 N 
ATOM     44  C   UNL A   1      41.963  24.495  28.366  1.00  0.00     0.074 A 
ATOM     45  C   UNL A   1      40.636  24.443  27.812  1.00  0.00     0.031 C 
ATOM     46  C   UNL A   1      43.854  29.044  30.261  1.00  0.00     0.029 A 
ATOM     47  C   UNL A   1      42.893  29.731  31.104  1.00  0.00     0.049 A 
ATOM     48  H   UNL A   1      40.983  30.329  30.389  1.00  0.00     0.167 HD
ATOM     49  C   UNL A   1      43.126  23.806  28.212  1.00  0.00     0.034 A 
ATOM     50  C   UNL A   1      42.890  29.679  32.469  1.00  0.00     0.034 A 
ATOM     51  C   UNL A   1      44.161  24.335  29.113  1.00  0.00     0.049 A 
ATOM     52  C   UNL A   1      43.569  28.438  33.027  1.00  0.00     0.074 A 
ATOM     53  C   UNL A   1      45.262  25.152  28.922  1.00  0.00     0.029 A 
ATOM     54  N   UNL A   1      43.953  24.277  30.488  1.00  0.00    -0.354 N 
ATOM     55  N   UNL A   1      43.882  27.390  32.311  1.00  0.00    -0.248 NA
ATOM     56  C   UNL A   1      43.943  28.276  34.429  1.00  0.00     0.031 C 
ATOM     57  C   UNL A   1      45.664  25.649  30.194  1.00  0.00     0.029 A 
ATOM     58  C   UNL A   1      44.837  25.101  31.160  1.00  0.00     0.049 A 
ATOM     59  H   UNL A   1      43.266  23.723  30.925  1.00  0.00     0.167 HD
ATOM     60  C   UNL A   1      44.442  26.425  33.110  1.00  0.00     0.074 A 
ATOM     61  C   UNL A   1      44.486  27.045  34.424  1.00  0.00     0.031 C 
ATOM     62  C   UNL A   1      44.798  25.197  32.617  1.00  0.00     0.034 A 
BRANCH  49  63
ATOM     63  C   UNL A   1      43.425  22.857  27.064  1.00  0.00     0.023 A 
ATOM     64  C   UNL A   1      42.816  21.583  27.076  1.00  0.00     0.031 A 
ATOM     65  C   UNL A   1      44.338  23.062  26.007  1.00  0.00     0.131 A 
ATOM     66  C   UNL A   1      43.172  20.583  26.149  1.00  0.00     0.055 A 
ATOM     67  C   UNL A   1      44.704  22.065  25.095  1.00  0.00     0.041 A 
ATOM     68  F   UNL A   1      44.919  24.238  25.767  1.00  0.00    -0.206 F 
ATOM     69  C   UNL A   1      44.129  20.812  25.167  1.00  0.00     0.022 A 
BRANCH  66  70
ATOM     70  S   UNL A   1      42.380  18.958  26.256  1.00  0.00     0.124 S 
ATOM     71  O   UNL A   1      42.478  18.663  27.681  1.00  0.00    -0.237 OA
ATOM     72  O   UNL A   1      41.043  19.231  25.739  1.00  0.00    -0.237 OA
ATOM     73  O   UNL A   1      43.214  18.120  25.393  1.00  0.00    -0.744 OA
ENDBRANCH  66  70
ENDBRANCH  49  63
BRANCH  50  74
ATOM     74  C   UNL A   1      41.735  30.398  33.077  1.00  0.00     0.023 A 
ATOM     75  C   UNL A   1      41.737  31.805  32.977  1.00  0.00     0.031 A 
ATOM     76  C   UNL A   1      40.511  29.758  33.319  1.00  0.00     0.131 A 
ATOM     77  C   UNL A   1      40.526  32.512  32.940  1.00  0.00     0.055 A 
ATOM     78  C   UNL A   1      39.309  30.480  33.343  1.00  0.00     0.041 A 
ATOM     79  F   UNL A   1      40.441  28.422  33.393  1.00  0.00    -0.206 F 
ATOM     80  C   UNL A   1      39.307  31.857  33.111  1.00  0.00     0.022 A 
BRANCH  77  81
ATOM     81  S   UNL A   1      40.575  34.260  32.451  1.00  0.00     0.124 S 
ATOM     82  O   UNL A   1      39.288  34.432  31.784  1.00  0.00    -0.237 OA
ATOM     83  O   UNL A   1      40.716  34.927  33.746  1.00  0.00    -0.237 OA
ATOM     84  O   UNL A   1      41.740  34.353  31.578  1.00  0.00    -0.744 OA
ENDBRANCH  77  81
ENDBRANCH  50  74
BRANCH  62  85
ATOM     85  C   UNL A   1      45.200  23.981  33.438  1.00  0.00     0.023 A 
ATOM     86  C   UNL A   1      46.465  23.814  34.020  1.00  0.00     0.031 A 
ATOM     87  C   UNL A   1      44.261  22.958  33.735  1.00  0.00     0.131 A 
ATOM     88  C   UNL A   1      46.780  22.666  34.774  1.00  0.00     0.055 A 
ATOM     89  C   UNL A   1      44.548  21.864  34.557  1.00  0.00     0.041 A 
ATOM     90  F   UNL A   1      43.012  22.976  33.246  1.00  0.00    -0.206 F 
ATOM     91  C   UNL A   1      45.822  21.702  35.071  1.00  0.00     0.022 A 
BRANCH  88  92
ATOM     92  S   UNL A   1      48.500  22.426  35.293  1.00  0.00     0.124 S 
ATOM     93  O   UNL A   1      49.134  22.005  34.045  1.00  0.00    -0.237 OA
ATOM     94  O   UNL A   1      48.870  23.752  35.775  1.00  0.00    -0.237 OA
ATOM     95  O   UNL A   1      48.411  21.391  36.321  1.00  0.00    -0.744 OA
ENDBRANCH  88  92
ENDBRANCH  62  85
ENDBRANCH  36  37
ENDBRANCH  28  31
ENDBRANCH  26  27
ENDBRANCH  25  26
ENDBRANCH   1  25
TORSDOF 18
ENDMDL
MODEL 2
REMARK VINA RESULT:     -12.5      4.546     11.039
REMARK SMILES Cc1ccc(CSCC(=O)N[C@H]2C=C[C@@H](C(=O)NCCCNC(=O)c3ccc(-c4c5nc(c(-c6cc(S(=O)(=O)[O-])ccc6F)c6ccc([nH]6)c(-c6cc(S(=O)(=O)[O-])ccc6F)c6nc(c(-c7cc(S(=O)(=O)[O-])ccc7F)c7ccc4[nH]7)C=C6)C=C5)cc3)C2)cc1
REMARK SMILES IDX 19 1 18 2 16 3 17 4 15 6 12 7 13 8 88 9 14 10 11 11 9 12
REMARK SMILES IDX 10 13 8 15 7 16 6 17 5 18 1 19 2 20 3 21 90 22 4 23 89 24
REMARK SMILES IDX 20 25 21 26 22 27 23 28 24 30 25 31 26 32 87 33 27 34 86 35
REMARK SMILES IDX 28 36 29 37 30 38 80 39 31 40 85 41 79 42 81 43 32 44 84 45
REMARK SMILES IDX 78 46 77 47 33 49 65 50 45 51 64 52 46 53 49 54 63 55 82 56
REMARK SMILES IDX 47 57 48 58 62 60 83 61 50 62 34 63 35 64 43 65 36 66 42 67
REMARK SMILES IDX 44 68 41 69 37 70 38 71 39 72 40 73 66 74 67 75 75 76 68 77
REMARK SMILES IDX 74 78 76 79 73 80 69 81 70 82 71 83 72 84 51 85 52 86 60 87
REMARK SMILES IDX 53 88 59 89 61 90 58 91 54 92 55 93 56 94 57 95
REMARK H PARENT 18 5 11 14 22 29 81 48 49 59
REMARK Flexibility Score: inf
ROOT
ATOM      1  C   UNL A   1      38.638  22.718  25.979  1.00  0.00     0.117 C 
ENDROOT
BRANCH   1   2
ATOM      2  N   UNL A   1      37.535  21.787  25.797  1.00  0.00    -0.356 N 
ATOM      3  C   UNL A   1      36.190  21.948  25.905  1.00  0.00     0.227 C 
ATOM      4  O   UNL A   1      35.475  20.962  25.693  1.00  0.00    -0.274 OA
ATOM      5  H   UNL A   1      37.814  20.874  25.553  1.00  0.00     0.163 HD
BRANCH   3   6
ATOM      6  C   UNL A   1      35.530  23.273  26.306  1.00  0.00     0.103 C 
ATOM      7  C   UNL A   1      34.151  25.039  25.256  1.00  0.00     0.106 C 
ATOM      8  C   UNL A   1      33.356  24.141  26.133  1.00  0.00    -0.006 C 
ATOM      9  C   UNL A   1      35.540  24.357  25.226  1.00  0.00     0.047 C 
ATOM     10  C   UNL A   1      34.095  23.182  26.704  1.00  0.00    -0.016 C 
BRANCH   7  11
ATOM     11  N   UNL A   1      33.667  25.181  23.890  1.00  0.00    -0.349 N 
ATOM     12  C   UNL A   1      33.191  24.338  22.940  1.00  0.00     0.230 C 
ATOM     13  O   UNL A   1      32.543  24.860  22.026  1.00  0.00    -0.274 OA
ATOM     14  H   UNL A   1      33.691  26.114  23.581  1.00  0.00     0.164 HD
BRANCH  12  15
ATOM     15  C   UNL A   1      33.436  22.848  22.943  1.00  0.00     0.169 C 
BRANCH  15  16
ATOM     16  S   UNL A   1      32.126  21.825  23.669  1.00  0.00    -0.147 SA
BRANCH  16  17
ATOM     17  C   UNL A   1      32.230  20.289  22.712  1.00  0.00     0.105 C 
BRANCH  17  18
ATOM     18  C   UNL A   1      32.662  19.082  23.495  1.00  0.00    -0.038 A 
ATOM     19  C   UNL A   1      33.102  15.358  25.622  1.00  0.00     0.044 C 
ATOM     20  C   UNL A   1      33.054  16.677  24.913  1.00  0.00    -0.051 A 
ATOM     21  C   UNL A   1      33.204  16.715  23.522  1.00  0.00     0.004 A 
ATOM     22  C   UNL A   1      32.738  17.859  25.596  1.00  0.00     0.004 A 
ATOM     23  C   UNL A   1      33.006  17.904  22.819  1.00  0.00     0.005 A 
ATOM     24  C   UNL A   1      32.552  19.054  24.894  1.00  0.00     0.005 A 
ENDBRANCH  17  18
ENDBRANCH  16  17
ENDBRANCH  15  16
ENDBRANCH  12  15
ENDBRANCH   7  11
ENDBRANCH   3   6
ENDBRANCH   1   2
BRANCH   1  25
ATOM     25  C   UNL A   1      39.812  22.049  26.685  1.00  0.00     0.042 C 
BRANCH  25  26
ATOM     26  C   UNL A   1      41.177  22.507  26.177  1.00  0.00     0.118 C 
BRANCH  26  27
ATOM     27  N   UNL A   1      41.876  23.430  27.072  1.00  0.00    -0.352 N 
ATOM     28  C   UNL A   1      41.608  24.715  27.531  1.00  0.00     0.251 C 
ATOM     29  H   UNL A   1      42.717  23.061  27.426  1.00  0.00     0.163 HD
ATOM     30  O   UNL A   1      42.237  25.164  28.463  1.00  0.00    -0.269 OA
BRANCH  28  31
ATOM     31  C   UNL A   1      40.416  25.498  27.094  1.00  0.00     0.039 A 
ATOM     32  C   UNL A   1      40.824  26.596  26.321  1.00  0.00     0.014 A 
ATOM     33  C   UNL A   1      39.345  25.616  27.955  1.00  0.00     0.014 A 
ATOM     34  C   UNL A   1      40.642  27.854  26.858  1.00  0.00     0.010 A 
ATOM     35  C   UNL A   1      39.203  26.853  28.542  1.00  0.00     0.010 A 
ATOM     36  C   UNL A   1      39.970  27.930  28.070  1.00  0.00    -0.014 A 
BRANCH  36  37
ATOM     37  C   UNL A   1      40.103  29.058  28.971  1.00  0.00     0.031 A 
ATOM     38  C   UNL A   1      39.053  30.086  28.938  1.00  0.00     0.074 A 
ATOM     39  C   UNL A   1      41.151  29.162  29.819  1.00  0.00     0.049 A 
ATOM     40  N   UNL A   1      39.204  31.293  29.352  1.00  0.00    -0.248 NA
ATOM     41  C   UNL A   1      37.752  29.846  28.326  1.00  0.00     0.031 C 
ATOM     42  C   UNL A   1      41.283  30.089  30.940  1.00  0.00     0.029 A 
ATOM     43  N   UNL A   1      42.403  28.577  29.747  1.00  0.00    -0.354 N 
ATOM     44  C   UNL A   1      37.967  31.891  29.350  1.00  0.00     0.074 A 
ATOM     45  C   UNL A   1      37.133  30.997  28.590  1.00  0.00     0.031 C 
ATOM     46  C   UNL A   1      42.579  30.194  31.276  1.00  0.00     0.029 A 
ATOM     47  C   UNL A   1      43.346  29.450  30.294  1.00  0.00     0.049 A 
ATOM     48  H   UNL A   1      42.597  27.688  29.370  1.00  0.00     0.167 HD
ATOM     49  C   UNL A   1      37.785  32.995  30.124  1.00  0.00     0.034 A 
ATOM     50  C   UNL A   1      44.361  29.978  29.547  1.00  0.00     0.034 A 
ATOM     51  C   UNL A   1      39.075  33.492  30.623  1.00  0.00     0.049 A 
ATOM     52  C   UNL A   1      44.267  31.487  29.384  1.00  0.00     0.074 A 
ATOM     53  C   UNL A   1      39.715  33.416  31.849  1.00  0.00     0.029 A 
ATOM     54  N   UNL A   1      40.036  33.916  29.709  1.00  0.00    -0.354 N 
ATOM     55  N   UNL A   1      43.205  32.191  29.676  1.00  0.00    -0.248 NA
ATOM     56  C   UNL A   1      45.354  32.320  28.878  1.00  0.00     0.031 C 
ATOM     57  C   UNL A   1      41.090  33.723  31.644  1.00  0.00     0.029 A 
ATOM     58  C   UNL A   1      41.277  34.025  30.306  1.00  0.00     0.049 A 
ATOM     59  H   UNL A   1      39.855  34.110  28.760  1.00  0.00     0.167 HD
ATOM     60  C   UNL A   1      43.420  33.513  29.381  1.00  0.00     0.074 A 
ATOM     61  C   UNL A   1      44.796  33.544  28.913  1.00  0.00     0.031 C 
ATOM     62  C   UNL A   1      42.437  34.457  29.530  1.00  0.00     0.034 A 
BRANCH  49  63
ATOM     63  C   UNL A   1      36.444  33.460  30.666  1.00  0.00     0.023 A 
ATOM     64  C   UNL A   1      35.565  34.129  29.787  1.00  0.00     0.031 A 
ATOM     65  C   UNL A   1      35.998  33.391  32.003  1.00  0.00     0.131 A 
ATOM     66  C   UNL A   1      34.384  34.745  30.248  1.00  0.00     0.055 A 
ATOM     67  C   UNL A   1      34.832  34.014  32.465  1.00  0.00     0.041 A 
ATOM     68  F   UNL A   1      36.637  32.699  32.947  1.00  0.00    -0.206 F 
ATOM     69  C   UNL A   1      34.021  34.707  31.590  1.00  0.00     0.022 A 
BRANCH  66  70
ATOM     70  S   UNL A   1      33.329  35.624  29.067  1.00  0.00     0.124 S 
ATOM     71  O   UNL A   1      32.521  34.542  28.515  1.00  0.00    -0.237 OA
ATOM     72  O   UNL A   1      32.637  36.581  29.923  1.00  0.00    -0.237 OA
ATOM     73  O   UNL A   1      34.288  36.215  28.133  1.00  0.00    -0.744 OA
ENDBRANCH  66  70
ENDBRANCH  49  63
BRANCH  50  74
ATOM     74  C   UNL A   1      44.909  29.019  28.548  1.00  0.00     0.023 A 
ATOM     75  C   UNL A   1      45.644  27.925  29.052  1.00  0.00     0.031 A 
ATOM     76  C   UNL A   1      44.377  28.911  27.255  1.00  0.00     0.131 A 
ATOM     77  C   UNL A   1      45.677  26.712  28.349  1.00  0.00     0.055 A 
ATOM     78  C   UNL A   1      44.467  27.714  26.531  1.00  0.00     0.041 A 
ATOM     79  F   UNL A   1      43.644  29.905  26.733  1.00  0.00    -0.206 F 
ATOM     80  C   UNL A   1      45.082  26.594  27.093  1.00  0.00     0.022 A 
BRANCH  77  81
ATOM     81  S   UNL A   1      46.323  25.247  29.207  1.00  0.00     0.124 S 
ATOM     82  O   UNL A   1      47.744  25.299  28.879  1.00  0.00    -0.237 OA
ATOM     83  O   UNL A   1      45.978  25.542  30.598  1.00  0.00    -0.237 OA
ATOM     84  O   UNL A   1      45.592  24.133  28.611  1.00  0.00    -0.744 OA
ENDBRANCH  77  81
ENDBRANCH  50  74
BRANCH  62  85
ATOM     85  C   UNL A   1      42.481  35.889  29.018  1.00  0.00     0.023 A 
ATOM     86  C   UNL A   1      43.181  36.924  29.653  1.00  0.00     0.031 A 
ATOM     87  C   UNL A   1      41.860  36.244  27.791  1.00  0.00     0.131 A 
ATOM     88  C   UNL A   1      43.188  38.233  29.130  1.00  0.00     0.055 A 
ATOM     89  C   UNL A   1      41.943  37.522  27.229  1.00  0.00     0.041 A 
ATOM     90  F   UNL A   1      41.150  35.363  27.072  1.00  0.00    -0.206 F 
ATOM     91  C   UNL A   1      42.598  38.534  27.908  1.00  0.00     0.022 A 
BRANCH  88  92
ATOM     92  S   UNL A   1      43.924  39.552  30.132  1.00  0.00     0.124 S 
ATOM     93  O   UNL A   1      43.166  40.721  29.691  1.00  0.00    -0.237 OA
ATOM     94  O   UNL A   1      43.656  39.100  31.492  1.00  0.00    -0.237 OA
ATOM     95  O   UNL A   1      45.332  39.542  29.738  1.00  0.00    -0.744 OA
ENDBRANCH  88  92
ENDBRANCH  62  85
ENDBRANCH  36  37
ENDBRANCH  28  31
ENDBRANCH  26  27
ENDBRANCH  25  26
ENDBRANCH   1  25
TORSDOF 18
ENDMDL
MODEL 3
REMARK VINA RESULT:     -12.4      2.066      3.669
REMARK SMILES Cc1ccc(CSCC(=O)N[C@H]2C=C[C@@H](C(=O)NCCCNC(=O)c3ccc(-c4c5nc(c(-c6cc(S(=O)(=O)[O-])ccc6F)c6ccc([nH]6)c(-c6cc(S(=O)(=O)[O-])ccc6F)c6nc(c(-c7cc(S(=O)(=O)[O-])ccc7F)c7ccc4[nH]7)C=C6)C=C5)cc3)C2)cc1
REMARK SMILES IDX 19 1 18 2 16 3 17 4 15 6 12 7 13 8 88 9 14 10 11 11 9 12
REMARK SMILES IDX 10 13 8 15 7 16 6 17 5 18 1 19 2 20 3 21 90 22 4 23 89 24
REMARK SMILES IDX 20 25 21 26 22 27 23 28 24 30 25 31 26 32 87 33 27 34 86 35
REMARK SMILES IDX 28 36 29 37 30 38 80 39 31 40 85 41 79 42 81 43 32 44 84 45
REMARK SMILES IDX 78 46 77 47 33 49 65 50 45 51 64 52 46 53 49 54 63 55 82 56
REMARK SMILES IDX 47 57 48 58 62 60 83 61 50 62 34 63 35 64 43 65 36 66 42 67
REMARK SMILES IDX 44 68 41 69 37 70 38 71 39 72 40 73 66 74 67 75 75 76 68 77
REMARK SMILES IDX 74 78 76 79 73 80 69 81 70 82 71 83 72 84 51 85 52 86 60 87
REMARK SMILES IDX 53 88 59 89 61 90 58 91 54 92 55 93 56 94 57 95
REMARK H PARENT 18 5 11 14 22 29 81 48 49 59
REMARK Flexibility Score: inf
ROOT
ATOM      1  C   UNL A   1      34.572  31.047  27.522  1.00  0.00     0.117 C 
ENDROOT
BRANCH   1   2
ATOM      2  N   UNL A   1      33.301  30.349  27.636  1.00  0.00    -0.356 N 
ATOM      3  C   UNL A   1      32.869  29.168  27.122  1.00  0.00     0.227 C 
ATOM      4  O   UNL A   1      31.713  28.816  27.386  1.00  0.00    -0.274 OA
ATOM      5  H   UNL A   1      32.631  30.820  28.184  1.00  0.00     0.163 HD
BRANCH   3   6
ATOM      6  C   UNL A   1      33.727  28.282  26.212  1.00  0.00     0.103 C 
ATOM      7  C   UNL A   1      33.420  26.345  24.702  1.00  0.00     0.106 C 
ATOM      8  C   UNL A   1      33.592  27.622  23.964  1.00  0.00    -0.006 C 
ATOM      9  C   UNL A   1      33.325  26.806  26.177  1.00  0.00     0.047 C 
ATOM     10  C   UNL A   1      33.757  28.674  24.774  1.00  0.00    -0.016 C 
BRANCH   7  11
ATOM     11  N   UNL A   1      32.228  25.577  24.371  1.00  0.00    -0.349 N 
ATOM     12  C   UNL A   1      31.718  24.377  24.741  1.00  0.00     0.230 C 
ATOM     13  O   UNL A   1      30.511  24.210  24.528  1.00  0.00    -0.274 OA
ATOM     14  H   UNL A   1      31.654  26.041  23.721  1.00  0.00     0.164 HD
BRANCH  12  15
ATOM     15  C   UNL A   1      32.540  23.270  25.356  1.00  0.00     0.169 C 
BRANCH  15  16
ATOM     16  S   UNL A   1      33.634  22.366  24.226  1.00  0.00    -0.147 SA
BRANCH  16  17
ATOM     17  C   UNL A   1      32.534  21.118  23.505  1.00  0.00     0.105 C 
BRANCH  17  18
ATOM     18  C   UNL A   1      32.742  19.720  24.014  1.00  0.00    -0.038 A 
ATOM     19  C   UNL A   1      32.487  15.678  25.490  1.00  0.00     0.044 C 
ATOM     20  C   UNL A   1      32.686  17.075  24.988  1.00  0.00    -0.051 A 
ATOM     21  C   UNL A   1      32.607  17.328  23.613  1.00  0.00     0.004 A 
ATOM     22  C   UNL A   1      32.827  18.153  25.871  1.00  0.00     0.004 A 
ATOM     23  C   UNL A   1      32.629  18.638  23.131  1.00  0.00     0.005 A 
ATOM     24  C   UNL A   1      32.863  19.465  25.388  1.00  0.00     0.005 A 
ENDBRANCH  17  18
ENDBRANCH  16  17
ENDBRANCH  15  16
ENDBRANCH  12  15
ENDBRANCH   7  11
ENDBRANCH   3   6
ENDBRANCH   1   2
BRANCH   1  25
ATOM     25  C   UNL A   1      34.573  32.330  28.344  1.00  0.00     0.042 C 
BRANCH  25  26
ATOM     26  C   UNL A   1      35.016  32.134  29.791  1.00  0.00     0.118 C 
BRANCH  26  27
ATOM     27  N   UNL A   1      36.464  32.204  29.993  1.00  0.00    -0.352 N 
ATOM     28  C   UNL A   1      37.513  31.320  29.763  1.00  0.00     0.251 C 
ATOM     29  H   UNL A   1      36.759  33.062  30.376  1.00  0.00     0.163 HD
ATOM     30  O   UNL A   1      38.655  31.721  29.796  1.00  0.00    -0.269 OA
BRANCH  28  31
ATOM     31  C   UNL A   1      37.307  29.942  29.233  1.00  0.00     0.039 A 
ATOM     32  C   UNL A   1      37.402  29.010  30.279  1.00  0.00     0.014 A 
ATOM     33  C   UNL A   1      37.794  29.630  27.981  1.00  0.00     0.014 A 
ATOM     34  C   UNL A   1      38.482  28.152  30.269  1.00  0.00     0.010 A 
ATOM     35  C   UNL A   1      38.911  28.826  27.974  1.00  0.00     0.010 A 
ATOM     36  C   UNL A   1      39.323  28.209  29.166  1.00  0.00    -0.014 A 
BRANCH  36  37
ATOM     37  C   UNL A   1      40.697  27.750  29.203  1.00  0.00     0.031 A 
ATOM     38  C   UNL A   1      40.969  26.374  28.767  1.00  0.00     0.074 A 
ATOM     39  C   UNL A   1      41.699  28.559  29.616  1.00  0.00     0.049 A 
ATOM     40  N   UNL A   1      42.011  25.699  29.098  1.00  0.00    -0.248 NA
ATOM     41  C   UNL A   1      40.008  25.602  27.987  1.00  0.00     0.031 C 
ATOM     42  C   UNL A   1      43.133  28.325  29.466  1.00  0.00     0.029 A 
ATOM     43  N   UNL A   1      41.647  29.684  30.420  1.00  0.00    -0.354 N 
ATOM     44  C   UNL A   1      42.016  24.547  28.349  1.00  0.00     0.074 A 
ATOM     45  C   UNL A   1      40.697  24.480  27.777  1.00  0.00     0.031 C 
ATOM     46  C   UNL A   1      43.800  29.099  30.337  1.00  0.00     0.029 A 
ATOM     47  C   UNL A   1      42.816  29.755  31.179  1.00  0.00     0.049 A 
ATOM     48  H   UNL A   1      40.904  30.330  30.450  1.00  0.00     0.167 HD
ATOM     49  C   UNL A   1      43.194  23.882  28.198  1.00  0.00     0.034 A 
ATOM     50  C   UNL A   1      42.798  29.682  32.544  1.00  0.00     0.034 A 
ATOM     51  C   UNL A   1      44.208  24.416  29.119  1.00  0.00     0.049 A 
ATOM     52  C   UNL A   1      43.493  28.445  33.090  1.00  0.00     0.074 A 
ATOM     53  C   UNL A   1      45.296  25.256  28.955  1.00  0.00     0.029 A 
ATOM     54  N   UNL A   1      43.984  24.333  30.491  1.00  0.00    -0.354 N 
ATOM     55  N   UNL A   1      43.834  27.414  32.362  1.00  0.00    -0.248 NA
ATOM     56  C   UNL A   1      43.853  28.267  34.494  1.00  0.00     0.031 C 
ATOM     57  C   UNL A   1      45.673  25.740  30.240  1.00  0.00     0.029 A 
ATOM     58  C   UNL A   1      44.845  25.162  31.186  1.00  0.00     0.049 A 
ATOM     59  H   UNL A   1      43.302  23.759  30.911  1.00  0.00     0.167 HD
ATOM     60  C   UNL A   1      44.402  26.447  33.152  1.00  0.00     0.074 A 
ATOM     61  C   UNL A   1      44.419  27.046  34.476  1.00  0.00     0.031 C 
ATOM     62  C   UNL A   1      44.787  25.233  32.644  1.00  0.00     0.034 A 
BRANCH  49  63
ATOM     63  C   UNL A   1      43.523  22.957  27.039  1.00  0.00     0.023 A 
ATOM     64  C   UNL A   1      42.932  21.676  27.019  1.00  0.00     0.031 A 
ATOM     65  C   UNL A   1      44.450  23.193  26.001  1.00  0.00     0.131 A 
ATOM     66  C   UNL A   1      43.317  20.697  26.081  1.00  0.00     0.055 A 
ATOM     67  C   UNL A   1      44.844  22.217  25.077  1.00  0.00     0.041 A 
ATOM     68  F   UNL A   1      45.019  24.381  25.790  1.00  0.00    -0.206 F 
ATOM     69  C   UNL A   1      44.286  20.956  25.118  1.00  0.00     0.022 A 
BRANCH  66  70
ATOM     70  S   UNL A   1      42.545  19.060  26.148  1.00  0.00     0.124 S 
ATOM     71  O   UNL A   1      42.355  18.869  27.581  1.00  0.00    -0.237 OA
ATOM     72  O   UNL A   1      41.339  19.253  25.351  1.00  0.00    -0.237 OA
ATOM     73  O   UNL A   1      43.551  18.188  25.538  1.00  0.00    -0.744 OA
ENDBRANCH  66  70
ENDBRANCH  49  63
BRANCH  50  74
ATOM     74  C   UNL A   1      41.623  30.369  33.148  1.00  0.00     0.023 A 
ATOM     75  C   UNL A   1      41.605  31.779  33.081  1.00  0.00     0.031 A 
ATOM     76  C   UNL A   1      40.404  29.707  33.355  1.00  0.00     0.131 A 
ATOM     77  C   UNL A   1      40.384  32.469  33.041  1.00  0.00     0.055 A 
ATOM     78  C   UNL A   1      39.191  30.411  33.376  1.00  0.00     0.041 A 
ATOM     79  F   UNL A   1      40.352  28.368  33.397  1.00  0.00    -0.206 F 
ATOM     80  C   UNL A   1      39.173  31.792  33.176  1.00  0.00     0.022 A 
BRANCH  77  81
ATOM     81  S   UNL A   1      40.416  34.228  32.593  1.00  0.00     0.124 S 
ATOM     82  O   UNL A   1      40.481  34.879  33.898  1.00  0.00    -0.237 OA
ATOM     83  O   UNL A   1      41.630  34.306  31.780  1.00  0.00    -0.237 OA
ATOM     84  O   UNL A   1      39.169  34.433  31.863  1.00  0.00    -0.744 OA
ENDBRANCH  77  81
ENDBRANCH  50  74
BRANCH  62  85
ATOM     85  C   UNL A   1      45.202  24.012  33.451  1.00  0.00     0.023 A 
ATOM     86  C   UNL A   1      46.478  23.837  34.004  1.00  0.00     0.031 A 
ATOM     87  C   UNL A   1      44.265  22.992  33.764  1.00  0.00     0.131 A 
ATOM     88  C   UNL A   1      46.805  22.685  34.746  1.00  0.00     0.055 A 
ATOM     89  C   UNL A   1      44.565  21.893  34.575  1.00  0.00     0.041 A 
ATOM     90  F   UNL A   1      43.006  23.018  33.304  1.00  0.00    -0.206 F 
ATOM     91  C   UNL A   1      45.850  21.724  35.060  1.00  0.00     0.022 A 
BRANCH  88  92
ATOM     92  S   UNL A   1      48.535  22.435  35.225  1.00  0.00     0.124 S 
ATOM     93  O   UNL A   1      49.247  22.970  34.066  1.00  0.00    -0.237 OA
ATOM     94  O   UNL A   1      48.638  23.220  36.449  1.00  0.00    -0.237 OA
ATOM     95  O   UNL A   1      48.640  20.987  35.401  1.00  0.00    -0.744 OA
ENDBRANCH  88  92
ENDBRANCH  62  85
ENDBRANCH  36  37
ENDBRANCH  28  31
ENDBRANCH  26  27
ENDBRANCH  25  26
ENDBRANCH   1  25
TORSDOF 18
ENDMDL
