MODEL 1
REMARK VINA RESULT:     -12.6      0.000      0.000
REMARK SMILES Cc1c(Br)c(C)c2c(c1Br)O[C@H](C(F)(F)F)C(C(=O)NCCCNC(=O)c1ccc(-c3c4nc(c(-c5cc(S(=O)(=O)[O-])ccc5F)c5ccc([nH]5)c(-c5cc(S(=O)(=O)[O-])ccc5F)c5nc(c(-c6cc(S(=O)(=O)[O-])ccc6F)c6ccc3[nH]6)C=C5)C=C4)cc1)=C2
REMARK SMILES IDX 23 1 22 2 21 3 20 4 18 5 19 6 17 8 1 9 2 10 3 11 9 12 4 13
REMARK SMILES IDX 5 14 8 15 10 16 6 17 7 18 11 19 90 20 12 21 13 22 14 23
REMARK SMILES IDX 15 24 16 25 24 26 25 27 26 29 27 30 28 31 89 32 29 33 88 34
REMARK SMILES IDX 30 35 31 36 32 37 82 38 33 39 87 40 81 41 83 42 34 43 86 44
REMARK SMILES IDX 80 45 79 46 35 48 67 49 47 50 66 51 48 52 51 53 65 54 84 55
REMARK SMILES IDX 49 56 50 57 64 59 85 60 52 61 36 62 37 63 45 64 38 65 44 66
REMARK SMILES IDX 46 67 43 68 39 69 40 70 41 71 42 72 68 73 69 74 77 75 70 76
REMARK SMILES IDX 76 77 78 78 75 79 71 80 72 81 73 82 74 83 53 84 54 85 62 86
REMARK SMILES IDX 55 87 61 88 63 89 60 90 56 91 57 92 58 93 59 94
REMARK H PARENT 20 7 24 28 83 47 51 58
REMARK Flexibility Score: inf
ROOT
ATOM      1  C   UNL A   1      33.509  29.046  24.983  1.00  0.00     0.118 C 
ENDROOT
BRANCH   1   2
ATOM      2  C   UNL A   1      32.890  28.653  23.648  1.00  0.00     0.042 C 
BRANCH   2   3
ATOM      3  C   UNL A   1      32.264  27.268  23.692  1.00  0.00     0.118 C 
BRANCH   3   4
ATOM      4  N   UNL A   1      31.677  26.978  24.993  1.00  0.00    -0.352 N 
ATOM      5  C   UNL A   1      31.569  25.909  25.815  1.00  0.00     0.251 C 
ATOM      6  O   UNL A   1      30.970  26.115  26.876  1.00  0.00    -0.270 OA
ATOM      7  H   UNL A   1      31.241  27.771  25.377  1.00  0.00     0.163 HD
BRANCH   5   8
ATOM      8  C   UNL A   1      32.123  24.553  25.534  1.00  0.00     0.067 C 
ATOM      9  C   UNL A   1      35.749  19.157  24.656  1.00  0.00     0.047 C 
ATOM     10  C   UNL A   1      35.151  20.512  24.957  1.00  0.00    -0.019 A 
ATOM     11  C   UNL A   1      35.992  21.607  25.294  1.00  0.00     0.025 A 
ATOM     12  C   UNL A   1      33.762  20.727  24.937  1.00  0.00     0.064 A 
ATOM     13  Br  UNL A   1      37.890  21.307  25.376  1.00  0.00    -0.050 Br
ATOM     14  C   UNL A   1      35.468  22.895  25.578  1.00  0.00    -0.026 A 
ATOM     15  C   UNL A   1      33.235  21.997  25.211  1.00  0.00     0.142 A 
ATOM     16  Br  UNL A   1      32.529  19.321  24.522  1.00  0.00    -0.046 Br
ATOM     17  C   UNL A   1      36.348  24.073  25.931  1.00  0.00     0.046 C 
ATOM     18  C   UNL A   1      34.067  23.080  25.528  1.00  0.00     0.022 A 
ATOM     19  O   UNL A   1      31.870  22.122  25.211  1.00  0.00    -0.474 OA
ATOM     20  C   UNL A   1      33.423  24.369  25.825  1.00  0.00     0.026 C 
ATOM     21  C   UNL A   1      31.332  23.435  24.935  1.00  0.00     0.314 C 
BRANCH  21  22
ATOM     22  C   UNL A   1      31.109  23.604  23.420  1.00  0.00     0.429 C 
ATOM     23  F   UNL A   1      31.024  22.396  22.812  1.00  0.00    -0.167 F 
ATOM     24  F   UNL A   1      29.960  24.262  23.132  1.00  0.00    -0.167 F 
ATOM     25  F   UNL A   1      32.108  24.291  22.821  1.00  0.00    -0.167 F 
ENDBRANCH  21  22
ENDBRANCH   5   8
ENDBRANCH   3   4
ENDBRANCH   2   3
ENDBRANCH   1   2
BRANCH   1  26
ATOM     26  N   UNL A   1      32.913  30.270  25.512  1.00  0.00    -0.352 N 
ATOM     27  C   UNL A   1      33.156  30.933  26.688  1.00  0.00     0.251 C 
ATOM     28  H   UNL A   1      32.230  30.683  24.936  1.00  0.00     0.163 HD
ATOM     29  O   UNL A   1      32.342  31.759  27.096  1.00  0.00    -0.269 OA
BRANCH  27  30
ATOM     30  C   UNL A   1      34.385  30.649  27.452  1.00  0.00     0.039 A 
ATOM     31  C   UNL A   1      35.338  31.655  27.626  1.00  0.00     0.014 A 
ATOM     32  C   UNL A   1      34.604  29.374  27.979  1.00  0.00     0.014 A 
ATOM     33  C   UNL A   1      36.480  31.395  28.385  1.00  0.00     0.010 A 
ATOM     34  C   UNL A   1      35.685  29.148  28.818  1.00  0.00     0.010 A 
ATOM     35  C   UNL A   1      36.643  30.150  29.014  1.00  0.00    -0.014 A 
BRANCH  35  36
ATOM     36  C   UNL A   1      37.830  29.855  29.852  1.00  0.00     0.031 A 
ATOM     37  C   UNL A   1      38.911  28.957  29.317  1.00  0.00     0.074 A 
ATOM     38  C   UNL A   1      37.904  30.348  31.102  1.00  0.00     0.049 A 
ATOM     39  N   UNL A   1      39.985  28.509  29.914  1.00  0.00    -0.248 NA
ATOM     40  C   UNL A   1      38.747  28.470  27.937  1.00  0.00     0.031 C 
ATOM     41  C   UNL A   1      36.898  31.205  31.734  1.00  0.00     0.029 A 
ATOM     42  N   UNL A   1      38.869  30.206  32.065  1.00  0.00    -0.354 N 
ATOM     43  C   UNL A   1      40.616  27.687  28.989  1.00  0.00     0.074 A 
ATOM     44  C   UNL A   1      39.768  27.636  27.818  1.00  0.00     0.031 C 
ATOM     45  C   UNL A   1      37.321  31.550  32.959  1.00  0.00     0.029 A 
ATOM     46  C   UNL A   1      38.602  30.902  33.220  1.00  0.00     0.049 A 
ATOM     47  H   UNL A   1      39.677  29.657  31.941  1.00  0.00     0.167 HD
ATOM     48  C   UNL A   1      41.811  27.059  29.093  1.00  0.00     0.034 A 
ATOM     49  C   UNL A   1      39.310  31.003  34.361  1.00  0.00     0.034 A 
ATOM     50  C   UNL A   1      42.654  27.141  30.257  1.00  0.00     0.049 A 
ATOM     51  C   UNL A   1      40.618  30.266  34.472  1.00  0.00     0.074 A 
ATOM     52  C   UNL A   1      43.903  26.582  30.456  1.00  0.00     0.029 A 
ATOM     53  N   UNL A   1      42.334  27.829  31.421  1.00  0.00    -0.354 N 
ATOM     54  N   UNL A   1      41.209  29.502  33.582  1.00  0.00    -0.248 NA
ATOM     55  C   UNL A   1      41.351  30.400  35.737  1.00  0.00     0.031 C 
ATOM     56  C   UNL A   1      44.310  26.878  31.760  1.00  0.00     0.029 A 
ATOM     57  C   UNL A   1      43.348  27.682  32.352  1.00  0.00     0.049 A 
ATOM     58  H   UNL A   1      41.507  28.345  31.563  1.00  0.00     0.167 HD
ATOM     59  C   UNL A   1      42.394  29.079  34.174  1.00  0.00     0.074 A 
ATOM     60  C   UNL A   1      42.437  29.679  35.493  1.00  0.00     0.031 C 
ATOM     61  C   UNL A   1      43.362  28.271  33.669  1.00  0.00     0.034 A 
BRANCH  48  62
ATOM     62  C   UNL A   1      42.265  26.228  27.921  1.00  0.00     0.023 A 
ATOM     63  C   UNL A   1      41.912  24.872  27.803  1.00  0.00     0.031 A 
ATOM     64  C   UNL A   1      43.066  26.792  26.914  1.00  0.00     0.131 A 
ATOM     65  C   UNL A   1      42.407  24.110  26.734  1.00  0.00     0.055 A 
ATOM     66  C   UNL A   1      43.495  26.047  25.814  1.00  0.00     0.041 A 
ATOM     67  F   UNL A   1      43.452  28.075  26.986  1.00  0.00    -0.206 F 
ATOM     68  C   UNL A   1      43.175  24.694  25.725  1.00  0.00     0.022 A 
BRANCH  65  69
ATOM     69  S   UNL A   1      42.119  22.321  26.740  1.00  0.00     0.124 S 
ATOM     70  O   UNL A   1      40.701  22.252  27.082  1.00  0.00    -0.237 OA
ATOM     71  O   UNL A   1      42.466  21.938  25.376  1.00  0.00    -0.237 OA
ATOM     72  O   UNL A   1      43.028  21.831  27.774  1.00  0.00    -0.744 OA
ENDBRANCH  65  69
ENDBRANCH  48  62
BRANCH  49  73
ATOM     73  C   UNL A   1      38.799  31.846  35.477  1.00  0.00     0.023 A 
ATOM     74  C   UNL A   1      38.156  31.264  36.579  1.00  0.00     0.031 A 
ATOM     75  C   UNL A   1      38.977  33.241  35.472  1.00  0.00     0.131 A 
ATOM     76  C   UNL A   1      37.700  32.076  37.629  1.00  0.00     0.055 A 
ATOM     77  C   UNL A   1      38.553  34.040  36.535  1.00  0.00     0.041 A 
ATOM     78  F   UNL A   1      39.600  33.842  34.446  1.00  0.00    -0.206 F 
ATOM     79  C   UNL A   1      37.906  33.458  37.621  1.00  0.00     0.022 A 
BRANCH  76  80
ATOM     80  S   UNL A   1      36.819  31.299  39.011  1.00  0.00     0.124 S 
ATOM     81  O   UNL A   1      35.648  32.158  39.138  1.00  0.00    -0.237 OA
ATOM     82  O   UNL A   1      36.577  29.953  38.502  1.00  0.00    -0.237 OA
ATOM     83  O   UNL A   1      37.777  31.381  40.113  1.00  0.00    -0.744 OA
ENDBRANCH  76  80
ENDBRANCH  49  73
BRANCH  61  84
ATOM     84  C   UNL A   1      44.559  27.999  34.540  1.00  0.00     0.023 A 
ATOM     85  C   UNL A   1      44.603  26.882  35.391  1.00  0.00     0.031 A 
ATOM     86  C   UNL A   1      45.689  28.833  34.472  1.00  0.00     0.131 A 
ATOM     87  C   UNL A   1      45.749  26.643  36.164  1.00  0.00     0.055 A 
ATOM     88  C   UNL A   1      46.843  28.562  35.206  1.00  0.00     0.041 A 
ATOM     89  F   UNL A   1      45.695  29.910  33.670  1.00  0.00    -0.206 F 
ATOM     90  C   UNL A   1      46.876  27.464  36.062  1.00  0.00     0.022 A 
BRANCH  87  91
ATOM     91  S   UNL A   1      45.736  25.260  37.334  1.00  0.00     0.124 S 
ATOM     92  O   UNL A   1      46.903  25.552  38.160  1.00  0.00    -0.237 OA
ATOM     93  O   UNL A   1      44.440  25.410  37.988  1.00  0.00    -0.237 OA
ATOM     94  O   UNL A   1      45.862  24.083  36.476  1.00  0.00    -0.744 OA
ENDBRANCH  87  91
ENDBRANCH  61  84
ENDBRANCH  35  36
ENDBRANCH  27  30
ENDBRANCH   1  26
TORSDOF 14
ENDMDL
MODEL 2
REMARK VINA RESULT:     -12.4      2.707      3.778
REMARK SMILES Cc1c(Br)c(C)c2c(c1Br)O[C@H](C(F)(F)F)C(C(=O)NCCCNC(=O)c1ccc(-c3c4nc(c(-c5cc(S(=O)(=O)[O-])ccc5F)c5ccc([nH]5)c(-c5cc(S(=O)(=O)[O-])ccc5F)c5nc(c(-c6cc(S(=O)(=O)[O-])ccc6F)c6ccc3[nH]6)C=C5)C=C4)cc1)=C2
REMARK SMILES IDX 23 1 22 2 21 3 20 4 18 5 19 6 17 8 1 9 2 10 3 11 9 12 4 13
REMARK SMILES IDX 5 14 8 15 10 16 6 17 7 18 11 19 90 20 12 21 13 22 14 23
REMARK SMILES IDX 15 24 16 25 24 26 25 27 26 29 27 30 28 31 89 32 29 33 88 34
REMARK SMILES IDX 30 35 31 36 32 37 82 38 33 39 87 40 81 41 83 42 34 43 86 44
REMARK SMILES IDX 80 45 79 46 35 48 67 49 47 50 66 51 48 52 51 53 65 54 84 55
REMARK SMILES IDX 49 56 50 57 64 59 85 60 52 61 36 62 37 63 45 64 38 65 44 66
REMARK SMILES IDX 46 67 43 68 39 69 40 70 41 71 42 72 68 73 69 74 77 75 70 76
REMARK SMILES IDX 76 77 78 78 75 79 71 80 72 81 73 82 74 83 53 84 54 85 62 86
REMARK SMILES IDX 55 87 61 88 63 89 60 90 56 91 57 92 58 93 59 94
REMARK H PARENT 20 7 24 28 83 47 51 58
REMARK Flexibility Score: inf
ROOT
ATOM      1  C   UNL A   1      32.682  32.308  27.165  1.00  0.00     0.118 C 
ENDROOT
BRANCH   1   2
ATOM      2  C   UNL A   1      31.376  31.739  26.626  1.00  0.00     0.042 C 
BRANCH   2   3
ATOM      3  C   UNL A   1      31.601  30.517  25.750  1.00  0.00     0.118 C 
BRANCH   3   4
ATOM      4  N   UNL A   1      30.755  30.533  24.565  1.00  0.00    -0.352 N 
ATOM      5  C   UNL A   1      30.421  29.676  23.574  1.00  0.00     0.251 C 
ATOM      6  O   UNL A   1      29.626  30.117  22.737  1.00  0.00    -0.270 OA
ATOM      7  H   UNL A   1      30.305  31.402  24.455  1.00  0.00     0.163 HD
BRANCH   5   8
ATOM      8  C   UNL A   1      30.926  28.278  23.445  1.00  0.00     0.067 C 
ATOM      9  C   UNL A   1      32.337  21.892  23.955  1.00  0.00     0.047 C 
ATOM     10  C   UNL A   1      31.826  23.311  24.041  1.00  0.00    -0.019 A 
ATOM     11  C   UNL A   1      30.979  23.704  25.112  1.00  0.00     0.025 A 
ATOM     12  C   UNL A   1      32.147  24.272  23.066  1.00  0.00     0.064 A 
ATOM     13  Br  UNL A   1      30.490  22.381  26.420  1.00  0.00    -0.050 Br
ATOM     14  C   UNL A   1      30.484  25.028  25.230  1.00  0.00    -0.026 A 
ATOM     15  C   UNL A   1      31.668  25.585  23.177  1.00  0.00     0.142 A 
ATOM     16  Br  UNL A   1      33.260  23.854  21.564  1.00  0.00    -0.046 Br
ATOM     17  C   UNL A   1      29.587  25.466  26.367  1.00  0.00     0.046 C 
ATOM     18  C   UNL A   1      30.845  25.975  24.242  1.00  0.00     0.022 A 
ATOM     19  O   UNL A   1      31.990  26.457  22.169  1.00  0.00    -0.474 OA
ATOM     20  C   UNL A   1      30.369  27.366  24.262  1.00  0.00     0.026 C 
ATOM     21  C   UNL A   1      32.007  27.864  22.500  1.00  0.00     0.314 C 
BRANCH  21  22
ATOM     22  C   UNL A   1      33.412  28.274  22.982  1.00  0.00     0.429 C 
ATOM     23  F   UNL A   1      33.484  29.616  23.162  1.00  0.00    -0.167 F 
ATOM     24  F   UNL A   1      33.741  27.709  24.170  1.00  0.00    -0.167 F 
ATOM     25  F   UNL A   1      34.384  27.928  22.108  1.00  0.00    -0.167 F 
ENDBRANCH  21  22
ENDBRANCH   5   8
ENDBRANCH   3   4
ENDBRANCH   2   3
ENDBRANCH   1   2
BRANCH   1  26
ATOM     26  N   UNL A   1      32.573  33.738  27.437  1.00  0.00    -0.352 N 
ATOM     27  C   UNL A   1      33.129  34.491  28.440  1.00  0.00     0.251 C 
ATOM     28  H   UNL A   1      32.013  34.241  26.803  1.00  0.00     0.163 HD
ATOM     29  O   UNL A   1      32.674  35.607  28.684  1.00  0.00    -0.269 OA
BRANCH  27  30
ATOM     30  C   UNL A   1      34.262  33.957  29.219  1.00  0.00     0.039 A 
ATOM     31  C   UNL A   1      34.017  33.129  30.316  1.00  0.00     0.014 A 
ATOM     32  C   UNL A   1      35.572  34.297  28.873  1.00  0.00     0.014 A 
ATOM     33  C   UNL A   1      35.093  32.592  31.026  1.00  0.00     0.010 A 
ATOM     34  C   UNL A   1      36.639  33.682  29.511  1.00  0.00     0.010 A 
ATOM     35  C   UNL A   1      36.410  32.838  30.605  1.00  0.00    -0.014 A 
BRANCH  35  36
ATOM     36  C   UNL A   1      37.572  32.257  31.318  1.00  0.00     0.031 A 
ATOM     37  C   UNL A   1      38.333  31.119  30.695  1.00  0.00     0.074 A 
ATOM     38  C   UNL A   1      37.904  32.716  32.540  1.00  0.00     0.049 A 
ATOM     39  N   UNL A   1      39.322  30.419  31.186  1.00  0.00    -0.248 NA
ATOM     40  C   UNL A   1      37.902  30.688  29.354  1.00  0.00     0.031 C 
ATOM     41  C   UNL A   1      37.216  33.796  33.252  1.00  0.00     0.029 A 
ATOM     42  N   UNL A   1      38.904  32.339  33.397  1.00  0.00    -0.354 N 
ATOM     43  C   UNL A   1      39.625  29.466  30.221  1.00  0.00     0.074 A 
ATOM     44  C   UNL A   1      38.667  29.627  29.150  1.00  0.00     0.031 C 
ATOM     45  C   UNL A   1      37.845  34.025  34.415  1.00  0.00     0.029 A 
ATOM     46  C   UNL A   1      38.948  33.080  34.555  1.00  0.00     0.049 A 
ATOM     47  H   UNL A   1      39.533  31.607  33.202  1.00  0.00     0.167 HD
ATOM     48  C   UNL A   1      40.632  28.561  30.214  1.00  0.00     0.034 A 
ATOM     49  C   UNL A   1      39.781  33.002  35.610  1.00  0.00     0.034 A 
ATOM     50  C   UNL A   1      41.593  28.431  31.277  1.00  0.00     0.049 A 
ATOM     51  C   UNL A   1      40.870  31.963  35.600  1.00  0.00     0.074 A 
ATOM     52  C   UNL A   1      42.680  27.580  31.357  1.00  0.00     0.029 A 
ATOM     53  N   UNL A   1      41.583  29.177  32.450  1.00  0.00    -0.354 N 
ATOM     54  N   UNL A   1      41.152  31.077  34.673  1.00  0.00    -0.248 NA
ATOM     55  C   UNL A   1      41.749  31.911  36.775  1.00  0.00     0.031 C 
ATOM     56  C   UNL A   1      43.289  27.766  32.600  1.00  0.00     0.029 A 
ATOM     57  C   UNL A   1      42.626  28.783  33.270  1.00  0.00     0.049 A 
ATOM     58  H   UNL A   1      40.930  29.882  32.666  1.00  0.00     0.167 HD
ATOM     59  C   UNL A   1      42.254  30.372  35.146  1.00  0.00     0.074 A 
ATOM     60  C   UNL A   1      42.590  30.942  36.436  1.00  0.00     0.031 C 
ATOM     61  C   UNL A   1      42.931  29.350  34.562  1.00  0.00     0.034 A 
BRANCH  48  62
ATOM     62  C   UNL A   1      40.734  27.643  29.023  1.00  0.00     0.023 A 
ATOM     63  C   UNL A   1      41.661  27.879  27.992  1.00  0.00     0.031 A 
ATOM     64  C   UNL A   1      39.891  26.525  28.909  1.00  0.00     0.131 A 
ATOM     65  C   UNL A   1      41.684  27.045  26.866  1.00  0.00     0.055 A 
ATOM     66  C   UNL A   1      39.968  25.655  27.819  1.00  0.00     0.041 A 
ATOM     67  F   UNL A   1      38.972  26.263  29.851  1.00  0.00    -0.206 F 
ATOM     68  C   UNL A   1      40.861  25.920  26.784  1.00  0.00     0.022 A 
BRANCH  65  69
ATOM     69  S   UNL A   1      42.729  27.513  25.461  1.00  0.00     0.124 S 
ATOM     70  O   UNL A   1      42.710  26.290  24.661  1.00  0.00    -0.237 OA
ATOM     71  O   UNL A   1      42.017  28.655  24.900  1.00  0.00    -0.237 OA
ATOM     72  O   UNL A   1      44.016  27.824  26.080  1.00  0.00    -0.744 OA
ENDBRANCH  65  69
ENDBRANCH  48  62
BRANCH  49  73
ATOM     73  C   UNL A   1      39.620  33.945  36.751  1.00  0.00     0.023 A 
ATOM     74  C   UNL A   1      39.055  33.516  37.961  1.00  0.00     0.031 A 
ATOM     75  C   UNL A   1      40.060  35.277  36.657  1.00  0.00     0.131 A 
ATOM     76  C   UNL A   1      38.931  34.418  39.030  1.00  0.00     0.055 A 
ATOM     77  C   UNL A   1      39.967  36.159  37.735  1.00  0.00     0.041 A 
ATOM     78  F   UNL A   1      40.620  35.728  35.525  1.00  0.00    -0.206 F 
ATOM     79  C   UNL A   1      39.396  35.732  38.930  1.00  0.00     0.022 A 
BRANCH  76  80
ATOM     80  S   UNL A   1      38.142  33.849  40.561  1.00  0.00     0.124 S 
ATOM     81  O   UNL A   1      36.962  33.163  40.049  1.00  0.00    -0.237 OA
ATOM     82  O   UNL A   1      39.177  33.002  41.143  1.00  0.00    -0.237 OA
ATOM     83  O   UNL A   1      37.876  35.090  41.287  1.00  0.00    -0.744 OA
ENDBRANCH  76  80
ENDBRANCH  49  73
BRANCH  61  84
ATOM     84  C   UNL A   1      44.112  28.789  35.307  1.00  0.00     0.023 A 
ATOM     85  C   UNL A   1      43.958  27.766  36.257  1.00  0.00     0.031 A 
ATOM     86  C   UNL A   1      45.412  29.242  35.018  1.00  0.00     0.131 A 
ATOM     87  C   UNL A   1      45.086  27.246  36.907  1.00  0.00     0.055 A 
ATOM     88  C   UNL A   1      46.534  28.687  35.632  1.00  0.00     0.041 A 
ATOM     89  F   UNL A   1      45.610  30.215  34.114  1.00  0.00    -0.206 F 
ATOM     90  C   UNL A   1      46.374  27.686  36.586  1.00  0.00     0.022 A 
BRANCH  87  91
ATOM     91  S   UNL A   1      44.847  26.006  38.207  1.00  0.00     0.124 S 
ATOM     92  O   UNL A   1      44.015  25.016  37.530  1.00  0.00    -0.237 OA
ATOM     93  O   UNL A   1      46.214  25.592  38.506  1.00  0.00    -0.237 OA
ATOM     94  O   UNL A   1      44.180  26.752  39.273  1.00  0.00    -0.744 OA
ENDBRANCH  87  91
ENDBRANCH  61  84
ENDBRANCH  35  36
ENDBRANCH  27  30
ENDBRANCH   1  26
TORSDOF 14
ENDMDL
MODEL 3
REMARK VINA RESULT:     -12.4      5.423     10.199
REMARK SMILES Cc1c(Br)c(C)c2c(c1Br)O[C@H](C(F)(F)F)C(C(=O)NCCCNC(=O)c1ccc(-c3c4nc(c(-c5cc(S(=O)(=O)[O-])ccc5F)c5ccc([nH]5)c(-c5cc(S(=O)(=O)[O-])ccc5F)c5nc(c(-c6cc(S(=O)(=O)[O-])ccc6F)c6ccc3[nH]6)C=C5)C=C4)cc1)=C2
REMARK SMILES IDX 23 1 22 2 21 3 20 4 18 5 19 6 17 8 1 9 2 10 3 11 9 12 4 13
REMARK SMILES IDX 5 14 8 15 10 16 6 17 7 18 11 19 90 20 12 21 13 22 14 23
REMARK SMILES IDX 15 24 16 25 24 26 25 27 26 29 27 30 28 31 89 32 29 33 88 34
REMARK SMILES IDX 30 35 31 36 32 37 82 38 33 39 87 40 81 41 83 42 34 43 86 44
REMARK SMILES IDX 80 45 79 46 35 48 67 49 47 50 66 51 48 52 51 53 65 54 84 55
REMARK SMILES IDX 49 56 50 57 64 59 85 60 52 61 36 62 37 63 45 64 38 65 44 66
REMARK SMILES IDX 46 67 43 68 39 69 40 70 41 71 42 72 68 73 69 74 77 75 70 76
REMARK SMILES IDX 76 77 78 78 75 79 71 80 72 81 73 82 74 83 53 84 54 85 62 86
REMARK SMILES IDX 55 87 61 88 63 89 60 90 56 91 57 92 58 93 59 94
REMARK H PARENT 20 7 24 28 83 47 51 58
REMARK Flexibility Score: inf
ROOT
ATOM      1  C   UNL A   1      35.780  22.667  26.297  1.00  0.00     0.118 C 
ENDROOT
BRANCH   1   2
ATOM      2  C   UNL A   1      34.374  22.159  26.588  1.00  0.00     0.042 C 
BRANCH   2   3
ATOM      3  C   UNL A   1      33.332  22.812  25.694  1.00  0.00     0.118 C 
BRANCH   3   4
ATOM      4  N   UNL A   1      33.843  23.056  24.353  1.00  0.00    -0.352 N 
ATOM      5  C   UNL A   1      33.762  24.037  23.425  1.00  0.00     0.251 C 
ATOM      6  O   UNL A   1      34.384  23.829  22.378  1.00  0.00    -0.270 OA
ATOM      7  H   UNL A   1      34.394  22.306  24.035  1.00  0.00     0.163 HD
BRANCH   5   8
ATOM      8  C   UNL A   1      33.006  25.312  23.591  1.00  0.00     0.067 C 
ATOM      9  C   UNL A   1      30.650  31.207  25.243  1.00  0.00     0.047 C 
ATOM     10  C   UNL A   1      31.406  29.917  25.031  1.00  0.00    -0.019 A 
ATOM     11  C   UNL A   1      32.521  29.597  25.853  1.00  0.00     0.025 A 
ATOM     12  C   UNL A   1      31.053  29.012  24.015  1.00  0.00     0.064 A 
ATOM     13  Br  UNL A   1      33.043  30.854  27.211  1.00  0.00    -0.050 Br
ATOM     14  C   UNL A   1      33.252  28.392  25.688  1.00  0.00    -0.026 A 
ATOM     15  C   UNL A   1      31.767  27.816  23.847  1.00  0.00     0.142 A 
ATOM     16  Br  UNL A   1      29.586  29.348  22.829  1.00  0.00    -0.046 Br
ATOM     17  C   UNL A   1      34.436  28.031  26.557  1.00  0.00     0.046 C 
ATOM     18  C   UNL A   1      32.855  27.495  24.668  1.00  0.00     0.022 A 
ATOM     19  O   UNL A   1      31.389  27.002  22.811  1.00  0.00    -0.474 OA
ATOM     20  C   UNL A   1      33.559  26.231  24.402  1.00  0.00     0.026 C 
ATOM     21  C   UNL A   1      31.690  25.594  22.941  1.00  0.00     0.314 C 
BRANCH  21  22
ATOM     22  C   UNL A   1      30.516  24.867  23.625  1.00  0.00     0.429 C 
ATOM     23  F   UNL A   1      30.749  24.728  24.954  1.00  0.00    -0.167 F 
ATOM     24  F   UNL A   1      29.347  25.542  23.509  1.00  0.00    -0.167 F 
ATOM     25  F   UNL A   1      30.302  23.632  23.118  1.00  0.00    -0.167 F 
ENDBRANCH  21  22
ENDBRANCH   5   8
ENDBRANCH   3   4
ENDBRANCH   2   3
ENDBRANCH   1   2
BRANCH   1  26
ATOM     26  N   UNL A   1      36.713  21.566  26.072  1.00  0.00    -0.352 N 
ATOM     27  C   UNL A   1      38.076  21.582  25.920  1.00  0.00     0.251 C 
ATOM     28  H   UNL A   1      36.300  20.674  26.020  1.00  0.00     0.163 HD
ATOM     29  O   UNL A   1      38.642  20.605  25.431  1.00  0.00    -0.269 OA
BRANCH  27  30
ATOM     30  C   UNL A   1      38.850  22.765  26.340  1.00  0.00     0.039 A 
ATOM     31  C   UNL A   1      39.975  22.602  27.150  1.00  0.00     0.014 A 
ATOM     32  C   UNL A   1      38.445  24.042  25.946  1.00  0.00     0.014 A 
ATOM     33  C   UNL A   1      40.729  23.721  27.511  1.00  0.00     0.010 A 
ATOM     34  C   UNL A   1      39.251  25.138  26.217  1.00  0.00     0.010 A 
ATOM     35  C   UNL A   1      40.390  24.991  27.018  1.00  0.00    -0.014 A 
BRANCH  35  36
ATOM     36  C   UNL A   1      41.189  26.192  27.357  1.00  0.00     0.031 A 
ATOM     37  C   UNL A   1      40.591  27.258  28.234  1.00  0.00     0.074 A 
ATOM     38  C   UNL A   1      42.420  26.345  26.835  1.00  0.00     0.049 A 
ATOM     39  N   UNL A   1      41.087  28.417  28.583  1.00  0.00    -0.248 NA
ATOM     40  C   UNL A   1      39.241  27.001  28.764  1.00  0.00     0.031 C 
ATOM     41  C   UNL A   1      43.086  25.389  25.948  1.00  0.00     0.029 A 
ATOM     42  N   UNL A   1      43.334  27.357  26.977  1.00  0.00    -0.354 N 
ATOM     43  C   UNL A   1      40.111  29.025  29.363  1.00  0.00     0.074 A 
ATOM     44  C   UNL A   1      38.965  28.143  29.374  1.00  0.00     0.031 C 
ATOM     45  C   UNL A   1      44.320  25.837  25.665  1.00  0.00     0.029 A 
ATOM     46  C   UNL A   1      44.514  27.133  26.308  1.00  0.00     0.049 A 
ATOM     47  H   UNL A   1      43.162  28.167  27.509  1.00  0.00     0.167 HD
ATOM     48  C   UNL A   1      40.177  30.199  30.035  1.00  0.00     0.034 A 
ATOM     49  C   UNL A   1      45.625  27.889  26.220  1.00  0.00     0.034 A 
ATOM     50  C   UNL A   1      41.336  31.053  30.033  1.00  0.00     0.049 A 
ATOM     51  C   UNL A   1      45.664  29.207  26.945  1.00  0.00     0.074 A 
ATOM     52  C   UNL A   1      41.530  32.241  30.713  1.00  0.00     0.029 A 
ATOM     53  N   UNL A   1      42.500  30.808  29.314  1.00  0.00    -0.354 N 
ATOM     54  N   UNL A   1      44.738  29.764  27.690  1.00  0.00    -0.248 NA
ATOM     55  C   UNL A   1      46.893  30.000  26.815  1.00  0.00     0.031 C 
ATOM     56  C   UNL A   1      42.784  32.746  30.358  1.00  0.00     0.029 A 
ATOM     57  C   UNL A   1      43.403  31.839  29.511  1.00  0.00     0.049 A 
ATOM     58  H   UNL A   1      42.659  30.018  28.749  1.00  0.00     0.167 HD
ATOM     59  C   UNL A   1      45.279  30.966  28.133  1.00  0.00     0.074 A 
ATOM     60  C   UNL A   1      46.616  31.049  27.578  1.00  0.00     0.031 C 
ATOM     61  C   UNL A   1      44.723  31.912  28.932  1.00  0.00     0.034 A 
BRANCH  48  62
ATOM     62  C   UNL A   1      38.961  30.621  30.819  1.00  0.00     0.023 A 
ATOM     63  C   UNL A   1      37.940  31.388  30.231  1.00  0.00     0.031 A 
ATOM     64  C   UNL A   1      38.823  30.261  32.170  1.00  0.00     0.131 A 
ATOM     65  C   UNL A   1      36.855  31.820  31.007  1.00  0.00     0.055 A 
ATOM     66  C   UNL A   1      37.704  30.633  32.918  1.00  0.00     0.041 A 
ATOM     67  F   UNL A   1      39.777  29.548  32.789  1.00  0.00    -0.206 F 
ATOM     68  C   UNL A   1      36.717  31.427  32.340  1.00  0.00     0.022 A 
BRANCH  65  69
ATOM     69  S   UNL A   1      35.681  32.993  30.277  1.00  0.00     0.124 S 
ATOM     70  O   UNL A   1      34.400  32.413  30.677  1.00  0.00    -0.237 OA
ATOM     71  O   UNL A   1      36.042  34.249  30.924  1.00  0.00    -0.237 OA
ATOM     72  O   UNL A   1      35.971  32.923  28.847  1.00  0.00    -0.744 OA
ENDBRANCH  65  69
ENDBRANCH  48  62
BRANCH  49  73
ATOM     73  C   UNL A   1      46.789  27.404  25.429  1.00  0.00     0.023 A 
ATOM     74  C   UNL A   1      46.963  27.800  24.095  1.00  0.00     0.031 A 
ATOM     75  C   UNL A   1      47.760  26.567  26.006  1.00  0.00     0.131 A 
ATOM     76  C   UNL A   1      48.079  27.347  23.373  1.00  0.00     0.055 A 
ATOM     77  C   UNL A   1      48.886  26.148  25.295  1.00  0.00     0.041 A 
ATOM     78  F   UNL A   1      47.644  26.173  27.284  1.00  0.00    -0.206 F 
ATOM     79  C   UNL A   1      49.048  26.535  23.969  1.00  0.00     0.022 A 
BRANCH  76  80
ATOM     80  S   UNL A   1      48.244  27.829  21.632  1.00  0.00     0.124 S 
ATOM     81  O   UNL A   1      48.285  26.531  20.969  1.00  0.00    -0.237 OA
ATOM     82  O   UNL A   1      47.039  28.623  21.419  1.00  0.00    -0.237 OA
ATOM     83  O   UNL A   1      49.496  28.584  21.606  1.00  0.00    -0.744 OA
ENDBRANCH  76  80
ENDBRANCH  49  73
BRANCH  61  84
ATOM     84  C   UNL A   1      45.563  33.115  29.267  1.00  0.00     0.023 A 
ATOM     85  C   UNL A   1      45.518  34.279  28.482  1.00  0.00     0.031 A 
ATOM     86  C   UNL A   1      46.371  33.117  30.418  1.00  0.00     0.131 A 
ATOM     87  C   UNL A   1      46.291  35.391  28.843  1.00  0.00     0.055 A 
ATOM     88  C   UNL A   1      47.098  34.243  30.800  1.00  0.00     0.041 A 
ATOM     89  F   UNL A   1      46.443  32.030  31.203  1.00  0.00    -0.206 F 
ATOM     90  C   UNL A   1      47.065  35.388  30.008  1.00  0.00     0.022 A 
BRANCH  87  91
ATOM     91  S   UNL A   1      46.300  36.837  27.751  1.00  0.00     0.124 S 
ATOM     92  O   UNL A   1      44.972  37.397  27.982  1.00  0.00    -0.237 OA
ATOM     93  O   UNL A   1      47.419  37.618  28.268  1.00  0.00    -0.237 OA
ATOM     94  O   UNL A   1      46.508  36.263  26.423  1.00  0.00    -0.744 OA
ENDBRANCH  87  91
ENDBRANCH  61  84
ENDBRANCH  35  36
ENDBRANCH  27  30
ENDBRANCH   1  26
TORSDOF 14
ENDMDL
