MODEL 1
REMARK VINA RESULT:     -13.0      0.000      0.000
REMARK SMILES O=C(NCCCNC(=O)[C@H]1[C@H]2CC[C@H](C2)[C@@H]1C(=O)N[C@H]1CCCc2ccccc21)c1ccc(-c2c3nc(c(-c4cc(S(=O)(=O)[O-])ccc4F)c4ccc([nH]4)c(-c4cc(S(=O)(=O)[O-])ccc4F)c4nc(c(-c5cc(S(=O)(=O)[O-])ccc5F)c5ccc2[nH]5)C=C4)C=C3)cc1
REMARK SMILES IDX 4 1 3 2 1 3 2 4 30 6 31 7 92 8 32 9 91 10 33 11 34 12 35 13
REMARK SMILES IDX 85 14 36 15 90 16 84 17 86 18 37 19 89 20 83 21 82 22 38 24
REMARK SMILES IDX 70 25 50 26 69 27 51 28 54 29 68 30 87 31 52 32 53 33 67 35
REMARK SMILES IDX 88 36 55 37 39 38 40 39 48 40 41 41 47 42 49 43 46 44 42 45
REMARK SMILES IDX 43 46 44 47 45 48 71 49 72 50 80 51 73 52 79 53 81 54 78 55
REMARK SMILES IDX 74 56 75 57 76 58 77 59 56 60 57 61 65 62 58 63 64 64 66 65
REMARK SMILES IDX 63 66 59 67 60 68 61 69 62 70 5 71 6 72 7 73 8 74 9 76 10 77
REMARK SMILES IDX 11 78 16 79 12 80 15 81 14 82 13 83 17 84 18 85 19 86 20 88
REMARK SMILES IDX 21 89 29 90 22 91 24 92 28 93 23 94 25 95 27 96 26 97
REMARK H PARENT 3 5 86 23 54 34 7 75 19 87
REMARK Flexibility Score: inf
ROOT
ATOM      1  C   UNL A   1      32.820  32.303  27.293  1.00  0.00     0.118 C 
ENDROOT
BRANCH   1   2
ATOM      2  N   UNL A   1      32.566  33.708  27.566  1.00  0.00    -0.352 N 
ATOM      3  O   UNL A   1      32.606  35.605  28.773  1.00  0.00    -0.269 OA
ATOM      4  C   UNL A   1      33.113  34.514  28.533  1.00  0.00     0.251 C 
ATOM      5  H   UNL A   1      31.911  34.143  26.973  1.00  0.00     0.163 HD
BRANCH   4   6
ATOM      6  C   UNL A   1      34.313  34.066  29.275  1.00  0.00     0.039 A 
ATOM      7  C   UNL A   1      34.182  33.264  30.413  1.00  0.00     0.014 A 
ATOM      8  C   UNL A   1      35.581  34.401  28.794  1.00  0.00     0.014 A 
ATOM      9  C   UNL A   1      35.311  32.877  31.123  1.00  0.00     0.010 A 
ATOM     10  C   UNL A   1      36.719  33.934  29.458  1.00  0.00     0.010 A 
ATOM     11  C   UNL A   1      36.590  33.165  30.626  1.00  0.00    -0.014 A 
BRANCH  11  12
ATOM     12  C   UNL A   1      37.771  32.520  31.253  1.00  0.00     0.031 A 
ATOM     13  C   UNL A   1      38.488  31.384  30.587  1.00  0.00     0.074 A 
ATOM     14  C   UNL A   1      38.170  32.979  32.458  1.00  0.00     0.049 A 
ATOM     15  N   UNL A   1      39.502  30.685  31.027  1.00  0.00    -0.248 NA
ATOM     16  C   UNL A   1      38.007  30.973  29.259  1.00  0.00     0.031 C 
ATOM     17  C   UNL A   1      37.532  34.078  33.191  1.00  0.00     0.029 A 
ATOM     18  N   UNL A   1      39.196  32.591  33.281  1.00  0.00    -0.354 N 
ATOM     19  C   UNL A   1      39.770  29.737  30.047  1.00  0.00     0.074 A 
ATOM     20  C   UNL A   1      38.802  29.944  28.990  1.00  0.00     0.031 C 
ATOM     21  C   UNL A   1      38.191  34.289  34.338  1.00  0.00     0.029 A 
ATOM     22  C   UNL A   1      39.242  33.288  34.467  1.00  0.00     0.049 A 
ATOM     23  H   UNL A   1      39.837  31.882  33.046  1.00  0.00     0.167 HD
ATOM     24  C   UNL A   1      40.733  28.784  30.044  1.00  0.00     0.034 A 
ATOM     25  C   UNL A   1      40.007  33.112  35.562  1.00  0.00     0.034 A 
ATOM     26  C   UNL A   1      41.690  28.609  31.113  1.00  0.00     0.049 A 
ATOM     27  C   UNL A   1      41.025  32.002  35.547  1.00  0.00     0.074 A 
ATOM     28  C   UNL A   1      42.757  27.729  31.173  1.00  0.00     0.029 A 
ATOM     29  N   UNL A   1      41.680  29.303  32.316  1.00  0.00    -0.354 N 
ATOM     30  N   UNL A   1      41.310  31.160  34.580  1.00  0.00    -0.248 NA
ATOM     31  C   UNL A   1      41.820  31.815  36.766  1.00  0.00     0.031 C 
ATOM     32  C   UNL A   1      43.332  27.825  32.444  1.00  0.00     0.029 A 
ATOM     33  C   UNL A   1      42.683  28.826  33.148  1.00  0.00     0.049 A 
ATOM     34  H   UNL A   1      41.053  30.027  32.546  1.00  0.00     0.167 HD
ATOM     35  C   UNL A   1      42.328  30.351  35.074  1.00  0.00     0.074 A 
ATOM     36  C   UNL A   1      42.629  30.829  36.407  1.00  0.00     0.031 C 
ATOM     37  C   UNL A   1      42.954  29.303  34.482  1.00  0.00     0.034 A 
BRANCH  24  38
ATOM     38  C   UNL A   1      40.782  27.816  28.889  1.00  0.00     0.023 A 
ATOM     39  C   UNL A   1      41.725  27.929  27.853  1.00  0.00     0.031 A 
ATOM     40  C   UNL A   1      39.895  26.724  28.858  1.00  0.00     0.131 A 
ATOM     41  C   UNL A   1      41.739  26.983  26.815  1.00  0.00     0.055 A 
ATOM     42  C   UNL A   1      39.955  25.753  27.857  1.00  0.00     0.041 A 
ATOM     43  F   UNL A   1      38.960  26.577  29.810  1.00  0.00    -0.206 F 
ATOM     44  C   UNL A   1      40.877  25.882  26.825  1.00  0.00     0.022 A 
BRANCH  41  45
ATOM     45  S   UNL A   1      42.845  27.252  25.403  1.00  0.00     0.124 S 
ATOM     46  O   UNL A   1      44.103  27.580  26.068  1.00  0.00    -0.237 OA
ATOM     47  O   UNL A   1      42.802  25.965  24.718  1.00  0.00    -0.237 OA
ATOM     48  O   UNL A   1      42.221  28.361  24.684  1.00  0.00    -0.744 OA
ENDBRANCH  41  45
ENDBRANCH  24  38
BRANCH  25  49
ATOM     49  C   UNL A   1      39.790  33.941  36.783  1.00  0.00     0.023 A 
ATOM     50  C   UNL A   1      40.644  35.008  37.095  1.00  0.00     0.031 A 
ATOM     51  C   UNL A   1      38.764  33.631  37.696  1.00  0.00     0.131 A 
ATOM     52  C   UNL A   1      40.499  35.684  38.317  1.00  0.00     0.055 A 
ATOM     53  C   UNL A   1      38.577  34.355  38.873  1.00  0.00     0.041 A 
ATOM     54  F   UNL A   1      37.919  32.616  37.452  1.00  0.00    -0.206 F 
ATOM     55  C   UNL A   1      39.461  35.378  39.199  1.00  0.00     0.022 A 
BRANCH  52  56
ATOM     56  S   UNL A   1      41.776  36.879  38.798  1.00  0.00     0.124 S 
ATOM     57  O   UNL A   1      40.970  38.018  39.222  1.00  0.00    -0.237 OA
ATOM     58  O   UNL A   1      42.479  36.160  39.855  1.00  0.00    -0.237 OA
ATOM     59  O   UNL A   1      42.537  37.076  37.566  1.00  0.00    -0.744 OA
ENDBRANCH  52  56
ENDBRANCH  25  49
BRANCH  37  60
ATOM     60  C   UNL A   1      44.039  28.623  35.277  1.00  0.00     0.023 A 
ATOM     61  C   UNL A   1      43.751  27.556  36.146  1.00  0.00     0.031 A 
ATOM     62  C   UNL A   1      45.374  29.051  35.170  1.00  0.00     0.131 A 
ATOM     63  C   UNL A   1      44.777  26.983  36.912  1.00  0.00     0.055 A 
ATOM     64  C   UNL A   1      46.401  28.434  35.884  1.00  0.00     0.041 A 
ATOM     65  F   UNL A   1      45.702  30.069  34.360  1.00  0.00    -0.206 F 
ATOM     66  C   UNL A   1      46.103  27.402  36.770  1.00  0.00     0.022 A 
BRANCH  63  67
ATOM     67  S   UNL A   1      44.344  25.735  38.153  1.00  0.00     0.124 S 
ATOM     68  O   UNL A   1      43.312  24.968  37.463  1.00  0.00    -0.237 OA
ATOM     69  O   UNL A   1      45.613  25.048  38.365  1.00  0.00    -0.237 OA
ATOM     70  O   UNL A   1      43.873  26.529  39.286  1.00  0.00    -0.744 OA
ENDBRANCH  63  67
ENDBRANCH  37  60
ENDBRANCH  11  12
ENDBRANCH   4   6
ENDBRANCH   1   2
BRANCH   1  71
ATOM     71  C   UNL A   1      31.695  31.660  26.498  1.00  0.00     0.042 C 
BRANCH  71  72
ATOM     72  C   UNL A   1      31.877  30.162  26.272  1.00  0.00     0.117 C 
BRANCH  72  73
ATOM     73  N   UNL A   1      32.142  29.839  24.886  1.00  0.00    -0.356 N 
ATOM     74  C   UNL A   1      31.332  29.480  23.864  1.00  0.00     0.224 C 
ATOM     75  H   UNL A   1      33.094  29.890  24.640  1.00  0.00     0.163 HD
ATOM     76  O   UNL A   1      31.874  29.426  22.754  1.00  0.00    -0.275 OA
BRANCH  74  77
ATOM     77  C   UNL A   1      29.819  29.264  24.008  1.00  0.00     0.094 C 
ATOM     78  C   UNL A   1      29.096  30.615  23.658  1.00  0.00     0.002 C 
ATOM     79  C   UNL A   1      29.102  28.282  23.061  1.00  0.00     0.094 C 
ATOM     80  C   UNL A   1      29.384  31.069  22.206  1.00  0.00     0.005 C 
ATOM     81  C   UNL A   1      27.647  30.189  23.494  1.00  0.00     0.009 C 
ATOM     82  C   UNL A   1      27.972  29.138  22.435  1.00  0.00     0.002 C 
ATOM     83  C   UNL A   1      28.604  30.050  21.361  1.00  0.00     0.005 C 
BRANCH  79  84
ATOM     84  C   UNL A   1      28.723  26.891  23.621  1.00  0.00     0.224 C 
ATOM     85  O   UNL A   1      27.645  26.774  24.221  1.00  0.00    -0.275 OA
ATOM     86  N   UNL A   1      29.422  25.734  23.496  1.00  0.00    -0.349 N 
ATOM     87  H   UNL A   1      28.884  24.916  23.607  1.00  0.00     0.164 HD
BRANCH  86  88
ATOM     88  C   UNL A   1      30.826  25.500  23.229  1.00  0.00     0.112 C 
ATOM     89  C   UNL A   1      31.163  26.093  21.854  1.00  0.00     0.030 C 
ATOM     90  C   UNL A   1      31.803  26.049  24.266  1.00  0.00    -0.022 A 
ATOM     91  C   UNL A   1      32.589  25.743  21.480  1.00  0.00     0.007 C 
ATOM     92  C   UNL A   1      33.112  26.426  23.868  1.00  0.00    -0.043 A 
ATOM     93  C   UNL A   1      31.489  26.066  25.634  1.00  0.00     0.006 A 
ATOM     94  C   UNL A   1      33.547  26.454  22.420  1.00  0.00     0.036 C 
ATOM     95  C   UNL A   1      34.045  26.843  24.829  1.00  0.00     0.004 A 
ATOM     96  C   UNL A   1      32.435  26.477  26.580  1.00  0.00     0.000 A 
ATOM     97  C   UNL A   1      33.711  26.864  26.177  1.00  0.00     0.000 A 
ENDBRANCH  86  88
ENDBRANCH  79  84
ENDBRANCH  74  77
ENDBRANCH  72  73
ENDBRANCH  71  72
ENDBRANCH   1  71
TORSDOF 15
ENDMDL
MODEL 2
REMARK VINA RESULT:     -12.9      1.486      1.932
REMARK SMILES O=C(NCCCNC(=O)[C@H]1[C@H]2CC[C@H](C2)[C@@H]1C(=O)N[C@H]1CCCc2ccccc21)c1ccc(-c2c3nc(c(-c4cc(S(=O)(=O)[O-])ccc4F)c4ccc([nH]4)c(-c4cc(S(=O)(=O)[O-])ccc4F)c4nc(c(-c5cc(S(=O)(=O)[O-])ccc5F)c5ccc2[nH]5)C=C4)C=C3)cc1
REMARK SMILES IDX 4 1 3 2 1 3 2 4 30 6 31 7 92 8 32 9 91 10 33 11 34 12 35 13
REMARK SMILES IDX 85 14 36 15 90 16 84 17 86 18 37 19 89 20 83 21 82 22 38 24
REMARK SMILES IDX 70 25 50 26 69 27 51 28 54 29 68 30 87 31 52 32 53 33 67 35
REMARK SMILES IDX 88 36 55 37 39 38 40 39 48 40 41 41 47 42 49 43 46 44 42 45
REMARK SMILES IDX 43 46 44 47 45 48 71 49 72 50 80 51 73 52 79 53 81 54 78 55
REMARK SMILES IDX 74 56 75 57 76 58 77 59 56 60 57 61 65 62 58 63 64 64 66 65
REMARK SMILES IDX 63 66 59 67 60 68 61 69 62 70 5 71 6 72 7 73 8 74 9 76 10 77
REMARK SMILES IDX 11 78 16 79 12 80 15 81 14 82 13 83 17 84 18 85 19 86 20 88
REMARK SMILES IDX 21 89 29 90 22 91 24 92 28 93 23 94 25 95 27 96 26 97
REMARK H PARENT 3 5 86 23 54 34 7 75 19 87
REMARK Flexibility Score: inf
ROOT
ATOM      1  C   UNL A   1      32.852  32.236  27.250  1.00  0.00     0.118 C 
ENDROOT
BRANCH   1   2
ATOM      2  N   UNL A   1      32.573  33.633  27.541  1.00  0.00    -0.352 N 
ATOM      3  O   UNL A   1      32.579  35.513  28.774  1.00  0.00    -0.269 OA
ATOM      4  C   UNL A   1      33.105  34.435  28.520  1.00  0.00     0.251 C 
ATOM      5  H   UNL A   1      31.911  34.064  26.953  1.00  0.00     0.163 HD
BRANCH   4   6
ATOM      6  C   UNL A   1      34.312  33.998  29.256  1.00  0.00     0.039 A 
ATOM      7  C   UNL A   1      34.193  33.202  30.400  1.00  0.00     0.014 A 
ATOM      8  C   UNL A   1      35.576  34.335  28.765  1.00  0.00     0.014 A 
ATOM      9  C   UNL A   1      35.328  32.825  31.106  1.00  0.00     0.010 A 
ATOM     10  C   UNL A   1      36.720  33.878  29.424  1.00  0.00     0.010 A 
ATOM     11  C   UNL A   1      36.603  33.116  30.598  1.00  0.00    -0.014 A 
BRANCH  11  12
ATOM     12  C   UNL A   1      37.790  32.481  31.222  1.00  0.00     0.031 A 
ATOM     13  C   UNL A   1      38.510  31.346  30.557  1.00  0.00     0.074 A 
ATOM     14  C   UNL A   1      38.194  32.947  32.422  1.00  0.00     0.049 A 
ATOM     15  N   UNL A   1      39.531  30.655  30.995  1.00  0.00    -0.248 NA
ATOM     16  C   UNL A   1      38.025  30.926  29.233  1.00  0.00     0.031 C 
ATOM     17  C   UNL A   1      37.553  34.046  33.154  1.00  0.00     0.029 A 
ATOM     18  N   UNL A   1      39.226  32.569  33.242  1.00  0.00    -0.354 N 
ATOM     19  C   UNL A   1      39.799  29.703  30.017  1.00  0.00     0.074 A 
ATOM     20  C   UNL A   1      38.824  29.900  28.964  1.00  0.00     0.031 C 
ATOM     21  C   UNL A   1      38.218  34.266  34.296  1.00  0.00     0.029 A 
ATOM     22  C   UNL A   1      39.274  33.272  34.424  1.00  0.00     0.049 A 
ATOM     23  H   UNL A   1      39.870  31.862  33.006  1.00  0.00     0.167 HD
ATOM     24  C   UNL A   1      40.768  28.757  30.014  1.00  0.00     0.034 A 
ATOM     25  C   UNL A   1      40.047  33.105  35.515  1.00  0.00     0.034 A 
ATOM     26  C   UNL A   1      41.731  28.592  31.078  1.00  0.00     0.049 A 
ATOM     27  C   UNL A   1      41.071  32.001  35.500  1.00  0.00     0.074 A 
ATOM     28  C   UNL A   1      42.803  27.718  31.136  1.00  0.00     0.029 A 
ATOM     29  N   UNL A   1      41.724  29.291  32.277  1.00  0.00    -0.354 N 
ATOM     30  N   UNL A   1      41.355  31.156  34.535  1.00  0.00    -0.248 NA
ATOM     31  C   UNL A   1      41.874  31.824  36.715  1.00  0.00     0.031 C 
ATOM     32  C   UNL A   1      43.385  27.823  32.403  1.00  0.00     0.029 A 
ATOM     33  C   UNL A   1      42.734  28.824  33.106  1.00  0.00     0.049 A 
ATOM     34  H   UNL A   1      41.094  30.012  32.507  1.00  0.00     0.167 HD
ATOM     35  C   UNL A   1      42.381  30.355  35.028  1.00  0.00     0.074 A 
ATOM     36  C   UNL A   1      42.686  30.841  36.357  1.00  0.00     0.031 C 
ATOM     37  C   UNL A   1      43.009  29.309  34.437  1.00  0.00     0.034 A 
BRANCH  24  38
ATOM     38  C   UNL A   1      40.816  27.783  28.862  1.00  0.00     0.023 A 
ATOM     39  C   UNL A   1      41.765  27.885  27.831  1.00  0.00     0.031 A 
ATOM     40  C   UNL A   1      39.921  26.697  28.831  1.00  0.00     0.131 A 
ATOM     41  C   UNL A   1      41.778  26.935  26.797  1.00  0.00     0.055 A 
ATOM     42  C   UNL A   1      39.979  25.722  27.835  1.00  0.00     0.041 A 
ATOM     43  F   UNL A   1      38.980  26.561  29.779  1.00  0.00    -0.206 F 
ATOM     44  C   UNL A   1      40.908  25.840  26.806  1.00  0.00     0.022 A 
BRANCH  41  45
ATOM     45  S   UNL A   1      42.893  27.190  25.389  1.00  0.00     0.124 S 
ATOM     46  O   UNL A   1      44.148  27.518  26.060  1.00  0.00    -0.237 OA
ATOM     47  O   UNL A   1      42.848  25.899  24.713  1.00  0.00    -0.237 OA
ATOM     48  O   UNL A   1      42.277  28.297  24.659  1.00  0.00    -0.744 OA
ENDBRANCH  41  45
ENDBRANCH  24  38
BRANCH  25  49
ATOM     49  C   UNL A   1      39.832  33.938  36.733  1.00  0.00     0.023 A 
ATOM     50  C   UNL A   1      39.237  33.402  37.884  1.00  0.00     0.031 A 
ATOM     51  C   UNL A   1      40.155  35.310  36.740  1.00  0.00     0.131 A 
ATOM     52  C   UNL A   1      38.924  34.240  38.965  1.00  0.00     0.055 A 
ATOM     53  C   UNL A   1      39.911  36.123  37.846  1.00  0.00     0.041 A 
ATOM     54  F   UNL A   1      40.721  35.880  35.664  1.00  0.00    -0.206 F 
ATOM     55  C   UNL A   1      39.272  35.592  38.961  1.00  0.00     0.022 A 
BRANCH  52  56
ATOM     56  S   UNL A   1      37.926  33.564  40.320  1.00  0.00     0.124 S 
ATOM     57  O   UNL A   1      38.769  32.473  40.793  1.00  0.00    -0.237 OA
ATOM     58  O   UNL A   1      37.804  34.715  41.208  1.00  0.00    -0.237 OA
ATOM     59  O   UNL A   1      36.689  33.155  39.658  1.00  0.00    -0.744 OA
ENDBRANCH  52  56
ENDBRANCH  25  49
BRANCH  37  60
ATOM     60  C   UNL A   1      44.103  28.638  35.229  1.00  0.00     0.023 A 
ATOM     61  C   UNL A   1      43.828  27.563  36.091  1.00  0.00     0.031 A 
ATOM     62  C   UNL A   1      45.432  29.084  35.125  1.00  0.00     0.131 A 
ATOM     63  C   UNL A   1      44.862  26.999  36.854  1.00  0.00     0.055 A 
ATOM     64  C   UNL A   1      46.466  28.477  35.837  1.00  0.00     0.041 A 
ATOM     65  F   UNL A   1      45.748  30.111  34.322  1.00  0.00    -0.206 F 
ATOM     66  C   UNL A   1      46.182  27.436  36.716  1.00  0.00     0.022 A 
BRANCH  63  67
ATOM     67  S   UNL A   1      44.444  25.738  38.088  1.00  0.00     0.124 S 
ATOM     68  O   UNL A   1      43.371  25.006  37.421  1.00  0.00    -0.237 OA
ATOM     69  O   UNL A   1      45.704  25.020  38.243  1.00  0.00    -0.237 OA
ATOM     70  O   UNL A   1      44.031  26.521  39.251  1.00  0.00    -0.744 OA
ENDBRANCH  63  67
ENDBRANCH  37  60
ENDBRANCH  11  12
ENDBRANCH   4   6
ENDBRANCH   1   2
BRANCH   1  71
ATOM     71  C   UNL A   1      31.715  31.571  26.488  1.00  0.00     0.042 C 
BRANCH  71  72
ATOM     72  C   UNL A   1      31.905  30.072  26.283  1.00  0.00     0.117 C 
BRANCH  72  73
ATOM     73  N   UNL A   1      32.143  29.728  24.897  1.00  0.00    -0.356 N 
ATOM     74  C   UNL A   1      31.309  29.391  23.887  1.00  0.00     0.224 C 
ATOM     75  H   UNL A   1      33.093  29.742  24.640  1.00  0.00     0.163 HD
ATOM     76  O   UNL A   1      31.836  29.307  22.772  1.00  0.00    -0.275 OA
BRANCH  74  77
ATOM     77  C   UNL A   1      29.791  29.231  24.048  1.00  0.00     0.094 C 
ATOM     78  C   UNL A   1      29.110  30.590  23.645  1.00  0.00     0.002 C 
ATOM     79  C   UNL A   1      29.035  28.235  23.148  1.00  0.00     0.094 C 
ATOM     80  C   UNL A   1      29.403  30.972  22.174  1.00  0.00     0.005 C 
ATOM     81  C   UNL A   1      27.647  30.206  23.509  1.00  0.00     0.009 C 
ATOM     82  C   UNL A   1      27.930  29.101  22.493  1.00  0.00     0.002 C 
ATOM     83  C   UNL A   1      28.583  29.945  21.378  1.00  0.00     0.005 C 
BRANCH  79  84
ATOM     84  C   UNL A   1      28.614  26.882  23.769  1.00  0.00     0.224 C 
ATOM     85  O   UNL A   1      27.407  26.669  23.948  1.00  0.00    -0.275 OA
ATOM     86  N   UNL A   1      29.421  25.846  24.112  1.00  0.00    -0.349 N 
ATOM     87  H   UNL A   1      28.969  24.973  24.162  1.00  0.00     0.164 HD
BRANCH  86  88
ATOM     88  C   UNL A   1      30.836  25.810  24.417  1.00  0.00     0.112 C 
ATOM     89  C   UNL A   1      31.034  26.277  25.865  1.00  0.00     0.030 C 
ATOM     90  C   UNL A   1      31.525  24.460  24.227  1.00  0.00    -0.022 A 
ATOM     91  C   UNL A   1      32.513  26.387  26.173  1.00  0.00     0.007 C 
ATOM     92  C   UNL A   1      32.658  24.131  25.016  1.00  0.00    -0.043 A 
ATOM     93  C   UNL A   1      31.152  23.584  23.195  1.00  0.00     0.006 A 
ATOM     94  C   UNL A   1      33.135  25.001  26.157  1.00  0.00     0.036 C 
ATOM     95  C   UNL A   1      33.353  22.935  24.783  1.00  0.00     0.004 A 
ATOM     96  C   UNL A   1      31.861  22.398  22.972  1.00  0.00     0.000 A 
ATOM     97  C   UNL A   1      32.959  22.075  23.766  1.00  0.00     0.000 A 
ENDBRANCH  86  88
ENDBRANCH  79  84
ENDBRANCH  74  77
ENDBRANCH  72  73
ENDBRANCH  71  72
ENDBRANCH   1  71
TORSDOF 15
ENDMDL
MODEL 3
REMARK VINA RESULT:     -12.9      2.129      2.848
REMARK SMILES O=C(NCCCNC(=O)[C@H]1[C@H]2CC[C@H](C2)[C@@H]1C(=O)N[C@H]1CCCc2ccccc21)c1ccc(-c2c3nc(c(-c4cc(S(=O)(=O)[O-])ccc4F)c4ccc([nH]4)c(-c4cc(S(=O)(=O)[O-])ccc4F)c4nc(c(-c5cc(S(=O)(=O)[O-])ccc5F)c5ccc2[nH]5)C=C4)C=C3)cc1
REMARK SMILES IDX 4 1 3 2 1 3 2 4 30 6 31 7 92 8 32 9 91 10 33 11 34 12 35 13
REMARK SMILES IDX 85 14 36 15 90 16 84 17 86 18 37 19 89 20 83 21 82 22 38 24
REMARK SMILES IDX 70 25 50 26 69 27 51 28 54 29 68 30 87 31 52 32 53 33 67 35
REMARK SMILES IDX 88 36 55 37 39 38 40 39 48 40 41 41 47 42 49 43 46 44 42 45
REMARK SMILES IDX 43 46 44 47 45 48 71 49 72 50 80 51 73 52 79 53 81 54 78 55
REMARK SMILES IDX 74 56 75 57 76 58 77 59 56 60 57 61 65 62 58 63 64 64 66 65
REMARK SMILES IDX 63 66 59 67 60 68 61 69 62 70 5 71 6 72 7 73 8 74 9 76 10 77
REMARK SMILES IDX 11 78 16 79 12 80 15 81 14 82 13 83 17 84 18 85 19 86 20 88
REMARK SMILES IDX 21 89 29 90 22 91 24 92 28 93 23 94 25 95 27 96 26 97
REMARK H PARENT 3 5 86 23 54 34 7 75 19 87
REMARK Flexibility Score: inf
ROOT
ATOM      1  C   UNL A   1      32.832  32.024  27.219  1.00  0.00     0.118 C 
ENDROOT
BRANCH   1   2
ATOM      2  N   UNL A   1      32.584  33.436  27.458  1.00  0.00    -0.352 N 
ATOM      3  O   UNL A   1      32.629  35.359  28.623  1.00  0.00    -0.269 OA
ATOM      4  C   UNL A   1      33.131  34.261  28.410  1.00  0.00     0.251 C 
ATOM      5  H   UNL A   1      31.934  33.861  26.853  1.00  0.00     0.163 HD
BRANCH   4   6
ATOM      6  C   UNL A   1      34.326  33.824  29.167  1.00  0.00     0.039 A 
ATOM      7  C   UNL A   1      34.197  32.934  30.238  1.00  0.00     0.014 A 
ATOM      8  C   UNL A   1      35.591  34.259  28.764  1.00  0.00     0.014 A 
ATOM      9  C   UNL A   1      35.319  32.555  30.965  1.00  0.00     0.010 A 
ATOM     10  C   UNL A   1      36.727  33.805  29.439  1.00  0.00     0.010 A 
ATOM     11  C   UNL A   1      36.598  32.947  30.542  1.00  0.00    -0.014 A 
BRANCH  11  12
ATOM     12  C   UNL A   1      37.788  32.321  31.170  1.00  0.00     0.031 A 
ATOM     13  C   UNL A   1      38.520  31.192  30.507  1.00  0.00     0.074 A 
ATOM     14  C   UNL A   1      38.183  32.789  32.372  1.00  0.00     0.049 A 
ATOM     15  N   UNL A   1      39.544  30.508  30.948  1.00  0.00    -0.248 NA
ATOM     16  C   UNL A   1      38.043  30.769  29.182  1.00  0.00     0.031 C 
ATOM     17  C   UNL A   1      37.531  33.882  33.103  1.00  0.00     0.029 A 
ATOM     18  N   UNL A   1      39.215  32.418  33.196  1.00  0.00    -0.354 N 
ATOM     19  C   UNL A   1      39.823  29.560  29.971  1.00  0.00     0.074 A 
ATOM     20  C   UNL A   1      38.851  29.750  28.915  1.00  0.00     0.031 C 
ATOM     21  C   UNL A   1      38.190  34.106  34.247  1.00  0.00     0.029 A 
ATOM     22  C   UNL A   1      39.254  33.121  34.379  1.00  0.00     0.049 A 
ATOM     23  H   UNL A   1      39.866  31.717  32.962  1.00  0.00     0.167 HD
ATOM     24  C   UNL A   1      40.800  28.621  29.971  1.00  0.00     0.034 A 
ATOM     25  C   UNL A   1      40.023  32.959  35.472  1.00  0.00     0.034 A 
ATOM     26  C   UNL A   1      41.760  28.463  31.038  1.00  0.00     0.049 A 
ATOM     27  C   UNL A   1      41.057  31.864  35.460  1.00  0.00     0.074 A 
ATOM     28  C   UNL A   1      42.839  27.598  31.100  1.00  0.00     0.029 A 
ATOM     29  N   UNL A   1      41.743  29.162  32.238  1.00  0.00    -0.354 N 
ATOM     30  N   UNL A   1      41.351  31.022  34.496  1.00  0.00    -0.248 NA
ATOM     31  C   UNL A   1      41.857  31.692  36.678  1.00  0.00     0.031 C 
ATOM     32  C   UNL A   1      43.415  27.707  32.369  1.00  0.00     0.029 A 
ATOM     33  C   UNL A   1      42.754  28.702  33.070  1.00  0.00     0.049 A 
ATOM     34  H   UNL A   1      41.107  29.877  32.467  1.00  0.00     0.167 HD
ATOM     35  C   UNL A   1      42.381  30.229  34.992  1.00  0.00     0.074 A 
ATOM     36  C   UNL A   1      42.678  30.716  36.322  1.00  0.00     0.031 C 
ATOM     37  C   UNL A   1      43.020  29.188  34.403  1.00  0.00     0.034 A 
BRANCH  24  38
ATOM     38  C   UNL A   1      40.860  27.648  28.819  1.00  0.00     0.023 A 
ATOM     39  C   UNL A   1      41.803  27.768  27.783  1.00  0.00     0.031 A 
ATOM     40  C   UNL A   1      39.984  26.547  28.791  1.00  0.00     0.131 A 
ATOM     41  C   UNL A   1      41.828  26.818  26.749  1.00  0.00     0.055 A 
ATOM     42  C   UNL A   1      40.055  25.573  27.794  1.00  0.00     0.041 A 
ATOM     43  F   UNL A   1      39.050  26.394  29.743  1.00  0.00    -0.206 F 
ATOM     44  C   UNL A   1      40.977  25.708  26.762  1.00  0.00     0.022 A 
BRANCH  41  45
ATOM     45  S   UNL A   1      42.932  27.093  25.336  1.00  0.00     0.124 S 
ATOM     46  O   UNL A   1      42.849  25.813  24.640  1.00  0.00    -0.237 OA
ATOM     47  O   UNL A   1      42.308  28.228  24.665  1.00  0.00    -0.237 OA
ATOM     48  O   UNL A   1      44.224  27.373  25.960  1.00  0.00    -0.744 OA
ENDBRANCH  41  45
ENDBRANCH  24  38
BRANCH  25  49
ATOM     49  C   UNL A   1      39.797  33.790  36.690  1.00  0.00     0.023 A 
ATOM     50  C   UNL A   1      39.222  33.243  37.846  1.00  0.00     0.031 A 
ATOM     51  C   UNL A   1      40.090  35.168  36.692  1.00  0.00     0.131 A 
ATOM     52  C   UNL A   1      38.897  34.076  38.927  1.00  0.00     0.055 A 
ATOM     53  C   UNL A   1      39.834  35.978  37.799  1.00  0.00     0.041 A 
ATOM     54  F   UNL A   1      40.637  35.749  35.612  1.00  0.00    -0.206 F 
ATOM     55  C   UNL A   1      39.215  35.435  38.919  1.00  0.00     0.022 A 
BRANCH  52  56
ATOM     56  S   UNL A   1      37.922  33.380  40.289  1.00  0.00     0.124 S 
ATOM     57  O   UNL A   1      38.759  32.264  40.712  1.00  0.00    -0.237 OA
ATOM     58  O   UNL A   1      37.843  34.509  41.210  1.00  0.00    -0.237 OA
ATOM     59  O   UNL A   1      36.662  33.009  39.650  1.00  0.00    -0.744 OA
ENDBRANCH  52  56
ENDBRANCH  25  49
BRANCH  37  60
ATOM     60  C   UNL A   1      44.116  28.526  35.198  1.00  0.00     0.023 A 
ATOM     61  C   UNL A   1      43.844  27.458  36.071  1.00  0.00     0.031 A 
ATOM     62  C   UNL A   1      45.445  28.971  35.087  1.00  0.00     0.131 A 
ATOM     63  C   UNL A   1      44.880  26.902  36.837  1.00  0.00     0.055 A 
ATOM     64  C   UNL A   1      46.481  28.371  35.802  1.00  0.00     0.041 A 
ATOM     65  F   UNL A   1      45.758  29.991  34.273  1.00  0.00    -0.206 F 
ATOM     66  C   UNL A   1      46.200  27.338  36.692  1.00  0.00     0.022 A 
BRANCH  63  67
ATOM     67  S   UNL A   1      44.466  25.652  38.083  1.00  0.00     0.124 S 
ATOM     68  O   UNL A   1      43.361  24.944  37.446  1.00  0.00    -0.237 OA
ATOM     69  O   UNL A   1      45.713  24.906  38.208  1.00  0.00    -0.237 OA
ATOM     70  O   UNL A   1      44.100  26.446  39.255  1.00  0.00    -0.744 OA
ENDBRANCH  63  67
ENDBRANCH  37  60
ENDBRANCH  11  12
ENDBRANCH   4   6
ENDBRANCH   1   2
BRANCH   1  71
ATOM     71  C   UNL A   1      31.677  31.354  26.491  1.00  0.00     0.042 C 
BRANCH  71  72
ATOM     72  C   UNL A   1      32.018  29.978  25.928  1.00  0.00     0.117 C 
BRANCH  72  73
ATOM     73  N   UNL A   1      31.664  29.846  24.531  1.00  0.00    -0.356 N 
ATOM     74  C   UNL A   1      31.617  28.780  23.700  1.00  0.00     0.224 C 
ATOM     75  H   UNL A   1      31.407  30.695  24.104  1.00  0.00     0.163 HD
ATOM     76  O   UNL A   1      31.116  28.996  22.591  1.00  0.00    -0.275 OA
BRANCH  74  77
ATOM     77  C   UNL A   1      32.036  27.361  24.107  1.00  0.00     0.094 C 
ATOM     78  C   UNL A   1      31.028  26.847  25.198  1.00  0.00     0.002 C 
ATOM     79  C   UNL A   1      31.964  26.224  23.068  1.00  0.00     0.094 C 
ATOM     80  C   UNL A   1      29.575  26.789  24.666  1.00  0.00     0.005 C 
ATOM     81  C   UNL A   1      31.324  25.357  25.255  1.00  0.00     0.009 C 
ATOM     82  C   UNL A   1      31.084  25.153  23.761  1.00  0.00     0.002 C 
ATOM     83  C   UNL A   1      29.614  25.615  23.676  1.00  0.00     0.005 C 
BRANCH  79  84
ATOM     84  C   UNL A   1      33.289  25.757  22.421  1.00  0.00     0.224 C 
ATOM     85  O   UNL A   1      33.673  26.330  21.392  1.00  0.00    -0.275 OA
ATOM     86  N   UNL A   1      34.136  24.801  22.878  1.00  0.00    -0.349 N 
ATOM     87  H   UNL A   1      35.060  24.878  22.545  1.00  0.00     0.164 HD
BRANCH  86  88
ATOM     88  C   UNL A   1      33.910  23.684  23.771  1.00  0.00     0.112 C 
ATOM     89  C   UNL A   1      33.135  22.601  23.009  1.00  0.00     0.030 C 
ATOM     90  C   UNL A   1      35.159  23.063  24.393  1.00  0.00    -0.022 A 
ATOM     91  C   UNL A   1      32.757  21.478  23.953  1.00  0.00     0.007 C 
ATOM     92  C   UNL A   1      35.157  21.691  24.754  1.00  0.00    -0.043 A 
ATOM     93  C   UNL A   1      36.270  23.846  24.745  1.00  0.00     0.006 A 
ATOM     94  C   UNL A   1      34.016  20.760  24.411  1.00  0.00     0.036 C 
ATOM     95  C   UNL A   1      36.266  21.136  25.411  1.00  0.00     0.004 A 
ATOM     96  C   UNL A   1      37.365  23.278  25.407  1.00  0.00     0.000 A 
ATOM     97  C   UNL A   1      37.361  21.925  25.739  1.00  0.00     0.000 A 
ENDBRANCH  86  88
ENDBRANCH  79  84
ENDBRANCH  74  77
ENDBRANCH  72  73
ENDBRANCH  71  72
ENDBRANCH   1  71
TORSDOF 15
ENDMDL
