MODEL 1
REMARK VINA RESULT:     -11.9      0.000      0.000
REMARK SMILES O=C(CCCN1C(=O)/C(=C\c2ccc(O)c(O)c2)SC1=S)NCCCNC(=O)c1ccc(-c2c3nc(c(-c4cc(S(=O)(=O)[O-])ccc4F)c4ccc([nH]4)c(-c4cc(S(=O)(=O)[O-])ccc4F)c4nc(c(-c5cc(S(=O)(=O)[O-])ccc5F)c5ccc2[nH]5)C=C4)C=C3)cc1
REMARK SMILES IDX 23 1 22 2 1 3 2 4 3 6 4 7 5 8 6 9 7 10 20 11 8 12 9 13 19 14
REMARK SMILES IDX 21 15 10 16 11 17 12 18 18 19 13 20 16 21 14 22 17 23 15 25
REMARK SMILES IDX 24 27 25 28 26 29 27 30 28 32 29 33 30 34 91 35 31 36 90 37
REMARK SMILES IDX 32 38 33 39 34 40 84 41 35 42 89 43 83 44 85 45 36 46 88 47
REMARK SMILES IDX 82 48 81 49 37 51 69 52 49 53 68 54 50 55 53 56 67 57 86 58
REMARK SMILES IDX 51 59 52 60 66 62 87 63 54 64 38 65 39 66 47 67 40 68 46 69
REMARK SMILES IDX 48 70 45 71 41 72 42 73 43 74 44 75 70 76 71 77 79 78 72 79
REMARK SMILES IDX 78 80 80 81 77 82 73 83 74 84 75 85 76 86 55 87 56 88 64 89
REMARK SMILES IDX 57 90 63 91 65 92 62 93 58 94 59 95 60 96 61 97
REMARK H PARENT 22 5 17 24 15 26 26 31 85 50 53 61
REMARK Flexibility Score: inf
ROOT
ATOM      1  C   UNL A   1      31.640  30.428  25.450  1.00  0.00     0.117 C 
ENDROOT
BRANCH   1   2
ATOM      2  N   UNL A   1      31.485  29.066  25.929  1.00  0.00    -0.356 N 
ATOM      3  O   UNL A   1      33.557  28.362  25.233  1.00  0.00    -0.275 OA
ATOM      4  C   UNL A   1      32.477  28.128  25.767  1.00  0.00     0.220 C 
ATOM      5  H   UNL A   1      30.649  28.808  26.381  1.00  0.00     0.163 HD
BRANCH   4   6
ATOM      6  C   UNL A   1      32.140  26.749  26.288  1.00  0.00     0.102 C 
BRANCH   6   7
ATOM      7  C   UNL A   1      30.670  26.382  26.117  1.00  0.00     0.032 C 
BRANCH   7   8
ATOM      8  C   UNL A   1      30.170  26.221  24.678  1.00  0.00     0.128 C 
BRANCH   8   9
ATOM      9  N   UNL A   1      31.064  25.585  23.697  1.00  0.00    -0.293 N 
ATOM     10  C   UNL A   1      31.365  24.245  23.899  1.00  0.00     0.266 C 
ATOM     11  C   UNL A   1      31.766  26.209  22.689  1.00  0.00     0.148 C 
ATOM     12  O   UNL A   1      30.811  23.563  24.746  1.00  0.00    -0.268 OA
ATOM     13  C   UNL A   1      32.408  23.764  22.936  1.00  0.00     0.081 C 
ATOM     14  S   UNL A   1      32.732  25.030  21.806  1.00  0.00    -0.054 SA
ATOM     15  S   UNL A   1      31.786  27.826  22.280  1.00  0.00    -0.052 S 
ATOM     16  C   UNL A   1      33.078  22.597  22.913  1.00  0.00     0.029 C 
BRANCH  16  17
ATOM     17  C   UNL A   1      32.966  21.505  23.893  1.00  0.00    -0.020 A 
ATOM     18  C   UNL A   1      33.458  21.653  25.191  1.00  0.00     0.012 A 
ATOM     19  C   UNL A   1      32.384  20.283  23.536  1.00  0.00     0.058 A 
ATOM     20  C   UNL A   1      33.516  20.571  26.065  1.00  0.00     0.051 A 
ATOM     21  C   UNL A   1      32.381  19.228  24.446  1.00  0.00     0.157 A 
ATOM     22  C   UNL A   1      32.959  19.363  25.700  1.00  0.00     0.157 A 
BRANCH  21  23
ATOM     23  O   UNL A   1      31.827  18.035  24.085  1.00  0.00    -0.504 OA
ATOM     24  H   UNL A   1      32.325  17.420  23.584  1.00  0.00     0.293 HD
ENDBRANCH  21  23
BRANCH  22  25
ATOM     25  O   UNL A   1      32.973  18.295  26.549  1.00  0.00    -0.504 OA
ATOM     26  H   UNL A   1      33.357  18.377  27.399  1.00  0.00     0.293 HD
ENDBRANCH  22  25
ENDBRANCH  16  17
ENDBRANCH   8   9
ENDBRANCH   7   8
ENDBRANCH   6   7
ENDBRANCH   4   6
ENDBRANCH   1   2
BRANCH   1  27
ATOM     27  C   UNL A   1      31.473  31.460  26.562  1.00  0.00     0.042 C 
BRANCH  27  28
ATOM     28  C   UNL A   1      32.780  32.047  27.081  1.00  0.00     0.118 C 
BRANCH  28  29
ATOM     29  N   UNL A   1      32.649  33.433  27.494  1.00  0.00    -0.352 N 
ATOM     30  C   UNL A   1      33.288  34.170  28.457  1.00  0.00     0.251 C 
ATOM     31  H   UNL A   1      31.972  33.939  26.987  1.00  0.00     0.163 HD
ATOM     32  O   UNL A   1      32.877  35.313  28.661  1.00  0.00    -0.269 OA
BRANCH  30  33
ATOM     33  C   UNL A   1      34.485  33.690  29.202  1.00  0.00     0.039 A 
ATOM     34  C   UNL A   1      34.268  32.833  30.290  1.00  0.00     0.014 A 
ATOM     35  C   UNL A   1      35.783  34.154  28.959  1.00  0.00     0.014 A 
ATOM     36  C   UNL A   1      35.339  32.404  31.079  1.00  0.00     0.010 A 
ATOM     37  C   UNL A   1      36.858  33.700  29.718  1.00  0.00     0.010 A 
ATOM     38  C   UNL A   1      36.645  32.805  30.767  1.00  0.00    -0.014 A 
BRANCH  38  39
ATOM     39  C   UNL A   1      37.814  32.160  31.400  1.00  0.00     0.031 A 
ATOM     40  C   UNL A   1      38.536  31.025  30.745  1.00  0.00     0.074 A 
ATOM     41  C   UNL A   1      38.120  32.555  32.650  1.00  0.00     0.049 A 
ATOM     42  N   UNL A   1      39.559  30.340  31.188  1.00  0.00    -0.248 NA
ATOM     43  C   UNL A   1      38.031  30.579  29.438  1.00  0.00     0.031 C 
ATOM     44  C   UNL A   1      37.403  33.594  33.398  1.00  0.00     0.029 A 
ATOM     45  N   UNL A   1      39.084  32.128  33.521  1.00  0.00    -0.354 N 
ATOM     46  C   UNL A   1      39.835  29.391  30.212  1.00  0.00     0.074 A 
ATOM     47  C   UNL A   1      38.830  29.551  29.180  1.00  0.00     0.031 C 
ATOM     48  C   UNL A   1      37.964  33.733  34.606  1.00  0.00     0.029 A 
ATOM     49  C   UNL A   1      39.053  32.775  34.733  1.00  0.00     0.049 A 
ATOM     50  H   UNL A   1      39.738  31.425  33.300  1.00  0.00     0.167 HD
ATOM     51  C   UNL A   1      40.846  28.486  30.183  1.00  0.00     0.034 A 
ATOM     52  C   UNL A   1      39.817  32.610  35.827  1.00  0.00     0.034 A 
ATOM     53  C   UNL A   1      41.808  28.335  31.253  1.00  0.00     0.049 A 
ATOM     54  C   UNL A   1      40.926  31.596  35.772  1.00  0.00     0.074 A 
ATOM     55  C   UNL A   1      42.910  27.498  31.315  1.00  0.00     0.029 A 
ATOM     56  N   UNL A   1      41.770  29.022  32.464  1.00  0.00    -0.354 N 
ATOM     57  N   UNL A   1      41.244  30.773  34.798  1.00  0.00    -0.248 NA
ATOM     58  C   UNL A   1      41.795  31.509  36.947  1.00  0.00     0.031 C 
ATOM     59  C   UNL A   1      43.485  27.621  32.585  1.00  0.00     0.029 A 
ATOM     60  C   UNL A   1      42.804  28.602  33.288  1.00  0.00     0.049 A 
ATOM     61  H   UNL A   1      41.104  29.708  32.700  1.00  0.00     0.167 HD
ATOM     62  C   UNL A   1      42.375  30.092  35.233  1.00  0.00     0.074 A 
ATOM     63  C   UNL A   1      42.691  30.621  36.546  1.00  0.00     0.031 C 
ATOM     64  C   UNL A   1      43.091  29.124  34.606  1.00  0.00     0.034 A 
BRANCH  51  65
ATOM     65  C   UNL A   1      40.948  27.582  28.975  1.00  0.00     0.023 A 
ATOM     66  C   UNL A   1      41.945  27.766  28.000  1.00  0.00     0.031 A 
ATOM     67  C   UNL A   1      40.045  26.520  28.791  1.00  0.00     0.131 A 
ATOM     68  C   UNL A   1      41.976  26.949  26.859  1.00  0.00     0.055 A 
ATOM     69  C   UNL A   1      40.128  25.660  27.692  1.00  0.00     0.041 A 
ATOM     70  F   UNL A   1      39.057  26.301  29.674  1.00  0.00    -0.206 F 
ATOM     71  C   UNL A   1      41.090  25.881  26.711  1.00  0.00     0.022 A 
BRANCH  68  72
ATOM     72  S   UNL A   1      43.108  27.385  25.510  1.00  0.00     0.124 S 
ATOM     73  O   UNL A   1      44.167  28.089  26.228  1.00  0.00    -0.237 OA
ATOM     74  O   UNL A   1      43.465  26.081  24.964  1.00  0.00    -0.237 OA
ATOM     75  O   UNL A   1      42.291  28.225  24.636  1.00  0.00    -0.744 OA
ENDBRANCH  68  72
ENDBRANCH  51  65
BRANCH  52  76
ATOM     76  C   UNL A   1      39.576  33.439  37.039  1.00  0.00     0.023 A 
ATOM     77  C   UNL A   1      38.957  32.891  38.172  1.00  0.00     0.031 A 
ATOM     78  C   UNL A   1      39.952  34.793  37.082  1.00  0.00     0.131 A 
ATOM     79  C   UNL A   1      38.687  33.703  39.282  1.00  0.00     0.055 A 
ATOM     80  C   UNL A   1      39.734  35.584  38.212  1.00  0.00     0.041 A 
ATOM     81  F   UNL A   1      40.563  35.363  36.031  1.00  0.00    -0.206 F 
ATOM     82  C   UNL A   1      39.083  35.042  39.316  1.00  0.00     0.022 A 
BRANCH  79  83
ATOM     83  S   UNL A   1      37.724  33.004  40.650  1.00  0.00     0.124 S 
ATOM     84  O   UNL A   1      38.269  31.654  40.736  1.00  0.00    -0.237 OA
ATOM     85  O   UNL A   1      38.063  33.903  41.748  1.00  0.00    -0.237 OA
ATOM     86  O   UNL A   1      36.346  33.093  40.176  1.00  0.00    -0.744 OA
ENDBRANCH  79  83
ENDBRANCH  52  76
BRANCH  64  87
ATOM     87  C   UNL A   1      44.311  28.610  35.332  1.00  0.00     0.023 A 
ATOM     88  C   UNL A   1      44.229  27.561  36.265  1.00  0.00     0.031 A 
ATOM     89  C   UNL A   1      45.565  29.209  35.120  1.00  0.00     0.131 A 
ATOM     90  C   UNL A   1      45.361  27.200  37.010  1.00  0.00     0.055 A 
ATOM     91  C   UNL A   1      46.705  28.791  35.808  1.00  0.00     0.041 A 
ATOM     92  F   UNL A   1      45.702  30.219  34.246  1.00  0.00    -0.206 F 
ATOM     93  C   UNL A   1      46.603  27.794  36.773  1.00  0.00     0.022 A 
BRANCH  90  94
ATOM     94  S   UNL A   1      45.159  26.036  38.386  1.00  0.00     0.124 S 
ATOM     95  O   UNL A   1      44.952  24.772  37.684  1.00  0.00    -0.237 OA
ATOM     96  O   UNL A   1      46.427  26.169  39.096  1.00  0.00    -0.237 OA
ATOM     97  O   UNL A   1      43.991  26.548  39.100  1.00  0.00    -0.744 OA
ENDBRANCH  90  94
ENDBRANCH  64  87
ENDBRANCH  38  39
ENDBRANCH  30  33
ENDBRANCH  28  29
ENDBRANCH  27  28
ENDBRANCH   1  27
TORSDOF 19
ENDMDL
MODEL 2
REMARK VINA RESULT:     -11.9      2.456      7.840
REMARK SMILES O=C(CCCN1C(=O)/C(=C\c2ccc(O)c(O)c2)SC1=S)NCCCNC(=O)c1ccc(-c2c3nc(c(-c4cc(S(=O)(=O)[O-])ccc4F)c4ccc([nH]4)c(-c4cc(S(=O)(=O)[O-])ccc4F)c4nc(c(-c5cc(S(=O)(=O)[O-])ccc5F)c5ccc2[nH]5)C=C4)C=C3)cc1
REMARK SMILES IDX 23 1 22 2 1 3 2 4 3 6 4 7 5 8 6 9 7 10 20 11 8 12 9 13 19 14
REMARK SMILES IDX 21 15 10 16 11 17 12 18 18 19 13 20 16 21 14 22 17 23 15 25
REMARK SMILES IDX 24 27 25 28 26 29 27 30 28 32 29 33 30 34 91 35 31 36 90 37
REMARK SMILES IDX 32 38 33 39 34 40 84 41 35 42 89 43 83 44 85 45 36 46 88 47
REMARK SMILES IDX 82 48 81 49 37 51 69 52 49 53 68 54 50 55 53 56 67 57 86 58
REMARK SMILES IDX 51 59 52 60 66 62 87 63 54 64 38 65 39 66 47 67 40 68 46 69
REMARK SMILES IDX 48 70 45 71 41 72 42 73 43 74 44 75 70 76 71 77 79 78 72 79
REMARK SMILES IDX 78 80 80 81 77 82 73 83 74 84 75 85 76 86 55 87 56 88 64 89
REMARK SMILES IDX 57 90 63 91 65 92 62 93 58 94 59 95 60 96 61 97
REMARK H PARENT 22 5 17 24 15 26 26 31 85 50 53 61
REMARK Flexibility Score: inf
ROOT
ATOM      1  C   UNL A   1      31.853  29.199  24.079  1.00  0.00     0.117 C 
ENDROOT
BRANCH   1   2
ATOM      2  N   UNL A   1      31.219  27.916  24.329  1.00  0.00    -0.356 N 
ATOM      3  O   UNL A   1      30.219  27.769  22.268  1.00  0.00    -0.275 OA
ATOM      4  C   UNL A   1      30.433  27.303  23.383  1.00  0.00     0.220 C 
ATOM      5  H   UNL A   1      31.357  27.475  25.199  1.00  0.00     0.163 HD
BRANCH   4   6
ATOM      6  C   UNL A   1      29.818  25.993  23.819  1.00  0.00     0.102 C 
BRANCH   6   7
ATOM      7  C   UNL A   1      30.660  24.777  23.445  1.00  0.00     0.032 C 
BRANCH   7   8
ATOM      8  C   UNL A   1      31.036  23.829  24.588  1.00  0.00     0.128 C 
BRANCH   8   9
ATOM      9  N   UNL A   1      32.435  23.384  24.694  1.00  0.00    -0.293 N 
ATOM     10  C   UNL A   1      32.673  22.025  24.548  1.00  0.00     0.266 C 
ATOM     11  C   UNL A   1      33.518  24.143  25.081  1.00  0.00     0.148 C 
ATOM     12  O   UNL A   1      31.812  21.236  24.196  1.00  0.00    -0.268 OA
ATOM     13  C   UNL A   1      34.103  21.683  24.840  1.00  0.00     0.081 C 
ATOM     14  S   UNL A   1      34.976  23.153  25.091  1.00  0.00    -0.054 SA
ATOM     15  S   UNL A   1      33.562  25.755  25.507  1.00  0.00    -0.052 S 
ATOM     16  C   UNL A   1      34.685  20.476  24.969  1.00  0.00     0.029 C 
BRANCH  16  17
ATOM     17  C   UNL A   1      34.013  19.169  24.894  1.00  0.00    -0.020 A 
ATOM     18  C   UNL A   1      33.023  18.819  25.813  1.00  0.00     0.012 A 
ATOM     19  C   UNL A   1      34.372  18.238  23.912  1.00  0.00     0.058 A 
ATOM     20  C   UNL A   1      32.511  17.524  25.858  1.00  0.00     0.051 A 
ATOM     21  C   UNL A   1      33.797  16.968  23.922  1.00  0.00     0.157 A 
ATOM     22  C   UNL A   1      32.883  16.605  24.901  1.00  0.00     0.157 A 
BRANCH  21  23
ATOM     23  O   UNL A   1      34.164  16.062  22.972  1.00  0.00    -0.504 OA
ATOM     24  H   UNL A   1      35.047  16.043  22.658  1.00  0.00     0.293 HD
ENDBRANCH  21  23
BRANCH  22  25
ATOM     25  O   UNL A   1      32.373  15.340  24.901  1.00  0.00    -0.504 OA
ATOM     26  H   UNL A   1      31.447  15.208  24.953  1.00  0.00     0.293 HD
ENDBRANCH  22  25
ENDBRANCH  16  17
ENDBRANCH   8   9
ENDBRANCH   7   8
ENDBRANCH   6   7
ENDBRANCH   4   6
ENDBRANCH   1   2
BRANCH   1  27
ATOM     27  C   UNL A   1      32.771  29.629  25.220  1.00  0.00     0.042 C 
BRANCH  27  28
ATOM     28  C   UNL A   1      32.043  30.117  26.466  1.00  0.00     0.118 C 
BRANCH  28  29
ATOM     29  N   UNL A   1      32.180  31.548  26.673  1.00  0.00    -0.352 N 
ATOM     30  C   UNL A   1      33.071  32.291  27.402  1.00  0.00     0.251 C 
ATOM     31  H   UNL A   1      31.504  32.086  26.199  1.00  0.00     0.163 HD
ATOM     32  O   UNL A   1      32.865  33.502  27.484  1.00  0.00    -0.269 OA
BRANCH  30  33
ATOM     33  C   UNL A   1      34.299  31.725  28.027  1.00  0.00     0.039 A 
ATOM     34  C   UNL A   1      35.389  32.588  28.206  1.00  0.00     0.014 A 
ATOM     35  C   UNL A   1      34.464  30.365  28.312  1.00  0.00     0.014 A 
ATOM     36  C   UNL A   1      36.597  32.108  28.718  1.00  0.00     0.010 A 
ATOM     37  C   UNL A   1      35.654  29.888  28.856  1.00  0.00     0.010 A 
ATOM     38  C   UNL A   1      36.717  30.761  29.084  1.00  0.00    -0.014 A 
BRANCH  38  39
ATOM     39  C   UNL A   1      37.872  30.284  29.874  1.00  0.00     0.031 A 
ATOM     40  C   UNL A   1      38.150  30.800  31.251  1.00  0.00     0.074 A 
ATOM     41  C   UNL A   1      38.736  29.461  29.249  1.00  0.00     0.049 A 
ATOM     42  N   UNL A   1      39.137  30.499  32.055  1.00  0.00    -0.248 NA
ATOM     43  C   UNL A   1      37.218  31.803  31.787  1.00  0.00     0.031 C 
ATOM     44  C   UNL A   1      38.586  28.985  27.869  1.00  0.00     0.029 A 
ATOM     45  N   UNL A   1      39.909  28.898  29.667  1.00  0.00    -0.354 N 
ATOM     46  C   UNL A   1      38.942  31.261  33.201  1.00  0.00     0.074 A 
ATOM     47  C   UNL A   1      37.774  32.084  32.959  1.00  0.00     0.031 C 
ATOM     48  C   UNL A   1      39.619  28.189  27.563  1.00  0.00     0.029 A 
ATOM     49  C   UNL A   1      40.518  28.127  28.707  1.00  0.00     0.049 A 
ATOM     50  H   UNL A   1      40.281  29.033  30.569  1.00  0.00     0.167 HD
ATOM     51  C   UNL A   1      39.669  31.253  34.346  1.00  0.00     0.034 A 
ATOM     52  C   UNL A   1      41.678  27.446  28.745  1.00  0.00     0.034 A 
ATOM     53  C   UNL A   1      40.851  30.441  34.532  1.00  0.00     0.049 A 
ATOM     54  C   UNL A   1      42.467  27.459  30.024  1.00  0.00     0.074 A 
ATOM     55  C   UNL A   1      41.636  30.302  35.665  1.00  0.00     0.029 A 
ATOM     56  N   UNL A   1      41.436  29.646  33.550  1.00  0.00    -0.354 N 
ATOM     57  N   UNL A   1      42.217  28.104  31.141  1.00  0.00    -0.248 NA
ATOM     58  C   UNL A   1      43.676  26.632  30.058  1.00  0.00     0.031 C 
ATOM     59  C   UNL A   1      42.732  29.491  35.345  1.00  0.00     0.029 A 
ATOM     60  C   UNL A   1      42.587  29.045  34.041  1.00  0.00     0.049 A 
ATOM     61  H   UNL A   1      41.083  29.527  32.639  1.00  0.00     0.167 HD
ATOM     62  C   UNL A   1      43.223  27.732  32.025  1.00  0.00     0.074 A 
ATOM     63  C   UNL A   1      44.066  26.791  31.314  1.00  0.00     0.031 C 
ATOM     64  C   UNL A   1      43.430  28.126  33.308  1.00  0.00     0.034 A 
BRANCH  51  65
ATOM     65  C   UNL A   1      39.220  32.160  35.470  1.00  0.00     0.023 A 
ATOM     66  C   UNL A   1      39.649  33.497  35.554  1.00  0.00     0.031 A 
ATOM     67  C   UNL A   1      38.348  31.693  36.469  1.00  0.00     0.131 A 
ATOM     68  C   UNL A   1      39.263  34.296  36.642  1.00  0.00     0.055 A 
ATOM     69  C   UNL A   1      37.903  32.515  37.509  1.00  0.00     0.041 A 
ATOM     70  F   UNL A   1      37.915  30.421  36.460  1.00  0.00    -0.206 F 
ATOM     71  C   UNL A   1      38.373  33.821  37.607  1.00  0.00     0.022 A 
BRANCH  68  72
ATOM     72  S   UNL A   1      40.047  35.919  36.847  1.00  0.00     0.124 S 
ATOM     73  O   UNL A   1      39.346  36.441  38.017  1.00  0.00    -0.237 OA
ATOM     74  O   UNL A   1      41.449  35.569  37.046  1.00  0.00    -0.237 OA
ATOM     75  O   UNL A   1      39.747  36.605  35.592  1.00  0.00    -0.744 OA
ENDBRANCH  68  72
ENDBRANCH  51  65
BRANCH  52  76
ATOM     76  C   UNL A   1      42.135  26.681  27.552  1.00  0.00     0.023 A 
ATOM     77  C   UNL A   1      41.858  25.312  27.428  1.00  0.00     0.031 A 
ATOM     78  C   UNL A   1      42.863  27.304  26.523  1.00  0.00     0.131 A 
ATOM     79  C   UNL A   1      42.347  24.597  26.325  1.00  0.00     0.055 A 
ATOM     80  C   UNL A   1      43.297  26.601  25.398  1.00  0.00     0.041 A 
ATOM     81  F   UNL A   1      43.141  28.616  26.584  1.00  0.00    -0.206 F 
ATOM     82  C   UNL A   1      43.052  25.234  25.302  1.00  0.00     0.022 A 
BRANCH  79  83
ATOM     83  S   UNL A   1      42.124  22.799  26.295  1.00  0.00     0.124 S 
ATOM     84  O   UNL A   1      40.679  22.676  26.451  1.00  0.00    -0.237 OA
ATOM     85  O   UNL A   1      42.658  22.451  24.982  1.00  0.00    -0.237 OA
ATOM     86  O   UNL A   1      42.918  22.339  27.431  1.00  0.00    -0.744 OA
ENDBRANCH  79  83
ENDBRANCH  52  76
BRANCH  64  87
ATOM     87  C   UNL A   1      44.601  27.498  34.026  1.00  0.00     0.023 A 
ATOM     88  C   UNL A   1      44.486  26.264  34.691  1.00  0.00     0.031 A 
ATOM     89  C   UNL A   1      45.836  28.167  34.083  1.00  0.00     0.131 A 
ATOM     90  C   UNL A   1      45.559  25.779  35.452  1.00  0.00     0.055 A 
ATOM     91  C   UNL A   1      46.926  27.638  34.777  1.00  0.00     0.041 A 
ATOM     92  F   UNL A   1      46.003  29.350  33.473  1.00  0.00    -0.206 F 
ATOM     93  C   UNL A   1      46.785  26.447  35.482  1.00  0.00     0.022 A 
BRANCH  90  94
ATOM     94  S   UNL A   1      45.288  24.329  36.508  1.00  0.00     0.124 S 
ATOM     95  O   UNL A   1      44.687  24.930  37.695  1.00  0.00    -0.237 OA
ATOM     96  O   UNL A   1      44.400  23.510  35.690  1.00  0.00    -0.237 OA
ATOM     97  O   UNL A   1      46.631  23.787  36.699  1.00  0.00    -0.744 OA
ENDBRANCH  90  94
ENDBRANCH  64  87
ENDBRANCH  38  39
ENDBRANCH  30  33
ENDBRANCH  28  29
ENDBRANCH  27  28
ENDBRANCH   1  27
TORSDOF 19
ENDMDL
MODEL 3
REMARK VINA RESULT:     -11.8      2.753      8.706
REMARK SMILES O=C(CCCN1C(=O)/C(=C\c2ccc(O)c(O)c2)SC1=S)NCCCNC(=O)c1ccc(-c2c3nc(c(-c4cc(S(=O)(=O)[O-])ccc4F)c4ccc([nH]4)c(-c4cc(S(=O)(=O)[O-])ccc4F)c4nc(c(-c5cc(S(=O)(=O)[O-])ccc5F)c5ccc2[nH]5)C=C4)C=C3)cc1
REMARK SMILES IDX 23 1 22 2 1 3 2 4 3 6 4 7 5 8 6 9 7 10 20 11 8 12 9 13 19 14
REMARK SMILES IDX 21 15 10 16 11 17 12 18 18 19 13 20 16 21 14 22 17 23 15 25
REMARK SMILES IDX 24 27 25 28 26 29 27 30 28 32 29 33 30 34 91 35 31 36 90 37
REMARK SMILES IDX 32 38 33 39 34 40 84 41 35 42 89 43 83 44 85 45 36 46 88 47
REMARK SMILES IDX 82 48 81 49 37 51 69 52 49 53 68 54 50 55 53 56 67 57 86 58
REMARK SMILES IDX 51 59 52 60 66 62 87 63 54 64 38 65 39 66 47 67 40 68 46 69
REMARK SMILES IDX 48 70 45 71 41 72 42 73 43 74 44 75 70 76 71 77 79 78 72 79
REMARK SMILES IDX 78 80 80 81 77 82 73 83 74 84 75 85 76 86 55 87 56 88 64 89
REMARK SMILES IDX 57 90 63 91 65 92 62 93 58 94 59 95 60 96 61 97
REMARK H PARENT 22 5 17 24 15 26 26 31 85 50 53 61
REMARK Flexibility Score: inf
ROOT
ATOM      1  C   UNL A   1      31.432  31.523  26.136  1.00  0.00     0.117 C 
ENDROOT
BRANCH   1   2
ATOM      2  N   UNL A   1      31.652  30.158  26.582  1.00  0.00    -0.356 N 
ATOM      3  O   UNL A   1      33.943  30.306  26.591  1.00  0.00    -0.275 OA
ATOM      4  C   UNL A   1      32.917  29.655  26.767  1.00  0.00     0.220 C 
ATOM      5  H   UNL A   1      30.874  29.579  26.756  1.00  0.00     0.163 HD
BRANCH   4   6
ATOM      6  C   UNL A   1      32.970  28.206  27.195  1.00  0.00     0.102 C 
BRANCH   6   7
ATOM      7  C   UNL A   1      33.635  27.296  26.168  1.00  0.00     0.032 C 
BRANCH   7   8
ATOM      8  C   UNL A   1      33.218  27.496  24.707  1.00  0.00     0.128 C 
BRANCH   8   9
ATOM      9  N   UNL A   1      31.855  27.104  24.311  1.00  0.00    -0.293 N 
ATOM     10  C   UNL A   1      31.080  28.074  23.691  1.00  0.00     0.266 C 
ATOM     11  C   UNL A   1      31.205  25.932  24.631  1.00  0.00     0.148 C 
ATOM     12  O   UNL A   1      31.526  29.153  23.338  1.00  0.00    -0.268 OA
ATOM     13  C   UNL A   1      29.670  27.605  23.490  1.00  0.00     0.081 C 
ATOM     14  S   UNL A   1      29.575  25.945  23.962  1.00  0.00    -0.054 SA
ATOM     15  S   UNL A   1      31.769  24.636  25.516  1.00  0.00    -0.052 S 
ATOM     16  C   UNL A   1      28.589  28.295  23.083  1.00  0.00     0.029 C 
BRANCH  16  17
ATOM     17  C   UNL A   1      28.534  29.732  22.774  1.00  0.00    -0.020 A 
ATOM     18  C   UNL A   1      28.815  30.687  23.752  1.00  0.00     0.012 A 
ATOM     19  C   UNL A   1      28.175  30.173  21.494  1.00  0.00     0.058 A 
ATOM     20  C   UNL A   1      28.594  32.042  23.517  1.00  0.00     0.051 A 
ATOM     21  C   UNL A   1      28.028  31.537  21.251  1.00  0.00     0.157 A 
ATOM     22  C   UNL A   1      28.220  32.469  22.261  1.00  0.00     0.157 A 
BRANCH  21  23
ATOM     23  O   UNL A   1      27.662  31.958  20.006  1.00  0.00    -0.504 OA
ATOM     24  H   UNL A   1      27.626  32.874  19.813  1.00  0.00     0.293 HD
ENDBRANCH  21  23
BRANCH  22  25
ATOM     25  O   UNL A   1      28.028  33.793  21.994  1.00  0.00    -0.504 OA
ATOM     26  H   UNL A   1      28.467  34.443  22.507  1.00  0.00     0.293 HD
ENDBRANCH  22  25
ENDBRANCH  16  17
ENDBRANCH   8   9
ENDBRANCH   7   8
ENDBRANCH   6   7
ENDBRANCH   4   6
ENDBRANCH   1   2
BRANCH   1  27
ATOM     27  C   UNL A   1      31.567  32.536  27.270  1.00  0.00     0.042 C 
BRANCH  27  28
ATOM     28  C   UNL A   1      32.812  33.409  27.192  1.00  0.00     0.118 C 
BRANCH  28  29
ATOM     29  N   UNL A   1      32.787  34.510  28.139  1.00  0.00    -0.352 N 
ATOM     30  C   UNL A   1      33.454  34.725  29.316  1.00  0.00     0.251 C 
ATOM     31  H   UNL A   1      32.175  35.239  27.887  1.00  0.00     0.163 HD
ATOM     32  O   UNL A   1      33.137  35.717  29.974  1.00  0.00    -0.269 OA
BRANCH  30  33
ATOM     33  C   UNL A   1      34.580  33.875  29.793  1.00  0.00     0.039 A 
ATOM     34  C   UNL A   1      35.865  34.179  29.322  1.00  0.00     0.014 A 
ATOM     35  C   UNL A   1      34.403  32.722  30.567  1.00  0.00     0.014 A 
ATOM     36  C   UNL A   1      36.956  33.379  29.670  1.00  0.00     0.010 A 
ATOM     37  C   UNL A   1      35.492  31.942  30.946  1.00  0.00     0.010 A 
ATOM     38  C   UNL A   1      36.776  32.280  30.520  1.00  0.00    -0.014 A 
BRANCH  38  39
ATOM     39  C   UNL A   1      37.932  31.583  31.123  1.00  0.00     0.031 A 
ATOM     40  C   UNL A   1      38.480  31.980  32.458  1.00  0.00     0.074 A 
ATOM     41  C   UNL A   1      38.550  30.661  30.360  1.00  0.00     0.049 A 
ATOM     42  N   UNL A   1      39.503  31.484  33.103  1.00  0.00    -0.248 NA
ATOM     43  C   UNL A   1      37.814  33.095  33.146  1.00  0.00     0.031 C 
ATOM     44  C   UNL A   1      38.133  30.282  29.005  1.00  0.00     0.029 A 
ATOM     45  N   UNL A   1      39.658  29.895  30.591  1.00  0.00    -0.354 N 
ATOM     46  C   UNL A   1      39.601  32.211  34.283  1.00  0.00     0.074 A 
ATOM     47  C   UNL A   1      38.566  33.225  34.232  1.00  0.00     0.031 C 
ATOM     48  C   UNL A   1      38.964  29.345  28.534  1.00  0.00     0.029 A 
ATOM     49  C   UNL A   1      39.990  29.081  29.534  1.00  0.00     0.049 A 
ATOM     50  H   UNL A   1      40.168  29.924  31.432  1.00  0.00     0.167 HD
ATOM     51  C   UNL A   1      40.467  32.030  35.312  1.00  0.00     0.034 A 
ATOM     52  C   UNL A   1      41.012  28.219  29.388  1.00  0.00     0.034 A 
ATOM     53  C   UNL A   1      41.510  31.028  35.305  1.00  0.00     0.049 A 
ATOM     54  C   UNL A   1      41.961  28.042  30.540  1.00  0.00     0.074 A 
ATOM     55  C   UNL A   1      42.408  30.708  36.309  1.00  0.00     0.029 A 
ATOM     56  N   UNL A   1      41.811  30.196  34.230  1.00  0.00    -0.354 N 
ATOM     57  N   UNL A   1      41.980  28.665  31.697  1.00  0.00    -0.248 NA
ATOM     58  C   UNL A   1      43.006  27.028  30.380  1.00  0.00     0.031 C 
ATOM     59  C   UNL A   1      43.297  29.746  35.815  1.00  0.00     0.029 A 
ATOM     60  C   UNL A   1      42.900  29.393  34.535  1.00  0.00     0.049 A 
ATOM     61  H   UNL A   1      41.320  30.180  33.377  1.00  0.00     0.167 HD
ATOM     62  C   UNL A   1      43.021  28.091  32.418  1.00  0.00     0.074 A 
ATOM     63  C   UNL A   1      43.587  27.060  31.569  1.00  0.00     0.031 C 
ATOM     64  C   UNL A   1      43.467  28.384  33.667  1.00  0.00     0.034 A 
BRANCH  51  65
ATOM     65  C   UNL A   1      40.336  32.944  36.510  1.00  0.00     0.023 A 
ATOM     66  C   UNL A   1      39.562  32.585  37.629  1.00  0.00     0.031 A 
ATOM     67  C   UNL A   1      40.995  34.185  36.546  1.00  0.00     0.131 A 
ATOM     68  C   UNL A   1      39.411  33.480  38.699  1.00  0.00     0.055 A 
ATOM     69  C   UNL A   1      40.905  35.040  37.648  1.00  0.00     0.041 A 
ATOM     70  F   UNL A   1      41.734  34.598  35.503  1.00  0.00    -0.206 F 
ATOM     71  C   UNL A   1      40.098  34.695  38.728  1.00  0.00     0.022 A 
BRANCH  68  72
ATOM     72  S   UNL A   1      38.201  33.089  39.993  1.00  0.00     0.124 S 
ATOM     73  O   UNL A   1      38.844  31.967  40.671  1.00  0.00    -0.237 OA
ATOM     74  O   UNL A   1      38.132  34.336  40.746  1.00  0.00    -0.237 OA
ATOM     75  O   UNL A   1      36.995  32.747  39.241  1.00  0.00    -0.744 OA
ENDBRANCH  68  72
ENDBRANCH  51  65
BRANCH  52  76
ATOM     76  C   UNL A   1      41.165  27.448  28.124  1.00  0.00     0.023 A 
ATOM     77  C   UNL A   1      40.831  26.087  28.068  1.00  0.00     0.031 A 
ATOM     78  C   UNL A   1      41.654  28.057  26.954  1.00  0.00     0.131 A 
ATOM     79  C   UNL A   1      41.036  25.365  26.885  1.00  0.00     0.055 A 
ATOM     80  C   UNL A   1      41.802  27.347  25.761  1.00  0.00     0.041 A 
ATOM     81  F   UNL A   1      41.973  29.361  26.948  1.00  0.00    -0.206 F 
ATOM     82  C   UNL A   1      41.506  25.988  25.726  1.00  0.00     0.022 A 
BRANCH  79  83
ATOM     83  S   UNL A   1      40.765  23.573  26.909  1.00  0.00     0.124 S 
ATOM     84  O   UNL A   1      41.719  23.115  25.905  1.00  0.00    -0.237 OA
ATOM     85  O   UNL A   1      41.081  23.239  28.294  1.00  0.00    -0.237 OA
ATOM     86  O   UNL A   1      39.358  23.437  26.543  1.00  0.00    -0.744 OA
ENDBRANCH  79  83
ENDBRANCH  52  76
BRANCH  64  87
ATOM     87  C   UNL A   1      44.603  27.540  34.192  1.00  0.00     0.023 A 
ATOM     88  C   UNL A   1      44.372  26.362  34.925  1.00  0.00     0.031 A 
ATOM     89  C   UNL A   1      45.935  27.946  33.997  1.00  0.00     0.131 A 
ATOM     90  C   UNL A   1      45.450  25.677  35.503  1.00  0.00     0.055 A 
ATOM     91  C   UNL A   1      47.008  27.214  34.509  1.00  0.00     0.041 A 
ATOM     92  F   UNL A   1      46.216  29.065  33.311  1.00  0.00    -0.206 F 
ATOM     93  C   UNL A   1      46.768  26.083  35.283  1.00  0.00     0.022 A 
BRANCH  90  94
ATOM     94  S   UNL A   1      45.098  24.323  36.658  1.00  0.00     0.124 S 
ATOM     95  O   UNL A   1      43.908  24.815  37.345  1.00  0.00    -0.237 OA
ATOM     96  O   UNL A   1      44.893  23.192  35.759  1.00  0.00    -0.237 OA
ATOM     97  O   UNL A   1      46.304  24.251  37.480  1.00  0.00    -0.744 OA
ENDBRANCH  90  94
ENDBRANCH  64  87
ENDBRANCH  38  39
ENDBRANCH  30  33
ENDBRANCH  28  29
ENDBRANCH  27  28
ENDBRANCH   1  27
TORSDOF 19
ENDMDL
