MODEL 1
REMARK VINA RESULT:     -12.6      0.000      0.000
REMARK SMILES C[C@@H]1OCC[C@@H]1C(=O)Nc1ccc(C(=O)NCCCNC(=O)c2ccc(-c3c4nc(c(-c5cc(S(=O)(=O)[O-])ccc5F)c5ccc([nH]5)c(-c5cc(S(=O)(=O)[O-])ccc5F)c5nc(c(-c6cc(S(=O)(=O)[O-])ccc6F)c6ccc3[nH]6)C=C5)C=C4)cc2)cc1F
REMARK SMILES IDX 18 1 17 2 16 3 14 4 15 5 13 7 10 8 11 9 87 10 12 11 86 12
REMARK SMILES IDX 88 13 9 14 7 15 8 16 6 18 1 19 2 20 3 21 4 22 5 23 19 24
REMARK SMILES IDX 20 25 21 26 22 28 23 29 24 30 85 31 25 32 84 33 26 34 27 35
REMARK SMILES IDX 28 36 78 37 29 38 83 39 77 40 79 41 30 42 82 43 76 44 75 45
REMARK SMILES IDX 31 47 63 48 43 49 62 50 44 51 47 52 61 53 80 54 45 55 46 56
REMARK SMILES IDX 60 58 81 59 48 60 32 61 33 62 41 63 34 64 40 65 42 66 39 67
REMARK SMILES IDX 35 68 36 69 37 70 38 71 64 72 65 73 73 74 66 75 72 76 74 77
REMARK SMILES IDX 71 78 67 79 68 80 69 81 70 82 49 83 50 84 58 85 51 86 57 87
REMARK SMILES IDX 59 88 56 89 52 90 53 91 54 92 55 93
REMARK H PARENT 16 6 9 17 20 27 79 46 47 57
REMARK Flexibility Score: inf
ROOT
ATOM      1  C   UNL A   1      35.765  21.526  24.447  1.00  0.00     0.042 C 
ENDROOT
BRANCH   1   2
ATOM      2  C   UNL A   1      35.172  21.155  25.816  1.00  0.00     0.118 C 
BRANCH   2   3
ATOM      3  N   UNL A   1      34.197  20.067  25.714  1.00  0.00    -0.352 N 
ATOM      4  C   UNL A   1      32.870  20.003  25.333  1.00  0.00     0.251 C 
ATOM      5  O   UNL A   1      32.329  18.900  25.279  1.00  0.00    -0.269 OA
ATOM      6  H   UNL A   1      34.566  19.191  25.972  1.00  0.00     0.163 HD
BRANCH   4   7
ATOM      7  C   UNL A   1      32.089  21.199  24.917  1.00  0.00     0.042 A 
ATOM      8  C   UNL A   1      30.909  23.713  24.285  1.00  0.00     0.077 A 
ATOM      9  C   UNL A   1      31.538  22.945  23.293  1.00  0.00     0.030 A 
ATOM     10  C   UNL A   1      30.945  23.183  25.562  1.00  0.00     0.147 A 
ATOM     11  C   UNL A   1      32.178  21.726  23.621  1.00  0.00     0.016 A 
ATOM     12  C   UNL A   1      31.327  21.889  25.821  1.00  0.00     0.055 A 
ATOM     13  F   UNL A   1      30.779  23.895  26.671  1.00  0.00    -0.205 F 
BRANCH   8  14
ATOM     14  N   UNL A   1      30.254  24.909  23.905  1.00  0.00    -0.323 N 
ATOM     15  C   UNL A   1      30.615  26.236  23.889  1.00  0.00     0.230 C 
ATOM     16  O   UNL A   1      29.734  27.051  23.595  1.00  0.00    -0.274 OA
ATOM     17  H   UNL A   1      29.336  24.757  23.582  1.00  0.00     0.170 HD
BRANCH  15  18
ATOM     18  C   UNL A   1      32.031  26.697  24.159  1.00  0.00     0.110 C 
ATOM     19  C   UNL A   1      31.440  27.267  26.621  1.00  0.00     0.039 C 
ATOM     20  C   UNL A   1      32.483  26.778  25.627  1.00  0.00     0.127 C 
ATOM     21  O   UNL A   1      33.596  27.703  25.656  1.00  0.00    -0.378 OA
ATOM     22  C   UNL A   1      33.778  28.207  24.328  1.00  0.00     0.161 C 
ATOM     23  C   UNL A   1      32.419  28.081  23.669  1.00  0.00     0.044 C 
ENDBRANCH  15  18
ENDBRANCH   8  14
ENDBRANCH   4   7
ENDBRANCH   2   3
ENDBRANCH   1   2
BRANCH   1  24
ATOM     24  C   UNL A   1      37.256  21.828  24.515  1.00  0.00     0.118 C 
BRANCH  24  25
ATOM     25  N   UNL A   1      37.963  20.822  25.290  1.00  0.00    -0.352 N 
ATOM     26  C   UNL A   1      39.085  20.925  26.069  1.00  0.00     0.251 C 
ATOM     27  H   UNL A   1      37.570  19.920  25.249  1.00  0.00     0.163 HD
ATOM     28  O   UNL A   1      39.623  19.893  26.455  1.00  0.00    -0.269 OA
BRANCH  26  29
ATOM     29  C   UNL A   1      39.654  22.244  26.427  1.00  0.00     0.039 A 
ATOM     30  C   UNL A   1      40.882  22.271  27.094  1.00  0.00     0.014 A 
ATOM     31  C   UNL A   1      38.977  23.441  26.173  1.00  0.00     0.014 A 
ATOM     32  C   UNL A   1      41.444  23.492  27.469  1.00  0.00     0.010 A 
ATOM     33  C   UNL A   1      39.574  24.662  26.481  1.00  0.00     0.010 A 
ATOM     34  C   UNL A   1      40.810  24.700  27.140  1.00  0.00    -0.014 A 
BRANCH  34  35
ATOM     35  C   UNL A   1      41.444  26.000  27.479  1.00  0.00     0.031 A 
ATOM     36  C   UNL A   1      42.813  26.343  26.957  1.00  0.00     0.074 A 
ATOM     37  C   UNL A   1      40.780  26.868  28.267  1.00  0.00     0.049 A 
ATOM     38  N   UNL A   1      43.517  27.428  27.150  1.00  0.00    -0.248 NA
ATOM     39  C   UNL A   1      43.485  25.332  26.125  1.00  0.00     0.031 C 
ATOM     40  C   UNL A   1      39.458  26.632  28.850  1.00  0.00     0.029 A 
ATOM     41  N   UNL A   1      41.112  28.127  28.700  1.00  0.00    -0.354 N 
ATOM     42  C   UNL A   1      44.710  27.234  26.463  1.00  0.00     0.074 A 
ATOM     43  C   UNL A   1      44.660  25.904  25.899  1.00  0.00     0.031 C 
ATOM     44  C   UNL A   1      39.068  27.730  29.516  1.00  0.00     0.029 A 
ATOM     45  C   UNL A   1      40.130  28.729  29.452  1.00  0.00     0.049 A 
ATOM     46  H   UNL A   1      41.973  28.559  28.494  1.00  0.00     0.167 HD
ATOM     47  C   UNL A   1      45.741  28.099  26.295  1.00  0.00     0.034 A 
ATOM     48  C   UNL A   1      40.085  29.947  30.026  1.00  0.00     0.034 A 
ATOM     49  C   UNL A   1      45.772  29.428  26.851  1.00  0.00     0.049 A 
ATOM     50  C   UNL A   1      41.260  30.874  29.864  1.00  0.00     0.074 A 
ATOM     51  C   UNL A   1      46.753  30.393  26.714  1.00  0.00     0.029 A 
ATOM     52  N   UNL A   1      44.778  29.981  27.649  1.00  0.00    -0.354 N 
ATOM     53  N   UNL A   1      42.379  30.672  29.208  1.00  0.00    -0.248 NA
ATOM     54  C   UNL A   1      41.171  32.186  30.517  1.00  0.00     0.031 C 
ATOM     55  C   UNL A   1      46.386  31.503  27.479  1.00  0.00     0.029 A 
ATOM     56  C   UNL A   1      45.140  31.262  28.033  1.00  0.00     0.049 A 
ATOM     57  H   UNL A   1      43.942  29.529  27.904  1.00  0.00     0.167 HD
ATOM     58  C   UNL A   1      43.115  31.844  29.348  1.00  0.00     0.074 A 
ATOM     59  C   UNL A   1      42.318  32.746  30.152  1.00  0.00     0.031 C 
ATOM     60  C   UNL A   1      44.337  32.147  28.845  1.00  0.00     0.034 A 
BRANCH  47  61
ATOM     61  C   UNL A   1      46.922  27.636  25.483  1.00  0.00     0.023 A 
ATOM     62  C   UNL A   1      47.067  27.991  24.132  1.00  0.00     0.031 A 
ATOM     63  C   UNL A   1      47.933  26.858  26.076  1.00  0.00     0.131 A 
ATOM     64  C   UNL A   1      48.177  27.535  23.405  1.00  0.00     0.055 A 
ATOM     65  C   UNL A   1      49.068  26.463  25.365  1.00  0.00     0.041 A 
ATOM     66  F   UNL A   1      47.837  26.476  27.360  1.00  0.00    -0.206 F 
ATOM     67  C   UNL A   1      49.191  26.795  24.019  1.00  0.00     0.022 A 
BRANCH  64  68
ATOM     68  S   UNL A   1      48.239  27.856  21.622  1.00  0.00     0.124 S 
ATOM     69  O   UNL A   1      46.865  28.274  21.350  1.00  0.00    -0.237 OA
ATOM     70  O   UNL A   1      49.255  28.896  21.521  1.00  0.00    -0.237 OA
ATOM     71  O   UNL A   1      48.614  26.562  21.054  1.00  0.00    -0.744 OA
ENDBRANCH  64  68
ENDBRANCH  47  61
BRANCH  48  72
ATOM     72  C   UNL A   1      38.878  30.358  30.795  1.00  0.00     0.023 A 
ATOM     73  C   UNL A   1      37.835  31.063  30.175  1.00  0.00     0.031 A 
ATOM     74  C   UNL A   1      38.739  30.024  32.154  1.00  0.00     0.131 A 
ATOM     75  C   UNL A   1      36.701  31.426  30.920  1.00  0.00     0.055 A 
ATOM     76  C   UNL A   1      37.592  30.352  32.879  1.00  0.00     0.041 A 
ATOM     77  F   UNL A   1      39.706  29.340  32.786  1.00  0.00    -0.206 F 
ATOM     78  C   UNL A   1      36.567  31.062  32.262  1.00  0.00     0.022 A 
BRANCH  75  79
ATOM     79  S   UNL A   1      35.404  32.402  30.111  1.00  0.00     0.124 S 
ATOM     80  O   UNL A   1      34.431  32.551  31.188  1.00  0.00    -0.237 OA
ATOM     81  O   UNL A   1      36.126  33.610  29.726  1.00  0.00    -0.237 OA
ATOM     82  O   UNL A   1      34.982  31.553  29.000  1.00  0.00    -0.744 OA
ENDBRANCH  75  79
ENDBRANCH  48  72
BRANCH  60  83
ATOM     83  C   UNL A   1      44.884  33.522  29.111  1.00  0.00     0.023 A 
ATOM     84  C   UNL A   1      44.465  34.637  28.368  1.00  0.00     0.031 A 
ATOM     85  C   UNL A   1      45.778  33.728  30.178  1.00  0.00     0.131 A 
ATOM     86  C   UNL A   1      44.951  35.912  28.694  1.00  0.00     0.055 A 
ATOM     87  C   UNL A   1      46.223  35.003  30.526  1.00  0.00     0.041 A 
ATOM     88  F   UNL A   1      46.201  32.692  30.920  1.00  0.00    -0.206 F 
ATOM     89  C   UNL A   1      45.811  36.103  29.780  1.00  0.00     0.022 A 
BRANCH  86  90
ATOM     90  S   UNL A   1      44.453  37.326  27.674  1.00  0.00     0.124 S 
ATOM     91  O   UNL A   1      43.962  38.264  28.679  1.00  0.00    -0.237 OA
ATOM     92  O   UNL A   1      45.699  37.697  27.012  1.00  0.00    -0.237 OA
ATOM     93  O   UNL A   1      43.428  36.769  26.793  1.00  0.00    -0.744 OA
ENDBRANCH  86  90
ENDBRANCH  60  83
ENDBRANCH  34  35
ENDBRANCH  26  29
ENDBRANCH  24  25
ENDBRANCH   1  24
TORSDOF 15
ENDMDL
MODEL 2
REMARK VINA RESULT:     -12.5      5.776      8.994
REMARK SMILES C[C@@H]1OCC[C@@H]1C(=O)Nc1ccc(C(=O)NCCCNC(=O)c2ccc(-c3c4nc(c(-c5cc(S(=O)(=O)[O-])ccc5F)c5ccc([nH]5)c(-c5cc(S(=O)(=O)[O-])ccc5F)c5nc(c(-c6cc(S(=O)(=O)[O-])ccc6F)c6ccc3[nH]6)C=C5)C=C4)cc2)cc1F
REMARK SMILES IDX 18 1 17 2 16 3 14 4 15 5 13 7 10 8 11 9 87 10 12 11 86 12
REMARK SMILES IDX 88 13 9 14 7 15 8 16 6 18 1 19 2 20 3 21 4 22 5 23 19 24
REMARK SMILES IDX 20 25 21 26 22 28 23 29 24 30 85 31 25 32 84 33 26 34 27 35
REMARK SMILES IDX 28 36 78 37 29 38 83 39 77 40 79 41 30 42 82 43 76 44 75 45
REMARK SMILES IDX 31 47 63 48 43 49 62 50 44 51 47 52 61 53 80 54 45 55 46 56
REMARK SMILES IDX 60 58 81 59 48 60 32 61 33 62 41 63 34 64 40 65 42 66 39 67
REMARK SMILES IDX 35 68 36 69 37 70 38 71 64 72 65 73 73 74 66 75 72 76 74 77
REMARK SMILES IDX 71 78 67 79 68 80 69 81 70 82 49 83 50 84 58 85 51 86 57 87
REMARK SMILES IDX 59 88 56 89 52 90 53 91 54 92 55 93
REMARK H PARENT 16 6 9 17 20 27 79 46 47 57
REMARK Flexibility Score: inf
ROOT
ATOM      1  C   UNL A   1      31.453  32.155  26.533  1.00  0.00     0.042 C 
ENDROOT
BRANCH   1   2
ATOM      2  C   UNL A   1      31.583  30.709  26.028  1.00  0.00     0.118 C 
BRANCH   2   3
ATOM      3  N   UNL A   1      31.513  29.738  27.122  1.00  0.00    -0.352 N 
ATOM      4  C   UNL A   1      31.688  28.370  27.199  1.00  0.00     0.251 C 
ATOM      5  O   UNL A   1      31.636  27.834  28.304  1.00  0.00    -0.269 OA
ATOM      6  H   UNL A   1      31.293  30.148  27.989  1.00  0.00     0.163 HD
BRANCH   4   7
ATOM      7  C   UNL A   1      32.008  27.526  26.015  1.00  0.00     0.042 A 
ATOM      8  C   UNL A   1      32.532  26.254  23.521  1.00  0.00     0.077 A 
ATOM      9  C   UNL A   1      33.585  26.678  24.347  1.00  0.00     0.030 A 
ATOM     10  C   UNL A   1      31.260  26.534  23.986  1.00  0.00     0.147 A 
ATOM     11  C   UNL A   1      33.323  27.366  25.555  1.00  0.00     0.016 A 
ATOM     12  C   UNL A   1      31.011  26.954  25.270  1.00  0.00     0.055 A 
ATOM     13  F   UNL A   1      30.178  26.587  23.217  1.00  0.00    -0.205 F 
BRANCH   8  14
ATOM     14  N   UNL A   1      32.840  25.542  22.338  1.00  0.00    -0.323 N 
ATOM     15  C   UNL A   1      33.009  24.211  22.036  1.00  0.00     0.230 C 
ATOM     16  O   UNL A   1      33.394  23.941  20.894  1.00  0.00    -0.274 OA
ATOM     17  H   UNL A   1      32.962  26.130  21.557  1.00  0.00     0.170 HD
BRANCH  15  18
ATOM     18  C   UNL A   1      32.689  23.107  23.021  1.00  0.00     0.110 C 
ATOM     19  C   UNL A   1      35.199  22.839  23.627  1.00  0.00     0.039 C 
ATOM     20  C   UNL A   1      33.750  22.777  24.086  1.00  0.00     0.127 C 
ATOM     21  O   UNL A   1      33.476  21.424  24.522  1.00  0.00    -0.378 OA
ATOM     22  C   UNL A   1      32.379  20.930  23.745  1.00  0.00     0.161 C 
ATOM     23  C   UNL A   1      32.420  21.724  22.455  1.00  0.00     0.044 C 
ENDBRANCH  15  18
ENDBRANCH   8  14
ENDBRANCH   4   7
ENDBRANCH   2   3
ENDBRANCH   1   2
BRANCH   1  24
ATOM     24  C   UNL A   1      32.731  32.669  27.180  1.00  0.00     0.118 C 
BRANCH  24  25
ATOM     25  N   UNL A   1      32.577  34.042  27.632  1.00  0.00    -0.352 N 
ATOM     26  C   UNL A   1      33.174  34.711  28.667  1.00  0.00     0.251 C 
ATOM     27  H   UNL A   1      31.939  34.579  27.107  1.00  0.00     0.163 HD
ATOM     28  O   UNL A   1      32.725  35.806  28.990  1.00  0.00    -0.269 OA
BRANCH  26  29
ATOM     29  C   UNL A   1      34.322  34.128  29.398  1.00  0.00     0.039 A 
ATOM     30  C   UNL A   1      34.054  33.254  30.455  1.00  0.00     0.014 A 
ATOM     31  C   UNL A   1      35.645  34.471  29.100  1.00  0.00     0.014 A 
ATOM     32  C   UNL A   1      35.106  32.699  31.184  1.00  0.00     0.010 A 
ATOM     33  C   UNL A   1      36.696  33.859  29.781  1.00  0.00     0.010 A 
ATOM     34  C   UNL A   1      36.438  32.973  30.835  1.00  0.00    -0.014 A 
BRANCH  34  35
ATOM     35  C   UNL A   1      37.557  32.326  31.568  1.00  0.00     0.031 A 
ATOM     36  C   UNL A   1      38.344  31.212  30.934  1.00  0.00     0.074 A 
ATOM     37  C   UNL A   1      37.854  32.746  32.813  1.00  0.00     0.049 A 
ATOM     38  N   UNL A   1      39.350  30.535  31.424  1.00  0.00    -0.248 NA
ATOM     39  C   UNL A   1      37.941  30.792  29.583  1.00  0.00     0.031 C 
ATOM     40  C   UNL A   1      37.143  33.802  33.537  1.00  0.00     0.029 A 
ATOM     41  N   UNL A   1      38.839  32.353  33.685  1.00  0.00    -0.354 N 
ATOM     42  C   UNL A   1      39.703  29.615  30.444  1.00  0.00     0.074 A 
ATOM     43  C   UNL A   1      38.765  29.779  29.356  1.00  0.00     0.031 C 
ATOM     44  C   UNL A   1      37.748  34.011  34.716  1.00  0.00     0.029 A 
ATOM     45  C   UNL A   1      38.857  33.073  34.857  1.00  0.00     0.049 A 
ATOM     46  H   UNL A   1      39.471  31.624  33.491  1.00  0.00     0.167 HD
ATOM     47  C   UNL A   1      40.733  28.733  30.443  1.00  0.00     0.034 A 
ATOM     48  C   UNL A   1      39.673  32.990  35.926  1.00  0.00     0.034 A 
ATOM     49  C   UNL A   1      41.669  28.590  31.529  1.00  0.00     0.049 A 
ATOM     50  C   UNL A   1      40.782  31.973  35.921  1.00  0.00     0.074 A 
ATOM     51  C   UNL A   1      42.764  27.749  31.613  1.00  0.00     0.029 A 
ATOM     52  N   UNL A   1      41.622  29.303  32.719  1.00  0.00    -0.354 N 
ATOM     53  N   UNL A   1      41.101  31.112  34.982  1.00  0.00    -0.248 NA
ATOM     54  C   UNL A   1      41.639  31.912  37.112  1.00  0.00     0.031 C 
ATOM     55  C   UNL A   1      43.341  27.906  32.875  1.00  0.00     0.029 A 
ATOM     56  C   UNL A   1      42.653  28.900  33.552  1.00  0.00     0.049 A 
ATOM     57  H   UNL A   1      40.955  29.993  32.939  1.00  0.00     0.167 HD
ATOM     58  C   UNL A   1      42.212  30.426  35.461  1.00  0.00     0.074 A 
ATOM     59  C   UNL A   1      42.507  30.969  36.770  1.00  0.00     0.031 C 
ATOM     60  C   UNL A   1      42.928  29.443  34.861  1.00  0.00     0.034 A 
BRANCH  47  61
ATOM     61  C   UNL A   1      40.900  27.850  29.233  1.00  0.00     0.023 A 
ATOM     62  C   UNL A   1      41.883  28.113  28.265  1.00  0.00     0.031 A 
ATOM     63  C   UNL A   1      40.091  26.713  29.064  1.00  0.00     0.131 A 
ATOM     64  C   UNL A   1      42.005  27.273  27.147  1.00  0.00     0.055 A 
ATOM     65  C   UNL A   1      40.261  25.844  27.984  1.00  0.00     0.041 A 
ATOM     66  F   UNL A   1      39.124  26.424  29.950  1.00  0.00    -0.206 F 
ATOM     67  C   UNL A   1      41.218  26.126  27.014  1.00  0.00     0.022 A 
BRANCH  64  68
ATOM     68  S   UNL A   1      43.155  27.744  25.828  1.00  0.00     0.124 S 
ATOM     69  O   UNL A   1      42.327  27.570  24.638  1.00  0.00    -0.237 OA
ATOM     70  O   UNL A   1      43.492  29.120  26.176  1.00  0.00    -0.237 OA
ATOM     71  O   UNL A   1      44.248  26.783  25.966  1.00  0.00    -0.744 OA
ENDBRANCH  64  68
ENDBRANCH  47  61
BRANCH  48  72
ATOM     72  C   UNL A   1      39.473  33.909  37.080  1.00  0.00     0.023 A 
ATOM     73  C   UNL A   1      38.851  33.462  38.257  1.00  0.00     0.031 A 
ATOM     74  C   UNL A   1      39.928  35.238  37.034  1.00  0.00     0.131 A 
ATOM     75  C   UNL A   1      38.688  34.345  39.337  1.00  0.00     0.055 A 
ATOM     76  C   UNL A   1      39.799  36.100  38.124  1.00  0.00     0.041 A 
ATOM     77  F   UNL A   1      40.539  35.707  35.934  1.00  0.00    -0.206 F 
ATOM     78  C   UNL A   1      39.171  35.655  39.283  1.00  0.00     0.022 A 
BRANCH  75  79
ATOM     79  S   UNL A   1      37.813  33.761  40.814  1.00  0.00     0.124 S 
ATOM     80  O   UNL A   1      36.667  33.075  40.227  1.00  0.00    -0.237 OA
ATOM     81  O   UNL A   1      38.816  32.912  41.448  1.00  0.00    -0.237 OA
ATOM     82  O   UNL A   1      37.502  34.994  41.533  1.00  0.00    -0.744 OA
ENDBRANCH  75  79
ENDBRANCH  48  72
BRANCH  60  83
ATOM     83  C   UNL A   1      44.129  28.906  35.591  1.00  0.00     0.023 A 
ATOM     84  C   UNL A   1      44.019  27.855  36.515  1.00  0.00     0.031 A 
ATOM     85  C   UNL A   1      45.411  29.403  35.294  1.00  0.00     0.131 A 
ATOM     86  C   UNL A   1      45.174  27.341  37.123  1.00  0.00     0.055 A 
ATOM     87  C   UNL A   1      46.559  28.859  35.868  1.00  0.00     0.041 A 
ATOM     88  F   UNL A   1      45.566  30.404  34.412  1.00  0.00    -0.206 F 
ATOM     89  C   UNL A   1      46.444  27.823  36.790  1.00  0.00     0.022 A 
BRANCH  86  90
ATOM     90  S   UNL A   1      44.999  26.034  38.367  1.00  0.00     0.124 S 
ATOM     91  O   UNL A   1      44.181  26.690  39.382  1.00  0.00    -0.237 OA
ATOM     92  O   UNL A   1      44.348  24.965  37.617  1.00  0.00    -0.237 OA
ATOM     93  O   UNL A   1      46.377  25.754  38.768  1.00  0.00    -0.744 OA
ENDBRANCH  86  90
ENDBRANCH  60  83
ENDBRANCH  34  35
ENDBRANCH  26  29
ENDBRANCH  24  25
ENDBRANCH   1  24
TORSDOF 15
ENDMDL
MODEL 3
REMARK VINA RESULT:     -12.4      5.513     10.983
REMARK SMILES C[C@@H]1OCC[C@@H]1C(=O)Nc1ccc(C(=O)NCCCNC(=O)c2ccc(-c3c4nc(c(-c5cc(S(=O)(=O)[O-])ccc5F)c5ccc([nH]5)c(-c5cc(S(=O)(=O)[O-])ccc5F)c5nc(c(-c6cc(S(=O)(=O)[O-])ccc6F)c6ccc3[nH]6)C=C5)C=C4)cc2)cc1F
REMARK SMILES IDX 18 1 17 2 16 3 14 4 15 5 13 7 10 8 11 9 87 10 12 11 86 12
REMARK SMILES IDX 88 13 9 14 7 15 8 16 6 18 1 19 2 20 3 21 4 22 5 23 19 24
REMARK SMILES IDX 20 25 21 26 22 28 23 29 24 30 85 31 25 32 84 33 26 34 27 35
REMARK SMILES IDX 28 36 78 37 29 38 83 39 77 40 79 41 30 42 82 43 76 44 75 45
REMARK SMILES IDX 31 47 63 48 43 49 62 50 44 51 47 52 61 53 80 54 45 55 46 56
REMARK SMILES IDX 60 58 81 59 48 60 32 61 33 62 41 63 34 64 40 65 42 66 39 67
REMARK SMILES IDX 35 68 36 69 37 70 38 71 64 72 65 73 73 74 66 75 72 76 74 77
REMARK SMILES IDX 71 78 67 79 68 80 69 81 70 82 49 83 50 84 58 85 51 86 57 87
REMARK SMILES IDX 59 88 56 89 52 90 53 91 54 92 55 93
REMARK H PARENT 16 6 9 17 20 27 79 46 47 57
REMARK Flexibility Score: inf
ROOT
ATOM      1  C   UNL A   1      31.552  32.143  26.697  1.00  0.00     0.042 C 
ENDROOT
BRANCH   1   2
ATOM      2  C   UNL A   1      31.765  30.715  26.170  1.00  0.00     0.118 C 
BRANCH   2   3
ATOM      3  N   UNL A   1      31.618  29.712  27.228  1.00  0.00    -0.352 N 
ATOM      4  C   UNL A   1      31.714  28.335  27.260  1.00  0.00     0.251 C 
ATOM      5  O   UNL A   1      31.609  27.765  28.345  1.00  0.00    -0.269 OA
ATOM      6  H   UNL A   1      31.403  30.105  28.105  1.00  0.00     0.163 HD
BRANCH   4   7
ATOM      7  C   UNL A   1      32.012  27.515  26.054  1.00  0.00     0.042 A 
ATOM      8  C   UNL A   1      32.533  26.304  23.530  1.00  0.00     0.077 A 
ATOM      9  C   UNL A   1      33.582  26.600  24.414  1.00  0.00     0.030 A 
ATOM     10  C   UNL A   1      31.271  26.675  23.955  1.00  0.00     0.147 A 
ATOM     11  C   UNL A   1      33.327  27.259  25.641  1.00  0.00     0.016 A 
ATOM     12  C   UNL A   1      31.003  27.064  25.246  1.00  0.00     0.055 A 
ATOM     13  F   UNL A   1      30.232  26.854  23.147  1.00  0.00    -0.205 F 
BRANCH   8  14
ATOM     14  N   UNL A   1      32.831  25.616  22.329  1.00  0.00    -0.323 N 
ATOM     15  C   UNL A   1      33.005  24.293  22.001  1.00  0.00     0.230 C 
ATOM     16  O   UNL A   1      33.376  24.046  20.849  1.00  0.00    -0.274 OA
ATOM     17  H   UNL A   1      32.938  26.219  21.558  1.00  0.00     0.170 HD
BRANCH  15  18
ATOM     18  C   UNL A   1      32.706  23.168  22.970  1.00  0.00     0.110 C 
ATOM     19  C   UNL A   1      35.224  22.918  23.547  1.00  0.00     0.039 C 
ATOM     20  C   UNL A   1      33.781  22.832  24.019  1.00  0.00     0.127 C 
ATOM     21  O   UNL A   1      33.526  21.469  24.433  1.00  0.00    -0.378 OA
ATOM     22  C   UNL A   1      32.427  20.976  23.658  1.00  0.00     0.161 C 
ATOM     23  C   UNL A   1      32.448  21.792  22.382  1.00  0.00     0.044 C 
ENDBRANCH  15  18
ENDBRANCH   8  14
ENDBRANCH   4   7
ENDBRANCH   2   3
ENDBRANCH   1   2
BRANCH   1  24
ATOM     24  C   UNL A   1      32.858  32.843  27.046  1.00  0.00     0.118 C 
BRANCH  24  25
ATOM     25  N   UNL A   1      32.614  34.100  27.733  1.00  0.00    -0.352 N 
ATOM     26  C   UNL A   1      33.183  34.621  28.864  1.00  0.00     0.251 C 
ATOM     27  H   UNL A   1      31.927  34.671  27.316  1.00  0.00     0.163 HD
ATOM     28  O   UNL A   1      32.663  35.606  29.378  1.00  0.00    -0.269 OA
BRANCH  26  29
ATOM     29  C   UNL A   1      34.386  34.008  29.472  1.00  0.00     0.039 A 
ATOM     30  C   UNL A   1      34.202  33.052  30.475  1.00  0.00     0.014 A 
ATOM     31  C   UNL A   1      35.681  34.398  29.115  1.00  0.00     0.014 A 
ATOM     32  C   UNL A   1      35.308  32.466  31.089  1.00  0.00     0.010 A 
ATOM     33  C   UNL A   1      36.784  33.757  29.676  1.00  0.00     0.010 A 
ATOM     34  C   UNL A   1      36.610  32.790  30.675  1.00  0.00    -0.014 A 
BRANCH  34  35
ATOM     35  C   UNL A   1      37.785  32.113  31.281  1.00  0.00     0.031 A 
ATOM     36  C   UNL A   1      38.252  32.482  32.663  1.00  0.00     0.074 A 
ATOM     37  C   UNL A   1      38.433  31.167  30.575  1.00  0.00     0.049 A 
ATOM     38  N   UNL A   1      39.255  31.997  33.348  1.00  0.00    -0.248 NA
ATOM     39  C   UNL A   1      37.509  33.545  33.360  1.00  0.00     0.031 C 
ATOM     40  C   UNL A   1      38.084  30.744  29.218  1.00  0.00     0.029 A 
ATOM     41  N   UNL A   1      39.507  30.376  30.901  1.00  0.00    -0.354 N 
ATOM     42  C   UNL A   1      39.262  32.689  34.554  1.00  0.00     0.074 A 
ATOM     43  C   UNL A   1      38.201  33.669  34.483  1.00  0.00     0.031 C 
ATOM     44  C   UNL A   1      38.889  29.736  28.850  1.00  0.00     0.029 A 
ATOM     45  C   UNL A   1      39.845  29.472  29.921  1.00  0.00     0.049 A 
ATOM     46  H   UNL A   1      39.990  30.450  31.756  1.00  0.00     0.167 HD
ATOM     47  C   UNL A   1      40.063  32.502  35.632  1.00  0.00     0.034 A 
ATOM     48  C   UNL A   1      40.812  28.536  29.886  1.00  0.00     0.034 A 
ATOM     49  C   UNL A   1      41.107  31.511  35.694  1.00  0.00     0.049 A 
ATOM     50  C   UNL A   1      41.718  28.377  31.076  1.00  0.00     0.074 A 
ATOM     51  C   UNL A   1      41.953  31.221  36.749  1.00  0.00     0.029 A 
ATOM     52  N   UNL A   1      41.450  30.650  34.661  1.00  0.00    -0.354 N 
ATOM     53  N   UNL A   1      41.707  29.039  32.210  1.00  0.00    -0.248 NA
ATOM     54  C   UNL A   1      42.766  27.351  30.988  1.00  0.00     0.031 C 
ATOM     55  C   UNL A   1      42.847  30.231  36.335  1.00  0.00     0.029 A 
ATOM     56  C   UNL A   1      42.512  29.848  35.046  1.00  0.00     0.049 A 
ATOM     57  H   UNL A   1      41.004  30.614  33.784  1.00  0.00     0.167 HD
ATOM     58  C   UNL A   1      42.728  28.491  32.978  1.00  0.00     0.074 A 
ATOM     59  C   UNL A   1      43.338  27.447  32.181  1.00  0.00     0.031 C 
ATOM     60  C   UNL A   1      43.116  28.818  34.236  1.00  0.00     0.034 A 
BRANCH  47  61
ATOM     61  C   UNL A   1      39.846  33.389  36.830  1.00  0.00     0.023 A 
ATOM     62  C   UNL A   1      39.167  32.928  37.970  1.00  0.00     0.031 A 
ATOM     63  C   UNL A   1      40.354  34.701  36.847  1.00  0.00     0.131 A 
ATOM     64  C   UNL A   1      38.977  33.786  39.065  1.00  0.00     0.055 A 
ATOM     65  C   UNL A   1      40.220  35.526  37.964  1.00  0.00     0.041 A 
ATOM     66  F   UNL A   1      40.997  35.198  35.778  1.00  0.00    -0.206 F 
ATOM     67  C   UNL A   1      39.522  35.072  39.080  1.00  0.00     0.022 A 
BRANCH  64  68
ATOM     68  S   UNL A   1      37.940  33.221  40.440  1.00  0.00     0.124 S 
ATOM     69  O   UNL A   1      38.670  32.040  40.894  1.00  0.00    -0.237 OA
ATOM     70  O   UNL A   1      37.955  34.367  41.341  1.00  0.00    -0.237 OA
ATOM     71  O   UNL A   1      36.652  32.945  39.806  1.00  0.00    -0.744 OA
ENDBRANCH  64  68
ENDBRANCH  47  61
BRANCH  48  72
ATOM     72  C   UNL A   1      40.959  27.671  28.683  1.00  0.00     0.023 A 
ATOM     73  C   UNL A   1      41.982  27.902  27.750  1.00  0.00     0.031 A 
ATOM     74  C   UNL A   1      40.096  26.582  28.465  1.00  0.00     0.131 A 
ATOM     75  C   UNL A   1      42.108  27.063  26.631  1.00  0.00     0.055 A 
ATOM     76  C   UNL A   1      40.250  25.727  27.372  1.00  0.00     0.041 A 
ATOM     77  F   UNL A   1      39.110  26.315  29.336  1.00  0.00    -0.206 F 
ATOM     78  C   UNL A   1      41.258  25.970  26.445  1.00  0.00     0.022 A 
BRANCH  75  79
ATOM     79  S   UNL A   1      43.391  27.433  25.405  1.00  0.00     0.124 S 
ATOM     80  O   UNL A   1      44.115  28.521  26.053  1.00  0.00    -0.237 OA
ATOM     81  O   UNL A   1      44.097  26.160  25.307  1.00  0.00    -0.237 OA
ATOM     82  O   UNL A   1      42.628  27.810  24.218  1.00  0.00    -0.744 OA
ENDBRANCH  75  79
ENDBRANCH  48  72
BRANCH  60  83
ATOM     83  C   UNL A   1      44.230  28.019  34.855  1.00  0.00     0.023 A 
ATOM     84  C   UNL A   1      43.999  26.765  35.443  1.00  0.00     0.031 A 
ATOM     85  C   UNL A   1      45.555  28.488  34.782  1.00  0.00     0.131 A 
ATOM     86  C   UNL A   1      45.078  26.025  35.949  1.00  0.00     0.055 A 
ATOM     87  C   UNL A   1      46.628  27.729  35.246  1.00  0.00     0.041 A 
ATOM     88  F   UNL A   1      45.825  29.679  34.223  1.00  0.00    -0.206 F 
ATOM     89  C   UNL A   1      46.392  26.491  35.836  1.00  0.00     0.022 A 
BRANCH  86  90
ATOM     90  S   UNL A   1      44.745  24.443  36.769  1.00  0.00     0.124 S 
ATOM     91  O   UNL A   1      46.082  23.867  36.866  1.00  0.00    -0.237 OA
ATOM     92  O   UNL A   1      44.138  24.858  38.029  1.00  0.00    -0.237 OA
ATOM     93  O   UNL A   1      43.841  23.761  35.844  1.00  0.00    -0.744 OA
ENDBRANCH  86  90
ENDBRANCH  60  83
ENDBRANCH  34  35
ENDBRANCH  26  29
ENDBRANCH  24  25
ENDBRANCH   1  24
TORSDOF 15
ENDMDL
