MODEL 1
REMARK VINA RESULT:     -12.2      0.000      0.000
REMARK SMILES C[C@H](c1ccoc1)[N@H+]1CCc2ccccc2[C@@H]1C(=O)NCCCNC(=O)c1ccc(-c2c3nc(c(-c4cc(S(=O)(=O)[O-])ccc4F)c4ccc([nH]4)c(-c4cc(S(=O)(=O)[O-])ccc4F)c4nc(c(-c5cc(S(=O)(=O)[O-])ccc5F)c5ccc2[nH]5)C=C4)C=C3)cc1
REMARK SMILES IDX 22 1 21 2 20 3 18 4 19 5 17 7 8 8 9 9 10 11 16 12 11 13
REMARK SMILES IDX 15 14 12 15 14 16 13 17 2 18 1 19 3 20 4 21 7 22 5 23 6 24
REMARK SMILES IDX 23 25 24 26 25 27 26 29 27 30 28 31 89 32 29 33 88 34 30 35
REMARK SMILES IDX 31 36 32 37 82 38 33 39 87 40 81 41 83 42 34 43 86 44 80 45
REMARK SMILES IDX 79 46 35 48 67 49 47 50 66 51 48 52 51 53 65 54 84 55 49 56
REMARK SMILES IDX 50 57 64 59 85 60 52 61 36 62 37 63 45 64 38 65 44 66 46 67
REMARK SMILES IDX 43 68 39 69 40 70 41 71 42 72 68 73 69 74 77 75 70 76 76 77
REMARK SMILES IDX 78 78 75 79 71 80 72 81 73 82 74 83 53 84 54 85 62 86 55 87
REMARK SMILES IDX 61 88 63 89 60 90 56 91 57 92 58 93 59 94
REMARK H PARENT 20 6 8 10 24 28 83 47 51 58
REMARK Flexibility Score: inf
ROOT
ATOM      1  C   UNL A   1      32.105  28.690  26.574  1.00  0.00     0.042 C 
ENDROOT
BRANCH   1   2
ATOM      2  C   UNL A   1      32.453  27.187  26.555  1.00  0.00     0.118 C 
BRANCH   2   3
ATOM      3  N   UNL A   1      31.360  26.267  26.817  1.00  0.00    -0.351 N 
ATOM      4  C   UNL A   1      30.786  25.259  26.094  1.00  0.00     0.283 C 
ATOM      5  O   UNL A   1      30.116  24.464  26.769  1.00  0.00    -0.268 OA
ATOM      6  H   UNL A   1      30.944  26.398  27.700  1.00  0.00     0.163 HD
BRANCH   4   7
ATOM      7  C   UNL A   1      30.943  25.094  24.539  1.00  0.00     0.306 C 
ATOM      8  N   UNL A   1      32.377  24.988  24.177  1.00  0.00    -0.315 N 
ATOM      9  C   UNL A   1      32.842  25.765  23.036  1.00  0.00     0.268 C 
ATOM     10  H   UNL A   1      32.412  25.393  25.112  1.00  0.00     0.349 HD
ATOM     11  C   UNL A   1      32.539  27.232  23.283  1.00  0.00     0.097 C 
ATOM     12  C   UNL A   1      30.267  26.337  23.881  1.00  0.00     0.022 A 
ATOM     13  C   UNL A   1      31.049  27.388  23.346  1.00  0.00    -0.033 A 
ATOM     14  C   UNL A   1      28.873  26.489  23.875  1.00  0.00     0.011 A 
ATOM     15  C   UNL A   1      30.459  28.568  22.878  1.00  0.00     0.004 A 
ATOM     16  C   UNL A   1      28.287  27.663  23.379  1.00  0.00     0.001 A 
ATOM     17  C   UNL A   1      29.078  28.704  22.893  1.00  0.00     0.000 A 
BRANCH   8  18
ATOM     18  C   UNL A   1      33.303  23.944  24.580  1.00  0.00     0.216 C 
ATOM     19  C   UNL A   1      34.784  24.160  24.342  1.00  0.00     0.081 C 
BRANCH  18  20
ATOM     20  C   UNL A   1      32.833  22.647  23.966  1.00  0.00     0.047 A 
ATOM     21  C   UNL A   1      32.480  22.375  22.610  1.00  0.00     0.052 A 
ATOM     22  C   UNL A   1      32.628  21.449  24.624  1.00  0.00     0.204 A 
ATOM     23  C   UNL A   1      32.066  21.067  22.553  1.00  0.00     0.195 A 
ATOM     24  O   UNL A   1      32.158  20.497  23.778  1.00  0.00    -0.472 OA
ENDBRANCH  18  20
ENDBRANCH   8  18
ENDBRANCH   4   7
ENDBRANCH   2   3
ENDBRANCH   1   2
BRANCH   1  25
ATOM     25  C   UNL A   1      33.072  29.665  25.890  1.00  0.00     0.118 C 
BRANCH  25  26
ATOM     26  N   UNL A   1      32.896  31.028  26.359  1.00  0.00    -0.352 N 
ATOM     27  C   UNL A   1      33.578  31.721  27.332  1.00  0.00     0.251 C 
ATOM     28  H   UNL A   1      32.179  31.534  25.911  1.00  0.00     0.163 HD
ATOM     29  O   UNL A   1      33.088  32.764  27.760  1.00  0.00    -0.269 OA
BRANCH  27  30
ATOM     30  C   UNL A   1      34.875  31.242  27.882  1.00  0.00     0.039 A 
ATOM     31  C   UNL A   1      34.937  29.946  28.411  1.00  0.00     0.014 A 
ATOM     32  C   UNL A   1      35.993  32.076  27.991  1.00  0.00     0.014 A 
ATOM     33  C   UNL A   1      36.112  29.481  29.016  1.00  0.00     0.010 A 
ATOM     34  C   UNL A   1      37.182  31.594  28.556  1.00  0.00     0.010 A 
ATOM     35  C   UNL A   1      37.253  30.295  29.087  1.00  0.00    -0.014 A 
BRANCH  35  36
ATOM     36  C   UNL A   1      38.503  29.804  29.740  1.00  0.00     0.031 A 
ATOM     37  C   UNL A   1      38.914  30.320  31.097  1.00  0.00     0.074 A 
ATOM     38  C   UNL A   1      39.290  28.908  29.109  1.00  0.00     0.049 A 
ATOM     39  N   UNL A   1      39.981  30.042  31.805  1.00  0.00    -0.248 NA
ATOM     40  C   UNL A   1      38.010  31.289  31.731  1.00  0.00     0.031 C 
ATOM     41  C   UNL A   1      39.026  28.340  27.787  1.00  0.00     0.029 A 
ATOM     42  N   UNL A   1      40.474  28.324  29.491  1.00  0.00    -0.354 N 
ATOM     43  C   UNL A   1      39.885  30.810  32.962  1.00  0.00     0.074 A 
ATOM     44  C   UNL A   1      38.677  31.601  32.833  1.00  0.00     0.031 C 
ATOM     45  C   UNL A   1      40.010  27.481  27.472  1.00  0.00     0.029 A 
ATOM     46  C   UNL A   1      40.995  27.463  28.551  1.00  0.00     0.049 A 
ATOM     47  H   UNL A   1      40.908  28.504  30.355  1.00  0.00     0.167 HD
ATOM     48  C   UNL A   1      40.713  30.842  34.039  1.00  0.00     0.034 A 
ATOM     49  C   UNL A   1      42.139  26.749  28.548  1.00  0.00     0.034 A 
ATOM     50  C   UNL A   1      41.911  30.044  34.164  1.00  0.00     0.049 A 
ATOM     51  C   UNL A   1      43.058  26.819  29.743  1.00  0.00     0.074 A 
ATOM     52  C   UNL A   1      42.789  29.969  35.234  1.00  0.00     0.029 A 
ATOM     53  N   UNL A   1      42.407  29.190  33.189  1.00  0.00    -0.354 N 
ATOM     54  N   UNL A   1      42.929  27.520  30.844  1.00  0.00    -0.248 NA
ATOM     55  C   UNL A   1      44.270  25.990  29.696  1.00  0.00     0.031 C 
ATOM     56  C   UNL A   1      43.846  29.121  34.881  1.00  0.00     0.029 A 
ATOM     57  C   UNL A   1      43.592  28.609  33.620  1.00  0.00     0.049 A 
ATOM     58  H   UNL A   1      41.982  29.022  32.317  1.00  0.00     0.167 HD
ATOM     59  C   UNL A   1      44.030  27.195  31.632  1.00  0.00     0.074 A 
ATOM     60  C   UNL A   1      44.803  26.223  30.887  1.00  0.00     0.031 C 
ATOM     61  C   UNL A   1      44.367  27.652  32.865  1.00  0.00     0.034 A 
BRANCH  48  62
ATOM     62  C   UNL A   1      40.361  31.798  35.156  1.00  0.00     0.023 A 
ATOM     63  C   UNL A   1      39.434  31.456  36.157  1.00  0.00     0.031 A 
ATOM     64  C   UNL A   1      40.944  33.076  35.210  1.00  0.00     0.131 A 
ATOM     65  C   UNL A   1      39.060  32.406  37.120  1.00  0.00     0.055 A 
ATOM     66  C   UNL A   1      40.627  33.990  36.218  1.00  0.00     0.041 A 
ATOM     67  F   UNL A   1      41.824  33.468  34.274  1.00  0.00    -0.206 F 
ATOM     68  C   UNL A   1      39.668  33.662  37.172  1.00  0.00     0.022 A 
BRANCH  65  69
ATOM     69  S   UNL A   1      37.664  32.025  38.213  1.00  0.00     0.124 S 
ATOM     70  O   UNL A   1      38.245  32.272  39.531  1.00  0.00    -0.237 OA
ATOM     71  O   UNL A   1      36.650  32.974  37.774  1.00  0.00    -0.237 OA
ATOM     72  O   UNL A   1      37.374  30.621  37.921  1.00  0.00    -0.744 OA
ENDBRANCH  65  69
ENDBRANCH  48  62
BRANCH  49  73
ATOM     73  C   UNL A   1      42.501  25.913  27.368  1.00  0.00     0.023 A 
ATOM     74  C   UNL A   1      42.113  24.567  27.284  1.00  0.00     0.031 A 
ATOM     75  C   UNL A   1      43.281  26.442  26.324  1.00  0.00     0.131 A 
ATOM     76  C   UNL A   1      42.541  23.782  26.202  1.00  0.00     0.055 A 
ATOM     77  C   UNL A   1      43.664  25.670  25.226  1.00  0.00     0.041 A 
ATOM     78  F   UNL A   1      43.675  27.725  26.353  1.00  0.00    -0.206 F 
ATOM     79  C   UNL A   1      43.304  24.328  25.167  1.00  0.00     0.022 A 
BRANCH  76  80
ATOM     80  S   UNL A   1      42.149  22.011  26.204  1.00  0.00     0.124 S 
ATOM     81  O   UNL A   1      40.717  22.022  25.925  1.00  0.00    -0.237 OA
ATOM     82  O   UNL A   1      43.007  21.511  25.136  1.00  0.00    -0.237 OA
ATOM     83  O   UNL A   1      42.519  21.582  27.551  1.00  0.00    -0.744 OA
ENDBRANCH  76  80
ENDBRANCH  49  73
BRANCH  61  84
ATOM     84  C   UNL A   1      45.608  27.069  33.498  1.00  0.00     0.023 A 
ATOM     85  C   UNL A   1      45.577  25.861  34.218  1.00  0.00     0.031 A 
ATOM     86  C   UNL A   1      46.838  27.745  33.396  1.00  0.00     0.131 A 
ATOM     87  C   UNL A   1      46.739  25.396  34.854  1.00  0.00     0.055 A 
ATOM     88  C   UNL A   1      48.002  27.248  33.983  1.00  0.00     0.041 A 
ATOM     89  F   UNL A   1      46.926  28.904  32.723  1.00  0.00    -0.206 F 
ATOM     90  C   UNL A   1      47.954  26.073  34.729  1.00  0.00     0.022 A 
BRANCH  87  91
ATOM     91  S   UNL A   1      46.622  23.936  35.926  1.00  0.00     0.124 S 
ATOM     92  O   UNL A   1      47.634  24.219  36.937  1.00  0.00    -0.237 OA
ATOM     93  O   UNL A   1      45.235  23.991  36.378  1.00  0.00    -0.237 OA
ATOM     94  O   UNL A   1      46.934  22.825  35.029  1.00  0.00    -0.744 OA
ENDBRANCH  87  91
ENDBRANCH  61  84
ENDBRANCH  35  36
ENDBRANCH  27  30
ENDBRANCH  25  26
ENDBRANCH   1  25
TORSDOF 15
ENDMDL
MODEL 2
REMARK VINA RESULT:     -12.1      2.017      2.367
REMARK SMILES C[C@H](c1ccoc1)[N@H+]1CCc2ccccc2[C@@H]1C(=O)NCCCNC(=O)c1ccc(-c2c3nc(c(-c4cc(S(=O)(=O)[O-])ccc4F)c4ccc([nH]4)c(-c4cc(S(=O)(=O)[O-])ccc4F)c4nc(c(-c5cc(S(=O)(=O)[O-])ccc5F)c5ccc2[nH]5)C=C4)C=C3)cc1
REMARK SMILES IDX 22 1 21 2 20 3 18 4 19 5 17 7 8 8 9 9 10 11 16 12 11 13
REMARK SMILES IDX 15 14 12 15 14 16 13 17 2 18 1 19 3 20 4 21 7 22 5 23 6 24
REMARK SMILES IDX 23 25 24 26 25 27 26 29 27 30 28 31 89 32 29 33 88 34 30 35
REMARK SMILES IDX 31 36 32 37 82 38 33 39 87 40 81 41 83 42 34 43 86 44 80 45
REMARK SMILES IDX 79 46 35 48 67 49 47 50 66 51 48 52 51 53 65 54 84 55 49 56
REMARK SMILES IDX 50 57 64 59 85 60 52 61 36 62 37 63 45 64 38 65 44 66 46 67
REMARK SMILES IDX 43 68 39 69 40 70 41 71 42 72 68 73 69 74 77 75 70 76 76 77
REMARK SMILES IDX 78 78 75 79 71 80 72 81 73 82 74 83 53 84 54 85 62 86 55 87
REMARK SMILES IDX 61 88 63 89 60 90 56 91 57 92 58 93 59 94
REMARK H PARENT 20 6 8 10 24 28 83 47 51 58
REMARK Flexibility Score: inf
ROOT
ATOM      1  C   UNL A   1      32.386  29.151  27.091  1.00  0.00     0.042 C 
ENDROOT
BRANCH   1   2
ATOM      2  C   UNL A   1      32.520  27.615  27.055  1.00  0.00     0.118 C 
BRANCH   2   3
ATOM      3  N   UNL A   1      31.282  26.858  26.995  1.00  0.00    -0.351 N 
ATOM      4  C   UNL A   1      30.812  25.889  26.154  1.00  0.00     0.283 C 
ATOM      5  O   UNL A   1      29.868  25.228  26.613  1.00  0.00    -0.268 OA
ATOM      6  H   UNL A   1      30.647  27.094  27.711  1.00  0.00     0.163 HD
BRANCH   4   7
ATOM      7  C   UNL A   1      31.394  25.612  24.721  1.00  0.00     0.306 C 
ATOM      8  N   UNL A   1      32.860  25.403  24.796  1.00  0.00    -0.315 N 
ATOM      9  C   UNL A   1      33.687  26.075  23.801  1.00  0.00     0.268 C 
ATOM     10  H   UNL A   1      32.656  25.868  25.680  1.00  0.00     0.349 HD
ATOM     11  C   UNL A   1      33.432  27.570  23.878  1.00  0.00     0.097 C 
ATOM     12  C   UNL A   1      31.025  26.842  23.836  1.00  0.00     0.022 A 
ATOM     13  C   UNL A   1      32.001  27.811  23.500  1.00  0.00    -0.033 A 
ATOM     14  C   UNL A   1      29.706  27.070  23.419  1.00  0.00     0.011 A 
ATOM     15  C   UNL A   1      31.656  28.987  22.824  1.00  0.00     0.004 A 
ATOM     16  C   UNL A   1      29.372  28.239  22.718  1.00  0.00     0.001 A 
ATOM     17  C   UNL A   1      30.341  29.199  22.432  1.00  0.00     0.000 A 
BRANCH   8  18
ATOM     18  C   UNL A   1      33.555  24.339  25.500  1.00  0.00     0.216 C 
ATOM     19  C   UNL A   1      35.070  24.333  25.485  1.00  0.00     0.081 C 
BRANCH  18  20
ATOM     20  C   UNL A   1      32.996  23.023  25.015  1.00  0.00     0.047 A 
ATOM     21  C   UNL A   1      33.164  22.392  23.745  1.00  0.00     0.052 A 
ATOM     22  C   UNL A   1      32.174  22.166  25.722  1.00  0.00     0.204 A 
ATOM     23  C   UNL A   1      32.421  21.238  23.766  1.00  0.00     0.195 A 
ATOM     24  O   UNL A   1      31.819  21.093  24.969  1.00  0.00    -0.472 OA
ENDBRANCH  18  20
ENDBRANCH   8  18
ENDBRANCH   4   7
ENDBRANCH   2   3
ENDBRANCH   1   2
BRANCH   1  25
ATOM     25  C   UNL A   1      33.622  29.994  26.748  1.00  0.00     0.118 C 
BRANCH  25  26
ATOM     26  N   UNL A   1      33.597  31.291  27.401  1.00  0.00    -0.352 N 
ATOM     27  C   UNL A   1      34.420  31.802  28.378  1.00  0.00     0.251 C 
ATOM     28  H   UNL A   1      32.881  31.896  27.099  1.00  0.00     0.163 HD
ATOM     29  O   UNL A   1      34.055  32.809  28.982  1.00  0.00    -0.269 OA
BRANCH  27  30
ATOM     30  C   UNL A   1      35.723  31.173  28.723  1.00  0.00     0.039 A 
ATOM     31  C   UNL A   1      35.716  30.025  29.526  1.00  0.00     0.014 A 
ATOM     32  C   UNL A   1      36.948  31.750  28.370  1.00  0.00     0.014 A 
ATOM     33  C   UNL A   1      36.921  29.445  29.947  1.00  0.00     0.010 A 
ATOM     34  C   UNL A   1      38.152  31.144  28.755  1.00  0.00     0.010 A 
ATOM     35  C   UNL A   1      38.154  29.991  29.559  1.00  0.00    -0.014 A 
BRANCH  35  36
ATOM     36  C   UNL A   1      39.439  29.381  30.015  1.00  0.00     0.031 A 
ATOM     37  C   UNL A   1      40.193  29.965  31.183  1.00  0.00     0.074 A 
ATOM     38  C   UNL A   1      39.946  28.311  29.369  1.00  0.00     0.049 A 
ATOM     39  N   UNL A   1      41.341  29.598  31.699  1.00  0.00    -0.248 NA
ATOM     40  C   UNL A   1      39.583  31.125  31.845  1.00  0.00     0.031 C 
ATOM     41  C   UNL A   1      39.334  27.657  28.213  1.00  0.00     0.029 A 
ATOM     42  N   UNL A   1      41.097  27.591  29.587  1.00  0.00    -0.354 N 
ATOM     43  C   UNL A   1      41.597  30.489  32.738  1.00  0.00     0.074 A 
ATOM     44  C   UNL A   1      40.505  31.441  32.742  1.00  0.00     0.031 C 
ATOM     45  C   UNL A   1      40.106  26.625  27.831  1.00  0.00     0.029 A 
ATOM     46  C   UNL A   1      41.287  26.565  28.689  1.00  0.00     0.049 A 
ATOM     47  H   UNL A   1      41.725  27.789  30.317  1.00  0.00     0.167 HD
ATOM     48  C   UNL A   1      42.632  30.502  33.618  1.00  0.00     0.034 A 
ATOM     49  C   UNL A   1      42.298  25.684  28.558  1.00  0.00     0.034 A 
ATOM     50  C   UNL A   1      43.713  29.543  33.613  1.00  0.00     0.049 A 
ATOM     51  C   UNL A   1      43.452  25.733  29.529  1.00  0.00     0.074 A 
ATOM     52  C   UNL A   1      44.781  29.443  34.491  1.00  0.00     0.029 A 
ATOM     53  N   UNL A   1      43.872  28.524  32.684  1.00  0.00    -0.354 N 
ATOM     54  N   UNL A   1      43.655  26.557  30.530  1.00  0.00    -0.248 NA
ATOM     55  C   UNL A   1      44.505  24.722  29.359  1.00  0.00     0.031 C 
ATOM     56  C   UNL A   1      45.616  28.407  34.056  1.00  0.00     0.029 A 
ATOM     57  C   UNL A   1      45.033  27.812  32.949  1.00  0.00     0.049 A 
ATOM     58  H   UNL A   1      43.251  28.335  31.943  1.00  0.00     0.167 HD
ATOM     59  C   UNL A   1      44.846  26.146  31.124  1.00  0.00     0.074 A 
ATOM     60  C   UNL A   1      45.306  24.992  30.380  1.00  0.00     0.031 C 
ATOM     61  C   UNL A   1      45.496  26.671  32.194  1.00  0.00     0.034 A 
BRANCH  48  62
ATOM     62  C   UNL A   1      42.656  31.613  34.643  1.00  0.00     0.023 A 
ATOM     63  C   UNL A   1      41.809  31.603  35.765  1.00  0.00     0.031 A 
ATOM     64  C   UNL A   1      43.524  32.708  34.486  1.00  0.00     0.131 A 
ATOM     65  C   UNL A   1      41.791  32.699  36.641  1.00  0.00     0.055 A 
ATOM     66  C   UNL A   1      43.558  33.760  35.405  1.00  0.00     0.041 A 
ATOM     67  F   UNL A   1      44.346  32.784  33.427  1.00  0.00    -0.206 F 
ATOM     68  C   UNL A   1      42.677  33.767  36.482  1.00  0.00     0.022 A 
BRANCH  65  69
ATOM     69  S   UNL A   1      40.494  32.774  37.906  1.00  0.00     0.124 S 
ATOM     70  O   UNL A   1      40.176  34.200  37.919  1.00  0.00    -0.237 OA
ATOM     71  O   UNL A   1      39.468  31.895  37.360  1.00  0.00    -0.237 OA
ATOM     72  O   UNL A   1      41.161  32.281  39.111  1.00  0.00    -0.744 OA
ENDBRANCH  65  69
ENDBRANCH  48  62
BRANCH  49  73
ATOM     73  C   UNL A   1      42.286  24.682  27.454  1.00  0.00     0.023 A 
ATOM     74  C   UNL A   1      41.525  23.506  27.547  1.00  0.00     0.031 A 
ATOM     75  C   UNL A   1      43.074  24.870  26.303  1.00  0.00     0.131 A 
ATOM     76  C   UNL A   1      41.601  22.542  26.530  1.00  0.00     0.055 A 
ATOM     77  C   UNL A   1      43.109  23.930  25.272  1.00  0.00     0.041 A 
ATOM     78  F   UNL A   1      43.817  25.979  26.163  1.00  0.00    -0.206 F 
ATOM     79  C   UNL A   1      42.378  22.752  25.388  1.00  0.00     0.022 A 
BRANCH  76  80
ATOM     80  S   UNL A   1      40.724  20.970  26.755  1.00  0.00     0.124 S 
ATOM     81  O   UNL A   1      40.736  20.828  28.206  1.00  0.00    -0.237 OA
ATOM     82  O   UNL A   1      39.430  21.257  26.148  1.00  0.00    -0.237 OA
ATOM     83  O   UNL A   1      41.553  20.011  26.027  1.00  0.00    -0.744 OA
ENDBRANCH  76  80
ENDBRANCH  49  73
BRANCH  61  84
ATOM     84  C   UNL A   1      46.755  25.970  32.644  1.00  0.00     0.023 A 
ATOM     85  C   UNL A   1      47.997  26.206  32.028  1.00  0.00     0.031 A 
ATOM     86  C   UNL A   1      46.706  25.035  33.694  1.00  0.00     0.131 A 
ATOM     87  C   UNL A   1      49.127  25.475  32.429  1.00  0.00     0.055 A 
ATOM     88  C   UNL A   1      47.844  24.353  34.126  1.00  0.00     0.041 A 
ATOM     89  F   UNL A   1      45.547  24.768  34.317  1.00  0.00    -0.206 F 
ATOM     90  C   UNL A   1      49.062  24.562  33.484  1.00  0.00     0.022 A 
BRANCH  87  91
ATOM     91  S   UNL A   1      50.669  25.668  31.492  1.00  0.00     0.124 S 
ATOM     92  O   UNL A   1      51.641  25.024  32.369  1.00  0.00    -0.237 OA
ATOM     93  O   UNL A   1      50.368  24.967  30.248  1.00  0.00    -0.237 OA
ATOM     94  O   UNL A   1      50.814  27.117  31.364  1.00  0.00    -0.744 OA
ENDBRANCH  87  91
ENDBRANCH  61  84
ENDBRANCH  35  36
ENDBRANCH  27  30
ENDBRANCH  25  26
ENDBRANCH   1  25
TORSDOF 15
ENDMDL
MODEL 3
REMARK VINA RESULT:     -12.1      2.104      3.734
REMARK SMILES C[C@H](c1ccoc1)[N@H+]1CCc2ccccc2[C@@H]1C(=O)NCCCNC(=O)c1ccc(-c2c3nc(c(-c4cc(S(=O)(=O)[O-])ccc4F)c4ccc([nH]4)c(-c4cc(S(=O)(=O)[O-])ccc4F)c4nc(c(-c5cc(S(=O)(=O)[O-])ccc5F)c5ccc2[nH]5)C=C4)C=C3)cc1
REMARK SMILES IDX 22 1 21 2 20 3 18 4 19 5 17 7 8 8 9 9 10 11 16 12 11 13
REMARK SMILES IDX 15 14 12 15 14 16 13 17 2 18 1 19 3 20 4 21 7 22 5 23 6 24
REMARK SMILES IDX 23 25 24 26 25 27 26 29 27 30 28 31 89 32 29 33 88 34 30 35
REMARK SMILES IDX 31 36 32 37 82 38 33 39 87 40 81 41 83 42 34 43 86 44 80 45
REMARK SMILES IDX 79 46 35 48 67 49 47 50 66 51 48 52 51 53 65 54 84 55 49 56
REMARK SMILES IDX 50 57 64 59 85 60 52 61 36 62 37 63 45 64 38 65 44 66 46 67
REMARK SMILES IDX 43 68 39 69 40 70 41 71 42 72 68 73 69 74 77 75 70 76 76 77
REMARK SMILES IDX 78 78 75 79 71 80 72 81 73 82 74 83 53 84 54 85 62 86 55 87
REMARK SMILES IDX 61 88 63 89 60 90 56 91 57 92 58 93 59 94
REMARK H PARENT 20 6 8 10 24 28 83 47 51 58
REMARK Flexibility Score: inf
ROOT
ATOM      1  C   UNL A   1      33.738  28.286  25.167  1.00  0.00     0.042 C 
ENDROOT
BRANCH   1   2
ATOM      2  C   UNL A   1      33.855  26.842  24.637  1.00  0.00     0.118 C 
BRANCH   2   3
ATOM      3  N   UNL A   1      33.734  25.780  25.621  1.00  0.00    -0.351 N 
ATOM      4  C   UNL A   1      33.940  24.429  25.577  1.00  0.00     0.283 C 
ATOM      5  O   UNL A   1      34.080  23.898  26.688  1.00  0.00    -0.268 OA
ATOM      6  H   UNL A   1      33.441  26.100  26.505  1.00  0.00     0.163 HD
BRANCH   4   7
ATOM      7  C   UNL A   1      33.998  23.593  24.248  1.00  0.00     0.306 C 
ATOM      8  N   UNL A   1      32.704  22.905  24.019  1.00  0.00    -0.315 N 
ATOM      9  C   UNL A   1      32.749  21.508  23.606  1.00  0.00     0.268 C 
ATOM     10  H   UNL A   1      32.661  23.138  25.011  1.00  0.00     0.349 HD
ATOM     11  C   UNL A   1      33.514  20.711  24.648  1.00  0.00     0.097 C 
ATOM     12  C   UNL A   1      35.176  22.581  24.400  1.00  0.00     0.022 A 
ATOM     13  C   UNL A   1      34.926  21.213  24.662  1.00  0.00    -0.033 A 
ATOM     14  C   UNL A   1      36.512  23.008  24.365  1.00  0.00     0.011 A 
ATOM     15  C   UNL A   1      35.971  20.323  24.936  1.00  0.00     0.004 A 
ATOM     16  C   UNL A   1      37.555  22.104  24.613  1.00  0.00     0.001 A 
ATOM     17  C   UNL A   1      37.285  20.769  24.910  1.00  0.00     0.000 A 
BRANCH   8  18
ATOM     18  C   UNL A   1      31.411  23.530  23.802  1.00  0.00     0.216 C 
ATOM     19  C   UNL A   1      31.358  24.831  23.028  1.00  0.00     0.081 C 
BRANCH  18  20
ATOM     20  C   UNL A   1      30.732  23.663  25.145  1.00  0.00     0.047 A 
ATOM     21  C   UNL A   1      30.433  22.648  26.102  1.00  0.00     0.052 A 
ATOM     22  C   UNL A   1      30.237  24.825  25.707  1.00  0.00     0.204 A 
ATOM     23  C   UNL A   1      29.766  23.251  27.138  1.00  0.00     0.195 A 
ATOM     24  O   UNL A   1      29.647  24.580  26.905  1.00  0.00    -0.472 OA
ENDBRANCH  18  20
ENDBRANCH   8  18
ENDBRANCH   4   7
ENDBRANCH   2   3
ENDBRANCH   1   2
BRANCH   1  25
ATOM     25  C   UNL A   1      33.630  28.494  26.684  1.00  0.00     0.118 C 
BRANCH  25  26
ATOM     26  N   UNL A   1      33.628  29.901  27.043  1.00  0.00    -0.352 N 
ATOM     27  C   UNL A   1      34.523  30.618  27.803  1.00  0.00     0.251 C 
ATOM     28  H   UNL A   1      32.869  30.420  26.689  1.00  0.00     0.163 HD
ATOM     29  O   UNL A   1      34.185  31.728  28.211  1.00  0.00    -0.269 OA
BRANCH  27  30
ATOM     30  C   UNL A   1      35.870  30.090  28.148  1.00  0.00     0.039 A 
ATOM     31  C   UNL A   1      36.045  29.473  29.393  1.00  0.00     0.014 A 
ATOM     32  C   UNL A   1      36.983  30.287  27.323  1.00  0.00     0.014 A 
ATOM     33  C   UNL A   1      37.313  29.035  29.797  1.00  0.00     0.010 A 
ATOM     34  C   UNL A   1      38.243  29.809  27.709  1.00  0.00     0.010 A 
ATOM     35  C   UNL A   1      38.426  29.188  28.956  1.00  0.00    -0.014 A 
BRANCH  35  36
ATOM     36  C   UNL A   1      39.781  28.731  29.390  1.00  0.00     0.031 A 
ATOM     37  C   UNL A   1      40.518  29.450  30.492  1.00  0.00     0.074 A 
ATOM     38  C   UNL A   1      40.367  27.680  28.780  1.00  0.00     0.049 A 
ATOM     39  N   UNL A   1      41.714  29.225  30.977  1.00  0.00    -0.248 NA
ATOM     40  C   UNL A   1      39.820  30.582  31.117  1.00  0.00     0.031 C 
ATOM     41  C   UNL A   1      39.779  26.905  27.687  1.00  0.00     0.029 A 
ATOM     42  N   UNL A   1      41.590  27.087  28.987  1.00  0.00    -0.354 N 
ATOM     43  C   UNL A   1      41.920  30.194  31.956  1.00  0.00     0.074 A 
ATOM     44  C   UNL A   1      40.740  31.036  31.956  1.00  0.00     0.031 C 
ATOM     45  C   UNL A   1      40.634  25.932  27.328  1.00  0.00     0.029 A 
ATOM     46  C   UNL A   1      41.847  26.035  28.137  1.00  0.00     0.049 A 
ATOM     47  H   UNL A   1      42.223  27.387  29.678  1.00  0.00     0.167 HD
ATOM     48  C   UNL A   1      42.980  30.357  32.789  1.00  0.00     0.034 A 
ATOM     49  C   UNL A   1      42.935  25.249  28.010  1.00  0.00     0.034 A 
ATOM     50  C   UNL A   1      44.149  29.508  32.790  1.00  0.00     0.049 A 
ATOM     51  C   UNL A   1      44.113  25.464  28.927  1.00  0.00     0.074 A 
ATOM     52  C   UNL A   1      45.253  29.561  33.625  1.00  0.00     0.029 A 
ATOM     53  N   UNL A   1      44.373  28.458  31.910  1.00  0.00    -0.354 N 
ATOM     54  N   UNL A   1      44.271  26.359  29.874  1.00  0.00    -0.248 NA
ATOM     55  C   UNL A   1      45.253  24.552  28.766  1.00  0.00     0.031 C 
ATOM     56  C   UNL A   1      46.170  28.587  33.210  1.00  0.00     0.029 A 
ATOM     57  C   UNL A   1      45.608  27.876  32.162  1.00  0.00     0.049 A 
ATOM     58  H   UNL A   1      43.747  28.168  31.207  1.00  0.00     0.167 HD
ATOM     59  C   UNL A   1      45.518  26.099  30.437  1.00  0.00     0.074 A 
ATOM     60  C   UNL A   1      46.061  24.954  29.736  1.00  0.00     0.031 C 
ATOM     61  C   UNL A   1      46.152  26.744  31.449  1.00  0.00     0.034 A 
BRANCH  48  62
ATOM     62  C   UNL A   1      42.933  31.522  33.752  1.00  0.00     0.023 A 
ATOM     63  C   UNL A   1      42.452  31.376  35.065  1.00  0.00     0.031 A 
ATOM     64  C   UNL A   1      43.356  32.799  33.345  1.00  0.00     0.131 A 
ATOM     65  C   UNL A   1      42.332  32.501  35.897  1.00  0.00     0.055 A 
ATOM     66  C   UNL A   1      43.308  33.900  34.205  1.00  0.00     0.041 A 
ATOM     67  F   UNL A   1      43.811  33.006  32.099  1.00  0.00    -0.206 F 
ATOM     68  C   UNL A   1      42.779  33.757  35.484  1.00  0.00     0.022 A 
BRANCH  65  69
ATOM     69  S   UNL A   1      41.449  32.321  37.471  1.00  0.00     0.124 S 
ATOM     70  O   UNL A   1      40.153  31.816  37.027  1.00  0.00    -0.237 OA
ATOM     71  O   UNL A   1      42.288  31.379  38.198  1.00  0.00    -0.237 OA
ATOM     72  O   UNL A   1      41.428  33.682  38.009  1.00  0.00    -0.744 OA
ENDBRANCH  65  69
ENDBRANCH  48  62
BRANCH  49  73
ATOM     73  C   UNL A   1      42.980  24.190  26.962  1.00  0.00     0.023 A 
ATOM     74  C   UNL A   1      42.321  22.963  27.139  1.00  0.00     0.031 A 
ATOM     75  C   UNL A   1      43.723  24.377  25.782  1.00  0.00     0.131 A 
ATOM     76  C   UNL A   1      42.453  21.953  26.173  1.00  0.00     0.055 A 
ATOM     77  C   UNL A   1      43.812  23.387  24.802  1.00  0.00     0.041 A 
ATOM     78  F   UNL A   1      44.369  25.533  25.562  1.00  0.00    -0.206 F 
ATOM     79  C   UNL A   1      43.183  22.161  25.001  1.00  0.00     0.022 A 
BRANCH  76  80
ATOM     80  S   UNL A   1      41.715  20.330  26.506  1.00  0.00     0.124 S 
ATOM     81  O   UNL A   1      42.351  19.966  27.767  1.00  0.00    -0.237 OA
ATOM     82  O   UNL A   1      40.294  20.653  26.573  1.00  0.00    -0.237 OA
ATOM     83  O   UNL A   1      42.116  19.530  25.351  1.00  0.00    -0.744 OA
ENDBRANCH  76  80
ENDBRANCH  49  73
BRANCH  61  84
ATOM     84  C   UNL A   1      47.490  26.194  31.883  1.00  0.00     0.023 A 
ATOM     85  C   UNL A   1      47.610  25.297  32.960  1.00  0.00     0.031 A 
ATOM     86  C   UNL A   1      48.665  26.590  31.219  1.00  0.00     0.131 A 
ATOM     87  C   UNL A   1      48.881  24.871  33.376  1.00  0.00     0.055 A 
ATOM     88  C   UNL A   1      49.922  26.118  31.603  1.00  0.00     0.041 A 
ATOM     89  F   UNL A   1      48.611  27.446  30.186  1.00  0.00    -0.206 F 
ATOM     90  C   UNL A   1      50.036  25.263  32.696  1.00  0.00     0.022 A 
BRANCH  87  91
ATOM     91  S   UNL A   1      49.014  23.864  34.881  1.00  0.00     0.124 S 
ATOM     92  O   UNL A   1      49.075  22.511  34.337  1.00  0.00    -0.237 OA
ATOM     93  O   UNL A   1      50.244  24.365  35.484  1.00  0.00    -0.237 OA
ATOM     94  O   UNL A   1      47.791  24.182  35.616  1.00  0.00    -0.744 OA
ENDBRANCH  87  91
ENDBRANCH  61  84
ENDBRANCH  35  36
ENDBRANCH  27  30
ENDBRANCH  25  26
ENDBRANCH   1  25
TORSDOF 15
ENDMDL
