MODEL 1
REMARK VINA RESULT:     -13.3      0.000      0.000
REMARK SMILES O=C(CNC(=O)N1CC(NCCCNC(=O)c2ccc(-c3c4nc(c(-c5cc(S(=O)(=O)[O-])ccc5F)c5ccc([nH]5)c(-c5cc(S(=O)(=O)[O-])ccc5F)c5nc(c(-c6cc(S(=O)(=O)[O-])ccc6F)c6ccc3[nH]6)C=C5)C=C4)cc2)=[NH+]c2ccccc21)N[C@H](C(=O)[O-])c1ccccc1
REMARK SMILES IDX 11 1 10 2 7 3 8 4 86 5 9 6 81 7 85 8 80 9 82 10 84 11 83 14
REMARK SMILES IDX 5 15 4 16 6 18 3 19 2 20 1 21 87 22 88 24 92 25 93 26 97 27
REMARK SMILES IDX 94 28 96 29 95 30 89 31 90 32 91 33 12 34 13 35 14 36 15 37
REMARK SMILES IDX 16 39 17 40 18 41 79 42 19 43 78 44 20 45 21 46 22 47 72 48
REMARK SMILES IDX 23 49 77 50 71 51 73 52 24 53 76 54 70 55 69 56 25 58 57 59
REMARK SMILES IDX 37 60 56 61 38 62 41 63 55 64 74 65 39 66 40 67 54 69 75 70
REMARK SMILES IDX 42 71 26 72 27 73 35 74 28 75 34 76 36 77 33 78 29 79 30 80
REMARK SMILES IDX 31 81 32 82 58 83 59 84 67 85 60 86 66 87 68 88 65 89 61 90
REMARK SMILES IDX 62 91 63 92 64 93 43 94 44 95 52 96 45 97 51 98 53 99 50 100
REMARK SMILES IDX 46 101 47 102 48 103 49 104
REMARK H PARENT 10 12 80 13 4 17 87 23 14 38 73 57 41 68
REMARK Flexibility Score: inf
ROOT
ATOM      1  C   UNL A   1      35.342  21.568  26.184  1.00  0.00     0.235 C 
ENDROOT
BRANCH   1   2
ATOM      2  N   UNL A   1      35.245  22.931  25.724  1.00  0.00    -0.277 N 
ATOM      3  N   UNL A   1      31.990  24.358  26.625  1.00  0.00    -0.278 N 
ATOM      4  C   UNL A   1      33.147  23.568  27.001  1.00  0.00     0.255 C 
ATOM      5  C   UNL A   1      32.250  25.727  26.373  1.00  0.00     0.093 A 
ATOM      6  C   UNL A   1      34.314  23.884  26.054  1.00  0.00     0.268 C 
ATOM      7  C   UNL A   1      33.508  26.057  25.838  1.00  0.00     0.148 A 
ATOM      8  C   UNL A   1      31.274  26.713  26.565  1.00  0.00     0.031 A 
ATOM      9  N   UNL A   1      34.490  25.083  25.564  1.00  0.00    -0.241 N 
ATOM     10  C   UNL A   1      33.734  27.372  25.426  1.00  0.00     0.054 A 
ATOM     11  C   UNL A   1      31.523  28.025  26.166  1.00  0.00     0.002 A 
ATOM     12  H   UNL A   1      35.939  23.217  25.086  1.00  0.00     0.304 HD
ATOM     13  H   UNL A   1      35.284  25.299  25.022  1.00  0.00     0.312 HD
ATOM     14  C   UNL A   1      32.745  28.351  25.582  1.00  0.00     0.005 A 
BRANCH   3  15
ATOM     15  C   UNL A   1      30.776  23.729  26.498  1.00  0.00     0.323 C 
ATOM     16  N   UNL A   1      30.581  22.890  25.445  1.00  0.00    -0.329 N 
ATOM     17  H   UNL A   1      29.646  22.721  25.193  1.00  0.00     0.165 HD
ATOM     18  O   UNL A   1      29.886  23.835  27.342  1.00  0.00    -0.248 OA
BRANCH  16  19
ATOM     19  C   UNL A   1      31.599  22.207  24.640  1.00  0.00     0.218 C 
BRANCH  19  20
ATOM     20  C   UNL A   1      31.788  22.955  23.334  1.00  0.00     0.240 C 
ATOM     21  O   UNL A   1      32.072  22.351  22.305  1.00  0.00    -0.273 OA
ATOM     22  N   UNL A   1      31.762  24.325  23.496  1.00  0.00    -0.342 N 
ATOM     23  H   UNL A   1      31.774  24.699  24.407  1.00  0.00     0.164 HD
BRANCH  22  24
ATOM     24  C   UNL A   1      31.715  25.254  22.340  1.00  0.00     0.158 C 
BRANCH  24  25
ATOM     25  C   UNL A   1      30.849  26.479  22.616  1.00  0.00    -0.020 A 
ATOM     26  C   UNL A   1      29.639  26.398  23.318  1.00  0.00     0.006 A 
ATOM     27  C   UNL A   1      31.294  27.769  22.256  1.00  0.00     0.006 A 
ATOM     28  C   UNL A   1      28.865  27.537  23.565  1.00  0.00     0.000 A 
ATOM     29  C   UNL A   1      30.521  28.908  22.490  1.00  0.00     0.000 A 
ATOM     30  C   UNL A   1      29.297  28.789  23.136  1.00  0.00     0.000 A 
ENDBRANCH  24  25
BRANCH  24  31
ATOM     31  C   UNL A   1      33.146  25.352  21.694  1.00  0.00     0.068 C 
ATOM     32  O   UNL A   1      34.171  25.237  22.416  1.00  0.00    -0.548 OA
ATOM     33  O   UNL A   1      33.100  25.554  20.430  1.00  0.00    -0.548 OA
ENDBRANCH  24  31
ENDBRANCH  22  24
ENDBRANCH  19  20
ENDBRANCH  16  19
ENDBRANCH   3  15
ENDBRANCH   1   2
BRANCH   1  34
ATOM     34  C   UNL A   1      36.103  20.688  25.200  1.00  0.00     0.067 C 
BRANCH  34  35
ATOM     35  C   UNL A   1      37.545  21.124  24.943  1.00  0.00     0.120 C 
BRANCH  35  36
ATOM     36  N   UNL A   1      38.526  20.199  25.503  1.00  0.00    -0.352 N 
ATOM     37  C   UNL A   1      39.718  20.435  26.143  1.00  0.00     0.251 C 
ATOM     38  H   UNL A   1      38.296  19.246  25.405  1.00  0.00     0.163 HD
ATOM     39  O   UNL A   1      40.474  19.488  26.365  1.00  0.00    -0.269 OA
BRANCH  37  40
ATOM     40  C   UNL A   1      40.112  21.805  26.542  1.00  0.00     0.039 A 
ATOM     41  C   UNL A   1      41.207  21.970  27.397  1.00  0.00     0.014 A 
ATOM     42  C   UNL A   1      39.401  22.924  26.102  1.00  0.00     0.014 A 
ATOM     43  C   UNL A   1      41.636  23.255  27.740  1.00  0.00     0.010 A 
ATOM     44  C   UNL A   1      39.879  24.203  26.378  1.00  0.00     0.010 A 
ATOM     45  C   UNL A   1      41.004  24.385  27.195  1.00  0.00    -0.014 A 
BRANCH  45  46
ATOM     46  C   UNL A   1      41.518  25.758  27.451  1.00  0.00     0.031 A 
ATOM     47  C   UNL A   1      42.875  26.170  26.953  1.00  0.00     0.074 A 
ATOM     48  C   UNL A   1      40.785  26.613  28.190  1.00  0.00     0.049 A 
ATOM     49  N   UNL A   1      43.515  27.299  27.125  1.00  0.00    -0.248 NA
ATOM     50  C   UNL A   1      43.618  25.171  26.173  1.00  0.00     0.031 C 
ATOM     51  C   UNL A   1      39.465  26.325  28.755  1.00  0.00     0.029 A 
ATOM     52  N   UNL A   1      41.046  27.897  28.602  1.00  0.00    -0.354 N 
ATOM     53  C   UNL A   1      44.742  27.142  26.489  1.00  0.00     0.074 A 
ATOM     54  C   UNL A   1      44.774  25.785  25.982  1.00  0.00     0.031 C 
ATOM     55  C   UNL A   1      39.018  27.411  29.405  1.00  0.00     0.029 A 
ATOM     56  C   UNL A   1      40.039  28.451  29.358  1.00  0.00     0.049 A 
ATOM     57  H   UNL A   1      41.875  28.377  28.376  1.00  0.00     0.167 HD
ATOM     58  C   UNL A   1      45.739  28.048  26.323  1.00  0.00     0.034 A 
ATOM     59  C   UNL A   1      39.955  29.655  29.960  1.00  0.00     0.034 A 
ATOM     60  C   UNL A   1      45.702  29.388  26.862  1.00  0.00     0.049 A 
ATOM     61  C   UNL A   1      41.113  30.612  29.843  1.00  0.00     0.074 A 
ATOM     62  C   UNL A   1      46.635  30.401  26.722  1.00  0.00     0.029 A 
ATOM     63  N   UNL A   1      44.690  29.894  27.671  1.00  0.00    -0.354 N 
ATOM     64  N   UNL A   1      42.240  30.475  29.186  1.00  0.00    -0.248 NA
ATOM     65  C   UNL A   1      40.981  31.892  30.551  1.00  0.00     0.031 C 
ATOM     66  C   UNL A   1      46.228  31.486  27.509  1.00  0.00     0.029 A 
ATOM     67  C   UNL A   1      44.994  31.190  28.068  1.00  0.00     0.049 A 
ATOM     68  H   UNL A   1      43.874  29.406  27.925  1.00  0.00     0.167 HD
ATOM     69  C   UNL A   1      42.938  31.666  29.374  1.00  0.00     0.074 A 
ATOM     70  C   UNL A   1      42.096  32.513  30.195  1.00  0.00     0.031 C 
ATOM     71  C   UNL A   1      44.159  32.027  28.900  1.00  0.00     0.034 A 
BRANCH  58  72
ATOM     72  C   UNL A   1      46.964  27.589  25.562  1.00  0.00     0.023 A 
ATOM     73  C   UNL A   1      47.209  28.007  24.239  1.00  0.00     0.031 A 
ATOM     74  C   UNL A   1      47.868  26.679  26.137  1.00  0.00     0.131 A 
ATOM     75  C   UNL A   1      48.261  27.438  23.505  1.00  0.00     0.055 A 
ATOM     76  C   UNL A   1      48.968  26.187  25.431  1.00  0.00     0.041 A 
ATOM     77  F   UNL A   1      47.689  26.234  27.390  1.00  0.00    -0.206 F 
ATOM     78  C   UNL A   1      49.158  26.548  24.099  1.00  0.00     0.022 A 
BRANCH  75  79
ATOM     79  S   UNL A   1      48.334  27.744  21.718  1.00  0.00     0.124 S 
ATOM     80  O   UNL A   1      49.430  28.705  21.622  1.00  0.00    -0.237 OA
ATOM     81  O   UNL A   1      48.602  26.415  21.180  1.00  0.00    -0.237 OA
ATOM     82  O   UNL A   1      47.012  28.285  21.406  1.00  0.00    -0.744 OA
ENDBRANCH  75  79
ENDBRANCH  58  72
BRANCH  59  83
ATOM     83  C   UNL A   1      38.732  30.030  30.727  1.00  0.00     0.023 A 
ATOM     84  C   UNL A   1      37.714  30.787  30.125  1.00  0.00     0.031 A 
ATOM     85  C   UNL A   1      38.574  29.668  32.076  1.00  0.00     0.131 A 
ATOM     86  C   UNL A   1      36.601  31.189  30.878  1.00  0.00     0.055 A 
ATOM     87  C   UNL A   1      37.439  30.024  32.807  1.00  0.00     0.041 A 
ATOM     88  F   UNL A   1      39.517  28.945  32.701  1.00  0.00    -0.206 F 
ATOM     89  C   UNL A   1      36.449  30.799  32.211  1.00  0.00     0.022 A 
BRANCH  86  90
ATOM     90  S   UNL A   1      35.384  32.294  30.110  1.00  0.00     0.124 S 
ATOM     91  O   UNL A   1      34.920  31.493  28.984  1.00  0.00    -0.237 OA
ATOM     92  O   UNL A   1      34.425  32.494  31.192  1.00  0.00    -0.237 OA
ATOM     93  O   UNL A   1      36.168  33.474  29.753  1.00  0.00    -0.744 OA
ENDBRANCH  86  90
ENDBRANCH  59  83
BRANCH  71  94
ATOM     94  C   UNL A   1      44.631  33.430  29.212  1.00  0.00     0.023 A 
ATOM     95  C   UNL A   1      44.339  34.523  28.376  1.00  0.00     0.031 A 
ATOM     96  C   UNL A   1      45.399  33.671  30.366  1.00  0.00     0.131 A 
ATOM     97  C   UNL A   1      44.856  35.794  28.678  1.00  0.00     0.055 A 
ATOM     98  C   UNL A   1      45.853  34.948  30.697  1.00  0.00     0.041 A 
ATOM     99  F   UNL A   1      45.719  32.666  31.198  1.00  0.00    -0.206 F 
ATOM    100  C   UNL A   1      45.593  36.016  29.845  1.00  0.00     0.022 A 
BRANCH  97 101
ATOM    101  S   UNL A   1      44.644  37.140  27.479  1.00  0.00     0.124 S 
ATOM    102  O   UNL A   1      43.424  36.742  26.786  1.00  0.00    -0.237 OA
ATOM    103  O   UNL A   1      44.538  38.314  28.339  1.00  0.00    -0.237 OA
ATOM    104  O   UNL A   1      45.862  37.076  26.672  1.00  0.00    -0.744 OA
ENDBRANCH  97 101
ENDBRANCH  71  94
ENDBRANCH  45  46
ENDBRANCH  37  40
ENDBRANCH  35  36
ENDBRANCH  34  35
ENDBRANCH   1  34
TORSDOF 18
ENDMDL
MODEL 2
REMARK VINA RESULT:     -13.2      1.080      7.286
REMARK SMILES O=C(CNC(=O)N1CC(NCCCNC(=O)c2ccc(-c3c4nc(c(-c5cc(S(=O)(=O)[O-])ccc5F)c5ccc([nH]5)c(-c5cc(S(=O)(=O)[O-])ccc5F)c5nc(c(-c6cc(S(=O)(=O)[O-])ccc6F)c6ccc3[nH]6)C=C5)C=C4)cc2)=[NH+]c2ccccc21)N[C@H](C(=O)[O-])c1ccccc1
REMARK SMILES IDX 11 1 10 2 7 3 8 4 86 5 9 6 81 7 85 8 80 9 82 10 84 11 83 14
REMARK SMILES IDX 5 15 4 16 6 18 3 19 2 20 1 21 87 22 88 24 92 25 93 26 97 27
REMARK SMILES IDX 94 28 96 29 95 30 89 31 90 32 91 33 12 34 13 35 14 36 15 37
REMARK SMILES IDX 16 39 17 40 18 41 79 42 19 43 78 44 20 45 21 46 22 47 72 48
REMARK SMILES IDX 23 49 77 50 71 51 73 52 24 53 76 54 70 55 69 56 25 58 57 59
REMARK SMILES IDX 37 60 56 61 38 62 41 63 55 64 74 65 39 66 40 67 54 69 75 70
REMARK SMILES IDX 42 71 26 72 27 73 35 74 28 75 34 76 36 77 33 78 29 79 30 80
REMARK SMILES IDX 31 81 32 82 58 83 59 84 67 85 60 86 66 87 68 88 65 89 61 90
REMARK SMILES IDX 62 91 63 92 64 93 43 94 44 95 52 96 45 97 51 98 53 99 50 100
REMARK SMILES IDX 46 101 47 102 48 103 49 104
REMARK H PARENT 10 12 80 13 4 17 87 23 14 38 73 57 41 68
REMARK Flexibility Score: inf
ROOT
ATOM      1  C   UNL A   1      34.112  22.067  24.872  1.00  0.00     0.235 C 
ENDROOT
BRANCH   1   2
ATOM      2  N   UNL A   1      34.419  23.474  24.957  1.00  0.00    -0.277 N 
ATOM      3  N   UNL A   1      31.563  25.328  26.317  1.00  0.00    -0.278 N 
ATOM      4  C   UNL A   1      32.430  24.166  26.372  1.00  0.00     0.255 C 
ATOM      5  C   UNL A   1      32.192  26.565  26.598  1.00  0.00     0.093 A 
ATOM      6  C   UNL A   1      33.734  24.462  25.618  1.00  0.00     0.268 C 
ATOM      7  C   UNL A   1      33.544  26.700  26.231  1.00  0.00     0.148 A 
ATOM      8  C   UNL A   1      31.488  27.646  27.144  1.00  0.00     0.031 A 
ATOM      9  N   UNL A   1      34.265  25.657  25.616  1.00  0.00    -0.241 N 
ATOM     10  C   UNL A   1      34.143  27.956  26.345  1.00  0.00     0.054 A 
ATOM     11  C   UNL A   1      32.108  28.888  27.268  1.00  0.00     0.002 A 
ATOM     12  H   UNL A   1      35.228  23.764  24.477  1.00  0.00     0.304 HD
ATOM     13  H   UNL A   1      35.141  25.823  25.197  1.00  0.00     0.312 HD
ATOM     14  C   UNL A   1      33.429  29.047  26.854  1.00  0.00     0.005 A 
BRANCH   3  15
ATOM     15  C   UNL A   1      30.250  25.153  25.958  1.00  0.00     0.323 C 
ATOM     16  N   UNL A   1      29.954  24.917  24.651  1.00  0.00    -0.329 N 
ATOM     17  H   UNL A   1      29.033  25.121  24.372  1.00  0.00     0.165 HD
ATOM     18  O   UNL A   1      29.337  25.124  26.785  1.00  0.00    -0.248 OA
BRANCH  16  19
ATOM     19  C   UNL A   1      30.843  24.395  23.609  1.00  0.00     0.218 C 
BRANCH  19  20
ATOM     20  C   UNL A   1      31.329  25.544  22.745  1.00  0.00     0.240 C 
ATOM     21  O   UNL A   1      32.053  25.333  21.777  1.00  0.00    -0.273 OA
ATOM     22  N   UNL A   1      30.999  26.778  23.266  1.00  0.00    -0.342 N 
ATOM     23  H   UNL A   1      30.631  26.829  24.178  1.00  0.00     0.164 HD
BRANCH  22  24
ATOM     24  C   UNL A   1      31.183  28.033  22.495  1.00  0.00     0.158 C 
BRANCH  24  25
ATOM     25  C   UNL A   1      29.915  28.878  22.453  1.00  0.00    -0.020 A 
ATOM     26  C   UNL A   1      29.849  30.096  21.763  1.00  0.00     0.006 A 
ATOM     27  C   UNL A   1      28.718  28.406  23.033  1.00  0.00     0.006 A 
ATOM     28  C   UNL A   1      28.672  30.850  21.733  1.00  0.00     0.000 A 
ATOM     29  C   UNL A   1      27.543  29.160  23.015  1.00  0.00     0.000 A 
ATOM     30  C   UNL A   1      27.523  30.391  22.373  1.00  0.00     0.000 A 
ENDBRANCH  24  25
BRANCH  24  31
ATOM     31  C   UNL A   1      32.599  28.638  22.818  1.00  0.00     0.068 C 
ATOM     32  O   UNL A   1      33.599  28.300  22.130  1.00  0.00    -0.548 OA
ATOM     33  O   UNL A   1      32.570  29.453  23.805  1.00  0.00    -0.548 OA
ENDBRANCH  24  31
ENDBRANCH  22  24
ENDBRANCH  19  20
ENDBRANCH  16  19
ENDBRANCH   3  15
ENDBRANCH   1   2
BRANCH   1  34
ATOM     34  C   UNL A   1      35.208  21.207  25.489  1.00  0.00     0.067 C 
BRANCH  34  35
ATOM     35  C   UNL A   1      36.630  21.661  25.161  1.00  0.00     0.120 C 
BRANCH  35  36
ATOM     36  N   UNL A   1      37.628  20.624  25.410  1.00  0.00    -0.352 N 
ATOM     37  C   UNL A   1      38.931  20.717  25.833  1.00  0.00     0.251 C 
ATOM     38  H   UNL A   1      37.316  19.705  25.245  1.00  0.00     0.163 HD
ATOM     39  O   UNL A   1      39.644  19.714  25.792  1.00  0.00    -0.269 OA
BRANCH  37  40
ATOM     40  C   UNL A   1      39.489  22.003  26.309  1.00  0.00     0.039 A 
ATOM     41  C   UNL A   1      40.578  21.982  27.188  1.00  0.00     0.014 A 
ATOM     42  C   UNL A   1      38.938  23.225  25.917  1.00  0.00     0.014 A 
ATOM     43  C   UNL A   1      41.161  23.182  27.604  1.00  0.00     0.010 A 
ATOM     44  C   UNL A   1      39.570  24.416  26.266  1.00  0.00     0.010 A 
ATOM     45  C   UNL A   1      40.692  24.410  27.109  1.00  0.00    -0.014 A 
BRANCH  45  46
ATOM     46  C   UNL A   1      41.372  25.690  27.444  1.00  0.00     0.031 A 
ATOM     47  C   UNL A   1      40.668  26.735  28.265  1.00  0.00     0.074 A 
ATOM     48  C   UNL A   1      42.602  25.937  26.953  1.00  0.00     0.049 A 
ATOM     49  N   UNL A   1      41.073  27.931  28.611  1.00  0.00    -0.248 NA
ATOM     50  C   UNL A   1      39.322  26.395  28.744  1.00  0.00     0.031 C 
ATOM     51  C   UNL A   1      43.380  25.016  26.122  1.00  0.00     0.029 A 
ATOM     52  N   UNL A   1      43.413  27.038  27.074  1.00  0.00    -0.354 N 
ATOM     53  C   UNL A   1      40.026  28.493  29.334  1.00  0.00     0.074 A 
ATOM     54  C   UNL A   1      38.948  27.526  29.321  1.00  0.00     0.031 C 
ATOM     55  C   UNL A   1      44.568  25.575  25.841  1.00  0.00     0.029 A 
ATOM     56  C   UNL A   1      44.616  26.914  26.416  1.00  0.00     0.049 A 
ATOM     57  H   UNL A   1      43.160  27.841  27.584  1.00  0.00     0.167 HD
ATOM     58  C   UNL A   1      39.975  29.692  29.967  1.00  0.00     0.034 A 
ATOM     59  C   UNL A   1      45.634  27.786  26.279  1.00  0.00     0.034 A 
ATOM     60  C   UNL A   1      41.050  30.658  29.944  1.00  0.00     0.049 A 
ATOM     61  C   UNL A   1      45.519  29.150  26.911  1.00  0.00     0.074 A 
ATOM     62  C   UNL A   1      41.123  31.884  30.582  1.00  0.00     0.029 A 
ATOM     63  N   UNL A   1      42.230  30.520  29.220  1.00  0.00    -0.354 N 
ATOM     64  N   UNL A   1      44.551  29.645  27.645  1.00  0.00    -0.248 NA
ATOM     65  C   UNL A   1      46.642  30.071  26.696  1.00  0.00     0.031 C 
ATOM     66  C   UNL A   1      42.305  32.519  30.181  1.00  0.00     0.029 A 
ATOM     67  C   UNL A   1      43.018  31.655  29.366  1.00  0.00     0.049 A 
ATOM     68  H   UNL A   1      42.472  29.732  28.683  1.00  0.00     0.167 HD
ATOM     69  C   UNL A   1      44.964  30.924  28.008  1.00  0.00     0.074 A 
ATOM     70  C   UNL A   1      46.275  31.117  27.422  1.00  0.00     0.031 C 
ATOM     71  C   UNL A   1      44.320  31.849  28.766  1.00  0.00     0.034 A 
BRANCH  58  72
ATOM     72  C   UNL A   1      38.693  30.029  30.698  1.00  0.00     0.023 A 
ATOM     73  C   UNL A   1      37.682  30.803  30.096  1.00  0.00     0.031 A 
ATOM     74  C   UNL A   1      38.500  29.625  32.031  1.00  0.00     0.131 A 
ATOM     75  C   UNL A   1      36.582  31.235  30.853  1.00  0.00     0.055 A 
ATOM     76  C   UNL A   1      37.357  29.982  32.751  1.00  0.00     0.041 A 
ATOM     77  F   UNL A   1      39.427  28.894  32.668  1.00  0.00    -0.206 F 
ATOM     78  C   UNL A   1      36.400  30.810  32.170  1.00  0.00     0.022 A 
BRANCH  75  79
ATOM     79  S   UNL A   1      35.488  32.498  30.145  1.00  0.00     0.124 S 
ATOM     80  O   UNL A   1      35.250  31.972  28.803  1.00  0.00    -0.237 OA
ATOM     81  O   UNL A   1      34.347  32.473  31.053  1.00  0.00    -0.237 OA
ATOM     82  O   UNL A   1      36.294  33.718  30.194  1.00  0.00    -0.744 OA
ENDBRANCH  75  79
ENDBRANCH  58  72
BRANCH  59  83
ATOM     83  C   UNL A   1      46.856  27.404  25.513  1.00  0.00     0.023 A 
ATOM     84  C   UNL A   1      47.013  27.796  24.174  1.00  0.00     0.031 A 
ATOM     85  C   UNL A   1      47.868  26.619  26.094  1.00  0.00     0.131 A 
ATOM     86  C   UNL A   1      48.136  27.374  23.447  1.00  0.00     0.055 A 
ATOM     87  C   UNL A   1      49.010  26.246  25.383  1.00  0.00     0.041 A 
ATOM     88  F   UNL A   1      47.768  26.217  27.370  1.00  0.00    -0.206 F 
ATOM     89  C   UNL A   1      49.144  26.614  24.048  1.00  0.00     0.022 A 
BRANCH  86  90
ATOM     90  S   UNL A   1      48.228  27.769  21.679  1.00  0.00     0.124 S 
ATOM     91  O   UNL A   1      48.423  26.451  21.087  1.00  0.00    -0.237 OA
ATOM     92  O   UNL A   1      46.932  28.395  21.436  1.00  0.00    -0.237 OA
ATOM     93  O   UNL A   1      49.376  28.669  21.588  1.00  0.00    -0.744 OA
ENDBRANCH  86  90
ENDBRANCH  59  83
BRANCH  71  94
ATOM     94  C   UNL A   1      45.058  33.138  29.055  1.00  0.00     0.023 A 
ATOM     95  C   UNL A   1      44.901  34.288  28.260  1.00  0.00     0.031 A 
ATOM     96  C   UNL A   1      45.947  33.207  30.144  1.00  0.00     0.131 A 
ATOM     97  C   UNL A   1      45.660  35.438  28.535  1.00  0.00     0.055 A 
ATOM     98  C   UNL A   1      46.647  34.374  30.453  1.00  0.00     0.041 A 
ATOM     99  F   UNL A   1      46.148  32.139  30.933  1.00  0.00    -0.206 F 
ATOM    100  C   UNL A   1      46.515  35.494  29.639  1.00  0.00     0.022 A 
BRANCH  97 101
ATOM    101  S   UNL A   1      45.596  36.833  27.375  1.00  0.00     0.124 S 
ATOM    102  O   UNL A   1      44.198  36.821  26.960  1.00  0.00    -0.237 OA
ATOM    103  O   UNL A   1      46.007  37.956  28.211  1.00  0.00    -0.237 OA
ATOM    104  O   UNL A   1      46.553  36.458  26.335  1.00  0.00    -0.744 OA
ENDBRANCH  97 101
ENDBRANCH  71  94
ENDBRANCH  45  46
ENDBRANCH  37  40
ENDBRANCH  35  36
ENDBRANCH  34  35
ENDBRANCH   1  34
TORSDOF 18
ENDMDL
MODEL 3
REMARK VINA RESULT:     -12.9      1.310      7.328
REMARK SMILES O=C(CNC(=O)N1CC(NCCCNC(=O)c2ccc(-c3c4nc(c(-c5cc(S(=O)(=O)[O-])ccc5F)c5ccc([nH]5)c(-c5cc(S(=O)(=O)[O-])ccc5F)c5nc(c(-c6cc(S(=O)(=O)[O-])ccc6F)c6ccc3[nH]6)C=C5)C=C4)cc2)=[NH+]c2ccccc21)N[C@H](C(=O)[O-])c1ccccc1
REMARK SMILES IDX 11 1 10 2 7 3 8 4 86 5 9 6 81 7 85 8 80 9 82 10 84 11 83 14
REMARK SMILES IDX 5 15 4 16 6 18 3 19 2 20 1 21 87 22 88 24 92 25 93 26 97 27
REMARK SMILES IDX 94 28 96 29 95 30 89 31 90 32 91 33 12 34 13 35 14 36 15 37
REMARK SMILES IDX 16 39 17 40 18 41 79 42 19 43 78 44 20 45 21 46 22 47 72 48
REMARK SMILES IDX 23 49 77 50 71 51 73 52 24 53 76 54 70 55 69 56 25 58 57 59
REMARK SMILES IDX 37 60 56 61 38 62 41 63 55 64 74 65 39 66 40 67 54 69 75 70
REMARK SMILES IDX 42 71 26 72 27 73 35 74 28 75 34 76 36 77 33 78 29 79 30 80
REMARK SMILES IDX 31 81 32 82 58 83 59 84 67 85 60 86 66 87 68 88 65 89 61 90
REMARK SMILES IDX 62 91 63 92 64 93 43 94 44 95 52 96 45 97 51 98 53 99 50 100
REMARK SMILES IDX 46 101 47 102 48 103 49 104
REMARK H PARENT 10 12 80 13 4 17 87 23 14 38 73 57 41 68
REMARK Flexibility Score: inf
ROOT
ATOM      1  C   UNL A   1      35.682  21.282  25.868  1.00  0.00     0.235 C 
ENDROOT
BRANCH   1   2
ATOM      2  N   UNL A   1      35.487  22.648  25.446  1.00  0.00    -0.277 N 
ATOM      3  N   UNL A   1      32.271  23.918  26.666  1.00  0.00    -0.278 N 
ATOM      4  C   UNL A   1      33.489  23.172  26.920  1.00  0.00     0.255 C 
ATOM      5  C   UNL A   1      32.451  25.301  26.420  1.00  0.00     0.093 A 
ATOM      6  C   UNL A   1      34.552  23.554  25.879  1.00  0.00     0.268 C 
ATOM      7  C   UNL A   1      33.641  25.694  25.781  1.00  0.00     0.148 A 
ATOM      8  C   UNL A   1      31.457  26.241  26.720  1.00  0.00     0.031 A 
ATOM      9  N   UNL A   1      34.634  24.768  25.401  1.00  0.00    -0.241 N 
ATOM     10  C   UNL A   1      33.774  27.025  25.379  1.00  0.00     0.054 A 
ATOM     11  C   UNL A   1      31.615  27.569  26.328  1.00  0.00     0.002 A 
ATOM     12  H   UNL A   1      36.108  22.974  24.755  1.00  0.00     0.304 HD
ATOM     13  H   UNL A   1      35.365  25.026  24.794  1.00  0.00     0.312 HD
ATOM     14  C   UNL A   1      32.765  27.957  25.643  1.00  0.00     0.005 A 
BRANCH   3  15
ATOM     15  C   UNL A   1      31.078  23.241  26.635  1.00  0.00     0.323 C 
ATOM     16  N   UNL A   1      30.817  22.423  25.579  1.00  0.00    -0.329 N 
ATOM     17  H   UNL A   1      29.869  22.221  25.413  1.00  0.00     0.165 HD
ATOM     18  O   UNL A   1      30.270  23.284  27.564  1.00  0.00    -0.248 OA
BRANCH  16  19
ATOM     19  C   UNL A   1      31.779  21.809  24.659  1.00  0.00     0.218 C 
BRANCH  19  20
ATOM     20  C   UNL A   1      31.748  22.550  23.336  1.00  0.00     0.240 C 
ATOM     21  O   UNL A   1      31.668  21.934  22.278  1.00  0.00    -0.273 OA
ATOM     22  N   UNL A   1      31.975  23.904  23.478  1.00  0.00    -0.342 N 
ATOM     23  H   UNL A   1      32.273  24.249  24.351  1.00  0.00     0.164 HD
BRANCH  22  24
ATOM     24  C   UNL A   1      31.785  24.857  22.356  1.00  0.00     0.158 C 
BRANCH  24  25
ATOM     25  C   UNL A   1      30.869  26.017  22.731  1.00  0.00    -0.020 A 
ATOM     26  C   UNL A   1      31.077  27.319  22.257  1.00  0.00     0.006 A 
ATOM     27  C   UNL A   1      29.705  25.794  23.498  1.00  0.00     0.006 A 
ATOM     28  C   UNL A   1      30.219  28.366  22.608  1.00  0.00     0.000 A 
ATOM     29  C   UNL A   1      28.851  26.837  23.861  1.00  0.00     0.000 A 
ATOM     30  C   UNL A   1      29.115  28.129  23.424  1.00  0.00     0.000 A 
ENDBRANCH  24  25
BRANCH  24  31
ATOM     31  C   UNL A   1      33.154  25.061  21.609  1.00  0.00     0.068 C 
ATOM     32  O   UNL A   1      33.164  25.381  20.391  1.00  0.00    -0.548 OA
ATOM     33  O   UNL A   1      34.163  24.861  22.372  1.00  0.00    -0.548 OA
ENDBRANCH  24  31
ENDBRANCH  22  24
ENDBRANCH  19  20
ENDBRANCH  16  19
ENDBRANCH   3  15
ENDBRANCH   1   2
BRANCH   1  34
ATOM     34  C   UNL A   1      36.753  20.580  25.043  1.00  0.00     0.067 C 
BRANCH  34  35
ATOM     35  C   UNL A   1      38.157  21.162  25.198  1.00  0.00     0.120 C 
BRANCH  35  36
ATOM     36  N   UNL A   1      39.073  20.259  25.889  1.00  0.00    -0.352 N 
ATOM     37  C   UNL A   1      40.208  20.518  26.618  1.00  0.00     0.251 C 
ATOM     38  H   UNL A   1      38.839  19.305  25.821  1.00  0.00     0.163 HD
ATOM     39  O   UNL A   1      40.929  19.577  26.953  1.00  0.00    -0.269 OA
BRANCH  37  40
ATOM     40  C   UNL A   1      40.585  21.903  26.978  1.00  0.00     0.039 A 
ATOM     41  C   UNL A   1      41.409  22.111  28.090  1.00  0.00     0.014 A 
ATOM     42  C   UNL A   1      40.118  22.998  26.247  1.00  0.00     0.014 A 
ATOM     43  C   UNL A   1      41.828  23.404  28.415  1.00  0.00     0.010 A 
ATOM     44  C   UNL A   1      40.601  24.275  26.522  1.00  0.00     0.010 A 
ATOM     45  C   UNL A   1      41.466  24.493  27.605  1.00  0.00    -0.014 A 
BRANCH  45  46
ATOM     46  C   UNL A   1      41.997  25.859  27.863  1.00  0.00     0.031 A 
ATOM     47  C   UNL A   1      41.170  26.870  28.608  1.00  0.00     0.074 A 
ATOM     48  C   UNL A   1      43.201  26.208  27.369  1.00  0.00     0.049 A 
ATOM     49  N   UNL A   1      41.437  28.124  28.880  1.00  0.00    -0.248 NA
ATOM     50  C   UNL A   1      39.862  26.415  29.096  1.00  0.00     0.031 C 
ATOM     51  C   UNL A   1      44.088  25.328  26.606  1.00  0.00     0.029 A 
ATOM     52  N   UNL A   1      43.885  27.397  27.426  1.00  0.00    -0.354 N 
ATOM     53  C   UNL A   1      40.324  28.612  29.556  1.00  0.00     0.074 A 
ATOM     54  C   UNL A   1      39.358  27.533  29.596  1.00  0.00     0.031 C 
ATOM     55  C   UNL A   1      45.212  25.994  26.300  1.00  0.00     0.029 A 
ATOM     56  C   UNL A   1      45.105  27.365  26.789  1.00  0.00     0.049 A 
ATOM     57  H   UNL A   1      43.538  28.198  27.881  1.00  0.00     0.167 HD
ATOM     58  C   UNL A   1      40.132  29.835  30.110  1.00  0.00     0.034 A 
ATOM     59  C   UNL A   1      46.024  28.332  26.604  1.00  0.00     0.034 A 
ATOM     60  C   UNL A   1      41.096  30.910  30.034  1.00  0.00     0.049 A 
ATOM     61  C   UNL A   1      45.751  29.712  27.146  1.00  0.00     0.074 A 
ATOM     62  C   UNL A   1      41.025  32.175  30.592  1.00  0.00     0.029 A 
ATOM     63  N   UNL A   1      42.295  30.857  29.332  1.00  0.00    -0.354 N 
ATOM     64  N   UNL A   1      44.723  30.144  27.838  1.00  0.00    -0.248 NA
ATOM     65  C   UNL A   1      46.770  30.736  26.882  1.00  0.00     0.031 C 
ATOM     66  C   UNL A   1      42.136  32.909  30.162  1.00  0.00     0.029 A 
ATOM     67  C   UNL A   1      42.953  32.078  29.411  1.00  0.00     0.049 A 
ATOM     68  H   UNL A   1      42.631  30.068  28.848  1.00  0.00     0.167 HD
ATOM     69  C   UNL A   1      44.988  31.481  28.121  1.00  0.00     0.074 A 
ATOM     70  C   UNL A   1      46.279  31.779  27.536  1.00  0.00     0.031 C 
ATOM     71  C   UNL A   1      44.235  32.376  28.812  1.00  0.00     0.034 A 
BRANCH  58  72
ATOM     72  C   UNL A   1      38.810  30.075  30.806  1.00  0.00     0.023 A 
ATOM     73  C   UNL A   1      37.759  30.770  30.175  1.00  0.00     0.031 A 
ATOM     74  C   UNL A   1      38.612  29.658  32.134  1.00  0.00     0.131 A 
ATOM     75  C   UNL A   1      36.610  31.118  30.901  1.00  0.00     0.055 A 
ATOM     76  C   UNL A   1      37.426  29.929  32.822  1.00  0.00     0.041 A 
ATOM     77  F   UNL A   1      39.574  29.000  32.797  1.00  0.00    -0.206 F 
ATOM     78  C   UNL A   1      36.425  30.682  32.214  1.00  0.00     0.022 A 
BRANCH  75  79
ATOM     79  S   UNL A   1      35.443  32.295  30.162  1.00  0.00     0.124 S 
ATOM     80  O   UNL A   1      35.025  31.586  28.954  1.00  0.00    -0.237 OA
ATOM     81  O   UNL A   1      34.431  32.433  31.202  1.00  0.00    -0.237 OA
ATOM     82  O   UNL A   1      36.258  33.486  29.925  1.00  0.00    -0.744 OA
ENDBRANCH  75  79
ENDBRANCH  58  72
BRANCH  59  83
ATOM     83  C   UNL A   1      47.292  28.039  25.877  1.00  0.00     0.023 A 
ATOM     84  C   UNL A   1      47.344  28.102  24.474  1.00  0.00     0.031 A 
ATOM     85  C   UNL A   1      48.460  27.663  26.563  1.00  0.00     0.131 A 
ATOM     86  C   UNL A   1      48.525  27.759  23.801  1.00  0.00     0.055 A 
ATOM     87  C   UNL A   1      49.650  27.375  25.892  1.00  0.00     0.041 A 
ATOM     88  F   UNL A   1      48.466  27.587  27.903  1.00  0.00    -0.206 F 
ATOM     89  C   UNL A   1      49.684  27.412  24.501  1.00  0.00     0.022 A 
BRANCH  86  90
ATOM     90  S   UNL A   1      48.508  27.703  21.988  1.00  0.00     0.124 S 
ATOM     91  O   UNL A   1      48.705  26.281  21.730  1.00  0.00    -0.237 OA
ATOM     92  O   UNL A   1      47.185  28.233  21.676  1.00  0.00    -0.237 OA
ATOM     93  O   UNL A   1      49.626  28.564  21.606  1.00  0.00    -0.744 OA
ENDBRANCH  86  90
ENDBRANCH  59  83
BRANCH  71  94
ATOM     94  C   UNL A   1      44.824  33.754  29.023  1.00  0.00     0.023 A 
ATOM     95  C   UNL A   1      45.638  34.060  30.129  1.00  0.00     0.031 A 
ATOM     96  C   UNL A   1      44.551  34.781  28.102  1.00  0.00     0.131 A 
ATOM     97  C   UNL A   1      46.106  35.372  30.311  1.00  0.00     0.055 A 
ATOM     98  C   UNL A   1      45.075  36.066  28.252  1.00  0.00     0.041 A 
ATOM     99  F   UNL A   1      43.772  34.553  27.032  1.00  0.00    -0.206 F 
ATOM    100  C   UNL A   1      45.847  36.370  29.368  1.00  0.00     0.022 A 
BRANCH  97 101
ATOM    101  S   UNL A   1      46.976  35.791  31.848  1.00  0.00     0.124 S 
ATOM    102  O   UNL A   1      48.371  35.578  31.477  1.00  0.00    -0.237 OA
ATOM    103  O   UNL A   1      46.576  37.177  32.069  1.00  0.00    -0.237 OA
ATOM    104  O   UNL A   1      46.442  34.835  32.817  1.00  0.00    -0.744 OA
ENDBRANCH  97 101
ENDBRANCH  71  94
ENDBRANCH  45  46
ENDBRANCH  37  40
ENDBRANCH  35  36
ENDBRANCH  34  35
ENDBRANCH   1  34
TORSDOF 18
ENDMDL
