MODEL 1
REMARK VINA RESULT:     -13.2      0.000      0.000
REMARK SMILES Cc1c(CC(=O)N[C@@H](CCO)C(=O)NCCCNC(=O)c2ccc(-c3c4nc(c(-c5cc(S(=O)(=O)[O-])ccc5F)c5ccc([nH]5)c(-c5cc(S(=O)(=O)[O-])ccc5F)c5nc(c(-c6cc(S(=O)(=O)[O-])ccc6F)c6ccc3[nH]6)C=C5)C=C4)cc2)cc(-c2ccc(S(C)(=O)=O)cc2)n1-c1ccc(F)cc1
REMARK SMILES IDX 15 1 14 2 12 3 13 4 8 6 7 7 5 8 6 9 4 11 3 12 1 13 2 14
REMARK SMILES IDX 96 15 84 16 85 17 97 18 98 19 103 20 99 21 102 22 100 23
REMARK SMILES IDX 101 24 86 25 87 26 95 27 88 28 94 29 89 30 90 31 91 32 92 33
REMARK SMILES IDX 93 34 9 35 10 36 11 37 16 39 17 40 18 41 19 42 20 44 21 45
REMARK SMILES IDX 22 46 83 47 23 48 82 49 24 50 25 51 26 52 76 53 27 54 81 55
REMARK SMILES IDX 75 56 77 57 28 58 80 59 74 60 73 61 29 63 61 64 41 65 60 66
REMARK SMILES IDX 42 67 45 68 59 69 78 70 43 71 44 72 58 74 79 75 46 76 30 77
REMARK SMILES IDX 31 78 39 79 32 80 38 81 40 82 37 83 33 84 34 85 35 86 36 87
REMARK SMILES IDX 62 88 63 89 71 90 64 91 70 92 72 93 69 94 65 95 66 96 67 97
REMARK SMILES IDX 68 98 47 99 48 100 56 101 49 102 55 103 57 104 54 105 50 106
REMARK SMILES IDX 51 107 52 108 53 109
REMARK H PARENT 14 5 7 10 11 38 18 43 77 62 45 73
REMARK Flexibility Score: inf
ROOT
ATOM      1  C   UNL A   1      33.213  29.066  25.199  1.00  0.00     0.117 C 
ENDROOT
BRANCH   1   2
ATOM      2  N   UNL A   1      32.071  28.193  25.421  1.00  0.00    -0.354 N 
ATOM      3  C   UNL A   1      30.947  27.897  24.720  1.00  0.00     0.242 C 
ATOM      4  O   UNL A   1      30.240  26.995  25.182  1.00  0.00    -0.273 OA
ATOM      5  H   UNL A   1      32.126  27.705  26.274  1.00  0.00     0.163 HD
BRANCH   3   6
ATOM      6  C   UNL A   1      30.606  28.486  23.341  1.00  0.00     0.173 C 
BRANCH   6   7
ATOM      7  N   UNL A   1      31.342  27.880  22.237  1.00  0.00    -0.344 N 
ATOM      8  C   UNL A   1      31.406  26.550  21.913  1.00  0.00     0.225 C 
ATOM      9  O   UNL A   1      31.930  26.247  20.837  1.00  0.00    -0.275 OA
ATOM     10  H   UNL A   1      31.850  28.495  21.660  1.00  0.00     0.164 HD
BRANCH   8  11
ATOM     11  C   UNL A   1      30.846  25.479  22.852  1.00  0.00     0.137 C 
BRANCH  11  12
ATOM     12  C   UNL A   1      31.848  24.403  23.165  1.00  0.00    -0.017 A 
ATOM     13  C   UNL A   1      33.966  25.825  23.643  1.00  0.00     0.065 C 
ATOM     14  C   UNL A   1      33.161  24.565  23.584  1.00  0.00     0.024 A 
ATOM     15  N   UNL A   1      33.683  23.310  23.883  1.00  0.00    -0.314 N 
ATOM     16  C   UNL A   1      31.623  23.001  23.075  1.00  0.00     0.033 A 
ATOM     17  C   UNL A   1      32.744  22.335  23.545  1.00  0.00     0.053 A 
BRANCH  15  18
ATOM     18  C   UNL A   1      34.963  23.071  24.447  1.00  0.00     0.046 A 
ATOM     19  C   UNL A   1      35.191  23.355  25.799  1.00  0.00     0.029 A 
ATOM     20  C   UNL A   1      36.000  22.599  23.630  1.00  0.00     0.029 A 
ATOM     21  C   UNL A   1      36.458  23.140  26.339  1.00  0.00     0.041 A 
ATOM     22  C   UNL A   1      37.267  22.401  24.175  1.00  0.00     0.041 A 
ATOM     23  C   UNL A   1      37.483  22.667  25.523  1.00  0.00     0.123 A 
ATOM     24  F   UNL A   1      38.701  22.470  26.045  1.00  0.00    -0.207 F 
ENDBRANCH  15  18
BRANCH  17  25
ATOM     25  C   UNL A   1      32.899  20.889  23.755  1.00  0.00    -0.001 A 
ATOM     26  C   UNL A   1      33.621  20.383  24.849  1.00  0.00     0.011 A 
ATOM     27  C   UNL A   1      32.312  19.986  22.857  1.00  0.00     0.011 A 
ATOM     28  C   UNL A   1      33.814  19.006  25.004  1.00  0.00     0.021 A 
ATOM     29  C   UNL A   1      32.496  18.609  23.007  1.00  0.00     0.021 A 
ATOM     30  C   UNL A   1      33.269  18.128  24.066  1.00  0.00     0.067 A 
BRANCH  30  31
ATOM     31  S   UNL A   1      33.557  16.383  24.233  1.00  0.00     0.175 S 
ATOM     32  C   UNL A   1      34.931  16.283  25.352  1.00  0.00     0.163 C 
ATOM     33  O   UNL A   1      32.393  15.817  24.898  1.00  0.00    -0.224 OA
ATOM     34  O   UNL A   1      34.005  15.878  22.954  1.00  0.00    -0.224 OA
ENDBRANCH  30  31
ENDBRANCH  17  25
ENDBRANCH  11  12
ENDBRANCH   8  11
ENDBRANCH   6   7
BRANCH   6  35
ATOM     35  C   UNL A   1      29.106  28.694  23.059  1.00  0.00     0.063 C 
BRANCH  35  36
ATOM     36  C   UNL A   1      28.684  29.720  22.019  1.00  0.00     0.158 C 
BRANCH  36  37
ATOM     37  O   UNL A   1      29.762  30.516  21.557  1.00  0.00    -0.396 OA
ATOM     38  H   UNL A   1      30.316  30.778  22.310  1.00  0.00     0.210 HD
ENDBRANCH  36  37
ENDBRANCH  35  36
ENDBRANCH   6  35
ENDBRANCH   3   6
ENDBRANCH   1   2
BRANCH   1  39
ATOM     39  C   UNL A   1      34.487  28.647  25.932  1.00  0.00     0.042 C 
BRANCH  39  40
ATOM     40  C   UNL A   1      34.563  28.992  27.423  1.00  0.00     0.118 C 
BRANCH  40  41
ATOM     41  N   UNL A   1      34.506  30.404  27.718  1.00  0.00    -0.352 N 
ATOM     42  C   UNL A   1      35.578  31.215  28.054  1.00  0.00     0.251 C 
ATOM     43  H   UNL A   1      33.620  30.831  27.676  1.00  0.00     0.163 HD
ATOM     44  O   UNL A   1      35.360  32.405  28.249  1.00  0.00    -0.269 OA
BRANCH  42  45
ATOM     45  C   UNL A   1      36.946  30.619  28.270  1.00  0.00     0.039 A 
ATOM     46  C   UNL A   1      37.631  30.145  27.165  1.00  0.00     0.014 A 
ATOM     47  C   UNL A   1      37.543  30.413  29.526  1.00  0.00     0.014 A 
ATOM     48  C   UNL A   1      38.902  29.522  27.316  1.00  0.00     0.010 A 
ATOM     49  C   UNL A   1      38.797  29.687  29.680  1.00  0.00     0.010 A 
ATOM     50  C   UNL A   1      39.525  29.192  28.578  1.00  0.00    -0.014 A 
BRANCH  50  51
ATOM     51  C   UNL A   1      40.493  27.888  28.561  1.00  0.00     0.031 A 
ATOM     52  C   UNL A   1      41.451  28.230  29.659  1.00  0.00     0.074 A 
ATOM     53  C   UNL A   1      40.779  26.706  27.870  1.00  0.00     0.049 A 
ATOM     54  N   UNL A   1      42.100  29.361  29.607  1.00  0.00    -0.248 NA
ATOM     55  C   UNL A   1      41.377  27.634  30.994  1.00  0.00     0.031 C 
ATOM     56  C   UNL A   1      40.163  26.210  26.627  1.00  0.00     0.029 A 
ATOM     57  N   UNL A   1      41.708  25.634  28.108  1.00  0.00    -0.354 N 
ATOM     58  C   UNL A   1      42.758  29.498  30.805  1.00  0.00     0.074 A 
ATOM     59  C   UNL A   1      42.092  28.535  31.679  1.00  0.00     0.031 C 
ATOM     60  C   UNL A   1      40.582  24.945  26.315  1.00  0.00     0.029 A 
ATOM     61  C   UNL A   1      41.583  24.456  27.267  1.00  0.00     0.049 A 
ATOM     62  H   UNL A   1      42.397  25.696  28.810  1.00  0.00     0.167 HD
ATOM     63  C   UNL A   1      44.099  29.731  30.699  1.00  0.00     0.034 A 
ATOM     64  C   UNL A   1      42.264  23.227  27.272  1.00  0.00     0.034 A 
ATOM     65  C   UNL A   1      44.836  28.494  30.740  1.00  0.00     0.049 A 
ATOM     66  C   UNL A   1      43.574  23.489  27.864  1.00  0.00     0.074 A 
ATOM     67  C   UNL A   1      44.784  27.415  31.601  1.00  0.00     0.029 A 
ATOM     68  N   UNL A   1      45.368  28.034  29.551  1.00  0.00    -0.354 N 
ATOM     69  N   UNL A   1      44.509  24.108  27.218  1.00  0.00    -0.248 NA
ATOM     70  C   UNL A   1      43.911  23.057  29.215  1.00  0.00     0.031 C 
ATOM     71  C   UNL A   1      44.773  26.293  30.746  1.00  0.00     0.029 A 
ATOM     72  C   UNL A   1      45.251  26.662  29.493  1.00  0.00     0.049 A 
ATOM     73  H   UNL A   1      45.769  28.600  28.852  1.00  0.00     0.167 HD
ATOM     74  C   UNL A   1      45.251  24.634  28.229  1.00  0.00     0.074 A 
ATOM     75  C   UNL A   1      45.045  23.744  29.359  1.00  0.00     0.031 C 
ATOM     76  C   UNL A   1      45.432  25.980  28.224  1.00  0.00     0.034 A 
BRANCH  63  77
ATOM     77  C   UNL A   1      44.448  30.890  29.807  1.00  0.00     0.023 A 
ATOM     78  C   UNL A   1      45.590  30.799  29.003  1.00  0.00     0.031 A 
ATOM     79  C   UNL A   1      43.744  32.115  29.811  1.00  0.00     0.131 A 
ATOM     80  C   UNL A   1      46.030  31.924  28.284  1.00  0.00     0.055 A 
ATOM     81  C   UNL A   1      44.215  33.244  29.145  1.00  0.00     0.041 A 
ATOM     82  F   UNL A   1      42.569  32.233  30.451  1.00  0.00    -0.206 F 
ATOM     83  C   UNL A   1      45.371  33.154  28.380  1.00  0.00     0.022 A 
BRANCH  80  84
ATOM     84  S   UNL A   1      47.457  31.745  27.183  1.00  0.00     0.124 S 
ATOM     85  O   UNL A   1      48.583  31.854  28.105  1.00  0.00    -0.237 OA
ATOM     86  O   UNL A   1      47.242  30.421  26.607  1.00  0.00    -0.237 OA
ATOM     87  O   UNL A   1      47.313  32.854  26.242  1.00  0.00    -0.744 OA
ENDBRANCH  80  84
ENDBRANCH  63  77
BRANCH  64  88
ATOM     88  C   UNL A   1      42.223  21.746  26.769  1.00  0.00     0.023 A 
ATOM     89  C   UNL A   1      43.250  21.177  25.902  1.00  0.00     0.031 A 
ATOM     90  C   UNL A   1      41.442  20.791  27.430  1.00  0.00     0.131 A 
ATOM     91  C   UNL A   1      43.473  19.769  25.783  1.00  0.00     0.055 A 
ATOM     92  C   UNL A   1      41.665  19.397  27.302  1.00  0.00     0.041 A 
ATOM     93  F   UNL A   1      40.508  21.178  28.311  1.00  0.00    -0.206 F 
ATOM     94  C   UNL A   1      42.683  18.882  26.501  1.00  0.00     0.022 A 
BRANCH  91  95
ATOM     95  S   UNL A   1      44.904  19.047  24.850  1.00  0.00     0.124 S 
ATOM     96  O   UNL A   1      44.384  18.927  23.494  1.00  0.00    -0.237 OA
ATOM     97  O   UNL A   1      45.961  20.030  25.060  1.00  0.00    -0.237 OA
ATOM     98  O   UNL A   1      45.140  17.766  25.522  1.00  0.00    -0.744 OA
ENDBRANCH  91  95
ENDBRANCH  64  88
BRANCH  76  99
ATOM     99  C   UNL A   1      45.663  26.650  26.866  1.00  0.00     0.023 A 
ATOM    100  C   UNL A   1      46.791  26.470  26.016  1.00  0.00     0.031 A 
ATOM    101  C   UNL A   1      44.728  27.613  26.453  1.00  0.00     0.131 A 
ATOM    102  C   UNL A   1      46.966  27.259  24.859  1.00  0.00     0.055 A 
ATOM    103  C   UNL A   1      44.878  28.362  25.285  1.00  0.00     0.041 A 
ATOM    104  F   UNL A   1      43.640  27.860  27.201  1.00  0.00    -0.206 F 
ATOM    105  C   UNL A   1      46.007  28.202  24.491  1.00  0.00     0.022 A 
BRANCH 102 106
ATOM    106  S   UNL A   1      48.495  27.135  23.863  1.00  0.00     0.124 S 
ATOM    107  O   UNL A   1      48.343  28.191  22.871  1.00  0.00    -0.237 OA
ATOM    108  O   UNL A   1      49.542  27.341  24.859  1.00  0.00    -0.237 OA
ATOM    109  O   UNL A   1      48.435  25.778  23.316  1.00  0.00    -0.744 OA
ENDBRANCH 102 106
ENDBRANCH  76  99
ENDBRANCH  50  51
ENDBRANCH  42  45
ENDBRANCH  40  41
ENDBRANCH  39  40
ENDBRANCH   1  39
TORSDOF 22
ENDMDL
MODEL 2
REMARK VINA RESULT:     -12.6      1.958      2.772
REMARK SMILES Cc1c(CC(=O)N[C@@H](CCO)C(=O)NCCCNC(=O)c2ccc(-c3c4nc(c(-c5cc(S(=O)(=O)[O-])ccc5F)c5ccc([nH]5)c(-c5cc(S(=O)(=O)[O-])ccc5F)c5nc(c(-c6cc(S(=O)(=O)[O-])ccc6F)c6ccc3[nH]6)C=C5)C=C4)cc2)cc(-c2ccc(S(C)(=O)=O)cc2)n1-c1ccc(F)cc1
REMARK SMILES IDX 15 1 14 2 12 3 13 4 8 6 7 7 5 8 6 9 4 11 3 12 1 13 2 14
REMARK SMILES IDX 96 15 84 16 85 17 97 18 98 19 103 20 99 21 102 22 100 23
REMARK SMILES IDX 101 24 86 25 87 26 95 27 88 28 94 29 89 30 90 31 91 32 92 33
REMARK SMILES IDX 93 34 9 35 10 36 11 37 16 39 17 40 18 41 19 42 20 44 21 45
REMARK SMILES IDX 22 46 83 47 23 48 82 49 24 50 25 51 26 52 76 53 27 54 81 55
REMARK SMILES IDX 75 56 77 57 28 58 80 59 74 60 73 61 29 63 61 64 41 65 60 66
REMARK SMILES IDX 42 67 45 68 59 69 78 70 43 71 44 72 58 74 79 75 46 76 30 77
REMARK SMILES IDX 31 78 39 79 32 80 38 81 40 82 37 83 33 84 34 85 35 86 36 87
REMARK SMILES IDX 62 88 63 89 71 90 64 91 70 92 72 93 69 94 65 95 66 96 67 97
REMARK SMILES IDX 68 98 47 99 48 100 56 101 49 102 55 103 57 104 54 105 50 106
REMARK SMILES IDX 51 107 52 108 53 109
REMARK H PARENT 14 5 7 10 11 38 18 43 77 62 45 73
REMARK Flexibility Score: inf
ROOT
ATOM      1  C   UNL A   1      32.813  29.215  24.983  1.00  0.00     0.117 C 
ENDROOT
BRANCH   1   2
ATOM      2  N   UNL A   1      31.750  28.263  25.264  1.00  0.00    -0.354 N 
ATOM      3  C   UNL A   1      30.641  27.849  24.600  1.00  0.00     0.242 C 
ATOM      4  O   UNL A   1      30.018  26.913  25.114  1.00  0.00    -0.273 OA
ATOM      5  H   UNL A   1      31.861  27.817  26.135  1.00  0.00     0.163 HD
BRANCH   3   6
ATOM      6  C   UNL A   1      30.228  28.351  23.207  1.00  0.00     0.173 C 
BRANCH   6   7
ATOM      7  N   UNL A   1      30.973  27.741  22.111  1.00  0.00    -0.344 N 
ATOM      8  C   UNL A   1      31.108  26.404  21.841  1.00  0.00     0.225 C 
ATOM      9  O   UNL A   1      31.624  26.086  20.766  1.00  0.00    -0.275 OA
ATOM     10  H   UNL A   1      31.429  28.360  21.496  1.00  0.00     0.164 HD
BRANCH   8  11
ATOM     11  C   UNL A   1      30.635  25.345  22.839  1.00  0.00     0.137 C 
BRANCH  11  12
ATOM     12  C   UNL A   1      31.706  24.344  23.171  1.00  0.00    -0.017 A 
ATOM     13  C   UNL A   1      33.737  25.909  23.570  1.00  0.00     0.065 C 
ATOM     14  C   UNL A   1      33.012  24.601  23.563  1.00  0.00     0.024 A 
ATOM     15  N   UNL A   1      33.615  23.391  23.895  1.00  0.00    -0.314 N 
ATOM     16  C   UNL A   1      31.568  22.929  23.129  1.00  0.00     0.033 A 
ATOM     17  C   UNL A   1      32.734  22.349  23.603  1.00  0.00     0.053 A 
BRANCH  15  18
ATOM     18  C   UNL A   1      34.915  23.250  24.447  1.00  0.00     0.046 A 
ATOM     19  C   UNL A   1      35.140  23.580  25.789  1.00  0.00     0.029 A 
ATOM     20  C   UNL A   1      35.971  22.829  23.626  1.00  0.00     0.029 A 
ATOM     21  C   UNL A   1      36.425  23.461  26.316  1.00  0.00     0.041 A 
ATOM     22  C   UNL A   1      37.255  22.728  24.158  1.00  0.00     0.041 A 
ATOM     23  C   UNL A   1      37.469  23.039  25.497  1.00  0.00     0.123 A 
ATOM     24  F   UNL A   1      38.703  22.935  26.007  1.00  0.00    -0.207 F 
ENDBRANCH  15  18
BRANCH  17  25
ATOM     25  C   UNL A   1      32.982  20.922  23.856  1.00  0.00    -0.001 A 
ATOM     26  C   UNL A   1      33.813  20.501  24.908  1.00  0.00     0.011 A 
ATOM     27  C   UNL A   1      32.377  19.954  23.043  1.00  0.00     0.011 A 
ATOM     28  C   UNL A   1      34.090  19.144  25.101  1.00  0.00     0.021 A 
ATOM     29  C   UNL A   1      32.645  18.595  23.232  1.00  0.00     0.021 A 
ATOM     30  C   UNL A   1      33.522  18.200  24.244  1.00  0.00     0.067 A 
BRANCH  30  31
ATOM     31  S   UNL A   1      33.915  16.481  24.456  1.00  0.00     0.175 S 
ATOM     32  C   UNL A   1      32.523  15.831  25.343  1.00  0.00     0.163 C 
ATOM     33  O   UNL A   1      33.928  15.876  23.132  1.00  0.00    -0.224 OA
ATOM     34  O   UNL A   1      35.065  16.388  25.330  1.00  0.00    -0.224 OA
ENDBRANCH  30  31
ENDBRANCH  17  25
ENDBRANCH  11  12
ENDBRANCH   8  11
ENDBRANCH   6   7
BRANCH   6  35
ATOM     35  C   UNL A   1      28.711  28.452  22.959  1.00  0.00     0.063 C 
BRANCH  35  36
ATOM     36  C   UNL A   1      28.113  29.793  22.567  1.00  0.00     0.158 C 
BRANCH  36  37
ATOM     37  O   UNL A   1      26.807  29.990  23.082  1.00  0.00    -0.396 OA
ATOM     38  H   UNL A   1      26.326  30.614  22.516  1.00  0.00     0.210 HD
ENDBRANCH  36  37
ENDBRANCH  35  36
ENDBRANCH   6  35
ENDBRANCH   3   6
ENDBRANCH   1   2
BRANCH   1  39
ATOM     39  C   UNL A   1      34.103  28.979  25.768  1.00  0.00     0.042 C 
BRANCH  39  40
ATOM     40  C   UNL A   1      34.036  29.213  27.281  1.00  0.00     0.118 C 
BRANCH  40  41
ATOM     41  N   UNL A   1      33.726  30.569  27.667  1.00  0.00    -0.352 N 
ATOM     42  C   UNL A   1      34.531  31.412  28.416  1.00  0.00     0.251 C 
ATOM     43  H   UNL A   1      32.859  30.929  27.371  1.00  0.00     0.163 HD
ATOM     44  O   UNL A   1      34.128  32.549  28.635  1.00  0.00    -0.269 OA
BRANCH  42  45
ATOM     45  C   UNL A   1      35.813  30.901  29.023  1.00  0.00     0.039 A 
ATOM     46  C   UNL A   1      36.994  31.130  28.337  1.00  0.00     0.014 A 
ATOM     47  C   UNL A   1      35.895  30.119  30.187  1.00  0.00     0.014 A 
ATOM     48  C   UNL A   1      38.228  30.622  28.835  1.00  0.00     0.010 A 
ATOM     49  C   UNL A   1      37.145  29.521  30.635  1.00  0.00     0.010 A 
ATOM     50  C   UNL A   1      38.369  29.733  29.965  1.00  0.00    -0.014 A 
BRANCH  50  51
ATOM     51  C   UNL A   1      39.629  28.711  29.899  1.00  0.00     0.031 A 
ATOM     52  C   UNL A   1      40.292  28.990  31.211  1.00  0.00     0.074 A 
ATOM     53  C   UNL A   1      40.308  27.811  29.069  1.00  0.00     0.049 A 
ATOM     54  N   UNL A   1      40.631  30.216  31.504  1.00  0.00    -0.248 NA
ATOM     55  C   UNL A   1      40.173  28.100  32.367  1.00  0.00     0.031 C 
ATOM     56  C   UNL A   1      40.032  27.494  27.658  1.00  0.00     0.029 A 
ATOM     57  N   UNL A   1      41.434  26.942  29.284  1.00  0.00    -0.354 N 
ATOM     58  C   UNL A   1      41.044  30.211  32.813  1.00  0.00     0.074 A 
ATOM     59  C   UNL A   1      40.524  28.952  33.339  1.00  0.00     0.031 C 
ATOM     60  C   UNL A   1      40.803  26.457  27.204  1.00  0.00     0.029 A 
ATOM     61  C   UNL A   1      41.741  25.991  28.229  1.00  0.00     0.049 A 
ATOM     62  H   UNL A   1      41.970  26.988  30.109  1.00  0.00     0.167 HD
ATOM     63  C   UNL A   1      42.281  30.748  33.026  1.00  0.00     0.034 A 
ATOM     64  C   UNL A   1      42.704  24.973  28.140  1.00  0.00     0.034 A 
ATOM     65  C   UNL A   1      43.295  29.726  32.981  1.00  0.00     0.049 A 
ATOM     66  C   UNL A   1      43.800  25.369  29.022  1.00  0.00     0.074 A 
ATOM     67  C   UNL A   1      43.392  28.493  33.595  1.00  0.00     0.029 A 
ATOM     68  N   UNL A   1      44.099  29.680  31.859  1.00  0.00    -0.354 N 
ATOM     69  N   UNL A   1      44.632  26.309  28.705  1.00  0.00    -0.248 NA
ATOM     70  C   UNL A   1      44.030  24.721  30.307  1.00  0.00     0.031 C 
ATOM     71  C   UNL A   1      43.797  27.623  32.561  1.00  0.00     0.029 A 
ATOM     72  C   UNL A   1      44.347  28.367  31.521  1.00  0.00     0.049 A 
ATOM     73  H   UNL A   1      44.442  30.466  31.374  1.00  0.00     0.167 HD
ATOM     74  C   UNL A   1      45.055  26.736  29.925  1.00  0.00     0.074 A 
ATOM     75  C   UNL A   1      44.916  25.586  30.802  1.00  0.00     0.031 C 
ATOM     76  C   UNL A   1      44.884  28.053  30.210  1.00  0.00     0.034 A 
BRANCH  63  77
ATOM     77  C   UNL A   1      42.452  32.130  32.456  1.00  0.00     0.023 A 
ATOM     78  C   UNL A   1      43.528  32.373  31.595  1.00  0.00     0.031 A 
ATOM     79  C   UNL A   1      41.645  33.229  32.825  1.00  0.00     0.131 A 
ATOM     80  C   UNL A   1      43.807  33.686  31.179  1.00  0.00     0.055 A 
ATOM     81  C   UNL A   1      41.958  34.536  32.458  1.00  0.00     0.041 A 
ATOM     82  F   UNL A   1      40.521  33.051  33.537  1.00  0.00    -0.206 F 
ATOM     83  C   UNL A   1      43.051  34.772  31.635  1.00  0.00     0.022 A 
BRANCH  80  84
ATOM     84  S   UNL A   1      45.149  33.953  29.992  1.00  0.00     0.124 S 
ATOM     85  O   UNL A   1      44.435  34.043  28.722  1.00  0.00    -0.237 OA
ATOM     86  O   UNL A   1      45.742  35.199  30.469  1.00  0.00    -0.237 OA
ATOM     87  O   UNL A   1      45.994  32.771  30.149  1.00  0.00    -0.744 OA
ENDBRANCH  80  84
ENDBRANCH  63  77
BRANCH  64  88
ATOM     88  C   UNL A   1      43.120  23.676  27.369  1.00  0.00     0.023 A 
ATOM     89  C   UNL A   1      42.536  22.368  27.648  1.00  0.00     0.031 A 
ATOM     90  C   UNL A   1      43.758  23.761  26.126  1.00  0.00     0.131 A 
ATOM     91  C   UNL A   1      42.566  21.288  26.711  1.00  0.00     0.055 A 
ATOM     92  C   UNL A   1      43.790  22.684  25.205  1.00  0.00     0.041 A 
ATOM     93  F   UNL A   1      44.276  24.927  25.714  1.00  0.00    -0.206 F 
ATOM     94  C   UNL A   1      43.184  21.460  25.480  1.00  0.00     0.022 A 
BRANCH  91  95
ATOM     95  S   UNL A   1      41.649  19.697  26.972  1.00  0.00     0.124 S 
ATOM     96  O   UNL A   1      40.996  19.481  25.687  1.00  0.00    -0.237 OA
ATOM     97  O   UNL A   1      42.709  18.763  27.331  1.00  0.00    -0.237 OA
ATOM     98  O   UNL A   1      40.731  20.008  28.071  1.00  0.00    -0.744 OA
ENDBRANCH  91  95
ENDBRANCH  64  88
BRANCH  76  99
ATOM     99  C   UNL A   1      45.138  29.052  29.077  1.00  0.00     0.023 A 
ATOM    100  C   UNL A   1      46.407  29.471  28.588  1.00  0.00     0.031 A 
ATOM    101  C   UNL A   1      44.021  29.700  28.525  1.00  0.00     0.131 A 
ATOM    102  C   UNL A   1      46.517  30.514  27.642  1.00  0.00     0.055 A 
ATOM    103  C   UNL A   1      44.127  30.700  27.557  1.00  0.00     0.041 A 
ATOM    104  F   UNL A   1      42.783  29.380  28.938  1.00  0.00    -0.206 F 
ATOM    105  C   UNL A   1      45.377  31.125  27.124  1.00  0.00     0.022 A 
BRANCH 102 106
ATOM    106  S   UNL A   1      48.156  31.154  27.143  1.00  0.00     0.124 S 
ATOM    107  O   UNL A   1      48.820  29.986  26.578  1.00  0.00    -0.237 OA
ATOM    108  O   UNL A   1      47.811  32.211  26.197  1.00  0.00    -0.237 OA
ATOM    109  O   UNL A   1      48.734  31.629  28.401  1.00  0.00    -0.744 OA
ENDBRANCH 102 106
ENDBRANCH  76  99
ENDBRANCH  50  51
ENDBRANCH  42  45
ENDBRANCH  40  41
ENDBRANCH  39  40
ENDBRANCH   1  39
TORSDOF 22
ENDMDL
MODEL 3
REMARK VINA RESULT:     -12.0      3.681      5.933
REMARK SMILES Cc1c(CC(=O)N[C@@H](CCO)C(=O)NCCCNC(=O)c2ccc(-c3c4nc(c(-c5cc(S(=O)(=O)[O-])ccc5F)c5ccc([nH]5)c(-c5cc(S(=O)(=O)[O-])ccc5F)c5nc(c(-c6cc(S(=O)(=O)[O-])ccc6F)c6ccc3[nH]6)C=C5)C=C4)cc2)cc(-c2ccc(S(C)(=O)=O)cc2)n1-c1ccc(F)cc1
REMARK SMILES IDX 15 1 14 2 12 3 13 4 8 6 7 7 5 8 6 9 4 11 3 12 1 13 2 14
REMARK SMILES IDX 96 15 84 16 85 17 97 18 98 19 103 20 99 21 102 22 100 23
REMARK SMILES IDX 101 24 86 25 87 26 95 27 88 28 94 29 89 30 90 31 91 32 92 33
REMARK SMILES IDX 93 34 9 35 10 36 11 37 16 39 17 40 18 41 19 42 20 44 21 45
REMARK SMILES IDX 22 46 83 47 23 48 82 49 24 50 25 51 26 52 76 53 27 54 81 55
REMARK SMILES IDX 75 56 77 57 28 58 80 59 74 60 73 61 29 63 61 64 41 65 60 66
REMARK SMILES IDX 42 67 45 68 59 69 78 70 43 71 44 72 58 74 79 75 46 76 30 77
REMARK SMILES IDX 31 78 39 79 32 80 38 81 40 82 37 83 33 84 34 85 35 86 36 87
REMARK SMILES IDX 62 88 63 89 71 90 64 91 70 92 72 93 69 94 65 95 66 96 67 97
REMARK SMILES IDX 68 98 47 99 48 100 56 101 49 102 55 103 57 104 54 105 50 106
REMARK SMILES IDX 51 107 52 108 53 109
REMARK H PARENT 14 5 7 10 11 38 18 43 77 62 45 73
REMARK Flexibility Score: inf
ROOT
ATOM      1  C   UNL A   1      32.668  29.427  27.228  1.00  0.00     0.117 C 
ENDROOT
BRANCH   1   2
ATOM      2  N   UNL A   1      32.107  28.146  26.827  1.00  0.00    -0.354 N 
ATOM      3  C   UNL A   1      31.606  27.645  25.669  1.00  0.00     0.242 C 
ATOM      4  O   UNL A   1      31.319  26.443  25.676  1.00  0.00    -0.273 OA
ATOM      5  H   UNL A   1      32.084  27.494  27.564  1.00  0.00     0.163 HD
BRANCH   3   6
ATOM      6  C   UNL A   1      31.539  28.425  24.346  1.00  0.00     0.173 C 
BRANCH   6   7
ATOM      7  N   UNL A   1      32.805  28.479  23.623  1.00  0.00    -0.344 N 
ATOM      8  C   UNL A   1      33.269  27.585  22.692  1.00  0.00     0.225 C 
ATOM      9  O   UNL A   1      34.279  27.895  22.055  1.00  0.00    -0.275 OA
ATOM     10  H   UNL A   1      33.392  29.243  23.825  1.00  0.00     0.164 HD
BRANCH   8  11
ATOM     11  C   UNL A   1      32.557  26.251  22.454  1.00  0.00     0.137 C 
BRANCH  11  12
ATOM     12  C   UNL A   1      33.190  25.116  23.209  1.00  0.00    -0.017 A 
ATOM     13  C   UNL A   1      31.132  23.587  23.615  1.00  0.00     0.065 C 
ATOM     14  C   UNL A   1      32.586  23.939  23.630  1.00  0.00     0.024 A 
ATOM     15  N   UNL A   1      33.567  23.114  24.173  1.00  0.00    -0.314 N 
ATOM     16  C   UNL A   1      34.543  25.052  23.641  1.00  0.00     0.033 A 
ATOM     17  C   UNL A   1      34.776  23.808  24.206  1.00  0.00     0.053 A 
BRANCH  15  18
ATOM     18  C   UNL A   1      33.360  21.780  24.612  1.00  0.00     0.046 A 
ATOM     19  C   UNL A   1      33.048  20.783  23.681  1.00  0.00     0.029 A 
ATOM     20  C   UNL A   1      33.424  21.488  25.981  1.00  0.00     0.029 A 
ATOM     21  C   UNL A   1      32.823  19.480  24.126  1.00  0.00     0.041 A 
ATOM     22  C   UNL A   1      33.184  20.186  26.417  1.00  0.00     0.041 A 
ATOM     23  C   UNL A   1      32.892  19.194  25.487  1.00  0.00     0.123 A 
ATOM     24  F   UNL A   1      32.667  17.943  25.908  1.00  0.00    -0.207 F 
ENDBRANCH  15  18
BRANCH  17  25
ATOM     25  C   UNL A   1      36.063  23.264  24.664  1.00  0.00    -0.001 A 
ATOM     26  C   UNL A   1      36.580  22.069  24.135  1.00  0.00     0.011 A 
ATOM     27  C   UNL A   1      36.800  23.945  25.643  1.00  0.00     0.011 A 
ATOM     28  C   UNL A   1      37.774  21.529  24.622  1.00  0.00     0.021 A 
ATOM     29  C   UNL A   1      37.997  23.413  26.133  1.00  0.00     0.021 A 
ATOM     30  C   UNL A   1      38.463  22.194  25.638  1.00  0.00     0.067 A 
BRANCH  30  31
ATOM     31  S   UNL A   1      39.953  21.482  26.294  1.00  0.00     0.175 S 
ATOM     32  C   UNL A   1      39.746  19.740  26.026  1.00  0.00     0.163 C 
ATOM     33  O   UNL A   1      41.052  21.939  25.457  1.00  0.00    -0.224 OA
ATOM     34  O   UNL A   1      39.963  21.701  27.724  1.00  0.00    -0.224 OA
ENDBRANCH  30  31
ENDBRANCH  17  25
ENDBRANCH  11  12
ENDBRANCH   8  11
ENDBRANCH   6   7
BRANCH   6  35
ATOM     35  C   UNL A   1      30.318  28.122  23.456  1.00  0.00     0.063 C 
BRANCH  35  36
ATOM     36  C   UNL A   1      29.931  29.112  22.369  1.00  0.00     0.158 C 
BRANCH  36  37
ATOM     37  O   UNL A   1      31.009  29.942  21.967  1.00  0.00    -0.396 OA
ATOM     38  H   UNL A   1      31.354  30.419  22.738  1.00  0.00     0.210 HD
ENDBRANCH  36  37
ENDBRANCH  35  36
ENDBRANCH   6  35
ENDBRANCH   3   6
ENDBRANCH   1   2
BRANCH   1  39
ATOM     39  C   UNL A   1      34.188  29.435  27.383  1.00  0.00     0.042 C 
BRANCH  39  40
ATOM     40  C   UNL A   1      34.856  30.809  27.503  1.00  0.00     0.118 C 
BRANCH  40  41
ATOM     41  N   UNL A   1      34.002  31.850  28.020  1.00  0.00    -0.352 N 
ATOM     42  C   UNL A   1      34.382  32.872  28.876  1.00  0.00     0.251 C 
ATOM     43  H   UNL A   1      33.059  31.833  27.739  1.00  0.00     0.163 HD
ATOM     44  O   UNL A   1      33.534  33.695  29.202  1.00  0.00    -0.269 OA
BRANCH  42  45
ATOM     45  C   UNL A   1      35.770  32.898  29.463  1.00  0.00     0.039 A 
ATOM     46  C   UNL A   1      36.761  32.173  28.822  1.00  0.00     0.014 A 
ATOM     47  C   UNL A   1      36.121  33.523  30.672  1.00  0.00     0.014 A 
ATOM     48  C   UNL A   1      38.077  32.117  29.362  1.00  0.00     0.010 A 
ATOM     49  C   UNL A   1      37.442  33.378  31.267  1.00  0.00     0.010 A 
ATOM     50  C   UNL A   1      38.477  32.651  30.644  1.00  0.00    -0.014 A 
BRANCH  50  51
ATOM     51  C   UNL A   1      39.691  31.864  31.381  1.00  0.00     0.031 A 
ATOM     52  C   UNL A   1      40.700  32.961  31.520  1.00  0.00     0.074 A 
ATOM     53  C   UNL A   1      40.124  30.602  31.804  1.00  0.00     0.049 A 
ATOM     54  N   UNL A   1      41.075  33.618  30.457  1.00  0.00    -0.248 NA
ATOM     55  C   UNL A   1      40.947  33.659  32.783  1.00  0.00     0.031 C 
ATOM     56  C   UNL A   1      39.459  29.303  31.609  1.00  0.00     0.029 A 
ATOM     57  N   UNL A   1      41.287  30.158  32.525  1.00  0.00    -0.354 N 
ATOM     58  C   UNL A   1      41.851  34.665  30.890  1.00  0.00     0.074 A 
ATOM     59  C   UNL A   1      41.541  34.763  32.314  1.00  0.00     0.031 C 
ATOM     60  C   UNL A   1      40.092  28.294  32.284  1.00  0.00     0.029 A 
ATOM     61  C   UNL A   1      41.301  28.772  32.961  1.00  0.00     0.049 A 
ATOM     62  H   UNL A   1      42.039  30.766  32.714  1.00  0.00     0.167 HD
ATOM     63  C   UNL A   1      43.082  34.747  30.303  1.00  0.00     0.034 A 
ATOM     64  C   UNL A   1      42.224  28.043  33.729  1.00  0.00     0.034 A 
ATOM     65  C   UNL A   1      44.067  34.042  31.084  1.00  0.00     0.049 A 
ATOM     66  C   UNL A   1      43.518  28.696  33.540  1.00  0.00     0.074 A 
ATOM     67  C   UNL A   1      44.371  34.070  32.430  1.00  0.00     0.029 A 
ATOM     68  N   UNL A   1      44.510  32.828  30.597  1.00  0.00    -0.354 N 
ATOM     69  N   UNL A   1      44.195  28.576  32.444  1.00  0.00    -0.248 NA
ATOM     70  C   UNL A   1      44.129  29.513  34.581  1.00  0.00     0.031 C 
ATOM     71  C   UNL A   1      44.482  32.710  32.787  1.00  0.00     0.029 A 
ATOM     72  C   UNL A   1      44.685  31.947  31.642  1.00  0.00     0.049 A 
ATOM     73  H   UNL A   1      44.676  32.624  29.648  1.00  0.00     0.167 HD
ATOM     74  C   UNL A   1      44.943  29.712  32.447  1.00  0.00     0.074 A 
ATOM     75  C   UNL A   1      45.097  30.065  33.847  1.00  0.00     0.031 C 
ATOM     76  C   UNL A   1      44.826  30.528  31.368  1.00  0.00     0.034 A 
BRANCH  63  77
ATOM     77  C   UNL A   1      43.041  34.748  28.800  1.00  0.00     0.023 A 
ATOM     78  C   UNL A   1      43.809  33.805  28.106  1.00  0.00     0.031 A 
ATOM     79  C   UNL A   1      42.352  35.719  28.041  1.00  0.00     0.131 A 
ATOM     80  C   UNL A   1      43.918  33.885  26.708  1.00  0.00     0.055 A 
ATOM     81  C   UNL A   1      42.510  35.832  26.661  1.00  0.00     0.041 A 
ATOM     82  F   UNL A   1      41.493  36.570  28.626  1.00  0.00    -0.206 F 
ATOM     83  C   UNL A   1      43.304  34.914  25.986  1.00  0.00     0.022 A 
BRANCH  80  84
ATOM     84  S   UNL A   1      44.842  32.594  25.835  1.00  0.00     0.124 S 
ATOM     85  O   UNL A   1      44.659  32.967  24.435  1.00  0.00    -0.237 OA
ATOM     86  O   UNL A   1      46.193  32.770  26.360  1.00  0.00    -0.237 OA
ATOM     87  O   UNL A   1      44.181  31.356  26.240  1.00  0.00    -0.744 OA
ENDBRANCH  80  84
ENDBRANCH  63  77
BRANCH  64  88
ATOM     88  C   UNL A   1      42.432  26.743  34.575  1.00  0.00     0.023 A 
ATOM     89  C   UNL A   1      43.262  25.631  34.124  1.00  0.00     0.031 A 
ATOM     90  C   UNL A   1      42.176  26.741  35.951  1.00  0.00     0.131 A 
ATOM     91  C   UNL A   1      43.808  24.657  35.018  1.00  0.00     0.055 A 
ATOM     92  C   UNL A   1      42.715  25.769  36.830  1.00  0.00     0.041 A 
ATOM     93  F   UNL A   1      41.484  27.746  36.508  1.00  0.00    -0.206 F 
ATOM     94  C   UNL A   1      43.542  24.742  36.378  1.00  0.00     0.022 A 
BRANCH  91  95
ATOM     95  S   UNL A   1      45.028  23.367  34.484  1.00  0.00     0.124 S 
ATOM     96  O   UNL A   1      46.305  24.063  34.579  1.00  0.00    -0.237 OA
ATOM     97  O   UNL A   1      44.802  22.286  35.437  1.00  0.00    -0.237 OA
ATOM     98  O   UNL A   1      44.614  23.049  33.115  1.00  0.00    -0.744 OA
ENDBRANCH  91  95
ENDBRANCH  64  88
BRANCH  76  99
ATOM     99  C   UNL A   1      44.711  29.860  29.994  1.00  0.00     0.023 A 
ATOM    100  C   UNL A   1      43.510  29.449  29.352  1.00  0.00     0.031 A 
ATOM    101  C   UNL A   1      45.907  29.525  29.337  1.00  0.00     0.131 A 
ATOM    102  C   UNL A   1      43.541  28.704  28.152  1.00  0.00     0.055 A 
ATOM    103  C   UNL A   1      45.937  28.828  28.128  1.00  0.00     0.041 A 
ATOM    104  F   UNL A   1      47.090  29.860  29.878  1.00  0.00    -0.206 F 
ATOM    105  C   UNL A   1      44.754  28.398  27.538  1.00  0.00     0.022 A 
BRANCH 102 106
ATOM    106  S   UNL A   1      42.001  28.042  27.422  1.00  0.00     0.124 S 
ATOM    107  O   UNL A   1      41.097  27.947  28.562  1.00  0.00    -0.237 OA
ATOM    108  O   UNL A   1      41.662  29.050  26.422  1.00  0.00    -0.237 OA
ATOM    109  O   UNL A   1      42.414  26.750  26.870  1.00  0.00    -0.744 OA
ENDBRANCH 102 106
ENDBRANCH  76  99
ENDBRANCH  50  51
ENDBRANCH  42  45
ENDBRANCH  40  41
ENDBRANCH  39  40
ENDBRANCH   1  39
TORSDOF 22
ENDMDL
