MODEL 1
REMARK VINA RESULT:     -11.8      0.000      0.000
REMARK SMILES O=C(CCSc1nc(-c2cccs2)cc(C(F)(F)F)n1)NCCCNC(=O)c1ccc(-c2c3nc(c(-c4cc(S(=O)(=O)[O-])ccc4F)c4ccc([nH]4)c(-c4cc(S(=O)(=O)[O-])ccc4F)c4nc(c(-c5cc(S(=O)(=O)[O-])ccc5F)c5ccc2[nH]5)C=C4)C=C3)cc1
REMARK SMILES IDX 22 1 21 2 1 3 2 4 3 6 4 7 5 8 6 9 7 10 20 11 8 12 15 13
REMARK SMILES IDX 14 14 9 15 10 16 13 17 11 18 12 19 16 20 17 21 18 22 19 23
REMARK SMILES IDX 23 24 24 25 25 26 26 27 27 29 28 30 29 31 90 32 30 33 89 34
REMARK SMILES IDX 31 35 32 36 33 37 83 38 34 39 88 40 82 41 84 42 35 43 87 44
REMARK SMILES IDX 81 45 80 46 36 48 68 49 48 50 67 51 49 52 52 53 66 54 85 55
REMARK SMILES IDX 50 56 51 57 65 59 86 60 53 61 37 62 38 63 46 64 39 65 45 66
REMARK SMILES IDX 47 67 44 68 40 69 41 70 42 71 43 72 69 73 70 74 78 75 71 76
REMARK SMILES IDX 77 77 79 78 76 79 72 80 73 81 74 82 75 83 54 84 55 85 63 86
REMARK SMILES IDX 56 87 62 88 64 89 61 90 57 91 58 92 59 93 60 94
REMARK H PARENT 21 5 25 28 84 47 52 58
REMARK Flexibility Score: inf
ROOT
ATOM      1  C   UNL A   1      34.631  22.199  23.848  1.00  0.00     0.117 C 
ENDROOT
BRANCH   1   2
ATOM      2  N   UNL A   1      33.229  22.399  24.142  1.00  0.00    -0.356 N 
ATOM      3  O   UNL A   1      33.149  20.859  25.853  1.00  0.00    -0.275 OA
ATOM      4  C   UNL A   1      32.635  21.771  25.214  1.00  0.00     0.220 C 
ATOM      5  H   UNL A   1      32.693  22.992  23.568  1.00  0.00     0.163 HD
BRANCH   4   6
ATOM      6  C   UNL A   1      31.303  22.362  25.604  1.00  0.00     0.111 C 
BRANCH   6   7
ATOM      7  C   UNL A   1      31.497  23.619  26.448  1.00  0.00     0.088 C 
BRANCH   7   8
ATOM      8  S   UNL A   1      30.165  24.861  26.241  1.00  0.00    -0.086 SA
BRANCH   8   9
ATOM      9  C   UNL A   1      30.644  25.726  24.761  1.00  0.00     0.188 A 
ATOM     10  N   UNL A   1      29.858  26.747  24.404  1.00  0.00    -0.222 NA
ATOM     11  N   UNL A   1      31.684  25.290  24.040  1.00  0.00    -0.218 NA
ATOM     12  C   UNL A   1      30.143  27.378  23.249  1.00  0.00     0.085 A 
ATOM     13  C   UNL A   1      31.932  25.911  22.854  1.00  0.00     0.149 A 
ATOM     14  C   UNL A   1      31.167  26.978  22.420  1.00  0.00     0.063 A 
BRANCH  12  15
ATOM     15  C   UNL A   1      29.257  28.486  22.878  1.00  0.00     0.053 A 
ATOM     16  C   UNL A   1      27.911  28.658  23.158  1.00  0.00     0.022 A 
ATOM     17  S   UNL A   1      29.863  29.809  21.962  1.00  0.00    -0.142 S 
ATOM     18  C   UNL A   1      27.402  29.902  22.681  1.00  0.00     0.012 A 
ATOM     19  C   UNL A   1      28.364  30.628  22.019  1.00  0.00     0.065 A 
ENDBRANCH  12  15
BRANCH  13  20
ATOM     20  C   UNL A   1      33.000  25.342  21.929  1.00  0.00     0.433 C 
ATOM     21  F   UNL A   1      33.197  26.079  20.803  1.00  0.00    -0.165 F 
ATOM     22  F   UNL A   1      34.213  25.220  22.536  1.00  0.00    -0.165 F 
ATOM     23  F   UNL A   1      32.696  24.083  21.490  1.00  0.00    -0.165 F 
ENDBRANCH  13  20
ENDBRANCH   8   9
ENDBRANCH   7   8
ENDBRANCH   6   7
ENDBRANCH   4   6
ENDBRANCH   1   2
BRANCH   1  24
ATOM     24  C   UNL A   1      35.577  23.127  24.581  1.00  0.00     0.042 C 
BRANCH  24  25
ATOM     25  C   UNL A   1      36.337  22.511  25.745  1.00  0.00     0.118 C 
BRANCH  25  26
ATOM     26  N   UNL A   1      37.252  21.427  25.407  1.00  0.00    -0.352 N 
ATOM     27  C   UNL A   1      38.570  21.271  25.787  1.00  0.00     0.251 C 
ATOM     28  H   UNL A   1      36.883  20.716  24.834  1.00  0.00     0.163 HD
ATOM     29  O   UNL A   1      39.187  20.247  25.561  1.00  0.00    -0.269 OA
BRANCH  27  30
ATOM     30  C   UNL A   1      39.251  22.392  26.454  1.00  0.00     0.039 A 
ATOM     31  C   UNL A   1      40.286  22.128  27.355  1.00  0.00     0.014 A 
ATOM     32  C   UNL A   1      38.900  23.696  26.116  1.00  0.00     0.014 A 
ATOM     33  C   UNL A   1      41.041  23.189  27.855  1.00  0.00     0.010 A 
ATOM     34  C   UNL A   1      39.709  24.736  26.539  1.00  0.00     0.010 A 
ATOM     35  C   UNL A   1      40.786  24.495  27.412  1.00  0.00    -0.014 A 
BRANCH  35  36
ATOM     36  C   UNL A   1      41.573  25.669  27.860  1.00  0.00     0.031 A 
ATOM     37  C   UNL A   1      40.865  26.730  28.654  1.00  0.00     0.074 A 
ATOM     38  C   UNL A   1      42.834  25.854  27.427  1.00  0.00     0.049 A 
ATOM     39  N   UNL A   1      41.200  27.973  28.870  1.00  0.00    -0.248 NA
ATOM     40  C   UNL A   1      39.562  26.345  29.222  1.00  0.00     0.031 C 
ATOM     41  C   UNL A   1      43.614  24.896  26.641  1.00  0.00     0.029 A 
ATOM     42  N   UNL A   1      43.669  26.935  27.554  1.00  0.00    -0.354 N 
ATOM     43  C   UNL A   1      40.123  28.537  29.546  1.00  0.00     0.074 A 
ATOM     44  C   UNL A   1      39.109  27.510  29.657  1.00  0.00     0.031 C 
ATOM     45  C   UNL A   1      44.811  25.433  26.354  1.00  0.00     0.029 A 
ATOM     46  C   UNL A   1      44.860  26.794  26.878  1.00  0.00     0.049 A 
ATOM     47  H   UNL A   1      43.439  27.735  28.079  1.00  0.00     0.167 HD
ATOM     48  C   UNL A   1      40.001  29.796  30.034  1.00  0.00     0.034 A 
ATOM     49  C   UNL A   1      45.855  27.679  26.673  1.00  0.00     0.034 A 
ATOM     50  C   UNL A   1      41.050  30.780  29.940  1.00  0.00     0.049 A 
ATOM     51  C   UNL A   1      45.706  29.071  27.235  1.00  0.00     0.074 A 
ATOM     52  C   UNL A   1      41.078  32.065  30.449  1.00  0.00     0.029 A 
ATOM     53  N   UNL A   1      42.266  30.579  29.298  1.00  0.00    -0.354 N 
ATOM     54  N   UNL A   1      44.689  29.597  27.882  1.00  0.00    -0.248 NA
ATOM     55  C   UNL A   1      46.835  29.989  27.041  1.00  0.00     0.031 C 
ATOM     56  C   UNL A   1      42.288  32.658  30.070  1.00  0.00     0.029 A 
ATOM     57  C   UNL A   1      43.044  31.723  29.382  1.00  0.00     0.049 A 
ATOM     58  H   UNL A   1      42.536  29.747  28.847  1.00  0.00     0.167 HD
ATOM     59  C   UNL A   1      45.070  30.898  28.195  1.00  0.00     0.074 A 
ATOM     60  C   UNL A   1      46.413  31.072  27.678  1.00  0.00     0.031 C 
ATOM     61  C   UNL A   1      44.380  31.864  28.852  1.00  0.00     0.034 A 
BRANCH  48  62
ATOM     62  C   UNL A   1      38.685  30.169  30.673  1.00  0.00     0.023 A 
ATOM     63  C   UNL A   1      37.666  30.814  29.950  1.00  0.00     0.031 A 
ATOM     64  C   UNL A   1      38.465  29.929  32.041  1.00  0.00     0.131 A 
ATOM     65  C   UNL A   1      36.522  31.280  30.614  1.00  0.00     0.055 A 
ATOM     66  C   UNL A   1      37.282  30.313  32.677  1.00  0.00     0.041 A 
ATOM     67  F   UNL A   1      39.407  29.336  32.793  1.00  0.00    -0.206 F 
ATOM     68  C   UNL A   1      36.310  31.011  31.967  1.00  0.00     0.022 A 
BRANCH  65  69
ATOM     69  S   UNL A   1      35.396  32.384  29.717  1.00  0.00     0.124 S 
ATOM     70  O   UNL A   1      35.009  31.547  28.583  1.00  0.00    -0.237 OA
ATOM     71  O   UNL A   1      34.354  32.643  30.704  1.00  0.00    -0.237 OA
ATOM     72  O   UNL A   1      36.236  33.530  29.380  1.00  0.00    -0.744 OA
ENDBRANCH  65  69
ENDBRANCH  48  62
BRANCH  49  73
ATOM     73  C   UNL A   1      47.063  27.296  25.888  1.00  0.00     0.023 A 
ATOM     74  C   UNL A   1      47.198  27.685  24.546  1.00  0.00     0.031 A 
ATOM     75  C   UNL A   1      48.085  26.514  26.453  1.00  0.00     0.131 A 
ATOM     76  C   UNL A   1      48.308  27.257  23.799  1.00  0.00     0.055 A 
ATOM     77  C   UNL A   1      49.212  26.131  25.721  1.00  0.00     0.041 A 
ATOM     78  F   UNL A   1      48.011  26.121  27.735  1.00  0.00    -0.206 F 
ATOM     79  C   UNL A   1      49.322  26.493  24.381  1.00  0.00     0.022 A 
BRANCH  76  80
ATOM     80  S   UNL A   1      48.369  27.655  22.032  1.00  0.00     0.124 S 
ATOM     81  O   UNL A   1      49.499  28.575  21.972  1.00  0.00    -0.237 OA
ATOM     82  O   UNL A   1      48.579  26.340  21.434  1.00  0.00    -0.237 OA
ATOM     83  O   UNL A   1      47.060  28.253  21.772  1.00  0.00    -0.744 OA
ENDBRANCH  76  80
ENDBRANCH  49  73
BRANCH  61  84
ATOM     84  C   UNL A   1      45.093  33.169  29.089  1.00  0.00     0.023 A 
ATOM     85  C   UNL A   1      45.108  34.189  28.123  1.00  0.00     0.031 A 
ATOM     86  C   UNL A   1      45.764  33.394  30.305  1.00  0.00     0.131 A 
ATOM     87  C   UNL A   1      45.821  35.371  28.368  1.00  0.00     0.055 A 
ATOM     88  C   UNL A   1      46.424  34.594  30.566  1.00  0.00     0.041 A 
ATOM     89  F   UNL A   1      45.778  32.451  31.260  1.00  0.00    -0.206 F 
ATOM     90  C   UNL A   1      46.465  35.586  29.590  1.00  0.00     0.022 A 
BRANCH  87  91
ATOM     91  S   UNL A   1      45.959  36.596  27.039  1.00  0.00     0.124 S 
ATOM     92  O   UNL A   1      47.091  37.401  27.487  1.00  0.00    -0.237 OA
ATOM     93  O   UNL A   1      46.194  35.762  25.866  1.00  0.00    -0.237 OA
ATOM     94  O   UNL A   1      44.666  37.277  27.065  1.00  0.00    -0.744 OA
ENDBRANCH  87  91
ENDBRANCH  61  84
ENDBRANCH  35  36
ENDBRANCH  27  30
ENDBRANCH  25  26
ENDBRANCH  24  25
ENDBRANCH   1  24
TORSDOF 18
ENDMDL
MODEL 2
REMARK VINA RESULT:     -11.7      5.301     10.283
REMARK SMILES O=C(CCSc1nc(-c2cccs2)cc(C(F)(F)F)n1)NCCCNC(=O)c1ccc(-c2c3nc(c(-c4cc(S(=O)(=O)[O-])ccc4F)c4ccc([nH]4)c(-c4cc(S(=O)(=O)[O-])ccc4F)c4nc(c(-c5cc(S(=O)(=O)[O-])ccc5F)c5ccc2[nH]5)C=C4)C=C3)cc1
REMARK SMILES IDX 22 1 21 2 1 3 2 4 3 6 4 7 5 8 6 9 7 10 20 11 8 12 15 13
REMARK SMILES IDX 14 14 9 15 10 16 13 17 11 18 12 19 16 20 17 21 18 22 19 23
REMARK SMILES IDX 23 24 24 25 25 26 26 27 27 29 28 30 29 31 90 32 30 33 89 34
REMARK SMILES IDX 31 35 32 36 33 37 83 38 34 39 88 40 82 41 84 42 35 43 87 44
REMARK SMILES IDX 81 45 80 46 36 48 68 49 48 50 67 51 49 52 52 53 66 54 85 55
REMARK SMILES IDX 50 56 51 57 65 59 86 60 53 61 37 62 38 63 46 64 39 65 45 66
REMARK SMILES IDX 47 67 44 68 40 69 41 70 42 71 43 72 69 73 70 74 78 75 71 76
REMARK SMILES IDX 77 77 79 78 76 79 72 80 73 81 74 82 75 83 54 84 55 85 63 86
REMARK SMILES IDX 56 87 62 88 64 89 61 90 57 91 58 92 59 93 60 94
REMARK H PARENT 21 5 25 28 84 47 52 58
REMARK Flexibility Score: inf
ROOT
ATOM      1  C   UNL A   1      32.987  26.637  25.693  1.00  0.00     0.117 C 
ENDROOT
BRANCH   1   2
ATOM      2  N   UNL A   1      32.257  25.425  25.992  1.00  0.00    -0.356 N 
ATOM      3  O   UNL A   1      32.454  24.530  23.880  1.00  0.00    -0.275 OA
ATOM      4  C   UNL A   1      32.151  24.416  25.062  1.00  0.00     0.220 C 
ATOM      5  H   UNL A   1      31.829  25.321  26.873  1.00  0.00     0.163 HD
BRANCH   4   6
ATOM      6  C   UNL A   1      31.698  23.098  25.643  1.00  0.00     0.111 C 
BRANCH   6   7
ATOM      7  C   UNL A   1      31.646  23.169  27.166  1.00  0.00     0.088 C 
BRANCH   7   8
ATOM      8  S   UNL A   1      33.001  22.257  27.997  1.00  0.00    -0.086 SA
BRANCH   8   9
ATOM      9  C   UNL A   1      34.052  21.773  26.646  1.00  0.00     0.188 A 
ATOM     10  N   UNL A   1      33.749  20.609  26.061  1.00  0.00    -0.222 NA
ATOM     11  N   UNL A   1      35.116  22.519  26.327  1.00  0.00    -0.218 NA
ATOM     12  C   UNL A   1      34.566  20.171  25.083  1.00  0.00     0.085 A 
ATOM     13  C   UNL A   1      35.956  22.041  25.368  1.00  0.00     0.149 A 
ATOM     14  C   UNL A   1      35.706  20.848  24.714  1.00  0.00     0.063 A 
BRANCH  12  15
ATOM     15  C   UNL A   1      34.215  18.886  24.470  1.00  0.00     0.053 A 
ATOM     16  C   UNL A   1      34.962  17.722  24.394  1.00  0.00     0.022 A 
ATOM     17  S   UNL A   1      32.690  18.684  23.702  1.00  0.00    -0.142 S 
ATOM     18  C   UNL A   1      34.256  16.652  23.769  1.00  0.00     0.012 A 
ATOM     19  C   UNL A   1      33.003  17.040  23.353  1.00  0.00     0.065 A 
ENDBRANCH  12  15
BRANCH  13  20
ATOM     20  C   UNL A   1      37.262  22.776  25.093  1.00  0.00     0.433 C 
ATOM     21  F   UNL A   1      37.567  23.717  26.026  1.00  0.00    -0.165 F 
ATOM     22  F   UNL A   1      38.332  21.938  25.017  1.00  0.00    -0.165 F 
ATOM     23  F   UNL A   1      37.247  23.441  23.898  1.00  0.00    -0.165 F 
ENDBRANCH  13  20
ENDBRANCH   8   9
ENDBRANCH   7   8
ENDBRANCH   6   7
ENDBRANCH   4   6
ENDBRANCH   1   2
BRANCH   1  24
ATOM     24  C   UNL A   1      32.280  27.920  26.073  1.00  0.00     0.042 C 
BRANCH  24  25
ATOM     25  C   UNL A   1      33.091  29.196  25.903  1.00  0.00     0.118 C 
BRANCH  25  26
ATOM     26  N   UNL A   1      32.483  30.413  26.429  1.00  0.00    -0.352 N 
ATOM     27  C   UNL A   1      33.080  31.416  27.166  1.00  0.00     0.251 C 
ATOM     28  H   UNL A   1      31.525  30.534  26.234  1.00  0.00     0.163 HD
ATOM     29  O   UNL A   1      32.501  32.455  27.422  1.00  0.00    -0.269 OA
BRANCH  27  30
ATOM     30  C   UNL A   1      34.441  31.202  27.680  1.00  0.00     0.039 A 
ATOM     31  C   UNL A   1      35.349  32.265  27.682  1.00  0.00     0.014 A 
ATOM     32  C   UNL A   1      34.773  29.965  28.224  1.00  0.00     0.014 A 
ATOM     33  C   UNL A   1      36.579  32.109  28.322  1.00  0.00     0.010 A 
ATOM     34  C   UNL A   1      35.953  29.845  28.939  1.00  0.00     0.010 A 
ATOM     35  C   UNL A   1      36.867  30.913  28.995  1.00  0.00    -0.014 A 
BRANCH  35  36
ATOM     36  C   UNL A   1      38.130  30.687  29.738  1.00  0.00     0.031 A 
ATOM     37  C   UNL A   1      39.124  29.719  29.160  1.00  0.00     0.074 A 
ATOM     38  C   UNL A   1      38.303  31.205  30.968  1.00  0.00     0.049 A 
ATOM     39  N   UNL A   1      40.112  29.093  29.739  1.00  0.00    -0.248 NA
ATOM     40  C   UNL A   1      38.923  29.361  27.746  1.00  0.00     0.031 C 
ATOM     41  C   UNL A   1      37.398  32.145  31.632  1.00  0.00     0.029 A 
ATOM     42  N   UNL A   1      39.286  30.979  31.898  1.00  0.00    -0.354 N 
ATOM     43  C   UNL A   1      40.613  28.221  28.778  1.00  0.00     0.074 A 
ATOM     44  C   UNL A   1      39.786  28.368  27.600  1.00  0.00     0.031 C 
ATOM     45  C   UNL A   1      37.865  32.413  32.862  1.00  0.00     0.029 A 
ATOM     46  C   UNL A   1      39.065  31.616  33.099  1.00  0.00     0.049 A 
ATOM     47  H   UNL A   1      40.074  30.416  31.724  1.00  0.00     0.167 HD
ATOM     48  C   UNL A   1      41.673  27.381  28.875  1.00  0.00     0.034 A 
ATOM     49  C   UNL A   1      39.734  31.531  34.266  1.00  0.00     0.034 A 
ATOM     50  C   UNL A   1      42.500  27.292  30.053  1.00  0.00     0.049 A 
ATOM     51  C   UNL A   1      40.919  30.601  34.349  1.00  0.00     0.074 A 
ATOM     52  C   UNL A   1      43.639  26.533  30.254  1.00  0.00     0.029 A 
ATOM     53  N   UNL A   1      42.278  27.998  31.229  1.00  0.00    -0.354 N 
ATOM     54  N   UNL A   1      41.395  29.786  33.435  1.00  0.00    -0.248 NA
ATOM     55  C   UNL A   1      41.656  30.580  35.618  1.00  0.00     0.031 C 
ATOM     56  C   UNL A   1      44.073  26.740  31.568  1.00  0.00     0.029 A 
ATOM     57  C   UNL A   1      43.247  27.679  32.167  1.00  0.00     0.049 A 
ATOM     58  H   UNL A   1      41.540  28.632  31.376  1.00  0.00     0.167 HD
ATOM     59  C   UNL A   1      42.504  29.175  34.011  1.00  0.00     0.074 A 
ATOM     60  C   UNL A   1      42.633  29.726  35.346  1.00  0.00     0.031 C 
ATOM     61  C   UNL A   1      43.345  28.246  33.491  1.00  0.00     0.034 A 
BRANCH  48  62
ATOM     62  C   UNL A   1      41.963  26.488  27.693  1.00  0.00     0.023 A 
ATOM     63  C   UNL A   1      41.582  25.134  27.677  1.00  0.00     0.031 A 
ATOM     64  C   UNL A   1      42.680  26.979  26.588  1.00  0.00     0.131 A 
ATOM     65  C   UNL A   1      42.002  24.300  26.629  1.00  0.00     0.055 A 
ATOM     66  C   UNL A   1      43.015  26.164  25.504  1.00  0.00     0.041 A 
ATOM     67  F   UNL A   1      43.092  28.257  26.552  1.00  0.00    -0.206 F 
ATOM     68  C   UNL A   1      42.692  24.811  25.529  1.00  0.00     0.022 A 
BRANCH  65  69
ATOM     69  S   UNL A   1      41.771  22.510  26.809  1.00  0.00     0.124 S 
ATOM     70  O   UNL A   1      42.016  22.045  25.446  1.00  0.00    -0.237 OA
ATOM     71  O   UNL A   1      42.785  22.158  27.796  1.00  0.00    -0.237 OA
ATOM     72  O   UNL A   1      40.387  22.388  27.264  1.00  0.00    -0.744 OA
ENDBRANCH  65  69
ENDBRANCH  48  62
BRANCH  49  73
ATOM     73  C   UNL A   1      39.296  32.321  35.452  1.00  0.00     0.023 A 
ATOM     74  C   UNL A   1      39.750  33.636  35.644  1.00  0.00     0.031 A 
ATOM     75  C   UNL A   1      38.443  31.771  36.424  1.00  0.00     0.131 A 
ATOM     76  C   UNL A   1      39.384  34.342  36.802  1.00  0.00     0.055 A 
ATOM     77  C   UNL A   1      38.042  32.494  37.549  1.00  0.00     0.041 A 
ATOM     78  F   UNL A   1      37.972  30.521  36.285  1.00  0.00    -0.206 F 
ATOM     79  C   UNL A   1      38.523  33.785  37.749  1.00  0.00     0.022 A 
BRANCH  76  80
ATOM     80  S   UNL A   1      40.112  35.978  37.084  1.00  0.00     0.124 S 
ATOM     81  O   UNL A   1      39.419  36.409  38.293  1.00  0.00    -0.237 OA
ATOM     82  O   UNL A   1      41.528  35.657  37.235  1.00  0.00    -0.237 OA
ATOM     83  O   UNL A   1      39.770  36.718  35.870  1.00  0.00    -0.744 OA
ENDBRANCH  76  80
ENDBRANCH  49  73
BRANCH  61  84
ATOM     84  C   UNL A   1      44.503  27.815  34.353  1.00  0.00     0.023 A 
ATOM     85  C   UNL A   1      44.369  26.803  35.318  1.00  0.00     0.031 A 
ATOM     86  C   UNL A   1      45.760  28.428  34.200  1.00  0.00     0.131 A 
ATOM     87  C   UNL A   1      45.462  26.465  36.128  1.00  0.00     0.055 A 
ATOM     88  C   UNL A   1      46.858  28.047  34.970  1.00  0.00     0.041 A 
ATOM     89  F   UNL A   1      45.940  29.399  33.291  1.00  0.00    -0.206 F 
ATOM     90  C   UNL A   1      46.710  27.069  35.949  1.00  0.00     0.022 A 
BRANCH  87  91
ATOM     91  S   UNL A   1      45.213  25.274  37.473  1.00  0.00     0.124 S 
ATOM     92  O   UNL A   1      46.185  24.237  37.142  1.00  0.00    -0.237 OA
ATOM     93  O   UNL A   1      45.510  26.073  38.657  1.00  0.00    -0.237 OA
ATOM     94  O   UNL A   1      43.813  24.881  37.328  1.00  0.00    -0.744 OA
ENDBRANCH  87  91
ENDBRANCH  61  84
ENDBRANCH  35  36
ENDBRANCH  27  30
ENDBRANCH  25  26
ENDBRANCH  24  25
ENDBRANCH   1  24
TORSDOF 18
ENDMDL
MODEL 3
REMARK VINA RESULT:     -11.7      2.013      2.362
REMARK SMILES O=C(CCSc1nc(-c2cccs2)cc(C(F)(F)F)n1)NCCCNC(=O)c1ccc(-c2c3nc(c(-c4cc(S(=O)(=O)[O-])ccc4F)c4ccc([nH]4)c(-c4cc(S(=O)(=O)[O-])ccc4F)c4nc(c(-c5cc(S(=O)(=O)[O-])ccc5F)c5ccc2[nH]5)C=C4)C=C3)cc1
REMARK SMILES IDX 22 1 21 2 1 3 2 4 3 6 4 7 5 8 6 9 7 10 20 11 8 12 15 13
REMARK SMILES IDX 14 14 9 15 10 16 13 17 11 18 12 19 16 20 17 21 18 22 19 23
REMARK SMILES IDX 23 24 24 25 25 26 26 27 27 29 28 30 29 31 90 32 30 33 89 34
REMARK SMILES IDX 31 35 32 36 33 37 83 38 34 39 88 40 82 41 84 42 35 43 87 44
REMARK SMILES IDX 81 45 80 46 36 48 68 49 48 50 67 51 49 52 52 53 66 54 85 55
REMARK SMILES IDX 50 56 51 57 65 59 86 60 53 61 37 62 38 63 46 64 39 65 45 66
REMARK SMILES IDX 47 67 44 68 40 69 41 70 42 71 43 72 69 73 70 74 78 75 71 76
REMARK SMILES IDX 77 77 79 78 76 79 72 80 73 81 74 82 75 83 54 84 55 85 63 86
REMARK SMILES IDX 56 87 62 88 64 89 61 90 57 91 58 92 59 93 60 94
REMARK H PARENT 21 5 25 28 84 47 52 58
REMARK Flexibility Score: inf
ROOT
ATOM      1  C   UNL A   1      35.505  23.073  23.532  1.00  0.00     0.117 C 
ENDROOT
BRANCH   1   2
ATOM      2  N   UNL A   1      34.193  23.290  22.962  1.00  0.00    -0.356 N 
ATOM      3  O   UNL A   1      33.181  21.560  24.098  1.00  0.00    -0.275 OA
ATOM      4  C   UNL A   1      33.107  22.561  23.393  1.00  0.00     0.220 C 
ATOM      5  H   UNL A   1      34.076  23.967  22.258  1.00  0.00     0.163 HD
BRANCH   4   6
ATOM      6  C   UNL A   1      31.779  23.152  22.988  1.00  0.00     0.111 C 
BRANCH   6   7
ATOM      7  C   UNL A   1      31.778  24.665  23.186  1.00  0.00     0.088 C 
BRANCH   7   8
ATOM      8  S   UNL A   1      30.181  25.331  23.791  1.00  0.00    -0.086 SA
BRANCH   8   9
ATOM      9  C   UNL A   1      30.600  26.979  24.311  1.00  0.00     0.188 A 
ATOM     10  N   UNL A   1      29.935  27.968  23.706  1.00  0.00    -0.222 NA
ATOM     11  N   UNL A   1      31.586  27.170  25.197  1.00  0.00    -0.218 NA
ATOM     12  C   UNL A   1      30.277  29.233  24.017  1.00  0.00     0.085 A 
ATOM     13  C   UNL A   1      31.950  28.453  25.468  1.00  0.00     0.149 A 
ATOM     14  C   UNL A   1      31.304  29.529  24.885  1.00  0.00     0.063 A 
BRANCH  12  15
ATOM     15  C   UNL A   1      29.538  30.295  23.327  1.00  0.00     0.053 A 
ATOM     16  C   UNL A   1      28.919  31.414  23.860  1.00  0.00     0.022 A 
ATOM     17  S   UNL A   1      29.345  30.245  21.620  1.00  0.00    -0.142 S 
ATOM     18  C   UNL A   1      28.348  32.258  22.860  1.00  0.00     0.012 A 
ATOM     19  C   UNL A   1      28.518  31.741  21.597  1.00  0.00     0.065 A 
ENDBRANCH  12  15
BRANCH  13  20
ATOM     20  C   UNL A   1      33.172  28.709  26.340  1.00  0.00     0.433 C 
ATOM     21  F   UNL A   1      32.932  29.546  27.386  1.00  0.00    -0.165 F 
ATOM     22  F   UNL A   1      33.695  27.566  26.864  1.00  0.00    -0.165 F 
ATOM     23  F   UNL A   1      34.201  29.283  25.646  1.00  0.00    -0.165 F 
ENDBRANCH  13  20
ENDBRANCH   8   9
ENDBRANCH   7   8
ENDBRANCH   6   7
ENDBRANCH   4   6
ENDBRANCH   1   2
BRANCH   1  24
ATOM     24  C   UNL A   1      35.692  23.617  24.932  1.00  0.00     0.042 C 
BRANCH  24  25
ATOM     25  C   UNL A   1      36.140  22.607  25.978  1.00  0.00     0.118 C 
BRANCH  25  26
ATOM     26  N   UNL A   1      37.054  21.570  25.512  1.00  0.00    -0.352 N 
ATOM     27  C   UNL A   1      38.403  21.439  25.777  1.00  0.00     0.251 C 
ATOM     28  H   UNL A   1      36.660  20.877  24.935  1.00  0.00     0.163 HD
ATOM     29  O   UNL A   1      39.028  20.447  25.450  1.00  0.00    -0.269 OA
BRANCH  27  30
ATOM     30  C   UNL A   1      39.105  22.547  26.443  1.00  0.00     0.039 A 
ATOM     31  C   UNL A   1      40.102  22.263  27.380  1.00  0.00     0.014 A 
ATOM     32  C   UNL A   1      38.812  23.855  26.072  1.00  0.00     0.014 A 
ATOM     33  C   UNL A   1      40.880  23.305  27.884  1.00  0.00     0.010 A 
ATOM     34  C   UNL A   1      39.646  24.874  26.500  1.00  0.00     0.010 A 
ATOM     35  C   UNL A   1      40.687  24.611  27.410  1.00  0.00    -0.014 A 
BRANCH  35  36
ATOM     36  C   UNL A   1      41.502  25.764  27.860  1.00  0.00     0.031 A 
ATOM     37  C   UNL A   1      40.806  26.876  28.594  1.00  0.00     0.074 A 
ATOM     38  C   UNL A   1      42.787  25.885  27.478  1.00  0.00     0.049 A 
ATOM     39  N   UNL A   1      41.184  28.110  28.790  1.00  0.00    -0.248 NA
ATOM     40  C   UNL A   1      39.466  26.561  29.114  1.00  0.00     0.031 C 
ATOM     41  C   UNL A   1      43.559  24.873  26.753  1.00  0.00     0.029 A 
ATOM     42  N   UNL A   1      43.661  26.934  27.612  1.00  0.00    -0.354 N 
ATOM     43  C   UNL A   1      40.104  28.736  29.403  1.00  0.00     0.074 A 
ATOM     44  C   UNL A   1      39.044  27.755  29.497  1.00  0.00     0.031 C 
ATOM     45  C   UNL A   1      44.789  25.352  26.504  1.00  0.00     0.029 A 
ATOM     46  C   UNL A   1      44.873  26.724  26.993  1.00  0.00     0.049 A 
ATOM     47  H   UNL A   1      43.443  27.757  28.105  1.00  0.00     0.167 HD
ATOM     48  C   UNL A   1      40.014  30.013  29.851  1.00  0.00     0.034 A 
ATOM     49  C   UNL A   1      45.912  27.562  26.808  1.00  0.00     0.034 A 
ATOM     50  C   UNL A   1      41.107  30.950  29.777  1.00  0.00     0.049 A 
ATOM     51  C   UNL A   1      45.798  28.975  27.326  1.00  0.00     0.074 A 
ATOM     52  C   UNL A   1      41.167  32.247  30.252  1.00  0.00     0.029 A 
ATOM     53  N   UNL A   1      42.340  30.681  29.194  1.00  0.00    -0.354 N 
ATOM     54  N   UNL A   1      44.778  29.560  27.913  1.00  0.00    -0.248 NA
ATOM     55  C   UNL A   1      46.972  29.839  27.156  1.00  0.00     0.031 C 
ATOM     56  C   UNL A   1      42.416  32.779  29.911  1.00  0.00     0.029 A 
ATOM     57  C   UNL A   1      43.161  31.794  29.281  1.00  0.00     0.049 A 
ATOM     58  H   UNL A   1      42.594  29.826  28.778  1.00  0.00     0.167 HD
ATOM     59  C   UNL A   1      45.199  30.852  28.207  1.00  0.00     0.074 A 
ATOM     60  C   UNL A   1      46.569  30.957  27.745  1.00  0.00     0.031 C 
ATOM     61  C   UNL A   1      44.523  31.865  28.807  1.00  0.00     0.034 A 
BRANCH  48  62
ATOM     62  C   UNL A   1      38.690  30.457  30.422  1.00  0.00     0.023 A 
ATOM     63  C   UNL A   1      37.722  31.104  29.632  1.00  0.00     0.031 A 
ATOM     64  C   UNL A   1      38.410  30.285  31.789  1.00  0.00     0.131 A 
ATOM     65  C   UNL A   1      36.571  31.637  30.230  1.00  0.00     0.055 A 
ATOM     66  C   UNL A   1      37.218  30.737  32.360  1.00  0.00     0.041 A 
ATOM     67  F   UNL A   1      39.301  29.695  32.602  1.00  0.00    -0.206 F 
ATOM     68  C   UNL A   1      36.299  31.435  31.584  1.00  0.00     0.022 A 
BRANCH  65  69
ATOM     69  S   UNL A   1      35.519  32.737  29.243  1.00  0.00     0.124 S 
ATOM     70  O   UNL A   1      35.189  33.777  30.216  1.00  0.00    -0.237 OA
ATOM     71  O   UNL A   1      36.408  33.136  28.159  1.00  0.00    -0.237 OA
ATOM     72  O   UNL A   1      34.401  31.881  28.852  1.00  0.00    -0.744 OA
ENDBRANCH  65  69
ENDBRANCH  48  62
BRANCH  49  73
ATOM     73  C   UNL A   1      47.135  27.107  26.088  1.00  0.00     0.023 A 
ATOM     74  C   UNL A   1      48.176  26.466  26.777  1.00  0.00     0.031 A 
ATOM     75  C   UNL A   1      47.298  27.330  24.709  1.00  0.00     0.131 A 
ATOM     76  C   UNL A   1      49.352  26.106  26.098  1.00  0.00     0.055 A 
ATOM     77  C   UNL A   1      48.449  26.926  24.027  1.00  0.00     0.041 A 
ATOM     78  F   UNL A   1      46.330  27.931  23.999  1.00  0.00    -0.206 F 
ATOM     79  C   UNL A   1      49.490  26.321  24.725  1.00  0.00     0.022 A 
BRANCH  76  80
ATOM     80  S   UNL A   1      50.729  25.417  27.055  1.00  0.00     0.124 S 
ATOM     81  O   UNL A   1      51.254  26.605  27.719  1.00  0.00    -0.237 OA
ATOM     82  O   UNL A   1      50.048  24.451  27.911  1.00  0.00    -0.237 OA
ATOM     83  O   UNL A   1      51.597  24.837  26.032  1.00  0.00    -0.744 OA
ENDBRANCH  76  80
ENDBRANCH  49  73
BRANCH  61  84
ATOM     84  C   UNL A   1      45.280  33.146  29.040  1.00  0.00     0.023 A 
ATOM     85  C   UNL A   1      45.255  34.199  28.109  1.00  0.00     0.031 A 
ATOM     86  C   UNL A   1      46.034  33.315  30.215  1.00  0.00     0.131 A 
ATOM     87  C   UNL A   1      46.009  35.356  28.347  1.00  0.00     0.055 A 
ATOM     88  C   UNL A   1      46.737  34.491  30.472  1.00  0.00     0.041 A 
ATOM     89  F   UNL A   1      46.090  32.339  31.136  1.00  0.00    -0.206 F 
ATOM     90  C   UNL A   1      46.737  35.515  29.530  1.00  0.00     0.022 A 
BRANCH  87  91
ATOM     91  S   UNL A   1      46.087  36.624  27.054  1.00  0.00     0.124 S 
ATOM     92  O   UNL A   1      47.209  37.443  27.501  1.00  0.00    -0.237 OA
ATOM     93  O   UNL A   1      46.317  35.832  25.851  1.00  0.00    -0.237 OA
ATOM     94  O   UNL A   1      44.779  37.271  27.128  1.00  0.00    -0.744 OA
ENDBRANCH  87  91
ENDBRANCH  61  84
ENDBRANCH  35  36
ENDBRANCH  27  30
ENDBRANCH  25  26
ENDBRANCH  24  25
ENDBRANCH   1  24
TORSDOF 18
ENDMDL
