MODEL 1
REMARK VINA RESULT:     -12.0      0.000      0.000
REMARK SMILES CCCCn1cc(C(N)=O)c2cc(C(=O)NCCCNC(=O)c3ccc(-c4c5nc(c(-c6cc(S(=O)(=O)[O-])ccc6F)c6ccc([nH]6)c(-c6cc(S(=O)(=O)[O-])ccc6F)c6nc(c(-c7cc(S(=O)(=O)[O-])ccc7F)c7ccc4[nH]7)C=C6)C=C5)cc3)cnc21
REMARK SMILES IDX 18 1 17 2 16 3 14 4 15 5 13 7 5 8 6 9 88 10 7 11 11 12 87 13
REMARK SMILES IDX 12 14 86 15 4 16 3 17 2 18 1 19 8 20 9 21 10 22 19 25 20 26
REMARK SMILES IDX 21 27 22 29 23 30 24 31 85 32 25 33 84 34 26 35 27 36 28 37
REMARK SMILES IDX 78 38 29 39 83 40 77 41 79 42 30 43 82 44 76 45 75 46 31 48
REMARK SMILES IDX 63 49 43 50 62 51 44 52 47 53 61 54 80 55 45 56 46 57 60 59
REMARK SMILES IDX 81 60 48 61 32 62 33 63 41 64 34 65 40 66 42 67 39 68 35 69
REMARK SMILES IDX 36 70 37 71 38 72 64 73 65 74 73 75 66 76 72 77 74 78 71 79
REMARK SMILES IDX 67 80 68 81 69 82 70 83 49 84 50 85 58 86 51 87 57 88 59 89
REMARK SMILES IDX 56 90 52 91 53 92 54 93 55 94
REMARK H PARENT 16 6 9 23 9 24 20 28 79 47 47 58
REMARK Flexibility Score: inf
ROOT
ATOM      1  C   UNL A   1      32.877  30.712  27.162  1.00  0.00     0.042 C 
ENDROOT
BRANCH   1   2
ATOM      2  C   UNL A   1      32.933  29.808  25.922  1.00  0.00     0.118 C 
BRANCH   2   3
ATOM      3  N   UNL A   1      31.813  30.041  25.029  1.00  0.00    -0.352 N 
ATOM      4  C   UNL A   1      31.097  29.211  24.206  1.00  0.00     0.252 C 
ATOM      5  O   UNL A   1      30.105  29.682  23.649  1.00  0.00    -0.269 OA
ATOM      6  H   UNL A   1      31.507  30.977  25.011  1.00  0.00     0.163 HD
BRANCH   4   7
ATOM      7  C   UNL A   1      31.416  27.780  23.979  1.00  0.00     0.058 A 
ATOM      8  N   UNL A   1      32.202  23.803  23.638  1.00  0.00    -0.332 N 
ATOM      9  C   UNL A   1      31.480  23.247  24.656  1.00  0.00     0.102 A 
ATOM     10  C   UNL A   1      31.969  25.150  23.618  1.00  0.00     0.140 A 
ATOM     11  C   UNL A   1      30.912  24.257  25.423  1.00  0.00     0.066 A 
ATOM     12  C   UNL A   1      31.238  25.486  24.758  1.00  0.00     0.032 A 
ATOM     13  N   UNL A   1      32.389  25.978  22.647  1.00  0.00    -0.237 NA
ATOM     14  C   UNL A   1      31.004  26.862  24.958  1.00  0.00     0.028 A 
ATOM     15  C   UNL A   1      32.038  27.268  22.853  1.00  0.00     0.127 A 
BRANCH   8  16
ATOM     16  C   UNL A   1      33.027  23.091  22.679  1.00  0.00     0.123 C 
BRANCH  16  17
ATOM     17  C   UNL A   1      34.538  23.179  22.937  1.00  0.00     0.022 C 
BRANCH  17  18
ATOM     18  C   UNL A   1      35.006  22.853  24.358  1.00  0.00    -0.002 C 
ATOM     19  C   UNL A   1      35.120  24.068  25.267  1.00  0.00     0.004 C 
ENDBRANCH  17  18
ENDBRANCH  16  17
ENDBRANCH   8  16
BRANCH  11  20
ATOM     20  C   UNL A   1      30.146  23.952  26.629  1.00  0.00     0.250 C 
ATOM     21  N   UNL A   1      28.960  24.602  26.801  1.00  0.00    -0.366 N 
ATOM     22  O   UNL A   1      30.517  23.139  27.464  1.00  0.00    -0.269 OA
ATOM     23  H   UNL A   1      28.656  25.257  26.132  1.00  0.00     0.159 HD
ATOM     24  H   UNL A   1      28.407  24.417  27.595  1.00  0.00     0.159 HD
ENDBRANCH  11  20
ENDBRANCH   4   7
ENDBRANCH   2   3
ENDBRANCH   1   2
BRANCH   1  25
ATOM     25  C   UNL A   1      34.137  31.545  27.318  1.00  0.00     0.118 C 
BRANCH  25  26
ATOM     26  N   UNL A   1      34.107  32.320  28.557  1.00  0.00    -0.352 N 
ATOM     27  C   UNL A   1      34.865  32.179  29.697  1.00  0.00     0.251 C 
ATOM     28  H   UNL A   1      33.446  33.049  28.580  1.00  0.00     0.163 HD
ATOM     29  O   UNL A   1      34.489  32.693  30.745  1.00  0.00    -0.269 OA
BRANCH  27  30
ATOM     30  C   UNL A   1      36.122  31.415  29.645  1.00  0.00     0.039 A 
ATOM     31  C   UNL A   1      37.351  32.076  29.562  1.00  0.00     0.014 A 
ATOM     32  C   UNL A   1      36.062  30.022  29.661  1.00  0.00     0.014 A 
ATOM     33  C   UNL A   1      38.518  31.320  29.551  1.00  0.00     0.010 A 
ATOM     34  C   UNL A   1      37.208  29.288  29.811  1.00  0.00     0.010 A 
ATOM     35  C   UNL A   1      38.432  29.927  29.686  1.00  0.00    -0.014 A 
BRANCH  35  36
ATOM     36  C   UNL A   1      39.630  29.110  29.775  1.00  0.00     0.031 A 
ATOM     37  C   UNL A   1      40.012  28.752  31.158  1.00  0.00     0.074 A 
ATOM     38  C   UNL A   1      40.216  28.553  28.697  1.00  0.00     0.049 A 
ATOM     39  N   UNL A   1      40.938  29.293  31.878  1.00  0.00    -0.248 NA
ATOM     40  C   UNL A   1      39.147  27.820  31.898  1.00  0.00     0.031 C 
ATOM     41  C   UNL A   1      39.730  28.542  27.310  1.00  0.00     0.029 A 
ATOM     42  N   UNL A   1      41.337  27.789  28.632  1.00  0.00    -0.354 N 
ATOM     43  C   UNL A   1      40.934  28.586  33.075  1.00  0.00     0.074 A 
ATOM     44  C   UNL A   1      39.676  27.884  33.121  1.00  0.00     0.031 C 
ATOM     45  C   UNL A   1      40.431  27.636  26.593  1.00  0.00     0.029 A 
ATOM     46  C   UNL A   1      41.525  27.153  27.414  1.00  0.00     0.049 A 
ATOM     47  H   UNL A   1      41.964  27.695  29.386  1.00  0.00     0.167 HD
ATOM     48  C   UNL A   1      42.084  28.393  33.781  1.00  0.00     0.034 A 
ATOM     49  C   UNL A   1      42.513  26.283  27.103  1.00  0.00     0.034 A 
ATOM     50  C   UNL A   1      43.165  29.154  33.212  1.00  0.00     0.049 A 
ATOM     51  C   UNL A   1      43.625  26.511  28.050  1.00  0.00     0.074 A 
ATOM     52  C   UNL A   1      43.528  30.481  33.170  1.00  0.00     0.029 A 
ATOM     53  N   UNL A   1      43.829  28.510  32.195  1.00  0.00    -0.354 N 
ATOM     54  N   UNL A   1      44.335  27.604  28.073  1.00  0.00    -0.248 NA
ATOM     55  C   UNL A   1      43.731  25.673  29.238  1.00  0.00     0.031 C 
ATOM     56  C   UNL A   1      44.245  30.650  31.952  1.00  0.00     0.029 A 
ATOM     57  C   UNL A   1      44.342  29.415  31.305  1.00  0.00     0.049 A 
ATOM     58  H   UNL A   1      43.922  27.532  32.117  1.00  0.00     0.167 HD
ATOM     59  C   UNL A   1      44.593  27.809  29.415  1.00  0.00     0.074 A 
ATOM     60  C   UNL A   1      44.374  26.516  30.050  1.00  0.00     0.031 C 
ATOM     61  C   UNL A   1      44.649  29.069  29.930  1.00  0.00     0.034 A 
BRANCH  48  62
ATOM     62  C   UNL A   1      42.354  27.210  34.679  1.00  0.00     0.023 A 
ATOM     63  C   UNL A   1      43.138  26.115  34.276  1.00  0.00     0.031 A 
ATOM     64  C   UNL A   1      42.020  27.257  36.048  1.00  0.00     0.131 A 
ATOM     65  C   UNL A   1      43.522  25.111  35.173  1.00  0.00     0.055 A 
ATOM     66  C   UNL A   1      42.463  26.291  36.962  1.00  0.00     0.041 A 
ATOM     67  F   UNL A   1      41.294  28.271  36.545  1.00  0.00    -0.206 F 
ATOM     68  C   UNL A   1      43.215  25.207  36.526  1.00  0.00     0.022 A 
BRANCH  65  69
ATOM     69  S   UNL A   1      44.454  23.672  34.580  1.00  0.00     0.124 S 
ATOM     70  O   UNL A   1      43.432  22.929  33.852  1.00  0.00    -0.237 OA
ATOM     71  O   UNL A   1      45.483  24.308  33.761  1.00  0.00    -0.237 OA
ATOM     72  O   UNL A   1      44.939  23.051  35.809  1.00  0.00    -0.744 OA
ENDBRANCH  65  69
ENDBRANCH  48  62
BRANCH  49  73
ATOM     73  C   UNL A   1      42.417  25.056  26.286  1.00  0.00     0.023 A 
ATOM     74  C   UNL A   1      41.514  24.046  26.660  1.00  0.00     0.031 A 
ATOM     75  C   UNL A   1      43.424  24.723  25.365  1.00  0.00     0.131 A 
ATOM     76  C   UNL A   1      41.685  22.737  26.189  1.00  0.00     0.055 A 
ATOM     77  C   UNL A   1      43.579  23.421  24.880  1.00  0.00     0.041 A 
ATOM     78  F   UNL A   1      44.324  25.640  24.980  1.00  0.00    -0.206 F 
ATOM     79  C   UNL A   1      42.719  22.415  25.309  1.00  0.00     0.022 A 
BRANCH  76  80
ATOM     80  S   UNL A   1      40.611  21.405  26.789  1.00  0.00     0.124 S 
ATOM     81  O   UNL A   1      40.843  21.442  28.231  1.00  0.00    -0.237 OA
ATOM     82  O   UNL A   1      39.298  21.863  26.351  1.00  0.00    -0.237 OA
ATOM     83  O   UNL A   1      41.132  20.220  26.113  1.00  0.00    -0.744 OA
ENDBRANCH  76  80
ENDBRANCH  49  73
BRANCH  61  84
ATOM     84  C   UNL A   1      44.885  30.210  28.976  1.00  0.00     0.023 A 
ATOM     85  C   UNL A   1      46.223  30.538  28.712  1.00  0.00     0.031 A 
ATOM     86  C   UNL A   1      43.888  31.064  28.472  1.00  0.00     0.131 A 
ATOM     87  C   UNL A   1      46.539  31.705  28.013  1.00  0.00     0.055 A 
ATOM     88  C   UNL A   1      44.205  32.198  27.716  1.00  0.00     0.041 A 
ATOM     89  F   UNL A   1      42.593  30.867  28.747  1.00  0.00    -0.206 F 
ATOM     90  C   UNL A   1      45.538  32.532  27.497  1.00  0.00     0.022 A 
BRANCH  87  91
ATOM     91  S   UNL A   1      48.262  32.236  27.869  1.00  0.00     0.124 S 
ATOM     92  O   UNL A   1      48.286  33.443  28.689  1.00  0.00    -0.237 OA
ATOM     93  O   UNL A   1      48.982  31.089  28.419  1.00  0.00    -0.237 OA
ATOM     94  O   UNL A   1      48.448  32.452  26.437  1.00  0.00    -0.744 OA
ENDBRANCH  87  91
ENDBRANCH  61  84
ENDBRANCH  35  36
ENDBRANCH  27  30
ENDBRANCH  25  26
ENDBRANCH   1  25
TORSDOF 17
ENDMDL
MODEL 2
REMARK VINA RESULT:     -11.8      3.323      8.143
REMARK SMILES CCCCn1cc(C(N)=O)c2cc(C(=O)NCCCNC(=O)c3ccc(-c4c5nc(c(-c6cc(S(=O)(=O)[O-])ccc6F)c6ccc([nH]6)c(-c6cc(S(=O)(=O)[O-])ccc6F)c6nc(c(-c7cc(S(=O)(=O)[O-])ccc7F)c7ccc4[nH]7)C=C6)C=C5)cc3)cnc21
REMARK SMILES IDX 18 1 17 2 16 3 14 4 15 5 13 7 5 8 6 9 88 10 7 11 11 12 87 13
REMARK SMILES IDX 12 14 86 15 4 16 3 17 2 18 1 19 8 20 9 21 10 22 19 25 20 26
REMARK SMILES IDX 21 27 22 29 23 30 24 31 85 32 25 33 84 34 26 35 27 36 28 37
REMARK SMILES IDX 78 38 29 39 83 40 77 41 79 42 30 43 82 44 76 45 75 46 31 48
REMARK SMILES IDX 63 49 43 50 62 51 44 52 47 53 61 54 80 55 45 56 46 57 60 59
REMARK SMILES IDX 81 60 48 61 32 62 33 63 41 64 34 65 40 66 42 67 39 68 35 69
REMARK SMILES IDX 36 70 37 71 38 72 64 73 65 74 73 75 66 76 72 77 74 78 71 79
REMARK SMILES IDX 67 80 68 81 69 82 70 83 49 84 50 85 58 86 51 87 57 88 59 89
REMARK SMILES IDX 56 90 52 91 53 92 54 93 55 94
REMARK H PARENT 16 6 9 23 9 24 20 28 79 47 47 58
REMARK Flexibility Score: inf
ROOT
ATOM      1  C   UNL A   1      36.875  20.039  24.743  1.00  0.00     0.042 C 
ENDROOT
BRANCH   1   2
ATOM      2  C   UNL A   1      35.646  20.819  25.234  1.00  0.00     0.118 C 
BRANCH   2   3
ATOM      3  N   UNL A   1      34.460  19.985  25.292  1.00  0.00    -0.352 N 
ATOM      4  C   UNL A   1      33.123  20.271  25.204  1.00  0.00     0.252 C 
ATOM      5  O   UNL A   1      32.340  19.321  25.166  1.00  0.00    -0.269 OA
ATOM      6  H   UNL A   1      34.654  19.028  25.417  1.00  0.00     0.163 HD
BRANCH   4   7
ATOM      7  C   UNL A   1      32.565  21.643  25.110  1.00  0.00     0.058 A 
ATOM      8  N   UNL A   1      31.198  25.441  24.602  1.00  0.00    -0.332 N 
ATOM      9  C   UNL A   1      31.459  25.700  23.286  1.00  0.00     0.102 A 
ATOM     10  C   UNL A   1      31.569  24.154  24.878  1.00  0.00     0.140 A 
ATOM     11  C   UNL A   1      32.172  24.639  22.740  1.00  0.00     0.066 A 
ATOM     12  C   UNL A   1      32.252  23.647  23.773  1.00  0.00     0.032 A 
ATOM     13  N   UNL A   1      31.303  23.519  26.033  1.00  0.00    -0.237 NA
ATOM     14  C   UNL A   1      32.808  22.361  23.927  1.00  0.00     0.028 A 
ATOM     15  C   UNL A   1      31.776  22.254  26.070  1.00  0.00     0.127 A 
BRANCH   8  16
ATOM     16  C   UNL A   1      30.566  26.342  25.548  1.00  0.00     0.123 C 
BRANCH  16  17
ATOM     17  C   UNL A   1      31.354  27.626  25.842  1.00  0.00     0.022 C 
BRANCH  17  18
ATOM     18  C   UNL A   1      32.643  27.462  26.653  1.00  0.00    -0.002 C 
ATOM     19  C   UNL A   1      33.871  27.156  25.809  1.00  0.00     0.004 C 
ENDBRANCH  17  18
ENDBRANCH  16  17
ENDBRANCH   8  16
BRANCH  11  20
ATOM     20  C   UNL A   1      32.654  24.681  21.361  1.00  0.00     0.250 C 
ATOM     21  N   UNL A   1      32.210  25.700  20.571  1.00  0.00    -0.366 N 
ATOM     22  O   UNL A   1      33.436  23.859  20.906  1.00  0.00    -0.269 OA
ATOM     23  H   UNL A   1      31.580  26.365  20.933  1.00  0.00     0.159 HD
ATOM     24  H   UNL A   1      32.519  25.772  19.639  1.00  0.00     0.159 HD
ENDBRANCH  11  20
ENDBRANCH   4   7
ENDBRANCH   2   3
ENDBRANCH   1   2
BRANCH   1  25
ATOM     25  C   UNL A   1      38.172  20.627  25.269  1.00  0.00     0.118 C 
BRANCH  25  26
ATOM     26  N   UNL A   1      39.182  19.588  25.462  1.00  0.00    -0.352 N 
ATOM     27  C   UNL A   1      40.502  19.708  25.830  1.00  0.00     0.251 C 
ATOM     28  H   UNL A   1      38.872  18.667  25.305  1.00  0.00     0.163 HD
ATOM     29  O   UNL A   1      41.278  18.780  25.627  1.00  0.00    -0.269 OA
BRANCH  27  30
ATOM     30  C   UNL A   1      40.970  20.950  26.466  1.00  0.00     0.039 A 
ATOM     31  C   UNL A   1      41.551  21.964  25.698  1.00  0.00     0.014 A 
ATOM     32  C   UNL A   1      40.841  21.088  27.847  1.00  0.00     0.014 A 
ATOM     33  C   UNL A   1      41.948  23.138  26.329  1.00  0.00     0.010 A 
ATOM     34  C   UNL A   1      41.083  22.298  28.441  1.00  0.00     0.010 A 
ATOM     35  C   UNL A   1      41.699  23.295  27.701  1.00  0.00    -0.014 A 
BRANCH  35  36
ATOM     36  C   UNL A   1      42.012  24.541  28.377  1.00  0.00     0.031 A 
ATOM     37  C   UNL A   1      40.949  25.565  28.273  1.00  0.00     0.074 A 
ATOM     38  C   UNL A   1      43.070  24.680  29.200  1.00  0.00     0.049 A 
ATOM     39  N   UNL A   1      40.924  26.587  27.484  1.00  0.00    -0.248 NA
ATOM     40  C   UNL A   1      39.684  25.327  28.985  1.00  0.00     0.031 C 
ATOM     41  C   UNL A   1      43.997  23.637  29.663  1.00  0.00     0.029 A 
ATOM     42  N   UNL A   1      43.487  25.781  29.880  1.00  0.00    -0.354 N 
ATOM     43  C   UNL A   1      39.747  27.261  27.791  1.00  0.00     0.074 A 
ATOM     44  C   UNL A   1      38.929  26.324  28.520  1.00  0.00     0.031 C 
ATOM     45  C   UNL A   1      44.723  24.108  30.701  1.00  0.00     0.029 A 
ATOM     46  C   UNL A   1      44.450  25.526  30.844  1.00  0.00     0.049 A 
ATOM     47  H   UNL A   1      43.135  26.684  29.702  1.00  0.00     0.167 HD
ATOM     48  C   UNL A   1      39.666  28.618  27.690  1.00  0.00     0.034 A 
ATOM     49  C   UNL A   1      44.984  26.420  31.707  1.00  0.00     0.034 A 
ATOM     50  C   UNL A   1      40.852  29.154  27.075  1.00  0.00     0.049 A 
ATOM     51  C   UNL A   1      44.782  27.769  31.134  1.00  0.00     0.074 A 
ATOM     52  C   UNL A   1      41.381  29.187  25.805  1.00  0.00     0.029 A 
ATOM     53  N   UNL A   1      41.875  29.405  27.958  1.00  0.00    -0.354 N 
ATOM     54  N   UNL A   1      45.370  28.181  30.046  1.00  0.00    -0.248 NA
ATOM     55  C   UNL A   1      43.636  28.560  31.562  1.00  0.00     0.031 C 
ATOM     56  C   UNL A   1      42.794  29.234  25.973  1.00  0.00     0.029 A 
ATOM     57  C   UNL A   1      43.090  29.274  27.338  1.00  0.00     0.049 A 
ATOM     58  H   UNL A   1      41.753  29.646  28.905  1.00  0.00     0.167 HD
ATOM     59  C   UNL A   1      44.417  28.966  29.426  1.00  0.00     0.074 A 
ATOM     60  C   UNL A   1      43.467  29.316  30.474  1.00  0.00     0.031 C 
ATOM     61  C   UNL A   1      44.312  28.994  28.068  1.00  0.00     0.034 A 
BRANCH  48  62
ATOM     62  C   UNL A   1      38.760  29.490  28.525  1.00  0.00     0.023 A 
ATOM     63  C   UNL A   1      37.596  30.088  28.008  1.00  0.00     0.031 A 
ATOM     64  C   UNL A   1      38.917  29.556  29.924  1.00  0.00     0.131 A 
ATOM     65  C   UNL A   1      36.677  30.748  28.833  1.00  0.00     0.055 A 
ATOM     66  C   UNL A   1      37.962  30.154  30.758  1.00  0.00     0.041 A 
ATOM     67  F   UNL A   1      39.980  28.998  30.525  1.00  0.00    -0.206 F 
ATOM     68  C   UNL A   1      36.837  30.759  30.213  1.00  0.00     0.022 A 
BRANCH  65  69
ATOM     69  S   UNL A   1      35.242  31.583  28.103  1.00  0.00     0.124 S 
ATOM     70  O   UNL A   1      34.442  31.895  29.282  1.00  0.00    -0.237 OA
ATOM     71  O   UNL A   1      35.872  32.724  27.442  1.00  0.00    -0.237 OA
ATOM     72  O   UNL A   1      34.685  30.578  27.203  1.00  0.00    -0.744 OA
ENDBRANCH  65  69
ENDBRANCH  48  62
BRANCH  49  73
ATOM     73  C   UNL A   1      45.330  26.215  33.128  1.00  0.00     0.023 A 
ATOM     74  C   UNL A   1      44.358  25.713  34.010  1.00  0.00     0.031 A 
ATOM     75  C   UNL A   1      46.470  26.817  33.686  1.00  0.00     0.131 A 
ATOM     76  C   UNL A   1      44.498  25.898  35.392  1.00  0.00     0.055 A 
ATOM     77  C   UNL A   1      46.617  26.982  35.067  1.00  0.00     0.041 A 
ATOM     78  F   UNL A   1      47.426  27.328  32.895  1.00  0.00    -0.206 F 
ATOM     79  C   UNL A   1      45.616  26.539  35.926  1.00  0.00     0.022 A 
BRANCH  76  80
ATOM     80  S   UNL A   1      43.173  25.384  36.519  1.00  0.00     0.124 S 
ATOM     81  O   UNL A   1      42.465  24.379  35.730  1.00  0.00    -0.237 OA
ATOM     82  O   UNL A   1      43.933  24.873  37.654  1.00  0.00    -0.237 OA
ATOM     83  O   UNL A   1      42.430  26.620  36.753  1.00  0.00    -0.744 OA
ENDBRANCH  76  80
ENDBRANCH  49  73
BRANCH  61  84
ATOM     84  C   UNL A   1      45.501  28.547  27.260  1.00  0.00     0.023 A 
ATOM     85  C   UNL A   1      45.509  27.206  26.849  1.00  0.00     0.031 A 
ATOM     86  C   UNL A   1      46.660  29.310  27.033  1.00  0.00     0.131 A 
ATOM     87  C   UNL A   1      46.658  26.649  26.281  1.00  0.00     0.055 A 
ATOM     88  C   UNL A   1      47.786  28.767  26.406  1.00  0.00     0.041 A 
ATOM     89  F   UNL A   1      46.763  30.572  27.467  1.00  0.00    -0.206 F 
ATOM     90  C   UNL A   1      47.795  27.425  26.040  1.00  0.00     0.022 A 
BRANCH  87  91
ATOM     91  S   UNL A   1      46.737  24.871  25.959  1.00  0.00     0.124 S 
ATOM     92  O   UNL A   1      45.449  24.405  26.461  1.00  0.00    -0.237 OA
ATOM     93  O   UNL A   1      46.896  24.830  24.507  1.00  0.00    -0.237 OA
ATOM     94  O   UNL A   1      47.901  24.425  26.720  1.00  0.00    -0.744 OA
ENDBRANCH  87  91
ENDBRANCH  61  84
ENDBRANCH  35  36
ENDBRANCH  27  30
ENDBRANCH  25  26
ENDBRANCH   1  25
TORSDOF 17
ENDMDL
MODEL 3
REMARK VINA RESULT:     -11.8      3.439      8.930
REMARK SMILES CCCCn1cc(C(N)=O)c2cc(C(=O)NCCCNC(=O)c3ccc(-c4c5nc(c(-c6cc(S(=O)(=O)[O-])ccc6F)c6ccc([nH]6)c(-c6cc(S(=O)(=O)[O-])ccc6F)c6nc(c(-c7cc(S(=O)(=O)[O-])ccc7F)c7ccc4[nH]7)C=C6)C=C5)cc3)cnc21
REMARK SMILES IDX 18 1 17 2 16 3 14 4 15 5 13 7 5 8 6 9 88 10 7 11 11 12 87 13
REMARK SMILES IDX 12 14 86 15 4 16 3 17 2 18 1 19 8 20 9 21 10 22 19 25 20 26
REMARK SMILES IDX 21 27 22 29 23 30 24 31 85 32 25 33 84 34 26 35 27 36 28 37
REMARK SMILES IDX 78 38 29 39 83 40 77 41 79 42 30 43 82 44 76 45 75 46 31 48
REMARK SMILES IDX 63 49 43 50 62 51 44 52 47 53 61 54 80 55 45 56 46 57 60 59
REMARK SMILES IDX 81 60 48 61 32 62 33 63 41 64 34 65 40 66 42 67 39 68 35 69
REMARK SMILES IDX 36 70 37 71 38 72 64 73 65 74 73 75 66 76 72 77 74 78 71 79
REMARK SMILES IDX 67 80 68 81 69 82 70 83 49 84 50 85 58 86 51 87 57 88 59 89
REMARK SMILES IDX 56 90 52 91 53 92 54 93 55 94
REMARK H PARENT 16 6 9 23 9 24 20 28 79 47 47 58
REMARK Flexibility Score: inf
ROOT
ATOM      1  C   UNL A   1      38.791  21.173  25.725  1.00  0.00     0.042 C 
ENDROOT
BRANCH   1   2
ATOM      2  C   UNL A   1      37.605  22.115  25.473  1.00  0.00     0.118 C 
BRANCH   2   3
ATOM      3  N   UNL A   1      36.336  21.411  25.503  1.00  0.00    -0.352 N 
ATOM      4  C   UNL A   1      35.048  21.813  25.261  1.00  0.00     0.252 C 
ATOM      5  O   UNL A   1      34.175  20.946  25.246  1.00  0.00    -0.269 OA
ATOM      6  H   UNL A   1      36.416  20.459  25.742  1.00  0.00     0.163 HD
BRANCH   4   7
ATOM      7  C   UNL A   1      34.649  23.214  24.976  1.00  0.00     0.058 A 
ATOM      8  N   UNL A   1      33.549  26.982  23.907  1.00  0.00    -0.332 N 
ATOM      9  C   UNL A   1      33.032  26.819  22.652  1.00  0.00     0.102 A 
ATOM     10  C   UNL A   1      33.905  25.757  24.398  1.00  0.00     0.140 A 
ATOM     11  C   UNL A   1      33.219  25.503  22.245  1.00  0.00     0.066 A 
ATOM     12  C   UNL A   1      33.793  24.822  23.368  1.00  0.00     0.032 A 
ATOM     13  N   UNL A   1      34.294  25.531  25.665  1.00  0.00    -0.237 NA
ATOM     14  C   UNL A   1      34.232  23.516  23.670  1.00  0.00     0.028 A 
ATOM     15  C   UNL A   1      34.600  24.237  25.908  1.00  0.00     0.127 A 
BRANCH   8  16
ATOM     16  C   UNL A   1      33.643  28.229  24.643  1.00  0.00     0.123 C 
BRANCH  16  17
ATOM     17  C   UNL A   1      32.313  28.974  24.823  1.00  0.00     0.022 C 
BRANCH  17  18
ATOM     18  C   UNL A   1      31.753  29.033  26.248  1.00  0.00    -0.002 C 
ATOM     19  C   UNL A   1      31.597  27.671  26.908  1.00  0.00     0.004 C 
ENDBRANCH  17  18
ENDBRANCH  16  17
ENDBRANCH   8  16
BRANCH  11  20
ATOM     20  C   UNL A   1      32.830  25.063  20.906  1.00  0.00     0.250 C 
ATOM     21  N   UNL A   1      31.928  25.829  20.230  1.00  0.00    -0.366 N 
ATOM     22  O   UNL A   1      33.289  24.060  20.378  1.00  0.00    -0.269 OA
ATOM     23  H   UNL A   1      31.555  26.638  20.652  1.00  0.00     0.159 HD
ATOM     24  H   UNL A   1      31.647  25.575  19.321  1.00  0.00     0.159 HD
ENDBRANCH  11  20
ENDBRANCH   4   7
ENDBRANCH   2   3
ENDBRANCH   1   2
BRANCH   1  25
ATOM     25  C   UNL A   1      39.827  21.794  26.645  1.00  0.00     0.118 C 
BRANCH  25  26
ATOM     26  N   UNL A   1      41.143  21.831  26.009  1.00  0.00    -0.352 N 
ATOM     27  C   UNL A   1      41.984  22.899  25.799  1.00  0.00     0.251 C 
ATOM     28  H   UNL A   1      41.475  20.964  25.681  1.00  0.00     0.163 HD
ATOM     29  O   UNL A   1      42.885  22.811  24.971  1.00  0.00    -0.269 OA
BRANCH  27  30
ATOM     30  C   UNL A   1      41.796  24.137  26.573  1.00  0.00     0.039 A 
ATOM     31  C   UNL A   1      42.460  24.320  27.790  1.00  0.00     0.014 A 
ATOM     32  C   UNL A   1      40.929  25.112  26.080  1.00  0.00     0.014 A 
ATOM     33  C   UNL A   1      42.284  25.518  28.474  1.00  0.00     0.010 A 
ATOM     34  C   UNL A   1      40.881  26.347  26.669  1.00  0.00     0.010 A 
ATOM     35  C   UNL A   1      41.499  26.527  27.897  1.00  0.00    -0.014 A 
BRANCH  35  36
ATOM     36  C   UNL A   1      41.367  27.826  28.533  1.00  0.00     0.031 A 
ATOM     37  C   UNL A   1      42.289  28.853  28.000  1.00  0.00     0.074 A 
ATOM     38  C   UNL A   1      40.360  28.128  29.376  1.00  0.00     0.049 A 
ATOM     39  N   UNL A   1      43.391  29.266  28.533  1.00  0.00    -0.248 NA
ATOM     40  C   UNL A   1      42.068  29.340  26.630  1.00  0.00     0.031 C 
ATOM     41  C   UNL A   1      39.185  27.310  29.708  1.00  0.00     0.029 A 
ATOM     42  N   UNL A   1      40.125  29.285  30.048  1.00  0.00    -0.354 N 
ATOM     43  C   UNL A   1      43.865  30.255  27.679  1.00  0.00     0.074 A 
ATOM     44  C   UNL A   1      43.162  30.078  26.433  1.00  0.00     0.031 C 
ATOM     45  C   UNL A   1      38.268  28.074  30.341  1.00  0.00     0.029 A 
ATOM     46  C   UNL A   1      38.866  29.366  30.623  1.00  0.00     0.049 A 
ATOM     47  H   UNL A   1      40.793  30.006  30.121  1.00  0.00     0.167 HD
ATOM     48  C   UNL A   1      44.566  31.321  28.159  1.00  0.00     0.034 A 
ATOM     49  C   UNL A   1      38.347  30.426  31.284  1.00  0.00     0.034 A 
ATOM     50  C   UNL A   1      44.866  31.147  29.555  1.00  0.00     0.049 A 
ATOM     51  C   UNL A   1      39.477  31.262  31.744  1.00  0.00     0.074 A 
ATOM     52  C   UNL A   1      45.729  30.371  30.294  1.00  0.00     0.029 A 
ATOM     53  N   UNL A   1      43.871  31.581  30.400  1.00  0.00    -0.354 N 
ATOM     54  N   UNL A   1      40.333  30.875  32.649  1.00  0.00    -0.248 NA
ATOM     55  C   UNL A   1      39.892  32.404  30.940  1.00  0.00     0.031 C 
ATOM     56  C   UNL A   1      45.089  30.163  31.549  1.00  0.00     0.029 A 
ATOM     57  C   UNL A   1      43.876  30.855  31.561  1.00  0.00     0.049 A 
ATOM     58  H   UNL A   1      43.242  32.311  30.197  1.00  0.00     0.167 HD
ATOM     59  C   UNL A   1      41.535  31.407  32.222  1.00  0.00     0.074 A 
ATOM     60  C   UNL A   1      41.176  32.476  31.299  1.00  0.00     0.031 C 
ATOM     61  C   UNL A   1      42.702  30.729  32.406  1.00  0.00     0.034 A 
BRANCH  48  62
ATOM     62  C   UNL A   1      44.593  32.690  27.522  1.00  0.00     0.023 A 
ATOM     63  C   UNL A   1      43.741  33.732  27.927  1.00  0.00     0.031 A 
ATOM     64  C   UNL A   1      45.635  33.053  26.645  1.00  0.00     0.131 A 
ATOM     65  C   UNL A   1      43.894  35.040  27.450  1.00  0.00     0.055 A 
ATOM     66  C   UNL A   1      45.834  34.374  26.223  1.00  0.00     0.041 A 
ATOM     67  F   UNL A   1      46.521  32.141  26.213  1.00  0.00    -0.206 F 
ATOM     68  C   UNL A   1      44.958  35.377  26.621  1.00  0.00     0.022 A 
BRANCH  65  69
ATOM     69  S   UNL A   1      42.710  36.326  27.932  1.00  0.00     0.124 S 
ATOM     70  O   UNL A   1      43.545  37.227  28.717  1.00  0.00    -0.237 OA
ATOM     71  O   UNL A   1      42.279  36.830  26.630  1.00  0.00    -0.237 OA
ATOM     72  O   UNL A   1      41.693  35.590  28.677  1.00  0.00    -0.744 OA
ENDBRANCH  65  69
ENDBRANCH  48  62
BRANCH  49  73
ATOM     73  C   UNL A   1      36.963  30.936  31.235  1.00  0.00     0.023 A 
ATOM     74  C   UNL A   1      36.380  31.236  29.991  1.00  0.00     0.031 A 
ATOM     75  C   UNL A   1      36.342  31.449  32.387  1.00  0.00     0.131 A 
ATOM     76  C   UNL A   1      35.274  32.092  29.919  1.00  0.00     0.055 A 
ATOM     77  C   UNL A   1      35.225  32.286  32.313  1.00  0.00     0.041 A 
ATOM     78  F   UNL A   1      36.859  31.209  33.602  1.00  0.00    -0.206 F 
ATOM     79  C   UNL A   1      34.698  32.628  31.071  1.00  0.00     0.022 A 
BRANCH  76  80
ATOM     80  S   UNL A   1      34.616  32.598  28.306  1.00  0.00     0.124 S 
ATOM     81  O   UNL A   1      33.909  31.397  27.867  1.00  0.00    -0.237 OA
ATOM     82  O   UNL A   1      33.770  33.727  28.673  1.00  0.00    -0.237 OA
ATOM     83  O   UNL A   1      35.816  32.921  27.538  1.00  0.00    -0.744 OA
ENDBRANCH  76  80
ENDBRANCH  49  73
BRANCH  61  84
ATOM     84  C   UNL A   1      42.734  29.652  33.459  1.00  0.00     0.023 A 
ATOM     85  C   UNL A   1      43.205  30.029  34.725  1.00  0.00     0.031 A 
ATOM     86  C   UNL A   1      42.490  28.286  33.227  1.00  0.00     0.131 A 
ATOM     87  C   UNL A   1      43.467  29.060  35.697  1.00  0.00     0.055 A 
ATOM     88  C   UNL A   1      42.692  27.325  34.224  1.00  0.00     0.041 A 
ATOM     89  F   UNL A   1      42.116  27.836  32.024  1.00  0.00    -0.206 F 
ATOM     90  C   UNL A   1      43.198  27.709  35.462  1.00  0.00     0.022 A 
BRANCH  87  91
ATOM     91  S   UNL A   1      44.281  29.526  37.243  1.00  0.00     0.124 S 
ATOM     92  O   UNL A   1      44.417  28.242  37.924  1.00  0.00    -0.237 OA
ATOM     93  O   UNL A   1      45.529  30.118  36.765  1.00  0.00    -0.237 OA
ATOM     94  O   UNL A   1      43.351  30.465  37.864  1.00  0.00    -0.744 OA
ENDBRANCH  87  91
ENDBRANCH  61  84
ENDBRANCH  35  36
ENDBRANCH  27  30
ENDBRANCH  25  26
ENDBRANCH   1  25
TORSDOF 17
ENDMDL
