MODEL 1
REMARK VINA RESULT:     -12.7      0.000      0.000
REMARK SMILES C[C@@H]1CN(C(=O)N2CCC(CC(=O)NCCCNC(=O)c3ccc(-c4c5nc(c(-c6cc(S(=O)(=O)[O-])ccc6F)c6ccc([nH]6)c(-c6cc(S(=O)(=O)[O-])ccc6F)c6nc(c(-c7cc(S(=O)(=O)[O-])ccc7F)c7ccc4[nH]7)C=C6)C=C5)cc3)CC2)C[C@@H](C)S1
REMARK SMILES IDX 17 1 16 2 15 3 14 4 12 5 13 6 11 8 10 9 1 10 2 11 3 12 89 13
REMARK SMILES IDX 4 14 87 15 5 16 86 17 88 18 6 19 7 20 8 21 85 22 9 23 84 24
REMARK SMILES IDX 18 25 19 26 20 28 21 29 22 30 83 31 23 32 82 33 24 34 25 35
REMARK SMILES IDX 26 36 76 37 27 38 81 39 75 40 77 41 28 42 80 43 74 44 73 45
REMARK SMILES IDX 29 47 61 48 41 49 60 50 42 51 45 52 59 53 78 54 43 55 44 56
REMARK SMILES IDX 58 58 79 59 46 60 30 61 31 62 39 63 32 64 38 65 40 66 37 67
REMARK SMILES IDX 33 68 34 69 35 70 36 71 62 72 63 73 71 74 64 75 70 76 72 77
REMARK SMILES IDX 69 78 65 79 66 80 67 81 68 82 47 83 48 84 56 85 49 86 55 87
REMARK SMILES IDX 57 88 54 89 50 90 51 91 52 92 53 93
REMARK H PARENT 14 7 18 27 77 46 45 57
REMARK Flexibility Score: inf
ROOT
ATOM      1  C   UNL A   1      32.674  32.381  27.160  1.00  0.00     0.118 C 
ENDROOT
BRANCH   1   2
ATOM      2  C   UNL A   1      31.367  31.903  26.540  1.00  0.00     0.042 C 
BRANCH   2   3
ATOM      3  C   UNL A   1      31.499  30.638  25.691  1.00  0.00     0.117 C 
BRANCH   3   4
ATOM      4  N   UNL A   1      30.632  30.660  24.519  1.00  0.00    -0.356 N 
ATOM      5  C   UNL A   1      30.160  29.658  23.724  1.00  0.00     0.220 C 
ATOM      6  O   UNL A   1      29.440  29.960  22.771  1.00  0.00    -0.275 OA
ATOM      7  H   UNL A   1      30.334  31.561  24.253  1.00  0.00     0.163 HD
BRANCH   5   8
ATOM      8  C   UNL A   1      30.504  28.208  24.002  1.00  0.00     0.103 C 
BRANCH   8   9
ATOM      9  C   UNL A   1      31.564  27.622  23.044  1.00  0.00     0.002 C 
ATOM     10  C   UNL A   1      32.309  23.454  25.863  1.00  0.00     0.021 C 
ATOM     11  C   UNL A   1      33.718  23.737  26.382  1.00  0.00     0.063 C 
ATOM     12  C   UNL A   1      34.505  24.701  25.469  1.00  0.00     0.135 C 
ATOM     13  S   UNL A   1      34.609  22.160  26.677  1.00  0.00    -0.152 SA
ATOM     14  N   UNL A   1      34.869  24.111  24.176  1.00  0.00    -0.322 N 
ATOM     15  C   UNL A   1      35.090  21.760  24.945  1.00  0.00     0.063 C 
ATOM     16  C   UNL A   1      34.113  24.231  23.021  1.00  0.00     0.320 C 
ATOM     17  C   UNL A   1      35.772  22.963  24.276  1.00  0.00     0.135 C 
ATOM     18  C   UNL A   1      36.009  20.543  24.965  1.00  0.00     0.021 C 
ATOM     19  O   UNL A   1      34.008  23.291  22.232  1.00  0.00    -0.248 OA
ATOM     20  N   UNL A   1      33.429  25.410  22.819  1.00  0.00    -0.325 N 
ATOM     21  C   UNL A   1      32.261  25.417  21.953  1.00  0.00     0.121 C 
ATOM     22  C   UNL A   1      33.992  26.730  23.050  1.00  0.00     0.121 C 
ATOM     23  C   UNL A   1      31.139  26.199  22.629  1.00  0.00     0.026 C 
ATOM     24  C   UNL A   1      32.955  27.640  23.696  1.00  0.00     0.026 C 
ENDBRANCH   8   9
ENDBRANCH   5   8
ENDBRANCH   3   4
ENDBRANCH   2   3
ENDBRANCH   1   2
BRANCH   1  25
ATOM     25  N   UNL A   1      32.613  33.789  27.509  1.00  0.00    -0.352 N 
ATOM     26  C   UNL A   1      33.241  34.470  28.522  1.00  0.00     0.251 C 
ATOM     27  H   UNL A   1      32.034  34.338  26.932  1.00  0.00     0.163 HD
ATOM     28  O   UNL A   1      32.825  35.596  28.816  1.00  0.00    -0.269 OA
BRANCH  26  29
ATOM     29  C   UNL A   1      34.381  33.886  29.273  1.00  0.00     0.039 A 
ATOM     30  C   UNL A   1      35.682  34.266  28.923  1.00  0.00     0.014 A 
ATOM     31  C   UNL A   1      34.197  32.915  30.262  1.00  0.00     0.014 A 
ATOM     32  C   UNL A   1      36.782  33.706  29.583  1.00  0.00     0.010 A 
ATOM     33  C   UNL A   1      35.291  32.418  30.976  1.00  0.00     0.010 A 
ATOM     34  C   UNL A   1      36.598  32.790  30.631  1.00  0.00    -0.014 A 
BRANCH  34  35
ATOM     35  C   UNL A   1      37.760  32.187  31.344  1.00  0.00     0.031 A 
ATOM     36  C   UNL A   1      38.561  31.088  30.695  1.00  0.00     0.074 A 
ATOM     37  C   UNL A   1      38.063  32.586  32.596  1.00  0.00     0.049 A 
ATOM     38  N   UNL A   1      39.561  30.392  31.177  1.00  0.00    -0.248 NA
ATOM     39  C   UNL A   1      38.162  30.697  29.336  1.00  0.00     0.031 C 
ATOM     40  C   UNL A   1      37.337  33.606  33.357  1.00  0.00     0.029 A 
ATOM     41  N   UNL A   1      39.053  32.174  33.455  1.00  0.00    -0.354 N 
ATOM     42  C   UNL A   1      39.893  29.466  30.192  1.00  0.00     0.074 A 
ATOM     43  C   UNL A   1      38.948  29.656  29.110  1.00  0.00     0.031 C 
ATOM     44  C   UNL A   1      37.914  33.748  34.561  1.00  0.00     0.029 A 
ATOM     45  C   UNL A   1      39.024  32.808  34.675  1.00  0.00     0.049 A 
ATOM     46  H   UNL A   1      39.719  31.490  33.219  1.00  0.00     0.167 HD
ATOM     47  C   UNL A   1      40.902  28.558  30.179  1.00  0.00     0.034 A 
ATOM     48  C   UNL A   1      39.795  32.644  35.770  1.00  0.00     0.034 A 
ATOM     49  C   UNL A   1      41.854  28.401  31.252  1.00  0.00     0.049 A 
ATOM     50  C   UNL A   1      40.919  31.640  35.732  1.00  0.00     0.074 A 
ATOM     51  C   UNL A   1      42.964  27.575  31.306  1.00  0.00     0.029 A 
ATOM     52  N   UNL A   1      41.806  29.076  32.466  1.00  0.00    -0.354 N 
ATOM     53  N   UNL A   1      41.260  30.820  34.765  1.00  0.00    -0.248 NA
ATOM     54  C   UNL A   1      41.767  31.551  36.927  1.00  0.00     0.031 C 
ATOM     55  C   UNL A   1      43.546  27.702  32.573  1.00  0.00     0.029 A 
ATOM     56  C   UNL A   1      42.844  28.660  33.286  1.00  0.00     0.049 A 
ATOM     57  H   UNL A   1      41.133  29.752  32.708  1.00  0.00     0.167 HD
ATOM     58  C   UNL A   1      42.378  30.132  35.229  1.00  0.00     0.074 A 
ATOM     59  C   UNL A   1      42.662  30.647  36.553  1.00  0.00     0.031 C 
ATOM     60  C   UNL A   1      43.106  29.166  34.614  1.00  0.00     0.034 A 
BRANCH  47  61
ATOM     61  C   UNL A   1      41.004  27.649  28.976  1.00  0.00     0.023 A 
ATOM     62  C   UNL A   1      41.998  27.823  27.996  1.00  0.00     0.031 A 
ATOM     63  C   UNL A   1      40.071  26.614  28.785  1.00  0.00     0.131 A 
ATOM     64  C   UNL A   1      41.983  27.037  26.834  1.00  0.00     0.055 A 
ATOM     65  C   UNL A   1      40.114  25.779  27.667  1.00  0.00     0.041 A 
ATOM     66  F   UNL A   1      39.087  26.407  29.676  1.00  0.00    -0.206 F 
ATOM     67  C   UNL A   1      41.063  25.999  26.673  1.00  0.00     0.022 A 
BRANCH  64  68
ATOM     68  S   UNL A   1      43.080  27.497  25.464  1.00  0.00     0.124 S 
ATOM     69  O   UNL A   1      44.089  28.300  26.151  1.00  0.00    -0.237 OA
ATOM     70  O   UNL A   1      43.526  26.199  24.969  1.00  0.00    -0.237 OA
ATOM     71  O   UNL A   1      42.209  28.245  24.562  1.00  0.00    -0.744 OA
ENDBRANCH  64  68
ENDBRANCH  47  61
BRANCH  48  72
ATOM     72  C   UNL A   1      39.523  33.438  37.001  1.00  0.00     0.023 A 
ATOM     73  C   UNL A   1      38.812  32.887  38.079  1.00  0.00     0.031 A 
ATOM     74  C   UNL A   1      39.956  34.772  37.106  1.00  0.00     0.131 A 
ATOM     75  C   UNL A   1      38.523  33.678  39.202  1.00  0.00     0.055 A 
ATOM     76  C   UNL A   1      39.704  35.540  38.244  1.00  0.00     0.041 A 
ATOM     77  F   UNL A   1      40.647  35.342  36.107  1.00  0.00    -0.206 F 
ATOM     78  C   UNL A   1      38.974  34.997  39.296  1.00  0.00     0.022 A 
BRANCH  75  79
ATOM     79  S   UNL A   1      37.493  32.975  40.518  1.00  0.00     0.124 S 
ATOM     80  O   UNL A   1      37.447  34.071  41.478  1.00  0.00    -0.237 OA
ATOM     81  O   UNL A   1      36.250  32.690  39.809  1.00  0.00    -0.237 OA
ATOM     82  O   UNL A   1      38.246  31.798  40.947  1.00  0.00    -0.744 OA
ENDBRANCH  75  79
ENDBRANCH  48  72
BRANCH  60  83
ATOM     83  C   UNL A   1      44.302  28.630  35.362  1.00  0.00     0.023 A 
ATOM     84  C   UNL A   1      44.182  27.592  36.302  1.00  0.00     0.031 A 
ATOM     85  C   UNL A   1      45.579  29.176  35.139  1.00  0.00     0.131 A 
ATOM     86  C   UNL A   1      45.308  27.168  37.025  1.00  0.00     0.055 A 
ATOM     87  C   UNL A   1      46.706  28.712  35.820  1.00  0.00     0.041 A 
ATOM     88  F   UNL A   1      45.752  30.171  34.254  1.00  0.00    -0.206 F 
ATOM     89  C   UNL A   1      46.572  27.712  36.778  1.00  0.00     0.022 A 
BRANCH  86  90
ATOM     90  S   UNL A   1      45.085  25.958  38.356  1.00  0.00     0.124 S 
ATOM     91  O   UNL A   1      46.453  25.771  38.829  1.00  0.00    -0.237 OA
ATOM     92  O   UNL A   1      44.186  26.658  39.268  1.00  0.00    -0.237 OA
ATOM     93  O   UNL A   1      44.500  24.803  37.677  1.00  0.00    -0.744 OA
ENDBRANCH  86  90
ENDBRANCH  60  83
ENDBRANCH  34  35
ENDBRANCH  26  29
ENDBRANCH   1  25
TORSDOF 14
ENDMDL
MODEL 2
REMARK VINA RESULT:     -12.7      1.344      1.579
REMARK SMILES C[C@@H]1CN(C(=O)N2CCC(CC(=O)NCCCNC(=O)c3ccc(-c4c5nc(c(-c6cc(S(=O)(=O)[O-])ccc6F)c6ccc([nH]6)c(-c6cc(S(=O)(=O)[O-])ccc6F)c6nc(c(-c7cc(S(=O)(=O)[O-])ccc7F)c7ccc4[nH]7)C=C6)C=C5)cc3)CC2)C[C@@H](C)S1
REMARK SMILES IDX 17 1 16 2 15 3 14 4 12 5 13 6 11 8 10 9 1 10 2 11 3 12 89 13
REMARK SMILES IDX 4 14 87 15 5 16 86 17 88 18 6 19 7 20 8 21 85 22 9 23 84 24
REMARK SMILES IDX 18 25 19 26 20 28 21 29 22 30 83 31 23 32 82 33 24 34 25 35
REMARK SMILES IDX 26 36 76 37 27 38 81 39 75 40 77 41 28 42 80 43 74 44 73 45
REMARK SMILES IDX 29 47 61 48 41 49 60 50 42 51 45 52 59 53 78 54 43 55 44 56
REMARK SMILES IDX 58 58 79 59 46 60 30 61 31 62 39 63 32 64 38 65 40 66 37 67
REMARK SMILES IDX 33 68 34 69 35 70 36 71 62 72 63 73 71 74 64 75 70 76 72 77
REMARK SMILES IDX 69 78 65 79 66 80 67 81 68 82 47 83 48 84 56 85 49 86 55 87
REMARK SMILES IDX 57 88 54 89 50 90 51 91 52 92 53 93
REMARK H PARENT 14 7 18 27 77 46 45 57
REMARK Flexibility Score: inf
ROOT
ATOM      1  C   UNL A   1      32.525  32.104  27.063  1.00  0.00     0.118 C 
ENDROOT
BRANCH   1   2
ATOM      2  C   UNL A   1      31.239  31.655  26.380  1.00  0.00     0.042 C 
BRANCH   2   3
ATOM      3  C   UNL A   1      31.407  30.446  25.458  1.00  0.00     0.117 C 
BRANCH   3   4
ATOM      4  N   UNL A   1      30.486  30.475  24.327  1.00  0.00    -0.356 N 
ATOM      5  C   UNL A   1      29.978  29.478  23.550  1.00  0.00     0.220 C 
ATOM      6  O   UNL A   1      29.214  29.785  22.633  1.00  0.00    -0.275 OA
ATOM      7  H   UNL A   1      30.177  31.377  24.081  1.00  0.00     0.163 HD
BRANCH   5   8
ATOM      8  C   UNL A   1      30.334  28.026  23.802  1.00  0.00     0.103 C 
BRANCH   8   9
ATOM      9  C   UNL A   1      31.630  27.568  23.099  1.00  0.00     0.002 C 
ATOM     10  C   UNL A   1      31.560  22.946  25.222  1.00  0.00     0.021 C 
ATOM     11  C   UNL A   1      32.757  23.072  26.164  1.00  0.00     0.063 C 
ATOM     12  C   UNL A   1      33.767  24.144  25.702  1.00  0.00     0.135 C 
ATOM     13  S   UNL A   1      33.536  21.430  26.415  1.00  0.00    -0.152 SA
ATOM     14  N   UNL A   1      34.493  23.771  24.483  1.00  0.00    -0.322 N 
ATOM     15  C   UNL A   1      34.501  21.314  24.850  1.00  0.00     0.063 C 
ATOM     16  C   UNL A   1      34.103  24.123  23.201  1.00  0.00     0.320 C 
ATOM     17  C   UNL A   1      35.338  22.584  24.630  1.00  0.00     0.135 C 
ATOM     18  C   UNL A   1      35.384  20.073  24.915  1.00  0.00     0.021 C 
ATOM     19  O   UNL A   1      34.237  23.339  22.259  1.00  0.00    -0.248 OA
ATOM     20  N   UNL A   1      33.497  25.348  23.025  1.00  0.00    -0.325 N 
ATOM     21  C   UNL A   1      32.630  25.557  21.878  1.00  0.00     0.121 C 
ATOM     22  C   UNL A   1      33.959  26.582  23.640  1.00  0.00     0.121 C 
ATOM     23  C   UNL A   1      31.354  26.259  22.333  1.00  0.00     0.026 C 
ATOM     24  C   UNL A   1      32.772  27.411  24.113  1.00  0.00     0.026 C 
ENDBRANCH   8   9
ENDBRANCH   5   8
ENDBRANCH   3   4
ENDBRANCH   2   3
ENDBRANCH   1   2
BRANCH   1  25
ATOM     25  N   UNL A   1      32.505  33.528  27.348  1.00  0.00    -0.352 N 
ATOM     26  C   UNL A   1      33.166  34.237  28.322  1.00  0.00     0.251 C 
ATOM     27  H   UNL A   1      31.932  34.065  26.756  1.00  0.00     0.163 HD
ATOM     28  O   UNL A   1      32.782  35.385  28.570  1.00  0.00    -0.269 OA
BRANCH  26  29
ATOM     29  C   UNL A   1      34.301  33.657  29.083  1.00  0.00     0.039 A 
ATOM     30  C   UNL A   1      35.600  34.078  28.776  1.00  0.00     0.014 A 
ATOM     31  C   UNL A   1      34.117  32.653  30.037  1.00  0.00     0.014 A 
ATOM     32  C   UNL A   1      36.698  33.524  29.446  1.00  0.00     0.010 A 
ATOM     33  C   UNL A   1      35.205  32.160  30.763  1.00  0.00     0.010 A 
ATOM     34  C   UNL A   1      36.511  32.573  30.461  1.00  0.00    -0.014 A 
BRANCH  34  35
ATOM     35  C   UNL A   1      37.670  31.976  31.185  1.00  0.00     0.031 A 
ATOM     36  C   UNL A   1      38.475  30.872  30.548  1.00  0.00     0.074 A 
ATOM     37  C   UNL A   1      37.967  32.385  32.435  1.00  0.00     0.049 A 
ATOM     38  N   UNL A   1      39.473  30.181  31.039  1.00  0.00    -0.248 NA
ATOM     39  C   UNL A   1      38.082  30.471  29.190  1.00  0.00     0.031 C 
ATOM     40  C   UNL A   1      37.237  33.410  33.184  1.00  0.00     0.029 A 
ATOM     41  N   UNL A   1      38.952  31.980  33.301  1.00  0.00    -0.354 N 
ATOM     42  C   UNL A   1      39.809  29.248  30.064  1.00  0.00     0.074 A 
ATOM     43  C   UNL A   1      38.870  29.428  28.976  1.00  0.00     0.031 C 
ATOM     44  C   UNL A   1      37.808  33.562  34.390  1.00  0.00     0.029 A 
ATOM     45  C   UNL A   1      38.918  32.623  34.517  1.00  0.00     0.049 A 
ATOM     46  H   UNL A   1      39.621  31.294  33.074  1.00  0.00     0.167 HD
ATOM     47  C   UNL A   1      40.819  28.340  30.062  1.00  0.00     0.034 A 
ATOM     48  C   UNL A   1      39.684  32.468  35.616  1.00  0.00     0.034 A 
ATOM     49  C   UNL A   1      41.766  28.191  31.140  1.00  0.00     0.049 A 
ATOM     50  C   UNL A   1      40.808  31.465  35.591  1.00  0.00     0.074 A 
ATOM     51  C   UNL A   1      42.876  27.367  31.206  1.00  0.00     0.029 A 
ATOM     52  N   UNL A   1      41.712  28.876  32.349  1.00  0.00    -0.354 N 
ATOM     53  N   UNL A   1      41.154  30.637  34.633  1.00  0.00    -0.248 NA
ATOM     54  C   UNL A   1      41.651  31.385  36.790  1.00  0.00     0.031 C 
ATOM     55  C   UNL A   1      43.452  27.504  32.475  1.00  0.00     0.029 A 
ATOM     56  C   UNL A   1      42.747  28.467  33.177  1.00  0.00     0.049 A 
ATOM     57  H   UNL A   1      41.037  29.554  32.583  1.00  0.00     0.167 HD
ATOM     58  C   UNL A   1      42.271  29.954  35.107  1.00  0.00     0.074 A 
ATOM     59  C   UNL A   1      42.549  30.479  36.427  1.00  0.00     0.031 C 
ATOM     60  C   UNL A   1      43.002  28.983  34.502  1.00  0.00     0.034 A 
BRANCH  47  61
ATOM     61  C   UNL A   1      40.927  27.421  28.867  1.00  0.00     0.023 A 
ATOM     62  C   UNL A   1      41.902  27.610  27.871  1.00  0.00     0.031 A 
ATOM     63  C   UNL A   1      40.018  26.361  28.700  1.00  0.00     0.131 A 
ATOM     64  C   UNL A   1      41.890  26.813  26.717  1.00  0.00     0.055 A 
ATOM     65  C   UNL A   1      40.066  25.516  27.589  1.00  0.00     0.041 A 
ATOM     66  F   UNL A   1      39.052  26.139  29.606  1.00  0.00    -0.206 F 
ATOM     67  C   UNL A   1      40.995  25.751  26.579  1.00  0.00     0.022 A 
BRANCH  64  68
ATOM     68  S   UNL A   1      42.956  27.286  25.327  1.00  0.00     0.124 S 
ATOM     69  O   UNL A   1      43.105  26.015  24.622  1.00  0.00    -0.237 OA
ATOM     70  O   UNL A   1      42.157  28.303  24.650  1.00  0.00    -0.237 OA
ATOM     71  O   UNL A   1      44.170  27.775  25.976  1.00  0.00    -0.744 OA
ENDBRANCH  64  68
ENDBRANCH  47  61
BRANCH  48  72
ATOM     72  C   UNL A   1      39.406  33.271  36.840  1.00  0.00     0.023 A 
ATOM     73  C   UNL A   1      40.063  34.489  37.075  1.00  0.00     0.031 A 
ATOM     74  C   UNL A   1      38.489  32.818  37.804  1.00  0.00     0.131 A 
ATOM     75  C   UNL A   1      39.821  35.195  38.263  1.00  0.00     0.055 A 
ATOM     76  C   UNL A   1      38.219  33.545  38.964  1.00  0.00     0.041 A 
ATOM     77  F   UNL A   1      37.827  31.663  37.622  1.00  0.00    -0.206 F 
ATOM     78  C   UNL A   1      38.895  34.737  39.205  1.00  0.00     0.022 A 
BRANCH  75  79
ATOM     79  S   UNL A   1      40.782  36.697  38.594  1.00  0.00     0.124 S 
ATOM     80  O   UNL A   1      41.483  36.887  37.329  1.00  0.00    -0.237 OA
ATOM     81  O   UNL A   1      39.733  37.666  38.899  1.00  0.00    -0.237 OA
ATOM     82  O   UNL A   1      41.626  36.320  39.726  1.00  0.00    -0.744 OA
ENDBRANCH  75  79
ENDBRANCH  48  72
BRANCH  60  83
ATOM     83  C   UNL A   1      44.195  28.454  35.260  1.00  0.00     0.023 A 
ATOM     84  C   UNL A   1      44.066  27.443  36.228  1.00  0.00     0.031 A 
ATOM     85  C   UNL A   1      45.477  28.979  35.018  1.00  0.00     0.131 A 
ATOM     86  C   UNL A   1      45.190  27.026  36.958  1.00  0.00     0.055 A 
ATOM     87  C   UNL A   1      46.601  28.520  35.707  1.00  0.00     0.041 A 
ATOM     88  F   UNL A   1      45.658  29.947  34.105  1.00  0.00    -0.206 F 
ATOM     89  C   UNL A   1      46.459  27.548  36.691  1.00  0.00     0.022 A 
BRANCH  86  90
ATOM     90  S   UNL A   1      44.959  25.855  38.323  1.00  0.00     0.124 S 
ATOM     91  O   UNL A   1      46.276  25.857  38.951  1.00  0.00    -0.237 OA
ATOM     92  O   UNL A   1      43.885  26.477  39.090  1.00  0.00    -0.237 OA
ATOM     93  O   UNL A   1      44.595  24.609  37.649  1.00  0.00    -0.744 OA
ENDBRANCH  86  90
ENDBRANCH  60  83
ENDBRANCH  34  35
ENDBRANCH  26  29
ENDBRANCH   1  25
TORSDOF 14
ENDMDL
MODEL 3
REMARK VINA RESULT:     -12.6      1.452      1.711
REMARK SMILES C[C@@H]1CN(C(=O)N2CCC(CC(=O)NCCCNC(=O)c3ccc(-c4c5nc(c(-c6cc(S(=O)(=O)[O-])ccc6F)c6ccc([nH]6)c(-c6cc(S(=O)(=O)[O-])ccc6F)c6nc(c(-c7cc(S(=O)(=O)[O-])ccc7F)c7ccc4[nH]7)C=C6)C=C5)cc3)CC2)C[C@@H](C)S1
REMARK SMILES IDX 17 1 16 2 15 3 14 4 12 5 13 6 11 8 10 9 1 10 2 11 3 12 89 13
REMARK SMILES IDX 4 14 87 15 5 16 86 17 88 18 6 19 7 20 8 21 85 22 9 23 84 24
REMARK SMILES IDX 18 25 19 26 20 28 21 29 22 30 83 31 23 32 82 33 24 34 25 35
REMARK SMILES IDX 26 36 76 37 27 38 81 39 75 40 77 41 28 42 80 43 74 44 73 45
REMARK SMILES IDX 29 47 61 48 41 49 60 50 42 51 45 52 59 53 78 54 43 55 44 56
REMARK SMILES IDX 58 58 79 59 46 60 30 61 31 62 39 63 32 64 38 65 40 66 37 67
REMARK SMILES IDX 33 68 34 69 35 70 36 71 62 72 63 73 71 74 64 75 70 76 72 77
REMARK SMILES IDX 69 78 65 79 66 80 67 81 68 82 47 83 48 84 56 85 49 86 55 87
REMARK SMILES IDX 57 88 54 89 50 90 51 91 52 92 53 93
REMARK H PARENT 14 7 18 27 77 46 45 57
REMARK Flexibility Score: inf
ROOT
ATOM      1  C   UNL A   1      32.322  32.445  26.884  1.00  0.00     0.118 C 
ENDROOT
BRANCH   1   2
ATOM      2  C   UNL A   1      31.039  32.103  26.138  1.00  0.00     0.042 C 
BRANCH   2   3
ATOM      3  C   UNL A   1      31.059  30.742  25.442  1.00  0.00     0.117 C 
BRANCH   3   4
ATOM      4  N   UNL A   1      30.255  30.726  24.226  1.00  0.00    -0.356 N 
ATOM      5  C   UNL A   1      29.864  29.703  23.414  1.00  0.00     0.220 C 
ATOM      6  O   UNL A   1      29.184  29.972  22.423  1.00  0.00    -0.275 OA
ATOM      7  H   UNL A   1      29.936  31.613  23.939  1.00  0.00     0.163 HD
BRANCH   5   8
ATOM      8  C   UNL A   1      30.250  28.268  23.718  1.00  0.00     0.103 C 
BRANCH   8   9
ATOM      9  C   UNL A   1      31.605  27.844  23.115  1.00  0.00     0.002 C 
ATOM     10  C   UNL A   1      31.399  23.153  25.070  1.00  0.00     0.021 C 
ATOM     11  C   UNL A   1      32.508  23.255  26.116  1.00  0.00     0.063 C 
ATOM     12  C   UNL A   1      33.544  24.349  25.778  1.00  0.00     0.135 C 
ATOM     13  S   UNL A   1      33.279  21.611  26.379  1.00  0.00    -0.152 SA
ATOM     14  N   UNL A   1      34.376  24.022  24.615  1.00  0.00    -0.322 N 
ATOM     15  C   UNL A   1      34.376  21.555  24.900  1.00  0.00     0.063 C 
ATOM     16  C   UNL A   1      34.095  24.414  23.316  1.00  0.00     0.320 C 
ATOM     17  C   UNL A   1      35.216  22.836  24.796  1.00  0.00     0.135 C 
ATOM     18  C   UNL A   1      35.263  20.318  25.000  1.00  0.00     0.021 C 
ATOM     19  O   UNL A   1      34.317  23.663  22.365  1.00  0.00    -0.248 OA
ATOM     20  N   UNL A   1      33.494  25.641  23.129  1.00  0.00    -0.325 N 
ATOM     21  C   UNL A   1      32.727  25.882  21.918  1.00  0.00     0.121 C 
ATOM     22  C   UNL A   1      33.889  26.856  23.822  1.00  0.00     0.121 C 
ATOM     23  C   UNL A   1      31.410  26.559  22.285  1.00  0.00     0.026 C 
ATOM     24  C   UNL A   1      32.658  27.660  24.218  1.00  0.00     0.026 C 
ENDBRANCH   8   9
ENDBRANCH   5   8
ENDBRANCH   3   4
ENDBRANCH   2   3
ENDBRANCH   1   2
BRANCH   1  25
ATOM     25  N   UNL A   1      32.328  33.828  27.328  1.00  0.00    -0.352 N 
ATOM     26  C   UNL A   1      33.056  34.426  28.327  1.00  0.00     0.251 C 
ATOM     27  H   UNL A   1      31.717  34.426  26.840  1.00  0.00     0.163 HD
ATOM     28  O   UNL A   1      32.694  35.538  28.727  1.00  0.00    -0.269 OA
BRANCH  26  29
ATOM     29  C   UNL A   1      34.238  33.769  28.939  1.00  0.00     0.039 A 
ATOM     30  C   UNL A   1      34.032  32.715  29.836  1.00  0.00     0.014 A 
ATOM     31  C   UNL A   1      35.540  34.223  28.707  1.00  0.00     0.014 A 
ATOM     32  C   UNL A   1      35.121  32.098  30.463  1.00  0.00     0.010 A 
ATOM     33  C   UNL A   1      36.631  33.554  29.269  1.00  0.00     0.010 A 
ATOM     34  C   UNL A   1      36.435  32.497  30.171  1.00  0.00    -0.014 A 
BRANCH  34  35
ATOM     35  C   UNL A   1      37.605  31.849  30.828  1.00  0.00     0.031 A 
ATOM     36  C   UNL A   1      38.403  30.801  30.095  1.00  0.00     0.074 A 
ATOM     37  C   UNL A   1      37.919  32.158  32.102  1.00  0.00     0.049 A 
ATOM     38  N   UNL A   1      39.409  30.076  30.516  1.00  0.00    -0.248 NA
ATOM     39  C   UNL A   1      37.991  30.507  28.715  1.00  0.00     0.031 C 
ATOM     40  C   UNL A   1      37.198  33.119  32.941  1.00  0.00     0.029 A 
ATOM     41  N   UNL A   1      38.918  31.689  32.920  1.00  0.00    -0.354 N 
ATOM     42  C   UNL A   1      39.733  29.224  29.465  1.00  0.00     0.074 A 
ATOM     43  C   UNL A   1      38.778  29.487  28.408  1.00  0.00     0.031 C 
ATOM     44  C   UNL A   1      37.786  33.177  34.146  1.00  0.00     0.029 A 
ATOM     45  C   UNL A   1      38.899  32.234  34.183  1.00  0.00     0.049 A 
ATOM     46  H   UNL A   1      39.584  31.026  32.630  1.00  0.00     0.167 HD
ATOM     47  C   UNL A   1      40.744  28.322  29.377  1.00  0.00     0.034 A 
ATOM     48  C   UNL A   1      39.682  31.995  35.256  1.00  0.00     0.034 A 
ATOM     49  C   UNL A   1      41.708  28.092  30.427  1.00  0.00     0.049 A 
ATOM     50  C   UNL A   1      40.807  31.001  35.135  1.00  0.00     0.074 A 
ATOM     51  C   UNL A   1      42.820  27.268  30.412  1.00  0.00     0.029 A 
ATOM     52  N   UNL A   1      41.669  28.679  31.686  1.00  0.00    -0.354 N 
ATOM     53  N   UNL A   1      41.141  30.252  34.110  1.00  0.00    -0.248 NA
ATOM     54  C   UNL A   1      41.668  30.829  36.312  1.00  0.00     0.031 C 
ATOM     55  C   UNL A   1      43.414  27.306  31.679  1.00  0.00     0.029 A 
ATOM     56  C   UNL A   1      42.717  28.209  32.465  1.00  0.00     0.049 A 
ATOM     57  H   UNL A   1      40.997  29.334  31.982  1.00  0.00     0.167 HD
ATOM     58  C   UNL A   1      42.265  29.537  34.512  1.00  0.00     0.074 A 
ATOM     59  C   UNL A   1      42.561  29.958  35.867  1.00  0.00     0.031 C 
ATOM     60  C   UNL A   1      42.990  28.619  33.823  1.00  0.00     0.034 A 
BRANCH  47  61
ATOM     61  C   UNL A   1      40.838  27.501  28.111  1.00  0.00     0.023 A 
ATOM     62  C   UNL A   1      40.412  26.162  28.062  1.00  0.00     0.031 A 
ATOM     63  C   UNL A   1      41.396  28.054  26.945  1.00  0.00     0.131 A 
ATOM     64  C   UNL A   1      40.630  25.398  26.905  1.00  0.00     0.055 A 
ATOM     65  C   UNL A   1      41.532  27.313  25.769  1.00  0.00     0.041 A 
ATOM     66  F   UNL A   1      41.838  29.322  26.933  1.00  0.00    -0.206 F 
ATOM     67  C   UNL A   1      41.164  25.971  25.750  1.00  0.00     0.022 A 
BRANCH  64  68
ATOM     68  S   UNL A   1      40.355  23.607  26.987  1.00  0.00     0.124 S 
ATOM     69  O   UNL A   1      41.383  23.109  26.076  1.00  0.00    -0.237 OA
ATOM     70  O   UNL A   1      40.563  23.321  28.403  1.00  0.00    -0.237 OA
ATOM     71  O   UNL A   1      38.983  23.448  26.512  1.00  0.00    -0.744 OA
ENDBRANCH  64  68
ENDBRANCH  47  61
BRANCH  48  72
ATOM     72  C   UNL A   1      39.419  32.699  36.543  1.00  0.00     0.023 A 
ATOM     73  C   UNL A   1      38.490  32.199  37.468  1.00  0.00     0.031 A 
ATOM     74  C   UNL A   1      40.084  33.898  36.855  1.00  0.00     0.131 A 
ATOM     75  C   UNL A   1      38.224  32.913  38.646  1.00  0.00     0.055 A 
ATOM     76  C   UNL A   1      39.848  34.582  38.048  1.00  0.00     0.041 A 
ATOM     77  F   UNL A   1      40.989  34.413  36.007  1.00  0.00    -0.206 F 
ATOM     78  C   UNL A   1      38.905  34.095  38.948  1.00  0.00     0.022 A 
BRANCH  75  79
ATOM     79  S   UNL A   1      36.925  32.306  39.757  1.00  0.00     0.124 S 
ATOM     80  O   UNL A   1      36.955  33.301  40.822  1.00  0.00    -0.237 OA
ATOM     81  O   UNL A   1      35.752  32.328  38.889  1.00  0.00    -0.237 OA
ATOM     82  O   UNL A   1      37.394  30.973  40.132  1.00  0.00    -0.744 OA
ENDBRANCH  75  79
ENDBRANCH  48  72
BRANCH  60  83
ATOM     83  C   UNL A   1      44.195  28.036  34.519  1.00  0.00     0.023 A 
ATOM     84  C   UNL A   1      44.109  26.857  35.280  1.00  0.00     0.031 A 
ATOM     85  C   UNL A   1      45.443  28.677  34.431  1.00  0.00     0.131 A 
ATOM     86  C   UNL A   1      45.238  26.384  35.967  1.00  0.00     0.055 A 
ATOM     87  C   UNL A   1      46.576  28.171  35.070  1.00  0.00     0.041 A 
ATOM     88  F   UNL A   1      45.582  29.807  33.719  1.00  0.00    -0.206 F 
ATOM     89  C   UNL A   1      46.475  27.026  35.853  1.00  0.00     0.022 A 
BRANCH  86  90
ATOM     90  S   UNL A   1      45.050  24.967  37.083  1.00  0.00     0.124 S 
ATOM     91  O   UNL A   1      46.431  24.706  37.477  1.00  0.00    -0.237 OA
ATOM     92  O   UNL A   1      44.182  25.505  38.126  1.00  0.00    -0.237 OA
ATOM     93  O   UNL A   1      44.441  23.942  36.238  1.00  0.00    -0.744 OA
ENDBRANCH  86  90
ENDBRANCH  60  83
ENDBRANCH  34  35
ENDBRANCH  26  29
ENDBRANCH   1  25
TORSDOF 14
ENDMDL
