MODEL 1
REMARK VINA RESULT:     -12.6      0.000      0.000
REMARK SMILES Cc1ccccc1OCC(=O)c1nc(C)c(C(=O)NCCCNC(=O)c2ccc(-c3c4nc(c(-c5cc(S(=O)(=O)[O-])ccc5F)c5ccc([nH]5)c(-c5cc(S(=O)(=O)[O-])ccc5F)c5nc(c(-c6cc(S(=O)(=O)[O-])ccc6F)c6ccc3[nH]6)C=C5)C=C4)cc2)s1
REMARK SMILES IDX 20 1 19 2 17 3 18 4 16 6 12 7 13 8 89 9 14 10 15 11 10 12
REMARK SMILES IDX 11 13 9 14 8 15 7 16 1 17 2 18 3 19 4 20 6 21 5 22 21 23
REMARK SMILES IDX 22 24 23 25 24 26 25 28 26 29 27 30 88 31 28 32 87 33 29 34
REMARK SMILES IDX 30 35 31 36 81 37 32 38 86 39 80 40 82 41 33 42 85 43 79 44
REMARK SMILES IDX 78 45 34 47 66 48 46 49 65 50 47 51 50 52 64 53 83 54 48 55
REMARK SMILES IDX 49 56 63 58 84 59 51 60 35 61 36 62 44 63 37 64 43 65 45 66
REMARK SMILES IDX 42 67 38 68 39 69 40 70 41 71 67 72 68 73 76 74 69 75 75 76
REMARK SMILES IDX 77 77 74 78 70 79 71 80 72 81 73 82 52 83 53 84 61 85 54 86
REMARK SMILES IDX 60 87 62 88 59 89 55 90 56 91 57 92 58 93
REMARK H PARENT 19 5 23 27 82 46 50 57
REMARK Flexibility Score: inf
ROOT
ATOM      1  C   UNL A   1      32.679  30.259  26.679  1.00  0.00     0.118 C 
ENDROOT
BRANCH   1   2
ATOM      2  N   UNL A   1      33.223  29.906  25.380  1.00  0.00    -0.351 N 
ATOM      3  C   UNL A   1      32.970  28.955  24.430  1.00  0.00     0.263 C 
ATOM      4  O   UNL A   1      33.654  29.123  23.409  1.00  0.00    -0.268 OA
ATOM      5  H   UNL A   1      33.960  30.502  25.117  1.00  0.00     0.163 HD
BRANCH   3   6
ATOM      6  C   UNL A   1      32.033  27.832  24.535  1.00  0.00     0.115 A 
ATOM      7  C   UNL A   1      31.205  25.624  25.307  1.00  0.00     0.164 A 
ATOM      8  N   UNL A   1      30.315  26.219  24.553  1.00  0.00    -0.237 NA
ATOM      9  S   UNL A   1      32.628  26.511  25.539  1.00  0.00    -0.105 S 
ATOM     10  C   UNL A   1      30.757  27.465  24.110  1.00  0.00     0.062 A 
ATOM     11  C   UNL A   1      29.723  28.162  23.310  1.00  0.00     0.068 C 
BRANCH   7  12
ATOM     12  C   UNL A   1      30.919  24.324  25.902  1.00  0.00     0.228 C 
ATOM     13  O   UNL A   1      30.603  24.191  27.095  1.00  0.00    -0.288 OA
BRANCH  12  14
ATOM     14  C   UNL A   1      31.089  23.045  25.081  1.00  0.00     0.313 C 
BRANCH  14  15
ATOM     15  O   UNL A   1      32.211  22.213  25.188  1.00  0.00    -0.485 OA
BRANCH  15  16
ATOM     16  C   UNL A   1      33.501  22.639  25.119  1.00  0.00     0.122 A 
ATOM     17  C   UNL A   1      34.247  22.750  27.601  1.00  0.00     0.048 C 
ATOM     18  C   UNL A   1      34.449  22.890  26.121  1.00  0.00    -0.009 A 
ATOM     19  C   UNL A   1      35.754  23.269  25.724  1.00  0.00     0.007 A 
ATOM     20  C   UNL A   1      36.102  23.440  24.385  1.00  0.00     0.001 A 
ATOM     21  C   UNL A   1      33.869  22.827  23.773  1.00  0.00     0.047 A 
ATOM     22  C   UNL A   1      35.151  23.226  23.403  1.00  0.00     0.004 A 
ENDBRANCH  15  16
ENDBRANCH  14  15
ENDBRANCH  12  14
ENDBRANCH   7  12
ENDBRANCH   3   6
ENDBRANCH   1   2
BRANCH   1  23
ATOM     23  C   UNL A   1      33.745  30.262  27.770  1.00  0.00     0.042 C 
BRANCH  23  24
ATOM     24  C   UNL A   1      34.908  31.210  27.514  1.00  0.00     0.118 C 
BRANCH  24  25
ATOM     25  N   UNL A   1      35.453  31.761  28.758  1.00  0.00    -0.352 N 
ATOM     26  C   UNL A   1      36.305  31.167  29.672  1.00  0.00     0.251 C 
ATOM     27  H   UNL A   1      35.174  32.681  28.973  1.00  0.00     0.163 HD
ATOM     28  O   UNL A   1      36.649  31.707  30.708  1.00  0.00    -0.269 OA
BRANCH  26  29
ATOM     29  C   UNL A   1      36.935  29.899  29.251  1.00  0.00     0.039 A 
ATOM     30  C   UNL A   1      37.250  29.009  30.284  1.00  0.00     0.014 A 
ATOM     31  C   UNL A   1      37.538  29.810  28.000  1.00  0.00     0.014 A 
ATOM     32  C   UNL A   1      38.359  28.186  30.142  1.00  0.00     0.010 A 
ATOM     33  C   UNL A   1      38.693  29.057  27.896  1.00  0.00     0.010 A 
ATOM     34  C   UNL A   1      39.142  28.309  28.994  1.00  0.00    -0.014 A 
BRANCH  34  35
ATOM     35  C   UNL A   1      40.518  27.821  28.944  1.00  0.00     0.031 A 
ATOM     36  C   UNL A   1      40.809  26.447  28.490  1.00  0.00     0.074 A 
ATOM     37  C   UNL A   1      41.540  28.604  29.359  1.00  0.00     0.049 A 
ATOM     38  N   UNL A   1      41.807  25.739  28.904  1.00  0.00    -0.248 NA
ATOM     39  C   UNL A   1      39.944  25.736  27.558  1.00  0.00     0.031 C 
ATOM     40  C   UNL A   1      42.970  28.348  29.207  1.00  0.00     0.029 A 
ATOM     41  N   UNL A   1      41.493  29.697  30.204  1.00  0.00    -0.354 N 
ATOM     42  C   UNL A   1      41.881  24.618  28.109  1.00  0.00     0.074 A 
ATOM     43  C   UNL A   1      40.662  24.634  27.332  1.00  0.00     0.031 C 
ATOM     44  C   UNL A   1      43.641  29.080  30.111  1.00  0.00     0.029 A 
ATOM     45  C   UNL A   1      42.663  29.732  30.964  1.00  0.00     0.049 A 
ATOM     46  H   UNL A   1      40.755  30.346  30.261  1.00  0.00     0.167 HD
ATOM     47  C   UNL A   1      43.022  23.873  28.089  1.00  0.00     0.034 A 
ATOM     48  C   UNL A   1      42.642  29.669  32.327  1.00  0.00     0.034 A 
ATOM     49  C   UNL A   1      44.027  24.386  29.019  1.00  0.00     0.049 A 
ATOM     50  C   UNL A   1      43.368  28.461  32.885  1.00  0.00     0.074 A 
ATOM     51  C   UNL A   1      45.138  25.195  28.839  1.00  0.00     0.029 A 
ATOM     52  N   UNL A   1      43.808  24.316  30.391  1.00  0.00    -0.354 N 
ATOM     53  N   UNL A   1      43.711  27.421  32.174  1.00  0.00    -0.248 NA
ATOM     54  C   UNL A   1      43.732  28.317  34.292  1.00  0.00     0.031 C 
ATOM     55  C   UNL A   1      45.544  25.670  30.112  1.00  0.00     0.029 A 
ATOM     56  C   UNL A   1      44.703  25.126  31.067  1.00  0.00     0.049 A 
ATOM     57  H   UNL A   1      43.114  23.767  30.821  1.00  0.00     0.167 HD
ATOM     58  C   UNL A   1      44.279  26.475  32.988  1.00  0.00     0.074 A 
ATOM     59  C   UNL A   1      44.304  27.100  34.299  1.00  0.00     0.031 C 
ATOM     60  C   UNL A   1      44.657  25.247  32.519  1.00  0.00     0.034 A 
BRANCH  47  61
ATOM     61  C   UNL A   1      43.339  22.889  26.983  1.00  0.00     0.023 A 
ATOM     62  C   UNL A   1      42.786  21.592  27.029  1.00  0.00     0.031 A 
ATOM     63  C   UNL A   1      44.208  23.137  25.904  1.00  0.00     0.131 A 
ATOM     64  C   UNL A   1      43.190  20.590  26.127  1.00  0.00     0.055 A 
ATOM     65  C   UNL A   1      44.666  22.125  25.049  1.00  0.00     0.041 A 
ATOM     66  F   UNL A   1      44.612  24.380  25.602  1.00  0.00    -0.206 F 
ATOM     67  C   UNL A   1      44.170  20.836  25.170  1.00  0.00     0.022 A 
BRANCH  64  68
ATOM     68  S   UNL A   1      42.405  18.956  26.214  1.00  0.00     0.124 S 
ATOM     69  O   UNL A   1      42.505  18.638  27.634  1.00  0.00    -0.237 OA
ATOM     70  O   UNL A   1      41.066  19.233  25.705  1.00  0.00    -0.237 OA
ATOM     71  O   UNL A   1      43.238  18.133  25.337  1.00  0.00    -0.744 OA
ENDBRANCH  64  68
ENDBRANCH  47  61
BRANCH  48  72
ATOM     72  C   UNL A   1      41.439  30.304  32.937  1.00  0.00     0.023 A 
ATOM     73  C   UNL A   1      41.400  31.714  32.971  1.00  0.00     0.031 A 
ATOM     74  C   UNL A   1      40.236  29.606  33.113  1.00  0.00     0.131 A 
ATOM     75  C   UNL A   1      40.170  32.385  33.002  1.00  0.00     0.055 A 
ATOM     76  C   UNL A   1      39.014  30.283  33.213  1.00  0.00     0.041 A 
ATOM     77  F   UNL A   1      40.207  28.268  33.062  1.00  0.00    -0.206 F 
ATOM     78  C   UNL A   1      38.972  31.677  33.113  1.00  0.00     0.022 A 
BRANCH  75  79
ATOM     79  S   UNL A   1      40.107  34.171  32.663  1.00  0.00     0.124 S 
ATOM     80  O   UNL A   1      39.224  34.237  31.505  1.00  0.00    -0.237 OA
ATOM     81  O   UNL A   1      39.574  34.736  33.899  1.00  0.00    -0.237 OA
ATOM     82  O   UNL A   1      41.509  34.507  32.416  1.00  0.00    -0.744 OA
ENDBRANCH  75  79
ENDBRANCH  48  72
BRANCH  60  83
ATOM     83  C   UNL A   1      45.103  24.086  33.380  1.00  0.00     0.023 A 
ATOM     84  C   UNL A   1      46.395  23.980  33.917  1.00  0.00     0.031 A 
ATOM     85  C   UNL A   1      44.196  23.066  33.756  1.00  0.00     0.131 A 
ATOM     86  C   UNL A   1      46.774  22.868  34.689  1.00  0.00     0.055 A 
ATOM     87  C   UNL A   1      44.552  22.003  34.593  1.00  0.00     0.041 A 
ATOM     88  F   UNL A   1      42.924  23.061  33.329  1.00  0.00    -0.206 F 
ATOM     89  C   UNL A   1      45.856  21.886  35.050  1.00  0.00     0.022 A 
BRANCH  86  90
ATOM     90  S   UNL A   1      48.521  22.695  35.143  1.00  0.00     0.124 S 
ATOM     91  O   UNL A   1      48.533  23.242  36.497  1.00  0.00    -0.237 OA
ATOM     92  O   UNL A   1      48.731  21.255  35.040  1.00  0.00    -0.237 OA
ATOM     93  O   UNL A   1      49.220  23.499  34.144  1.00  0.00    -0.744 OA
ENDBRANCH  86  90
ENDBRANCH  60  83
ENDBRANCH  34  35
ENDBRANCH  26  29
ENDBRANCH  24  25
ENDBRANCH  23  24
ENDBRANCH   1  23
TORSDOF 17
ENDMDL
MODEL 2
REMARK VINA RESULT:     -12.5      4.157     10.638
REMARK SMILES Cc1ccccc1OCC(=O)c1nc(C)c(C(=O)NCCCNC(=O)c2ccc(-c3c4nc(c(-c5cc(S(=O)(=O)[O-])ccc5F)c5ccc([nH]5)c(-c5cc(S(=O)(=O)[O-])ccc5F)c5nc(c(-c6cc(S(=O)(=O)[O-])ccc6F)c6ccc3[nH]6)C=C5)C=C4)cc2)s1
REMARK SMILES IDX 20 1 19 2 17 3 18 4 16 6 12 7 13 8 89 9 14 10 15 11 10 12
REMARK SMILES IDX 11 13 9 14 8 15 7 16 1 17 2 18 3 19 4 20 6 21 5 22 21 23
REMARK SMILES IDX 22 24 23 25 24 26 25 28 26 29 27 30 88 31 28 32 87 33 29 34
REMARK SMILES IDX 30 35 31 36 81 37 32 38 86 39 80 40 82 41 33 42 85 43 79 44
REMARK SMILES IDX 78 45 34 47 66 48 46 49 65 50 47 51 50 52 64 53 83 54 48 55
REMARK SMILES IDX 49 56 63 58 84 59 51 60 35 61 36 62 44 63 37 64 43 65 45 66
REMARK SMILES IDX 42 67 38 68 39 69 40 70 41 71 67 72 68 73 76 74 69 75 75 76
REMARK SMILES IDX 77 77 74 78 70 79 71 80 72 81 73 82 52 83 53 84 61 85 54 86
REMARK SMILES IDX 60 87 62 88 59 89 55 90 56 91 57 92 58 93
REMARK H PARENT 19 5 23 27 82 46 50 57
REMARK Flexibility Score: inf
ROOT
ATOM      1  C   UNL A   1      37.321  21.327  25.018  1.00  0.00     0.118 C 
ENDROOT
BRANCH   1   2
ATOM      2  N   UNL A   1      36.258  21.456  25.998  1.00  0.00    -0.351 N 
ATOM      3  C   UNL A   1      34.908  21.680  25.967  1.00  0.00     0.263 C 
ATOM      4  O   UNL A   1      34.397  21.603  27.093  1.00  0.00    -0.268 OA
ATOM      5  H   UNL A   1      36.593  21.358  26.918  1.00  0.00     0.163 HD
BRANCH   3   6
ATOM      6  C   UNL A   1      34.096  21.996  24.787  1.00  0.00     0.115 A 
ATOM      7  C   UNL A   1      33.316  23.343  22.855  1.00  0.00     0.164 A 
ATOM      8  N   UNL A   1      32.686  22.196  22.910  1.00  0.00    -0.237 NA
ATOM      9  S   UNL A   1      34.457  23.570  24.085  1.00  0.00    -0.105 S 
ATOM     10  C   UNL A   1      33.111  21.418  23.986  1.00  0.00     0.062 A 
ATOM     11  C   UNL A   1      32.443  20.097  24.007  1.00  0.00     0.068 C 
BRANCH   7  12
ATOM     12  C   UNL A   1      33.041  24.286  21.778  1.00  0.00     0.228 C 
ATOM     13  O   UNL A   1      33.311  24.042  20.592  1.00  0.00    -0.288 OA
BRANCH  12  14
ATOM     14  C   UNL A   1      32.482  25.675  22.092  1.00  0.00     0.313 C 
BRANCH  14  15
ATOM     15  O   UNL A   1      31.929  26.013  23.334  1.00  0.00    -0.485 OA
BRANCH  15  16
ATOM     16  C   UNL A   1      32.090  27.215  23.952  1.00  0.00     0.122 A 
ATOM     17  C   UNL A   1      29.840  28.433  23.523  1.00  0.00     0.048 C 
ATOM     18  C   UNL A   1      31.228  28.312  24.082  1.00  0.00    -0.009 A 
ATOM     19  C   UNL A   1      31.664  29.415  24.854  1.00  0.00     0.007 A 
ATOM     20  C   UNL A   1      32.928  29.455  25.442  1.00  0.00     0.001 A 
ATOM     21  C   UNL A   1      33.366  27.279  24.545  1.00  0.00     0.047 A 
ATOM     22  C   UNL A   1      33.788  28.384  25.279  1.00  0.00     0.004 A 
ENDBRANCH  15  16
ENDBRANCH  14  15
ENDBRANCH  12  14
ENDBRANCH   7  12
ENDBRANCH   3   6
ENDBRANCH   1   2
BRANCH   1  23
ATOM     23  C   UNL A   1      38.703  21.489  25.642  1.00  0.00     0.042 C 
BRANCH  23  24
ATOM     24  C   UNL A   1      38.989  22.879  26.195  1.00  0.00     0.118 C 
BRANCH  24  25
ATOM     25  N   UNL A   1      40.412  23.075  26.486  1.00  0.00    -0.352 N 
ATOM     26  C   UNL A   1      41.091  24.252  26.744  1.00  0.00     0.251 C 
ATOM     27  H   UNL A   1      40.959  22.256  26.498  1.00  0.00     0.163 HD
ATOM     28  O   UNL A   1      42.296  24.298  26.918  1.00  0.00    -0.269 OA
BRANCH  26  29
ATOM     29  C   UNL A   1      40.260  25.449  26.982  1.00  0.00     0.039 A 
ATOM     30  C   UNL A   1      40.701  26.623  26.361  1.00  0.00     0.014 A 
ATOM     31  C   UNL A   1      39.385  25.478  28.062  1.00  0.00     0.014 A 
ATOM     32  C   UNL A   1      40.465  27.840  26.987  1.00  0.00     0.010 A 
ATOM     33  C   UNL A   1      39.228  26.678  28.731  1.00  0.00     0.010 A 
ATOM     34  C   UNL A   1      39.835  27.841  28.233  1.00  0.00    -0.014 A 
BRANCH  34  35
ATOM     35  C   UNL A   1      39.926  28.982  29.141  1.00  0.00     0.031 A 
ATOM     36  C   UNL A   1      38.871  30.014  29.152  1.00  0.00     0.074 A 
ATOM     37  C   UNL A   1      40.999  29.134  29.948  1.00  0.00     0.049 A 
ATOM     38  N   UNL A   1      39.071  31.257  29.441  1.00  0.00    -0.248 NA
ATOM     39  C   UNL A   1      37.494  29.724  28.776  1.00  0.00     0.031 C 
ATOM     40  C   UNL A   1      41.163  30.098  31.032  1.00  0.00     0.029 A 
ATOM     41  N   UNL A   1      42.261  28.583  29.809  1.00  0.00    -0.354 N 
ATOM     42  C   UNL A   1      37.841  31.861  29.563  1.00  0.00     0.074 A 
ATOM     43  C   UNL A   1      36.896  30.879  29.077  1.00  0.00     0.031 C 
ATOM     44  C   UNL A   1      42.474  30.252  31.283  1.00  0.00     0.029 A 
ATOM     45  C   UNL A   1      43.206  29.492  30.285  1.00  0.00     0.049 A 
ATOM     46  H   UNL A   1      42.460  27.695  29.435  1.00  0.00     0.167 HD
ATOM     47  C   UNL A   1      37.733  33.066  30.190  1.00  0.00     0.034 A 
ATOM     48  C   UNL A   1      44.196  29.991  29.487  1.00  0.00     0.034 A 
ATOM     49  C   UNL A   1      39.036  33.583  30.606  1.00  0.00     0.049 A 
ATOM     50  C   UNL A   1      44.133  31.496  29.321  1.00  0.00     0.074 A 
ATOM     51  C   UNL A   1      39.702  33.566  31.822  1.00  0.00     0.029 A 
ATOM     52  N   UNL A   1      39.969  33.975  29.652  1.00  0.00    -0.354 N 
ATOM     53  N   UNL A   1      43.094  32.224  29.628  1.00  0.00    -0.248 NA
ATOM     54  C   UNL A   1      45.224  32.292  28.764  1.00  0.00     0.031 C 
ATOM     55  C   UNL A   1      41.063  33.881  31.580  1.00  0.00     0.029 A 
ATOM     56  C   UNL A   1      41.219  34.123  30.226  1.00  0.00     0.049 A 
ATOM     57  H   UNL A   1      39.768  34.127  28.701  1.00  0.00     0.167 HD
ATOM     58  C   UNL A   1      43.330  33.531  29.286  1.00  0.00     0.074 A 
ATOM     59  C   UNL A   1      44.694  33.527  28.785  1.00  0.00     0.031 C 
ATOM     60  C   UNL A   1      42.375  34.500  29.422  1.00  0.00     0.034 A 
BRANCH  47  61
ATOM     61  C   UNL A   1      36.420  33.603  30.716  1.00  0.00     0.023 A 
ATOM     62  C   UNL A   1      35.513  34.213  29.825  1.00  0.00     0.031 A 
ATOM     63  C   UNL A   1      36.029  33.599  32.068  1.00  0.00     0.131 A 
ATOM     64  C   UNL A   1      34.365  34.883  30.290  1.00  0.00     0.055 A 
ATOM     65  C   UNL A   1      34.927  34.326  32.542  1.00  0.00     0.041 A 
ATOM     66  F   UNL A   1      36.668  32.853  32.980  1.00  0.00    -0.206 F 
ATOM     67  C   UNL A   1      34.096  34.989  31.651  1.00  0.00     0.022 A 
BRANCH  64  68
ATOM     68  S   UNL A   1      33.218  35.607  29.085  1.00  0.00     0.124 S 
ATOM     69  O   UNL A   1      34.106  36.412  28.253  1.00  0.00    -0.237 OA
ATOM     70  O   UNL A   1      32.643  34.421  28.459  1.00  0.00    -0.237 OA
ATOM     71  O   UNL A   1      32.291  36.372  29.918  1.00  0.00    -0.744 OA
ENDBRANCH  64  68
ENDBRANCH  47  61
BRANCH  48  72
ATOM     72  C   UNL A   1      44.666  29.032  28.447  1.00  0.00     0.023 A 
ATOM     73  C   UNL A   1      45.489  27.969  28.875  1.00  0.00     0.031 A 
ATOM     74  C   UNL A   1      44.041  28.920  27.198  1.00  0.00     0.131 A 
ATOM     75  C   UNL A   1      45.532  26.772  28.146  1.00  0.00     0.055 A 
ATOM     76  C   UNL A   1      44.141  27.747  26.440  1.00  0.00     0.041 A 
ATOM     77  F   UNL A   1      43.225  29.885  26.752  1.00  0.00    -0.206 F 
ATOM     78  C   UNL A   1      44.852  26.650  26.934  1.00  0.00     0.022 A 
BRANCH  75  79
ATOM     79  S   UNL A   1      46.280  25.290  28.889  1.00  0.00     0.124 S 
ATOM     80  O   UNL A   1      46.324  25.639  30.304  1.00  0.00    -0.237 OA
ATOM     81  O   UNL A   1      45.352  24.222  28.530  1.00  0.00    -0.237 OA
ATOM     82  O   UNL A   1      47.574  25.201  28.213  1.00  0.00    -0.744 OA
ENDBRANCH  75  79
ENDBRANCH  48  72
BRANCH  60  83
ATOM     83  C   UNL A   1      42.486  35.911  28.891  1.00  0.00     0.023 A 
ATOM     84  C   UNL A   1      43.188  36.930  29.554  1.00  0.00     0.031 A 
ATOM     85  C   UNL A   1      41.940  36.262  27.632  1.00  0.00     0.131 A 
ATOM     86  C   UNL A   1      43.240  38.236  29.036  1.00  0.00     0.055 A 
ATOM     87  C   UNL A   1      42.065  37.541  27.079  1.00  0.00     0.041 A 
ATOM     88  F   UNL A   1      41.264  35.376  26.885  1.00  0.00    -0.206 F 
ATOM     89  C   UNL A   1      42.702  38.546  27.791  1.00  0.00     0.022 A 
BRANCH  86  90
ATOM     90  S   UNL A   1      43.962  39.539  30.069  1.00  0.00     0.124 S 
ATOM     91  O   UNL A   1      43.141  40.693  29.713  1.00  0.00    -0.237 OA
ATOM     92  O   UNL A   1      43.768  39.015  31.416  1.00  0.00    -0.237 OA
ATOM     93  O   UNL A   1      45.352  39.606  29.621  1.00  0.00    -0.744 OA
ENDBRANCH  86  90
ENDBRANCH  60  83
ENDBRANCH  34  35
ENDBRANCH  26  29
ENDBRANCH  24  25
ENDBRANCH  23  24
ENDBRANCH   1  23
TORSDOF 17
ENDMDL
MODEL 3
REMARK VINA RESULT:     -12.1      2.147      3.485
REMARK SMILES Cc1ccccc1OCC(=O)c1nc(C)c(C(=O)NCCCNC(=O)c2ccc(-c3c4nc(c(-c5cc(S(=O)(=O)[O-])ccc5F)c5ccc([nH]5)c(-c5cc(S(=O)(=O)[O-])ccc5F)c5nc(c(-c6cc(S(=O)(=O)[O-])ccc6F)c6ccc3[nH]6)C=C5)C=C4)cc2)s1
REMARK SMILES IDX 20 1 19 2 17 3 18 4 16 6 12 7 13 8 89 9 14 10 15 11 10 12
REMARK SMILES IDX 11 13 9 14 8 15 7 16 1 17 2 18 3 19 4 20 6 21 5 22 21 23
REMARK SMILES IDX 22 24 23 25 24 26 25 28 26 29 27 30 88 31 28 32 87 33 29 34
REMARK SMILES IDX 30 35 31 36 81 37 32 38 86 39 80 40 82 41 33 42 85 43 79 44
REMARK SMILES IDX 78 45 34 47 66 48 46 49 65 50 47 51 50 52 64 53 83 54 48 55
REMARK SMILES IDX 49 56 63 58 84 59 51 60 35 61 36 62 44 63 37 64 43 65 45 66
REMARK SMILES IDX 42 67 38 68 39 69 40 70 41 71 67 72 68 73 76 74 69 75 75 76
REMARK SMILES IDX 77 77 74 78 70 79 71 80 72 81 73 82 52 83 53 84 61 85 54 86
REMARK SMILES IDX 60 87 62 88 59 89 55 90 56 91 57 92 58 93
REMARK H PARENT 19 5 23 27 82 46 50 57
REMARK Flexibility Score: inf
ROOT
ATOM      1  C   UNL A   1      34.200  32.499  27.980  1.00  0.00     0.118 C 
ENDROOT
BRANCH   1   2
ATOM      2  N   UNL A   1      34.708  31.141  27.899  1.00  0.00    -0.351 N 
ATOM      3  C   UNL A   1      34.372  30.000  27.224  1.00  0.00     0.263 C 
ATOM      4  O   UNL A   1      35.192  29.089  27.411  1.00  0.00    -0.268 OA
ATOM      5  H   UNL A   1      35.493  31.008  28.478  1.00  0.00     0.163 HD
BRANCH   3   6
ATOM      6  C   UNL A   1      33.193  29.793  26.376  1.00  0.00     0.115 A 
ATOM      7  C   UNL A   1      31.698  28.576  24.815  1.00  0.00     0.164 A 
ATOM      8  N   UNL A   1      31.182  29.732  25.150  1.00  0.00    -0.237 NA
ATOM      9  S   UNL A   1      33.197  28.249  25.528  1.00  0.00    -0.105 S 
ATOM     10  C   UNL A   1      32.003  30.434  26.032  1.00  0.00     0.062 A 
ATOM     11  C   UNL A   1      31.387  31.711  26.459  1.00  0.00     0.068 C 
BRANCH   7  12
ATOM     12  C   UNL A   1      30.974  27.674  23.928  1.00  0.00     0.228 C 
ATOM     13  O   UNL A   1      30.509  26.590  24.313  1.00  0.00    -0.288 OA
BRANCH  12  14
ATOM     14  C   UNL A   1      30.840  27.997  22.439  1.00  0.00     0.313 C 
BRANCH  14  15
ATOM     15  O   UNL A   1      29.653  28.470  21.864  1.00  0.00    -0.485 OA
BRANCH  15  16
ATOM     16  C   UNL A   1      28.915  29.505  22.351  1.00  0.00     0.122 A 
ATOM     17  C   UNL A   1      26.912  28.338  23.513  1.00  0.00     0.048 C 
ATOM     18  C   UNL A   1      27.719  29.527  23.080  1.00  0.00    -0.009 A 
ATOM     19  C   UNL A   1      27.222  30.781  23.508  1.00  0.00     0.007 A 
ATOM     20  C   UNL A   1      27.858  31.979  23.188  1.00  0.00     0.001 A 
ATOM     21  C   UNL A   1      29.538  30.726  22.029  1.00  0.00     0.047 A 
ATOM     22  C   UNL A   1      29.020  31.953  22.436  1.00  0.00     0.004 A 
ENDBRANCH  15  16
ENDBRANCH  14  15
ENDBRANCH  12  14
ENDBRANCH   7  12
ENDBRANCH   3   6
ENDBRANCH   1   2
BRANCH   1  23
ATOM     23  C   UNL A   1      35.273  33.491  28.417  1.00  0.00     0.042 C 
BRANCH  23  24
ATOM     24  C   UNL A   1      36.545  32.850  28.953  1.00  0.00     0.118 C 
BRANCH  24  25
ATOM     25  N   UNL A   1      36.431  32.500  30.372  1.00  0.00    -0.352 N 
ATOM     26  C   UNL A   1      36.631  31.275  30.983  1.00  0.00     0.251 C 
ATOM     27  H   UNL A   1      36.177  33.239  30.971  1.00  0.00     0.163 HD
ATOM     28  O   UNL A   1      36.450  31.090  32.173  1.00  0.00    -0.269 OA
BRANCH  26  29
ATOM     29  C   UNL A   1      37.254  30.224  30.154  1.00  0.00     0.039 A 
ATOM     30  C   UNL A   1      37.393  28.974  30.768  1.00  0.00     0.014 A 
ATOM     31  C   UNL A   1      38.009  30.579  29.041  1.00  0.00     0.014 A 
ATOM     32  C   UNL A   1      38.474  28.175  30.421  1.00  0.00     0.010 A 
ATOM     33  C   UNL A   1      39.134  29.826  28.760  1.00  0.00     0.010 A 
ATOM     34  C   UNL A   1      39.404  28.668  29.504  1.00  0.00    -0.014 A 
BRANCH  34  35
ATOM     35  C   UNL A   1      40.752  28.115  29.402  1.00  0.00     0.031 A 
ATOM     36  C   UNL A   1      40.965  26.758  28.860  1.00  0.00     0.074 A 
ATOM     37  C   UNL A   1      41.818  28.817  29.848  1.00  0.00     0.049 A 
ATOM     38  N   UNL A   1      41.931  25.976  29.212  1.00  0.00    -0.248 NA
ATOM     39  C   UNL A   1      40.053  26.153  27.899  1.00  0.00     0.031 C 
ATOM     40  C   UNL A   1      43.231  28.499  29.657  1.00  0.00     0.029 A 
ATOM     41  N   UNL A   1      41.839  29.856  30.760  1.00  0.00    -0.354 N 
ATOM     42  C   UNL A   1      41.936  24.905  28.349  1.00  0.00     0.074 A 
ATOM     43  C   UNL A   1      40.710  25.031  27.593  1.00  0.00     0.031 C 
ATOM     44  C   UNL A   1      43.951  29.138  30.593  1.00  0.00     0.029 A 
ATOM     45  C   UNL A   1      43.019  29.784  31.501  1.00  0.00     0.049 A 
ATOM     46  H   UNL A   1      41.136  30.537  30.869  1.00  0.00     0.167 HD
ATOM     47  C   UNL A   1      43.037  24.105  28.264  1.00  0.00     0.034 A 
ATOM     48  C   UNL A   1      43.013  29.637  32.858  1.00  0.00     0.034 A 
ATOM     49  C   UNL A   1      44.079  24.508  29.207  1.00  0.00     0.049 A 
ATOM     50  C   UNL A   1      43.682  28.361  33.328  1.00  0.00     0.074 A 
ATOM     51  C   UNL A   1      45.228  25.269  29.060  1.00  0.00     0.029 A 
ATOM     52  N   UNL A   1      43.875  24.364  30.576  1.00  0.00    -0.354 N 
ATOM     53  N   UNL A   1      43.962  27.352  32.549  1.00  0.00    -0.248 NA
ATOM     54  C   UNL A   1      44.056  28.111  34.718  1.00  0.00     0.031 C 
ATOM     55  C   UNL A   1      45.675  25.642  30.353  1.00  0.00     0.029 A 
ATOM     56  C   UNL A   1      44.819  25.083  31.287  1.00  0.00     0.049 A 
ATOM     57  H   UNL A   1      43.159  23.824  30.982  1.00  0.00     0.167 HD
ATOM     58  C   UNL A   1      44.490  26.329  33.294  1.00  0.00     0.074 A 
ATOM     59  C   UNL A   1      44.565  26.869  34.641  1.00  0.00     0.031 C 
ATOM     60  C   UNL A   1      44.798  25.115  32.744  1.00  0.00     0.034 A 
BRANCH  47  61
ATOM     61  C   UNL A   1      43.288  23.178  27.095  1.00  0.00     0.023 A 
ATOM     62  C   UNL A   1      42.823  21.848  27.152  1.00  0.00     0.031 A 
ATOM     63  C   UNL A   1      44.016  23.514  25.938  1.00  0.00     0.131 A 
ATOM     64  C   UNL A   1      43.185  20.901  26.175  1.00  0.00     0.055 A 
ATOM     65  C   UNL A   1      44.437  22.560  25.001  1.00  0.00     0.041 A 
ATOM     66  F   UNL A   1      44.308  24.788  25.640  1.00  0.00    -0.206 F 
ATOM     67  C   UNL A   1      44.035  21.238  25.127  1.00  0.00     0.022 A 
BRANCH  64  68
ATOM     68  S   UNL A   1      42.514  19.219  26.286  1.00  0.00     0.124 S 
ATOM     69  O   UNL A   1      43.637  18.405  25.833  1.00  0.00    -0.237 OA
ATOM     70  O   UNL A   1      42.171  19.119  27.701  1.00  0.00    -0.237 OA
ATOM     71  O   UNL A   1      41.369  19.250  25.377  1.00  0.00    -0.744 OA
ENDBRANCH  64  68
ENDBRANCH  47  61
BRANCH  48  72
ATOM     72  C   UNL A   1      41.852  30.292  33.525  1.00  0.00     0.023 A 
ATOM     73  C   UNL A   1      41.901  31.695  33.676  1.00  0.00     0.031 A 
ATOM     74  C   UNL A   1      40.608  29.660  33.650  1.00  0.00     0.131 A 
ATOM     75  C   UNL A   1      40.716  32.437  33.770  1.00  0.00     0.055 A 
ATOM     76  C   UNL A   1      39.431  30.401  33.813  1.00  0.00     0.041 A 
ATOM     77  F   UNL A   1      40.494  28.334  33.489  1.00  0.00    -0.206 F 
ATOM     78  C   UNL A   1      39.476  31.798  33.829  1.00  0.00     0.022 A 
BRANCH  75  79
ATOM     79  S   UNL A   1      40.765  34.245  33.580  1.00  0.00     0.124 S 
ATOM     80  O   UNL A   1      39.456  34.533  33.006  1.00  0.00    -0.237 OA
ATOM     81  O   UNL A   1      40.978  34.726  34.942  1.00  0.00    -0.237 OA
ATOM     82  O   UNL A   1      41.910  34.450  32.694  1.00  0.00    -0.744 OA
ENDBRANCH  75  79
ENDBRANCH  48  72
BRANCH  60  83
ATOM     83  C   UNL A   1      45.195  23.882  33.523  1.00  0.00     0.023 A 
ATOM     84  C   UNL A   1      46.502  23.648  33.979  1.00  0.00     0.031 A 
ATOM     85  C   UNL A   1      44.230  22.919  33.907  1.00  0.00     0.131 A 
ATOM     86  C   UNL A   1      46.831  22.472  34.676  1.00  0.00     0.055 A 
ATOM     87  C   UNL A   1      44.543  21.790  34.672  1.00  0.00     0.041 A 
ATOM     88  F   UNL A   1      42.940  23.034  33.555  1.00  0.00    -0.206 F 
ATOM     89  C   UNL A   1      45.857  21.549  35.046  1.00  0.00     0.022 A 
BRANCH  86  90
ATOM     90  S   UNL A   1      48.579  22.140  35.019  1.00  0.00     0.124 S 
ATOM     91  O   UNL A   1      48.748  20.806  34.448  1.00  0.00    -0.237 OA
ATOM     92  O   UNL A   1      49.249  23.222  34.306  1.00  0.00    -0.237 OA
ATOM     93  O   UNL A   1      48.666  22.206  36.476  1.00  0.00    -0.744 OA
ENDBRANCH  86  90
ENDBRANCH  60  83
ENDBRANCH  34  35
ENDBRANCH  26  29
ENDBRANCH  24  25
ENDBRANCH  23  24
ENDBRANCH   1  23
TORSDOF 17
ENDMDL
