MODEL 1
REMARK VINA RESULT:     -12.8      0.000      0.000
REMARK SMILES O=C(NCCCNC(=O)[C@H]1Cc2[nH]cnc2CN1C(=O)c1ccncc1Cl)c1ccc(-c2c3nc(c(-c4cc(S(=O)(=O)[O-])ccc4F)c4ccc([nH]4)c(-c4cc(S(=O)(=O)[O-])ccc4F)c4nc(c(-c5cc(S(=O)(=O)[O-])ccc5F)c5ccc2[nH]5)C=C4)C=C3)cc1
REMARK SMILES IDX 4 1 3 2 1 3 2 4 28 6 29 7 90 8 30 9 89 10 31 11 32 12 33 13
REMARK SMILES IDX 83 14 34 15 88 16 82 17 84 18 35 19 87 20 81 21 80 22 36 24
REMARK SMILES IDX 68 25 48 26 67 27 49 28 52 29 66 30 85 31 50 32 51 33 65 35
REMARK SMILES IDX 86 36 53 37 37 38 38 39 46 40 39 41 45 42 47 43 44 44 40 45
REMARK SMILES IDX 41 46 42 47 43 48 69 49 70 50 78 51 71 52 77 53 79 54 76 55
REMARK SMILES IDX 72 56 73 57 74 58 75 59 54 60 55 61 63 62 56 63 62 64 64 65
REMARK SMILES IDX 61 66 57 67 58 68 59 69 60 70 5 71 6 72 7 73 8 74 9 76 10 77
REMARK SMILES IDX 11 78 18 79 12 80 17 81 13 82 16 83 14 84 15 86 19 87 20 88
REMARK SMILES IDX 21 89 22 90 26 91 23 92 25 93 27 94 24 95
REMARK H PARENT 3 5 84 23 52 34 7 75 13 85
REMARK Flexibility Score: inf
ROOT
ATOM      1  C   UNL A   1      34.868  28.297  26.487  1.00  0.00     0.118 C 
ENDROOT
BRANCH   1   2
ATOM      2  N   UNL A   1      34.808  29.349  27.484  1.00  0.00    -0.352 N 
ATOM      3  O   UNL A   1      35.351  30.829  29.044  1.00  0.00    -0.269 OA
ATOM      4  C   UNL A   1      35.746  29.937  28.291  1.00  0.00     0.251 C 
ATOM      5  H   UNL A   1      33.903  29.719  27.606  1.00  0.00     0.163 HD
BRANCH   4   6
ATOM      6  C   UNL A   1      37.167  29.506  28.356  1.00  0.00     0.039 A 
ATOM      7  C   UNL A   1      38.128  29.769  27.375  1.00  0.00     0.014 A 
ATOM      8  C   UNL A   1      37.540  28.770  29.490  1.00  0.00     0.014 A 
ATOM      9  C   UNL A   1      39.389  29.192  27.445  1.00  0.00     0.010 A 
ATOM     10  C   UNL A   1      38.820  28.243  29.597  1.00  0.00     0.010 A 
ATOM     11  C   UNL A   1      39.726  28.414  28.548  1.00  0.00    -0.014 A 
BRANCH  11  12
ATOM     12  C   UNL A   1      41.100  27.925  28.656  1.00  0.00     0.031 A 
ATOM     13  C   UNL A   1      41.373  26.614  27.982  1.00  0.00     0.074 A 
ATOM     14  C   UNL A   1      42.084  28.718  29.126  1.00  0.00     0.049 A 
ATOM     15  N   UNL A   1      42.042  25.591  28.411  1.00  0.00    -0.248 NA
ATOM     16  C   UNL A   1      40.745  26.390  26.665  1.00  0.00     0.031 C 
ATOM     17  C   UNL A   1      41.968  30.119  29.544  1.00  0.00     0.029 A 
ATOM     18  N   UNL A   1      43.427  28.494  29.164  1.00  0.00    -0.354 N 
ATOM     19  C   UNL A   1      42.083  24.678  27.355  1.00  0.00     0.074 A 
ATOM     20  C   UNL A   1      41.160  25.162  26.365  1.00  0.00     0.031 C 
ATOM     21  C   UNL A   1      43.193  30.686  29.527  1.00  0.00     0.029 A 
ATOM     22  C   UNL A   1      44.178  29.664  29.217  1.00  0.00     0.049 A 
ATOM     23  H   UNL A   1      43.826  27.594  29.155  1.00  0.00     0.167 HD
ATOM     24  C   UNL A   1      43.008  23.680  27.277  1.00  0.00     0.034 A 
ATOM     25  C   UNL A   1      45.492  29.811  28.906  1.00  0.00     0.034 A 
ATOM     26  C   UNL A   1      43.549  23.353  28.568  1.00  0.00     0.049 A 
ATOM     27  C   UNL A   1      46.112  28.466  28.976  1.00  0.00     0.074 A 
ATOM     28  C   UNL A   1      43.010  22.887  29.753  1.00  0.00     0.029 A 
ATOM     29  N   UNL A   1      44.804  23.807  28.898  1.00  0.00    -0.354 N 
ATOM     30  N   UNL A   1      46.201  27.772  30.077  1.00  0.00    -0.248 NA
ATOM     31  C   UNL A   1      46.216  27.692  27.748  1.00  0.00     0.031 C 
ATOM     32  C   UNL A   1      43.732  23.571  30.774  1.00  0.00     0.029 A 
ATOM     33  C   UNL A   1      44.696  24.365  30.148  1.00  0.00     0.049 A 
ATOM     34  H   UNL A   1      45.617  23.744  28.348  1.00  0.00     0.167 HD
ATOM     35  C   UNL A   1      45.945  26.463  29.700  1.00  0.00     0.074 A 
ATOM     36  C   UNL A   1      46.066  26.460  28.243  1.00  0.00     0.031 C 
ATOM     37  C   UNL A   1      45.387  25.566  30.566  1.00  0.00     0.034 A 
BRANCH  24  38
ATOM     38  C   UNL A   1      43.645  23.206  25.986  1.00  0.00     0.023 A 
ATOM     39  C   UNL A   1      43.519  21.843  25.648  1.00  0.00     0.031 A 
ATOM     40  C   UNL A   1      44.597  23.937  25.239  1.00  0.00     0.131 A 
ATOM     41  C   UNL A   1      44.362  21.255  24.688  1.00  0.00     0.055 A 
ATOM     42  C   UNL A   1      45.384  23.363  24.236  1.00  0.00     0.041 A 
ATOM     43  F   UNL A   1      44.890  25.217  25.498  1.00  0.00    -0.206 F 
ATOM     44  C   UNL A   1      45.293  22.007  23.977  1.00  0.00     0.022 A 
BRANCH  41  45
ATOM     45  S   UNL A   1      44.363  19.448  24.527  1.00  0.00     0.124 S 
ATOM     46  O   UNL A   1      43.017  19.107  24.973  1.00  0.00    -0.237 OA
ATOM     47  O   UNL A   1      44.634  19.276  23.104  1.00  0.00    -0.237 OA
ATOM     48  O   UNL A   1      45.439  19.030  25.423  1.00  0.00    -0.744 OA
ENDBRANCH  41  45
ENDBRANCH  24  38
BRANCH  25  49
ATOM     49  C   UNL A   1      46.082  30.971  28.182  1.00  0.00     0.023 A 
ATOM     50  C   UNL A   1      45.380  31.711  27.211  1.00  0.00     0.031 A 
ATOM     51  C   UNL A   1      47.328  31.496  28.602  1.00  0.00     0.131 A 
ATOM     52  C   UNL A   1      45.941  32.901  26.685  1.00  0.00     0.055 A 
ATOM     53  C   UNL A   1      47.883  32.659  28.067  1.00  0.00     0.041 A 
ATOM     54  F   UNL A   1      48.018  30.931  29.606  1.00  0.00    -0.206 F 
ATOM     55  C   UNL A   1      47.187  33.371  27.106  1.00  0.00     0.022 A 
BRANCH  52  56
ATOM     56  S   UNL A   1      45.003  33.906  25.489  1.00  0.00     0.124 S 
ATOM     57  O   UNL A   1      46.062  34.673  24.835  1.00  0.00    -0.237 OA
ATOM     58  O   UNL A   1      44.341  32.896  24.682  1.00  0.00    -0.237 OA
ATOM     59  O   UNL A   1      44.110  34.699  26.337  1.00  0.00    -0.744 OA
ENDBRANCH  52  56
ENDBRANCH  25  49
BRANCH  37  60
ATOM     60  C   UNL A   1      45.246  25.959  32.023  1.00  0.00     0.023 A 
ATOM     61  C   UNL A   1      44.046  26.432  32.606  1.00  0.00     0.031 A 
ATOM     62  C   UNL A   1      46.325  25.686  32.879  1.00  0.00     0.131 A 
ATOM     63  C   UNL A   1      43.962  26.617  34.001  1.00  0.00     0.055 A 
ATOM     64  C   UNL A   1      46.236  25.861  34.260  1.00  0.00     0.041 A 
ATOM     65  F   UNL A   1      47.474  25.192  32.389  1.00  0.00    -0.206 F 
ATOM     66  C   UNL A   1      45.055  26.332  34.826  1.00  0.00     0.022 A 
BRANCH  63  67
ATOM     67  S   UNL A   1      42.422  27.224  34.768  1.00  0.00     0.124 S 
ATOM     68  O   UNL A   1      41.687  26.004  35.077  1.00  0.00    -0.237 OA
ATOM     69  O   UNL A   1      42.906  27.986  35.918  1.00  0.00    -0.237 OA
ATOM     70  O   UNL A   1      41.818  28.050  33.720  1.00  0.00    -0.744 OA
ENDBRANCH  63  67
ENDBRANCH  37  60
ENDBRANCH  11  12
ENDBRANCH   4   6
ENDBRANCH   1   2
BRANCH   1  71
ATOM     71  C   UNL A   1      33.516  27.652  26.176  1.00  0.00     0.042 C 
BRANCH  71  72
ATOM     72  C   UNL A   1      33.637  26.142  26.029  1.00  0.00     0.117 C 
BRANCH  72  73
ATOM     73  N   UNL A   1      33.526  25.774  24.629  1.00  0.00    -0.354 N 
ATOM     74  C   UNL A   1      34.275  25.017  23.789  1.00  0.00     0.243 C 
ATOM     75  H   UNL A   1      32.732  26.160  24.193  1.00  0.00     0.163 HD
ATOM     76  O   UNL A   1      34.000  25.142  22.589  1.00  0.00    -0.273 OA
BRANCH  74  77
ATOM     77  C   UNL A   1      35.259  23.923  24.252  1.00  0.00     0.181 C 
ATOM     78  C   UNL A   1      36.177  24.294  25.442  1.00  0.00     0.091 C 
ATOM     79  N   UNL A   1      34.818  22.472  24.294  1.00  0.00    -0.320 N 
ATOM     80  C   UNL A   1      37.200  23.239  25.590  1.00  0.00     0.042 A 
ATOM     81  C   UNL A   1      35.921  21.469  24.292  1.00  0.00     0.178 C 
ATOM     82  N   UNL A   1      38.343  23.267  26.330  1.00  0.00    -0.348 N 
ATOM     83  C   UNL A   1      37.080  21.960  25.101  1.00  0.00     0.081 A 
ATOM     84  C   UNL A   1      38.876  22.005  26.254  1.00  0.00     0.197 A 
ATOM     85  H   UNL A   1      38.713  24.037  26.820  1.00  0.00     0.167 HD
ATOM     86  N   UNL A   1      38.152  21.204  25.496  1.00  0.00    -0.240 NA
BRANCH  79  87
ATOM     87  C   UNL A   1      33.530  21.953  24.426  1.00  0.00     0.256 C 
ATOM     88  O   UNL A   1      33.074  21.052  23.724  1.00  0.00    -0.269 OA
BRANCH  87  89
ATOM     89  C   UNL A   1      32.591  22.494  25.412  1.00  0.00     0.061 A 
ATOM     90  C   UNL A   1      31.450  23.152  24.948  1.00  0.00     0.035 A 
ATOM     91  C   UNL A   1      32.866  22.440  26.777  1.00  0.00     0.072 A 
ATOM     92  C   UNL A   1      30.559  23.638  25.888  1.00  0.00     0.112 A 
ATOM     93  C   UNL A   1      31.894  22.931  27.633  1.00  0.00     0.132 A 
ATOM     94  Cl  UNL A   1      34.330  21.807  27.428  1.00  0.00    -0.082 Cl
ATOM     95  N   UNL A   1      30.737  23.511  27.223  1.00  0.00    -0.263 NA
ENDBRANCH  87  89
ENDBRANCH  79  87
ENDBRANCH  74  77
ENDBRANCH  72  73
ENDBRANCH  71  72
ENDBRANCH   1  71
TORSDOF 15
ENDMDL
MODEL 2
REMARK VINA RESULT:     -12.6      4.323     10.039
REMARK SMILES O=C(NCCCNC(=O)[C@H]1Cc2[nH]cnc2CN1C(=O)c1ccncc1Cl)c1ccc(-c2c3nc(c(-c4cc(S(=O)(=O)[O-])ccc4F)c4ccc([nH]4)c(-c4cc(S(=O)(=O)[O-])ccc4F)c4nc(c(-c5cc(S(=O)(=O)[O-])ccc5F)c5ccc2[nH]5)C=C4)C=C3)cc1
REMARK SMILES IDX 4 1 3 2 1 3 2 4 28 6 29 7 90 8 30 9 89 10 31 11 32 12 33 13
REMARK SMILES IDX 83 14 34 15 88 16 82 17 84 18 35 19 87 20 81 21 80 22 36 24
REMARK SMILES IDX 68 25 48 26 67 27 49 28 52 29 66 30 85 31 50 32 51 33 65 35
REMARK SMILES IDX 86 36 53 37 37 38 38 39 46 40 39 41 45 42 47 43 44 44 40 45
REMARK SMILES IDX 41 46 42 47 43 48 69 49 70 50 78 51 71 52 77 53 79 54 76 55
REMARK SMILES IDX 72 56 73 57 74 58 75 59 54 60 55 61 63 62 56 63 62 64 64 65
REMARK SMILES IDX 61 66 57 67 58 68 59 69 60 70 5 71 6 72 7 73 8 74 9 76 10 77
REMARK SMILES IDX 11 78 18 79 12 80 17 81 13 82 16 83 14 84 15 86 19 87 20 88
REMARK SMILES IDX 21 89 22 90 26 91 23 92 25 93 27 94 24 95
REMARK H PARENT 3 5 84 23 52 34 7 75 13 85
REMARK Flexibility Score: inf
ROOT
ATOM      1  C   UNL A   1      37.069  24.220  26.187  1.00  0.00     0.118 C 
ENDROOT
BRANCH   1   2
ATOM      2  N   UNL A   1      38.446  23.833  25.944  1.00  0.00    -0.352 N 
ATOM      3  O   UNL A   1      40.660  23.720  25.999  1.00  0.00    -0.269 OA
ATOM      4  C   UNL A   1      39.649  24.285  26.418  1.00  0.00     0.251 C 
ATOM      5  H   UNL A   1      38.535  23.089  25.306  1.00  0.00     0.163 HD
BRANCH   4   6
ATOM      6  C   UNL A   1      39.792  25.450  27.331  1.00  0.00     0.039 A 
ATOM      7  C   UNL A   1      39.332  25.493  28.650  1.00  0.00     0.014 A 
ATOM      8  C   UNL A   1      40.426  26.581  26.798  1.00  0.00     0.014 A 
ATOM      9  C   UNL A   1      39.368  26.676  29.376  1.00  0.00     0.010 A 
ATOM     10  C   UNL A   1      40.524  27.749  27.542  1.00  0.00     0.010 A 
ATOM     11  C   UNL A   1      39.948  27.808  28.812  1.00  0.00    -0.014 A 
BRANCH  11  12
ATOM     12  C   UNL A   1      40.085  29.003  29.645  1.00  0.00     0.031 A 
ATOM     13  C   UNL A   1      38.860  29.861  29.751  1.00  0.00     0.074 A 
ATOM     14  C   UNL A   1      41.164  29.177  30.435  1.00  0.00     0.049 A 
ATOM     15  N   UNL A   1      38.749  31.150  29.681  1.00  0.00    -0.248 NA
ATOM     16  C   UNL A   1      37.564  29.168  29.884  1.00  0.00     0.031 C 
ATOM     17  C   UNL A   1      42.287  28.251  30.618  1.00  0.00     0.029 A 
ATOM     18  N   UNL A   1      41.399  30.135  31.374  1.00  0.00    -0.354 N 
ATOM     19  C   UNL A   1      37.410  31.442  29.950  1.00  0.00     0.074 A 
ATOM     20  C   UNL A   1      36.710  30.188  29.930  1.00  0.00     0.031 C 
ATOM     21  C   UNL A   1      42.919  28.548  31.773  1.00  0.00     0.029 A 
ATOM     22  C   UNL A   1      42.323  29.747  32.338  1.00  0.00     0.049 A 
ATOM     23  H   UNL A   1      40.958  31.016  31.370  1.00  0.00     0.167 HD
ATOM     24  C   UNL A   1      36.991  32.674  30.354  1.00  0.00     0.034 A 
ATOM     25  C   UNL A   1      42.504  30.292  33.569  1.00  0.00     0.034 A 
ATOM     26  C   UNL A   1      37.919  33.704  29.974  1.00  0.00     0.049 A 
ATOM     27  C   UNL A   1      41.915  31.652  33.538  1.00  0.00     0.074 A 
ATOM     28  C   UNL A   1      38.411  34.166  28.768  1.00  0.00     0.029 A 
ATOM     29  N   UNL A   1      38.757  34.230  30.929  1.00  0.00    -0.354 N 
ATOM     30  N   UNL A   1      42.366  32.613  32.780  1.00  0.00    -0.248 NA
ATOM     31  C   UNL A   1      40.543  31.817  33.995  1.00  0.00     0.031 C 
ATOM     32  C   UNL A   1      39.780  34.470  29.026  1.00  0.00     0.029 A 
ATOM     33  C   UNL A   1      40.016  34.226  30.381  1.00  0.00     0.049 A 
ATOM     34  H   UNL A   1      38.504  34.545  31.826  1.00  0.00     0.167 HD
ATOM     35  C   UNL A   1      41.236  33.271  32.321  1.00  0.00     0.074 A 
ATOM     36  C   UNL A   1      40.151  32.804  33.183  1.00  0.00     0.031 C 
ATOM     37  C   UNL A   1      41.223  33.915  31.116  1.00  0.00     0.034 A 
BRANCH  24  38
ATOM     38  C   UNL A   1      35.883  32.910  31.362  1.00  0.00     0.023 A 
ATOM     39  C   UNL A   1      34.817  33.751  30.986  1.00  0.00     0.031 A 
ATOM     40  C   UNL A   1      35.965  32.602  32.739  1.00  0.00     0.131 A 
ATOM     41  C   UNL A   1      33.958  34.306  31.953  1.00  0.00     0.055 A 
ATOM     42  C   UNL A   1      35.067  33.100  33.687  1.00  0.00     0.041 A 
ATOM     43  F   UNL A   1      36.969  31.885  33.260  1.00  0.00    -0.206 F 
ATOM     44  C   UNL A   1      34.075  33.983  33.302  1.00  0.00     0.022 A 
BRANCH  41  45
ATOM     45  S   UNL A   1      32.812  35.616  31.444  1.00  0.00     0.124 S 
ATOM     46  O   UNL A   1      32.518  35.239  30.066  1.00  0.00    -0.237 OA
ATOM     47  O   UNL A   1      31.725  35.451  32.403  1.00  0.00    -0.237 OA
ATOM     48  O   UNL A   1      33.603  36.835  31.599  1.00  0.00    -0.744 OA
ENDBRANCH  41  45
ENDBRANCH  24  38
BRANCH  25  49
ATOM     49  C   UNL A   1      42.790  29.528  34.815  1.00  0.00     0.023 A 
ATOM     50  C   UNL A   1      42.064  28.385  35.202  1.00  0.00     0.031 A 
ATOM     51  C   UNL A   1      43.954  29.824  35.564  1.00  0.00     0.131 A 
ATOM     52  C   UNL A   1      42.494  27.613  36.309  1.00  0.00     0.055 A 
ATOM     53  C   UNL A   1      44.364  29.069  36.664  1.00  0.00     0.041 A 
ATOM     54  F   UNL A   1      44.780  30.819  35.202  1.00  0.00    -0.206 F 
ATOM     55  C   UNL A   1      43.635  27.955  37.039  1.00  0.00     0.022 A 
BRANCH  52  56
ATOM     56  S   UNL A   1      41.607  26.089  36.765  1.00  0.00     0.124 S 
ATOM     57  O   UNL A   1      40.636  26.578  37.742  1.00  0.00    -0.237 OA
ATOM     58  O   UNL A   1      41.074  25.643  35.489  1.00  0.00    -0.237 OA
ATOM     59  O   UNL A   1      42.659  25.237  37.324  1.00  0.00    -0.744 OA
ENDBRANCH  52  56
ENDBRANCH  25  49
BRANCH  37  60
ATOM     60  C   UNL A   1      42.534  34.088  30.375  1.00  0.00     0.023 A 
ATOM     61  C   UNL A   1      42.981  33.232  29.340  1.00  0.00     0.031 A 
ATOM     62  C   UNL A   1      43.272  35.257  30.620  1.00  0.00     0.131 A 
ATOM     63  C   UNL A   1      44.132  33.562  28.597  1.00  0.00     0.055 A 
ATOM     64  C   UNL A   1      44.404  35.587  29.876  1.00  0.00     0.041 A 
ATOM     65  F   UNL A   1      42.871  36.131  31.559  1.00  0.00    -0.206 F 
ATOM     66  C   UNL A   1      44.842  34.738  28.864  1.00  0.00     0.022 A 
BRANCH  63  67
ATOM     67  S   UNL A   1      44.721  32.471  27.259  1.00  0.00     0.124 S 
ATOM     68  O   UNL A   1      43.864  31.297  27.370  1.00  0.00    -0.237 OA
ATOM     69  O   UNL A   1      44.533  33.287  26.061  1.00  0.00    -0.237 OA
ATOM     70  O   UNL A   1      46.124  32.233  27.602  1.00  0.00    -0.744 OA
ENDBRANCH  63  67
ENDBRANCH  37  60
ENDBRANCH  11  12
ENDBRANCH   4   6
ENDBRANCH   1   2
BRANCH   1  71
ATOM     71  C   UNL A   1      36.037  23.332  25.488  1.00  0.00     0.042 C 
BRANCH  71  72
ATOM     72  C   UNL A   1      34.671  23.999  25.433  1.00  0.00     0.117 C 
BRANCH  72  73
ATOM     73  N   UNL A   1      34.503  24.669  24.155  1.00  0.00    -0.354 N 
ATOM     74  C   UNL A   1      33.752  25.715  23.729  1.00  0.00     0.243 C 
ATOM     75  H   UNL A   1      35.056  24.277  23.441  1.00  0.00     0.163 HD
ATOM     76  O   UNL A   1      33.680  25.839  22.500  1.00  0.00    -0.273 OA
BRANCH  74  77
ATOM     77  C   UNL A   1      33.183  26.809  24.655  1.00  0.00     0.181 C 
ATOM     78  C   UNL A   1      33.963  28.146  24.685  1.00  0.00     0.091 C 
ATOM     79  N   UNL A   1      31.683  27.013  24.759  1.00  0.00    -0.320 N 
ATOM     80  C   UNL A   1      33.427  28.975  25.785  1.00  0.00     0.042 A 
ATOM     81  C   UNL A   1      31.219  27.733  25.980  1.00  0.00     0.178 C 
ATOM     82  N   UNL A   1      33.961  30.102  26.332  1.00  0.00    -0.348 N 
ATOM     83  C   UNL A   1      32.186  28.813  26.353  1.00  0.00     0.081 A 
ATOM     84  C   UNL A   1      33.024  30.576  27.215  1.00  0.00     0.197 A 
ATOM     85  H   UNL A   1      34.841  30.498  26.133  1.00  0.00     0.167 HD
ATOM     86  N   UNL A   1      31.957  29.803  27.271  1.00  0.00    -0.240 NA
BRANCH  79  87
ATOM     87  C   UNL A   1      30.692  26.701  23.829  1.00  0.00     0.256 C 
ATOM     88  O   UNL A   1      30.534  25.584  23.337  1.00  0.00    -0.269 OA
BRANCH  87  89
ATOM     89  C   UNL A   1      29.772  27.724  23.327  1.00  0.00     0.061 A 
ATOM     90  C   UNL A   1      28.401  27.525  23.503  1.00  0.00     0.035 A 
ATOM     91  C   UNL A   1      30.237  28.826  22.610  1.00  0.00     0.072 A 
ATOM     92  C   UNL A   1      27.543  28.510  23.045  1.00  0.00     0.112 A 
ATOM     93  C   UNL A   1      29.297  29.766  22.222  1.00  0.00     0.132 A 
ATOM     94  Cl  UNL A   1      31.893  29.060  22.194  1.00  0.00    -0.082 Cl
ATOM     95  N   UNL A   1      27.962  29.645  22.440  1.00  0.00    -0.263 NA
ENDBRANCH  87  89
ENDBRANCH  79  87
ENDBRANCH  74  77
ENDBRANCH  72  73
ENDBRANCH  71  72
ENDBRANCH   1  71
TORSDOF 15
ENDMDL
MODEL 3
REMARK VINA RESULT:     -12.6      1.722      2.460
REMARK SMILES O=C(NCCCNC(=O)[C@H]1Cc2[nH]cnc2CN1C(=O)c1ccncc1Cl)c1ccc(-c2c3nc(c(-c4cc(S(=O)(=O)[O-])ccc4F)c4ccc([nH]4)c(-c4cc(S(=O)(=O)[O-])ccc4F)c4nc(c(-c5cc(S(=O)(=O)[O-])ccc5F)c5ccc2[nH]5)C=C4)C=C3)cc1
REMARK SMILES IDX 4 1 3 2 1 3 2 4 28 6 29 7 90 8 30 9 89 10 31 11 32 12 33 13
REMARK SMILES IDX 83 14 34 15 88 16 82 17 84 18 35 19 87 20 81 21 80 22 36 24
REMARK SMILES IDX 68 25 48 26 67 27 49 28 52 29 66 30 85 31 50 32 51 33 65 35
REMARK SMILES IDX 86 36 53 37 37 38 38 39 46 40 39 41 45 42 47 43 44 44 40 45
REMARK SMILES IDX 41 46 42 47 43 48 69 49 70 50 78 51 71 52 77 53 79 54 76 55
REMARK SMILES IDX 72 56 73 57 74 58 75 59 54 60 55 61 63 62 56 63 62 64 64 65
REMARK SMILES IDX 61 66 57 67 58 68 59 69 60 70 5 71 6 72 7 73 8 74 9 76 10 77
REMARK SMILES IDX 11 78 18 79 12 80 17 81 13 82 16 83 14 84 15 86 19 87 20 88
REMARK SMILES IDX 21 89 22 90 26 91 23 92 25 93 27 94 24 95
REMARK H PARENT 3 5 84 23 52 34 7 75 13 85
REMARK Flexibility Score: inf
ROOT
ATOM      1  C   UNL A   1      34.806  28.480  26.872  1.00  0.00     0.118 C 
ENDROOT
BRANCH   1   2
ATOM      2  N   UNL A   1      34.817  29.489  27.914  1.00  0.00    -0.352 N 
ATOM      3  O   UNL A   1      35.466  30.885  29.509  1.00  0.00    -0.269 OA
ATOM      4  C   UNL A   1      35.804  30.019  28.701  1.00  0.00     0.251 C 
ATOM      5  H   UNL A   1      33.928  29.873  28.094  1.00  0.00     0.163 HD
BRANCH   4   6
ATOM      6  C   UNL A   1      37.216  29.554  28.682  1.00  0.00     0.039 A 
ATOM      7  C   UNL A   1      38.122  29.789  27.644  1.00  0.00     0.014 A 
ATOM      8  C   UNL A   1      37.640  28.812  29.795  1.00  0.00     0.014 A 
ATOM      9  C   UNL A   1      39.370  29.181  27.640  1.00  0.00     0.010 A 
ATOM     10  C   UNL A   1      38.910  28.255  29.827  1.00  0.00     0.010 A 
ATOM     11  C   UNL A   1      39.755  28.400  28.724  1.00  0.00    -0.014 A 
BRANCH  11  12
ATOM     12  C   UNL A   1      41.121  27.877  28.750  1.00  0.00     0.031 A 
ATOM     13  C   UNL A   1      41.316  26.547  28.086  1.00  0.00     0.074 A 
ATOM     14  C   UNL A   1      42.153  28.653  29.139  1.00  0.00     0.049 A 
ATOM     15  N   UNL A   1      41.987  25.515  28.491  1.00  0.00    -0.248 NA
ATOM     16  C   UNL A   1      40.597  26.316  26.819  1.00  0.00     0.031 C 
ATOM     17  C   UNL A   1      42.099  30.064  29.535  1.00  0.00     0.029 A 
ATOM     18  N   UNL A   1      43.489  28.396  29.093  1.00  0.00    -0.354 N 
ATOM     19  C   UNL A   1      41.935  24.583  27.453  1.00  0.00     0.074 A 
ATOM     20  C   UNL A   1      40.961  25.072  26.518  1.00  0.00     0.031 C 
ATOM     21  C   UNL A   1      43.334  30.599  29.425  1.00  0.00     0.029 A 
ATOM     22  C   UNL A   1      44.271  29.546  29.072  1.00  0.00     0.049 A 
ATOM     23  H   UNL A   1      43.865  27.486  29.076  1.00  0.00     0.167 HD
ATOM     24  C   UNL A   1      42.828  23.560  27.335  1.00  0.00     0.034 A 
ATOM     25  C   UNL A   1      45.565  29.653  28.672  1.00  0.00     0.034 A 
ATOM     26  C   UNL A   1      43.446  23.243  28.594  1.00  0.00     0.049 A 
ATOM     27  C   UNL A   1      46.155  28.295  28.728  1.00  0.00     0.074 A 
ATOM     28  C   UNL A   1      42.976  22.814  29.821  1.00  0.00     0.029 A 
ATOM     29  N   UNL A   1      44.730  23.671  28.831  1.00  0.00    -0.354 N 
ATOM     30  N   UNL A   1      46.299  27.619  29.835  1.00  0.00    -0.248 NA
ATOM     31  C   UNL A   1      46.158  27.495  27.511  1.00  0.00     0.031 C 
ATOM     32  C   UNL A   1      43.780  23.497  30.778  1.00  0.00     0.029 A 
ATOM     33  C   UNL A   1      44.719  24.254  30.074  1.00  0.00     0.049 A 
ATOM     34  H   UNL A   1      45.504  23.577  28.229  1.00  0.00     0.167 HD
ATOM     35  C   UNL A   1      45.987  26.311  29.502  1.00  0.00     0.074 A 
ATOM     36  C   UNL A   1      46.011  26.277  28.040  1.00  0.00     0.031 C 
ATOM     37  C   UNL A   1      45.466  25.445  30.421  1.00  0.00     0.034 A 
BRANCH  24  38
ATOM     38  C   UNL A   1      43.366  23.045  26.015  1.00  0.00     0.023 A 
ATOM     39  C   UNL A   1      43.432  21.650  25.826  1.00  0.00     0.031 A 
ATOM     40  C   UNL A   1      44.075  23.826  25.072  1.00  0.00     0.131 A 
ATOM     41  C   UNL A   1      44.233  21.094  24.812  1.00  0.00     0.055 A 
ATOM     42  C   UNL A   1      44.813  23.269  24.023  1.00  0.00     0.041 A 
ATOM     43  F   UNL A   1      44.176  25.157  25.167  1.00  0.00    -0.206 F 
ATOM     44  C   UNL A   1      44.923  21.896  23.907  1.00  0.00     0.022 A 
BRANCH  41  45
ATOM     45  S   UNL A   1      44.521  19.304  24.820  1.00  0.00     0.124 S 
ATOM     46  O   UNL A   1      44.535  18.995  23.395  1.00  0.00    -0.237 OA
ATOM     47  O   UNL A   1      45.802  19.211  25.513  1.00  0.00    -0.237 OA
ATOM     48  O   UNL A   1      43.372  18.781  25.558  1.00  0.00    -0.744 OA
ENDBRANCH  41  45
ENDBRANCH  24  38
BRANCH  25  49
ATOM     49  C   UNL A   1      46.133  30.785  27.888  1.00  0.00     0.023 A 
ATOM     50  C   UNL A   1      45.362  31.590  27.027  1.00  0.00     0.031 A 
ATOM     51  C   UNL A   1      47.458  31.215  28.141  1.00  0.00     0.131 A 
ATOM     52  C   UNL A   1      45.930  32.748  26.442  1.00  0.00     0.055 A 
ATOM     53  C   UNL A   1      48.017  32.348  27.549  1.00  0.00     0.041 A 
ATOM     54  F   UNL A   1      48.233  30.585  29.039  1.00  0.00    -0.206 F 
ATOM     55  C   UNL A   1      47.251  33.123  26.697  1.00  0.00     0.022 A 
BRANCH  52  56
ATOM     56  S   UNL A   1      44.915  33.838  25.393  1.00  0.00     0.124 S 
ATOM     57  O   UNL A   1      44.224  32.880  24.532  1.00  0.00    -0.237 OA
ATOM     58  O   UNL A   1      44.098  34.539  26.369  1.00  0.00    -0.237 OA
ATOM     59  O   UNL A   1      45.906  34.671  24.708  1.00  0.00    -0.744 OA
ENDBRANCH  52  56
ENDBRANCH  25  49
BRANCH  37  60
ATOM     60  C   UNL A   1      45.432  25.867  31.876  1.00  0.00     0.023 A 
ATOM     61  C   UNL A   1      44.260  26.273  32.558  1.00  0.00     0.031 A 
ATOM     62  C   UNL A   1      46.602  25.695  32.633  1.00  0.00     0.131 A 
ATOM     63  C   UNL A   1      44.291  26.492  33.950  1.00  0.00     0.055 A 
ATOM     64  C   UNL A   1      46.628  25.902  34.012  1.00  0.00     0.041 A 
ATOM     65  F   UNL A   1      47.734  25.268  32.048  1.00  0.00    -0.206 F 
ATOM     66  C   UNL A   1      45.474  26.306  34.675  1.00  0.00     0.022 A 
BRANCH  63  67
ATOM     67  S   UNL A   1      42.790  27.013  34.846  1.00  0.00     0.124 S 
ATOM     68  O   UNL A   1      42.153  27.953  33.932  1.00  0.00    -0.237 OA
ATOM     69  O   UNL A   1      42.081  25.752  35.061  1.00  0.00    -0.237 OA
ATOM     70  O   UNL A   1      43.313  27.617  36.073  1.00  0.00    -0.744 OA
ENDBRANCH  63  67
ENDBRANCH  37  60
ENDBRANCH  11  12
ENDBRANCH   4   6
ENDBRANCH   1   2
BRANCH   1  71
ATOM     71  C   UNL A   1      33.420  28.195  26.291  1.00  0.00     0.042 C 
BRANCH  71  72
ATOM     72  C   UNL A   1      32.339  28.272  27.359  1.00  0.00     0.117 C 
BRANCH  72  73
ATOM     73  N   UNL A   1      31.428  27.150  27.218  1.00  0.00    -0.354 N 
ATOM     74  C   UNL A   1      31.451  25.999  26.501  1.00  0.00     0.243 C 
ATOM     75  H   UNL A   1      30.613  27.247  27.763  1.00  0.00     0.163 HD
ATOM     76  O   UNL A   1      30.370  25.401  26.439  1.00  0.00    -0.273 OA
BRANCH  74  77
ATOM     77  C   UNL A   1      32.736  25.340  25.960  1.00  0.00     0.181 C 
ATOM     78  C   UNL A   1      33.129  23.987  26.602  1.00  0.00     0.091 C 
ATOM     79  N   UNL A   1      33.047  25.385  24.475  1.00  0.00    -0.320 N 
ATOM     80  C   UNL A   1      34.486  23.628  26.144  1.00  0.00     0.042 A 
ATOM     81  C   UNL A   1      34.475  25.156  24.114  1.00  0.00     0.178 C 
ATOM     82  N   UNL A   1      35.319  22.669  26.635  1.00  0.00    -0.348 N 
ATOM     83  C   UNL A   1      35.086  24.127  25.012  1.00  0.00     0.081 A 
ATOM     84  C   UNL A   1      36.395  22.629  25.785  1.00  0.00     0.197 A 
ATOM     85  H   UNL A   1      35.177  22.115  27.437  1.00  0.00     0.167 HD
ATOM     86  N   UNL A   1      36.297  23.517  24.815  1.00  0.00    -0.240 NA
BRANCH  79  87
ATOM     87  C   UNL A   1      32.166  25.520  23.402  1.00  0.00     0.256 C 
ATOM     88  O   UNL A   1      31.974  24.649  22.554  1.00  0.00    -0.269 OA
BRANCH  87  89
ATOM     89  C   UNL A   1      31.421  26.762  23.182  1.00  0.00     0.061 A 
ATOM     90  C   UNL A   1      30.035  26.742  23.356  1.00  0.00     0.035 A 
ATOM     91  C   UNL A   1      32.056  27.914  22.722  1.00  0.00     0.072 A 
ATOM     92  C   UNL A   1      29.345  27.926  23.168  1.00  0.00     0.112 A 
ATOM     93  C   UNL A   1      31.277  29.052  22.594  1.00  0.00     0.132 A 
ATOM     94  Cl  UNL A   1      33.728  27.980  22.312  1.00  0.00    -0.082 Cl
ATOM     95  N   UNL A   1      29.939  29.092  22.826  1.00  0.00    -0.263 NA
ENDBRANCH  87  89
ENDBRANCH  79  87
ENDBRANCH  74  77
ENDBRANCH  72  73
ENDBRANCH  71  72
ENDBRANCH   1  71
TORSDOF 15
ENDMDL
