MODEL 1
REMARK VINA RESULT:     -12.7      0.000      0.000
REMARK SMILES C[C@@H](C(=O)NCCCNC(=O)c1ccc(-c2c3nc(c(-c4cc(S(=O)(=O)[O-])ccc4F)c4ccc([nH]4)c(-c4cc(S(=O)(=O)[O-])ccc4F)c4nc(c(-c5cc(S(=O)(=O)[O-])ccc5F)c5ccc2[nH]5)C=C4)C=C3)cc1)n1ccc(C(=O)N2CC[NH+](Cc3cccc(F)c3)CC2)n1
REMARK SMILES IDX 6 1 5 2 3 3 4 4 2 6 1 7 75 8 76 9 95 10 77 11 78 12 79 13
REMARK SMILES IDX 80 14 81 15 82 16 94 17 83 18 93 19 84 20 85 22 86 23 87 24
REMARK SMILES IDX 92 25 88 26 90 27 89 28 91 29 7 30 8 31 9 32 10 33 11 35
REMARK SMILES IDX 12 36 13 37 74 38 14 39 73 40 15 41 16 42 17 43 67 44 18 45
REMARK SMILES IDX 72 46 66 47 68 48 19 49 71 50 65 51 64 52 20 54 52 55 32 56
REMARK SMILES IDX 51 57 33 58 36 59 50 60 69 61 34 62 35 63 49 65 70 66 37 67
REMARK SMILES IDX 21 68 22 69 30 70 23 71 29 72 31 73 28 74 24 75 25 76 26 77
REMARK SMILES IDX 27 78 53 79 54 80 62 81 55 82 61 83 63 84 60 85 56 86 57 87
REMARK SMILES IDX 58 88 59 89 38 90 39 91 47 92 40 93 46 94 48 95 45 96 41 97
REMARK SMILES IDX 42 98 43 99 44 100
REMARK H PARENT 5 5 84 21 9 34 68 53 36 64
REMARK Flexibility Score: inf
ROOT
ATOM      1  C   UNL A   1      33.191  30.303  27.253  1.00  0.00     0.117 C 
ENDROOT
BRANCH   1   2
ATOM      2  N   UNL A   1      32.243  29.223  27.432  1.00  0.00    -0.354 N 
ATOM      3  C   UNL A   1      31.607  28.428  26.523  1.00  0.00     0.244 C 
ATOM      4  O   UNL A   1      30.962  27.501  27.017  1.00  0.00    -0.273 OA
ATOM      5  H   UNL A   1      32.021  29.029  28.371  1.00  0.00     0.163 HD
BRANCH   3   6
ATOM      6  C   UNL A   1      31.777  28.674  25.013  1.00  0.00     0.193 C 
ATOM      7  C   UNL A   1      30.816  29.716  24.449  1.00  0.00     0.044 C 
BRANCH   6   8
ATOM      8  N   UNL A   1      31.630  27.430  24.250  1.00  0.00    -0.260 N 
ATOM      9  C   UNL A   1      30.692  27.141  23.302  1.00  0.00     0.110 A 
ATOM     10  N   UNL A   1      32.420  26.386  24.528  1.00  0.00    -0.167 NA
ATOM     11  C   UNL A   1      31.058  25.916  22.790  1.00  0.00     0.056 A 
ATOM     12  C   UNL A   1      32.215  25.523  23.521  1.00  0.00     0.150 A 
BRANCH  12  13
ATOM     13  C   UNL A   1      33.135  24.420  23.179  1.00  0.00     0.274 C 
ATOM     14  O   UNL A   1      34.007  24.603  22.322  1.00  0.00    -0.267 OA
ATOM     15  N   UNL A   1      33.078  23.213  23.898  1.00  0.00    -0.326 N 
ATOM     16  C   UNL A   1      34.235  22.338  23.765  1.00  0.00     0.181 C 
ATOM     17  C   UNL A   1      31.813  22.592  24.306  1.00  0.00     0.181 C 
ATOM     18  C   UNL A   1      34.289  21.166  24.759  1.00  0.00     0.284 C 
ATOM     19  C   UNL A   1      31.956  21.416  25.290  1.00  0.00     0.284 C 
ATOM     20  N   UNL A   1      33.029  20.459  25.006  1.00  0.00    -0.328 N 
ATOM     21  H   UNL A   1      33.173  19.912  25.854  1.00  0.00     0.348 HD
BRANCH  20  22
ATOM     22  C   UNL A   1      32.697  19.358  24.099  1.00  0.00     0.299 C 
BRANCH  22  23
ATOM     23  C   UNL A   1      33.177  17.973  24.468  1.00  0.00     0.009 A 
ATOM     24  C   UNL A   1      34.461  17.536  24.105  1.00  0.00     0.010 A 
ATOM     25  C   UNL A   1      32.361  17.110  25.210  1.00  0.00     0.048 A 
ATOM     26  C   UNL A   1      34.948  16.303  24.549  1.00  0.00     0.004 A 
ATOM     27  C   UNL A   1      32.859  15.891  25.658  1.00  0.00     0.123 A 
ATOM     28  C   UNL A   1      34.150  15.486  25.346  1.00  0.00     0.039 A 
ATOM     29  F   UNL A   1      32.088  15.108  26.425  1.00  0.00    -0.207 F 
ENDBRANCH  22  23
ENDBRANCH  20  22
ENDBRANCH  12  13
ENDBRANCH   6   8
ENDBRANCH   3   6
ENDBRANCH   1   2
BRANCH   1  30
ATOM     30  C   UNL A   1      32.520  31.671  27.280  1.00  0.00     0.042 C 
BRANCH  30  31
ATOM     31  C   UNL A   1      33.490  32.849  27.252  1.00  0.00     0.118 C 
BRANCH  31  32
ATOM     32  N   UNL A   1      32.954  34.035  27.904  1.00  0.00    -0.352 N 
ATOM     33  C   UNL A   1      33.311  34.618  29.096  1.00  0.00     0.251 C 
ATOM     34  H   UNL A   1      32.227  34.488  27.418  1.00  0.00     0.163 HD
ATOM     35  O   UNL A   1      32.604  35.508  29.569  1.00  0.00    -0.269 OA
BRANCH  33  36
ATOM     36  C   UNL A   1      34.517  34.161  29.819  1.00  0.00     0.039 A 
ATOM     37  C   UNL A   1      34.371  33.328  30.933  1.00  0.00     0.014 A 
ATOM     38  C   UNL A   1      35.791  34.553  29.402  1.00  0.00     0.014 A 
ATOM     39  C   UNL A   1      35.503  32.825  31.579  1.00  0.00     0.010 A 
ATOM     40  C   UNL A   1      36.917  33.994  30.000  1.00  0.00     0.010 A 
ATOM     41  C   UNL A   1      36.786  33.120  31.091  1.00  0.00    -0.014 A 
BRANCH  41  42
ATOM     42  C   UNL A   1      38.014  32.544  31.699  1.00  0.00     0.031 A 
ATOM     43  C   UNL A   1      38.713  31.401  31.019  1.00  0.00     0.074 A 
ATOM     44  C   UNL A   1      38.425  32.964  32.912  1.00  0.00     0.049 A 
ATOM     45  N   UNL A   1      39.669  30.627  31.465  1.00  0.00    -0.248 NA
ATOM     46  C   UNL A   1      38.240  31.062  29.670  1.00  0.00     0.031 C 
ATOM     47  C   UNL A   1      37.806  34.039  33.689  1.00  0.00     0.029 A 
ATOM     48  N   UNL A   1      39.438  32.510  33.720  1.00  0.00    -0.354 N 
ATOM     49  C   UNL A   1      39.892  29.687  30.462  1.00  0.00     0.074 A 
ATOM     50  C   UNL A   1      38.930  29.962  29.415  1.00  0.00     0.031 C 
ATOM     51  C   UNL A   1      38.444  34.154  34.864  1.00  0.00     0.029 A 
ATOM     52  C   UNL A   1      39.482  33.130  34.947  1.00  0.00     0.049 A 
ATOM     53  H   UNL A   1      40.072  31.808  33.447  1.00  0.00     0.167 HD
ATOM     54  C   UNL A   1      40.822  28.700  30.416  1.00  0.00     0.034 A 
ATOM     55  C   UNL A   1      40.245  32.882  36.030  1.00  0.00     0.034 A 
ATOM     56  C   UNL A   1      41.779  28.454  31.467  1.00  0.00     0.049 A 
ATOM     57  C   UNL A   1      41.264  31.775  35.970  1.00  0.00     0.074 A 
ATOM     58  C   UNL A   1      42.809  27.529  31.499  1.00  0.00     0.029 A 
ATOM     59  N   UNL A   1      41.819  29.132  32.680  1.00  0.00    -0.354 N 
ATOM     60  N   UNL A   1      41.496  30.922  34.999  1.00  0.00    -0.248 NA
ATOM     61  C   UNL A   1      42.128  31.601  37.145  1.00  0.00     0.031 C 
ATOM     62  C   UNL A   1      43.428  27.606  32.752  1.00  0.00     0.029 A 
ATOM     63  C   UNL A   1      42.834  28.627  33.477  1.00  0.00     0.049 A 
ATOM     64  H   UNL A   1      41.215  29.866  32.936  1.00  0.00     0.167 HD
ATOM     65  C   UNL A   1      42.551  30.127  35.436  1.00  0.00     0.074 A 
ATOM     66  C   UNL A   1      42.911  30.603  36.757  1.00  0.00     0.031 C 
ATOM     67  C   UNL A   1      43.174  29.105  34.797  1.00  0.00     0.034 A 
BRANCH  54  68
ATOM     68  C   UNL A   1      40.811  27.801  29.202  1.00  0.00     0.023 A 
ATOM     69  C   UNL A   1      41.751  27.949  28.166  1.00  0.00     0.031 A 
ATOM     70  C   UNL A   1      39.811  26.825  29.045  1.00  0.00     0.131 A 
ATOM     71  C   UNL A   1      41.606  27.217  26.978  1.00  0.00     0.055 A 
ATOM     72  C   UNL A   1      39.731  26.031  27.898  1.00  0.00     0.041 A 
ATOM     73  F   UNL A   1      38.875  26.646  29.990  1.00  0.00    -0.206 F 
ATOM     74  C   UNL A   1      40.617  26.240  26.846  1.00  0.00     0.022 A 
BRANCH  71  75
ATOM     75  S   UNL A   1      42.608  27.697  25.544  1.00  0.00     0.124 S 
ATOM     76  O   UNL A   1      43.898  27.984  26.168  1.00  0.00    -0.237 OA
ATOM     77  O   UNL A   1      42.555  26.502  24.709  1.00  0.00    -0.237 OA
ATOM     78  O   UNL A   1      41.909  28.864  25.012  1.00  0.00    -0.744 OA
ENDBRANCH  71  75
ENDBRANCH  54  68
BRANCH  55  79
ATOM     79  C   UNL A   1      40.044  33.675  37.273  1.00  0.00     0.023 A 
ATOM     80  C   UNL A   1      39.326  33.156  38.359  1.00  0.00     0.031 A 
ATOM     81  C   UNL A   1      40.584  34.970  37.392  1.00  0.00     0.131 A 
ATOM     82  C   UNL A   1      39.141  33.938  39.511  1.00  0.00     0.055 A 
ATOM     83  C   UNL A   1      40.432  35.727  38.554  1.00  0.00     0.041 A 
ATOM     84  F   UNL A   1      41.292  35.504  36.384  1.00  0.00    -0.206 F 
ATOM     85  C   UNL A   1      39.700  35.214  39.620  1.00  0.00     0.022 A 
BRANCH  82  86
ATOM     86  S   UNL A   1      38.125  33.276  40.859  1.00  0.00     0.124 S 
ATOM     87  O   UNL A   1      38.802  32.019  41.152  1.00  0.00    -0.237 OA
ATOM     88  O   UNL A   1      38.244  34.322  41.870  1.00  0.00    -0.237 OA
ATOM     89  O   UNL A   1      36.801  33.147  40.255  1.00  0.00    -0.744 OA
ENDBRANCH  82  86
ENDBRANCH  55  79
BRANCH  67  90
ATOM     90  C   UNL A   1      44.345  28.465  35.497  1.00  0.00     0.023 A 
ATOM     91  C   UNL A   1      44.174  27.478  36.482  1.00  0.00     0.031 A 
ATOM     92  C   UNL A   1      45.657  28.835  35.146  1.00  0.00     0.131 A 
ATOM     93  C   UNL A   1      45.298  26.915  37.106  1.00  0.00     0.055 A 
ATOM     94  C   UNL A   1      46.771  28.239  35.738  1.00  0.00     0.041 A 
ATOM     95  F   UNL A   1      45.874  29.774  34.212  1.00  0.00    -0.206 F 
ATOM     96  C   UNL A   1      46.595  27.277  36.728  1.00  0.00     0.022 A 
BRANCH  93  97
ATOM     97  S   UNL A   1      45.049  25.728  38.456  1.00  0.00     0.124 S 
ATOM     98  O   UNL A   1      46.379  25.668  39.053  1.00  0.00    -0.237 OA
ATOM     99  O   UNL A   1      44.018  26.379  39.259  1.00  0.00    -0.237 OA
ATOM    100  O   UNL A   1      44.621  24.511  37.769  1.00  0.00    -0.744 OA
ENDBRANCH  93  97
ENDBRANCH  67  90
ENDBRANCH  41  42
ENDBRANCH  33  36
ENDBRANCH  31  32
ENDBRANCH  30  31
ENDBRANCH   1  30
TORSDOF 17
ENDMDL
MODEL 2
REMARK VINA RESULT:     -12.6      6.426     12.069
REMARK SMILES C[C@@H](C(=O)NCCCNC(=O)c1ccc(-c2c3nc(c(-c4cc(S(=O)(=O)[O-])ccc4F)c4ccc([nH]4)c(-c4cc(S(=O)(=O)[O-])ccc4F)c4nc(c(-c5cc(S(=O)(=O)[O-])ccc5F)c5ccc2[nH]5)C=C4)C=C3)cc1)n1ccc(C(=O)N2CC[NH+](Cc3cccc(F)c3)CC2)n1
REMARK SMILES IDX 6 1 5 2 3 3 4 4 2 6 1 7 75 8 76 9 95 10 77 11 78 12 79 13
REMARK SMILES IDX 80 14 81 15 82 16 94 17 83 18 93 19 84 20 85 22 86 23 87 24
REMARK SMILES IDX 92 25 88 26 90 27 89 28 91 29 7 30 8 31 9 32 10 33 11 35
REMARK SMILES IDX 12 36 13 37 74 38 14 39 73 40 15 41 16 42 17 43 67 44 18 45
REMARK SMILES IDX 72 46 66 47 68 48 19 49 71 50 65 51 64 52 20 54 52 55 32 56
REMARK SMILES IDX 51 57 33 58 36 59 50 60 69 61 34 62 35 63 49 65 70 66 37 67
REMARK SMILES IDX 21 68 22 69 30 70 23 71 29 72 31 73 28 74 24 75 25 76 26 77
REMARK SMILES IDX 27 78 53 79 54 80 62 81 55 82 61 83 63 84 60 85 56 86 57 87
REMARK SMILES IDX 58 88 59 89 38 90 39 91 47 92 40 93 46 94 48 95 45 96 41 97
REMARK SMILES IDX 42 98 43 99 44 100
REMARK H PARENT 5 5 84 21 9 34 68 53 36 64
REMARK Flexibility Score: inf
ROOT
ATOM      1  C   UNL A   1      37.450  20.735  24.635  1.00  0.00     0.117 C 
ENDROOT
BRANCH   1   2
ATOM      2  N   UNL A   1      36.630  21.192  25.738  1.00  0.00    -0.354 N 
ATOM      3  C   UNL A   1      35.367  21.709  25.763  1.00  0.00     0.244 C 
ATOM      4  O   UNL A   1      34.902  21.870  26.893  1.00  0.00    -0.273 OA
ATOM      5  H   UNL A   1      37.058  21.115  26.621  1.00  0.00     0.163 HD
BRANCH   3   6
ATOM      6  C   UNL A   1      34.606  21.982  24.452  1.00  0.00     0.193 C 
ATOM      7  C   UNL A   1      35.342  22.920  23.500  1.00  0.00     0.044 C 
BRANCH   6   8
ATOM      8  N   UNL A   1      33.270  22.525  24.715  1.00  0.00    -0.260 N 
ATOM      9  C   UNL A   1      32.119  21.828  24.947  1.00  0.00     0.110 A 
ATOM     10  N   UNL A   1      33.067  23.846  24.646  1.00  0.00    -0.167 NA
ATOM     11  C   UNL A   1      31.177  22.780  25.270  1.00  0.00     0.056 A 
ATOM     12  C   UNL A   1      31.846  24.033  25.170  1.00  0.00     0.150 A 
BRANCH  12  13
ATOM     13  C   UNL A   1      31.350  25.332  25.666  1.00  0.00     0.274 C 
ATOM     14  O   UNL A   1      31.214  25.503  26.883  1.00  0.00    -0.267 OA
ATOM     15  N   UNL A   1      31.138  26.391  24.765  1.00  0.00    -0.326 N 
ATOM     16  C   UNL A   1      31.019  27.716  25.357  1.00  0.00     0.181 C 
ATOM     17  C   UNL A   1      30.542  26.195  23.438  1.00  0.00     0.181 C 
ATOM     18  C   UNL A   1      31.066  28.887  24.361  1.00  0.00     0.284 C 
ATOM     19  C   UNL A   1      30.616  27.420  22.508  1.00  0.00     0.284 C 
ATOM     20  N   UNL A   1      30.310  28.718  23.117  1.00  0.00    -0.328 N 
ATOM     21  H   UNL A   1      30.651  29.435  22.478  1.00  0.00     0.348 HD
BRANCH  20  22
ATOM     22  C   UNL A   1      28.899  29.110  23.139  1.00  0.00     0.299 C 
BRANCH  22  23
ATOM     23  C   UNL A   1      28.535  30.460  22.567  1.00  0.00     0.009 A 
ATOM     24  C   UNL A   1      28.659  31.627  23.340  1.00  0.00     0.010 A 
ATOM     25  C   UNL A   1      28.098  30.579  21.241  1.00  0.00     0.048 A 
ATOM     26  C   UNL A   1      28.438  32.885  22.774  1.00  0.00     0.004 A 
ATOM     27  C   UNL A   1      27.893  31.837  20.683  1.00  0.00     0.123 A 
ATOM     28  C   UNL A   1      28.073  32.992  21.434  1.00  0.00     0.039 A 
ATOM     29  F   UNL A   1      27.542  31.934  19.394  1.00  0.00    -0.207 F 
ENDBRANCH  22  23
ENDBRANCH  20  22
ENDBRANCH  12  13
ENDBRANCH   6   8
ENDBRANCH   3   6
ENDBRANCH   1   2
BRANCH   1  30
ATOM     30  C   UNL A   1      38.267  19.500  24.995  1.00  0.00     0.042 C 
BRANCH  30  31
ATOM     31  C   UNL A   1      39.273  19.717  26.122  1.00  0.00     0.118 C 
BRANCH  31  32
ATOM     32  N   UNL A   1      40.519  18.995  25.912  1.00  0.00    -0.352 N 
ATOM     33  C   UNL A   1      41.811  19.462  25.901  1.00  0.00     0.251 C 
ATOM     34  H   UNL A   1      40.422  18.028  25.754  1.00  0.00     0.163 HD
ATOM     35  O   UNL A   1      42.717  18.725  25.510  1.00  0.00    -0.269 OA
BRANCH  33  36
ATOM     36  C   UNL A   1      42.109  20.847  26.325  1.00  0.00     0.039 A 
ATOM     37  C   UNL A   1      42.287  21.121  27.685  1.00  0.00     0.014 A 
ATOM     38  C   UNL A   1      42.210  21.876  25.385  1.00  0.00     0.014 A 
ATOM     39  C   UNL A   1      42.646  22.408  28.094  1.00  0.00     0.010 A 
ATOM     40  C   UNL A   1      42.638  23.138  25.786  1.00  0.00     0.010 A 
ATOM     41  C   UNL A   1      42.865  23.417  27.144  1.00  0.00    -0.014 A 
BRANCH  41  42
ATOM     42  C   UNL A   1      43.324  24.778  27.528  1.00  0.00     0.031 A 
ATOM     43  C   UNL A   1      42.361  25.731  28.178  1.00  0.00     0.074 A 
ATOM     44  C   UNL A   1      44.559  25.193  27.184  1.00  0.00     0.049 A 
ATOM     45  N   UNL A   1      42.488  27.012  28.411  1.00  0.00    -0.248 NA
ATOM     46  C   UNL A   1      41.065  25.168  28.581  1.00  0.00     0.031 C 
ATOM     47  C   UNL A   1      45.571  24.373  26.516  1.00  0.00     0.029 A 
ATOM     48  N   UNL A   1      45.158  26.422  27.316  1.00  0.00    -0.354 N 
ATOM     49  C   UNL A   1      41.275  27.417  28.960  1.00  0.00     0.074 A 
ATOM     50  C   UNL A   1      40.413  26.252  28.970  1.00  0.00     0.031 C 
ATOM     51  C   UNL A   1      46.660  25.123  26.285  1.00  0.00     0.029 A 
ATOM     52  C   UNL A   1      46.407  26.487  26.742  1.00  0.00     0.049 A 
ATOM     53  H   UNL A   1      44.736  27.182  27.776  1.00  0.00     0.167 HD
ATOM     54  C   UNL A   1      40.921  28.642  29.427  1.00  0.00     0.034 A 
ATOM     55  C   UNL A   1      47.241  27.532  26.570  1.00  0.00     0.034 A 
ATOM     56  C   UNL A   1      41.801  29.784  29.418  1.00  0.00     0.049 A 
ATOM     57  C   UNL A   1      46.830  28.888  27.079  1.00  0.00     0.074 A 
ATOM     58  C   UNL A   1      41.575  31.053  29.925  1.00  0.00     0.029 A 
ATOM     59  N   UNL A   1      43.077  29.801  28.865  1.00  0.00    -0.354 N 
ATOM     60  N   UNL A   1      45.698  29.249  27.638  1.00  0.00    -0.248 NA
ATOM     61  C   UNL A   1      47.810  29.975  26.943  1.00  0.00     0.031 C 
ATOM     62  C   UNL A   1      42.686  31.850  29.623  1.00  0.00     0.029 A 
ATOM     63  C   UNL A   1      43.636  31.063  28.992  1.00  0.00     0.049 A 
ATOM     64  H   UNL A   1      43.519  29.028  28.446  1.00  0.00     0.167 HD
ATOM     65  C   UNL A   1      45.841  30.599  27.945  1.00  0.00     0.074 A 
ATOM     66  C   UNL A   1      47.167  30.988  27.510  1.00  0.00     0.031 C 
ATOM     67  C   UNL A   1      44.957  31.437  28.544  1.00  0.00     0.034 A 
BRANCH  54  68
ATOM     68  C   UNL A   1      39.511  28.799  29.945  1.00  0.00     0.023 A 
ATOM     69  C   UNL A   1      38.461  29.222  29.109  1.00  0.00     0.031 A 
ATOM     70  C   UNL A   1      39.220  28.587  31.304  1.00  0.00     0.131 A 
ATOM     71  C   UNL A   1      37.206  29.524  29.658  1.00  0.00     0.055 A 
ATOM     72  C   UNL A   1      37.942  28.798  31.826  1.00  0.00     0.041 A 
ATOM     73  F   UNL A   1      40.182  28.200  32.157  1.00  0.00    -0.206 F 
ATOM     74  C   UNL A   1      36.931  29.292  31.007  1.00  0.00     0.022 A 
BRANCH  71  75
ATOM     75  S   UNL A   1      36.004  30.404  28.622  1.00  0.00     0.124 S 
ATOM     76  O   UNL A   1      35.355  31.276  29.599  1.00  0.00    -0.237 OA
ATOM     77  O   UNL A   1      36.859  31.068  27.644  1.00  0.00    -0.237 OA
ATOM     78  O   UNL A   1      35.159  29.336  28.093  1.00  0.00    -0.744 OA
ENDBRANCH  71  75
ENDBRANCH  54  68
BRANCH  55  79
ATOM     79  C   UNL A   1      48.529  27.339  25.849  1.00  0.00     0.023 A 
ATOM     80  C   UNL A   1      48.608  27.458  24.454  1.00  0.00     0.031 A 
ATOM     81  C   UNL A   1      49.708  27.041  26.558  1.00  0.00     0.131 A 
ATOM     82  C   UNL A   1      49.835  27.254  23.805  1.00  0.00     0.055 A 
ATOM     83  C   UNL A   1      50.934  26.878  25.911  1.00  0.00     0.041 A 
ATOM     84  F   UNL A   1      49.686  26.931  27.895  1.00  0.00    -0.206 F 
ATOM     85  C   UNL A   1      51.001  26.978  24.525  1.00  0.00     0.022 A 
BRANCH  82  86
ATOM     86  S   UNL A   1      49.884  27.319  21.993  1.00  0.00     0.124 S 
ATOM     87  O   UNL A   1      49.345  28.648  21.730  1.00  0.00    -0.237 OA
ATOM     88  O   UNL A   1      51.306  27.135  21.722  1.00  0.00    -0.237 OA
ATOM     89  O   UNL A   1      49.027  26.206  21.590  1.00  0.00    -0.744 OA
ENDBRANCH  82  86
ENDBRANCH  55  79
BRANCH  67  90
ATOM     90  C   UNL A   1      45.417  32.847  28.812  1.00  0.00     0.023 A 
ATOM     91  C   UNL A   1      45.206  33.887  27.890  1.00  0.00     0.031 A 
ATOM     92  C   UNL A   1      46.054  33.155  30.029  1.00  0.00     0.131 A 
ATOM     93  C   UNL A   1      45.657  35.182  28.187  1.00  0.00     0.055 A 
ATOM     94  C   UNL A   1      46.459  34.454  30.337  1.00  0.00     0.041 A 
ATOM     95  F   UNL A   1      46.280  32.198  30.942  1.00  0.00    -0.206 F 
ATOM     96  C   UNL A   1      46.266  35.475  29.411  1.00  0.00     0.022 A 
BRANCH  93  97
ATOM     97  S   UNL A   1      45.477  36.481  26.933  1.00  0.00     0.124 S 
ATOM     98  O   UNL A   1      44.029  36.651  26.880  1.00  0.00    -0.237 OA
ATOM     99  O   UNL A   1      46.228  37.588  27.518  1.00  0.00    -0.237 OA
ATOM    100  O   UNL A   1      46.077  35.891  25.738  1.00  0.00    -0.744 OA
ENDBRANCH  93  97
ENDBRANCH  67  90
ENDBRANCH  41  42
ENDBRANCH  33  36
ENDBRANCH  31  32
ENDBRANCH  30  31
ENDBRANCH   1  30
TORSDOF 17
ENDMDL
MODEL 3
REMARK VINA RESULT:     -12.5      6.132     11.980
REMARK SMILES C[C@@H](C(=O)NCCCNC(=O)c1ccc(-c2c3nc(c(-c4cc(S(=O)(=O)[O-])ccc4F)c4ccc([nH]4)c(-c4cc(S(=O)(=O)[O-])ccc4F)c4nc(c(-c5cc(S(=O)(=O)[O-])ccc5F)c5ccc2[nH]5)C=C4)C=C3)cc1)n1ccc(C(=O)N2CC[NH+](Cc3cccc(F)c3)CC2)n1
REMARK SMILES IDX 6 1 5 2 3 3 4 4 2 6 1 7 75 8 76 9 95 10 77 11 78 12 79 13
REMARK SMILES IDX 80 14 81 15 82 16 94 17 83 18 93 19 84 20 85 22 86 23 87 24
REMARK SMILES IDX 92 25 88 26 90 27 89 28 91 29 7 30 8 31 9 32 10 33 11 35
REMARK SMILES IDX 12 36 13 37 74 38 14 39 73 40 15 41 16 42 17 43 67 44 18 45
REMARK SMILES IDX 72 46 66 47 68 48 19 49 71 50 65 51 64 52 20 54 52 55 32 56
REMARK SMILES IDX 51 57 33 58 36 59 50 60 69 61 34 62 35 63 49 65 70 66 37 67
REMARK SMILES IDX 21 68 22 69 30 70 23 71 29 72 31 73 28 74 24 75 25 76 26 77
REMARK SMILES IDX 27 78 53 79 54 80 62 81 55 82 61 83 63 84 60 85 56 86 57 87
REMARK SMILES IDX 58 88 59 89 38 90 39 91 47 92 40 93 46 94 48 95 45 96 41 97
REMARK SMILES IDX 42 98 43 99 44 100
REMARK H PARENT 5 5 84 21 9 34 68 53 36 64
REMARK Flexibility Score: inf
ROOT
ATOM      1  C   UNL A   1      37.764  21.082  24.794  1.00  0.00     0.117 C 
ENDROOT
BRANCH   1   2
ATOM      2  N   UNL A   1      36.850  21.394  25.872  1.00  0.00    -0.354 N 
ATOM      3  C   UNL A   1      35.531  21.746  25.856  1.00  0.00     0.244 C 
ATOM      4  O   UNL A   1      35.005  21.809  26.969  1.00  0.00    -0.273 OA
ATOM      5  H   UNL A   1      37.248  21.343  26.770  1.00  0.00     0.163 HD
BRANCH   3   6
ATOM      6  C   UNL A   1      34.794  21.963  24.522  1.00  0.00     0.193 C 
ATOM      7  C   UNL A   1      35.519  22.909  23.568  1.00  0.00     0.044 C 
BRANCH   6   8
ATOM      8  N   UNL A   1      33.432  22.460  24.739  1.00  0.00    -0.260 N 
ATOM      9  C   UNL A   1      32.293  21.725  24.899  1.00  0.00     0.110 A 
ATOM     10  N   UNL A   1      33.194  23.777  24.701  1.00  0.00    -0.167 NA
ATOM     11  C   UNL A   1      31.310  22.639  25.207  1.00  0.00     0.056 A 
ATOM     12  C   UNL A   1      31.946  23.913  25.174  1.00  0.00     0.150 A 
BRANCH  12  13
ATOM     13  C   UNL A   1      31.390  25.182  25.685  1.00  0.00     0.274 C 
ATOM     14  O   UNL A   1      31.136  25.289  26.890  1.00  0.00    -0.267 OA
ATOM     15  N   UNL A   1      31.255  26.284  24.823  1.00  0.00    -0.326 N 
ATOM     16  C   UNL A   1      31.065  27.577  25.468  1.00  0.00     0.181 C 
ATOM     17  C   UNL A   1      30.791  26.154  23.437  1.00  0.00     0.181 C 
ATOM     18  C   UNL A   1      31.195  28.798  24.542  1.00  0.00     0.284 C 
ATOM     19  C   UNL A   1      30.942  27.426  22.581  1.00  0.00     0.284 C 
ATOM     20  N   UNL A   1      30.564  28.689  23.223  1.00  0.00    -0.328 N 
ATOM     21  H   UNL A   1      30.957  29.440  22.658  1.00  0.00     0.348 HD
BRANCH  20  22
ATOM     22  C   UNL A   1      29.154  29.071  23.129  1.00  0.00     0.299 C 
BRANCH  22  23
ATOM     23  C   UNL A   1      28.825  30.391  22.472  1.00  0.00     0.009 A 
ATOM     24  C   UNL A   1      28.260  30.435  21.186  1.00  0.00     0.010 A 
ATOM     25  C   UNL A   1      29.047  31.599  23.146  1.00  0.00     0.048 A 
ATOM     26  C   UNL A   1      27.845  31.648  20.629  1.00  0.00     0.004 A 
ATOM     27  C   UNL A   1      28.619  32.800  22.589  1.00  0.00     0.123 A 
ATOM     28  C   UNL A   1      28.007  32.833  21.342  1.00  0.00     0.039 A 
ATOM     29  F   UNL A   1      28.777  33.937  23.278  1.00  0.00    -0.207 F 
ENDBRANCH  22  23
ENDBRANCH  20  22
ENDBRANCH  12  13
ENDBRANCH   6   8
ENDBRANCH   3   6
ENDBRANCH   1   2
BRANCH   1  30
ATOM     30  C   UNL A   1      38.576  19.821  25.071  1.00  0.00     0.042 C 
BRANCH  30  31
ATOM     31  C   UNL A   1      39.595  19.963  26.198  1.00  0.00     0.118 C 
BRANCH  31  32
ATOM     32  N   UNL A   1      40.808  19.195  25.960  1.00  0.00    -0.352 N 
ATOM     33  C   UNL A   1      42.114  19.618  25.894  1.00  0.00     0.251 C 
ATOM     34  H   UNL A   1      40.674  18.229  25.826  1.00  0.00     0.163 HD
ATOM     35  O   UNL A   1      42.980  18.842  25.488  1.00  0.00    -0.269 OA
BRANCH  33  36
ATOM     36  C   UNL A   1      42.472  21.000  26.278  1.00  0.00     0.039 A 
ATOM     37  C   UNL A   1      42.641  21.311  27.631  1.00  0.00     0.014 A 
ATOM     38  C   UNL A   1      42.640  21.990  25.307  1.00  0.00     0.014 A 
ATOM     39  C   UNL A   1      43.056  22.592  28.004  1.00  0.00     0.010 A 
ATOM     40  C   UNL A   1      43.123  23.243  25.674  1.00  0.00     0.010 A 
ATOM     41  C   UNL A   1      43.340  23.557  27.025  1.00  0.00    -0.014 A 
BRANCH  41  42
ATOM     42  C   UNL A   1      43.859  24.906  27.372  1.00  0.00     0.031 A 
ATOM     43  C   UNL A   1      42.922  25.943  27.924  1.00  0.00     0.074 A 
ATOM     44  C   UNL A   1      45.133  25.232  27.080  1.00  0.00     0.049 A 
ATOM     45  N   UNL A   1      43.113  27.224  28.105  1.00  0.00    -0.248 NA
ATOM     46  C   UNL A   1      41.575  25.476  28.279  1.00  0.00     0.031 C 
ATOM     47  C   UNL A   1      46.128  24.324  26.507  1.00  0.00     0.029 A 
ATOM     48  N   UNL A   1      45.798  26.429  27.189  1.00  0.00    -0.354 N 
ATOM     49  C   UNL A   1      41.899  27.725  28.568  1.00  0.00     0.074 A 
ATOM     50  C   UNL A   1      40.970  26.613  28.582  1.00  0.00     0.031 C 
ATOM     51  C   UNL A   1      47.272  24.998  26.304  1.00  0.00     0.029 A 
ATOM     52  C   UNL A   1      47.077  26.395  26.684  1.00  0.00     0.049 A 
ATOM     53  H   UNL A   1      45.398  27.234  27.590  1.00  0.00     0.167 HD
ATOM     54  C   UNL A   1      41.596  28.989  28.958  1.00  0.00     0.034 A 
ATOM     55  C   UNL A   1      47.980  27.381  26.511  1.00  0.00     0.034 A 
ATOM     56  C   UNL A   1      42.542  30.077  28.947  1.00  0.00     0.049 A 
ATOM     57  C   UNL A   1      47.625  28.781  26.935  1.00  0.00     0.074 A 
ATOM     58  C   UNL A   1      42.367  31.380  29.383  1.00  0.00     0.029 A 
ATOM     59  N   UNL A   1      43.844  29.993  28.466  1.00  0.00    -0.354 N 
ATOM     60  N   UNL A   1      46.489  29.233  27.413  1.00  0.00    -0.248 NA
ATOM     61  C   UNL A   1      48.674  29.801  26.806  1.00  0.00     0.031 C 
ATOM     62  C   UNL A   1      43.538  32.096  29.108  1.00  0.00     0.029 A 
ATOM     63  C   UNL A   1      44.471  31.226  28.567  1.00  0.00     0.049 A 
ATOM     64  H   UNL A   1      44.261  29.177  28.107  1.00  0.00     0.167 HD
ATOM     65  C   UNL A   1      46.696  30.586  27.666  1.00  0.00     0.074 A 
ATOM     66  C   UNL A   1      48.065  30.876  27.289  1.00  0.00     0.031 C 
ATOM     67  C   UNL A   1      45.834  31.501  28.176  1.00  0.00     0.034 A 
BRANCH  54  68
ATOM     68  C   UNL A   1      40.172  29.252  29.389  1.00  0.00     0.023 A 
ATOM     69  C   UNL A   1      39.793  29.216  30.743  1.00  0.00     0.031 A 
ATOM     70  C   UNL A   1      39.166  29.479  28.433  1.00  0.00     0.131 A 
ATOM     71  C   UNL A   1      38.437  29.292  31.094  1.00  0.00     0.055 A 
ATOM     72  C   UNL A   1      37.828  29.650  28.798  1.00  0.00     0.041 A 
ATOM     73  F   UNL A   1      39.460  29.508  27.124  1.00  0.00    -0.206 F 
ATOM     74  C   UNL A   1      37.453  29.534  30.133  1.00  0.00     0.022 A 
BRANCH  71  75
ATOM     75  S   UNL A   1      37.964  28.879  32.796  1.00  0.00     0.124 S 
ATOM     76  O   UNL A   1      38.993  29.575  33.566  1.00  0.00    -0.237 OA
ATOM     77  O   UNL A   1      36.616  29.428  32.890  1.00  0.00    -0.237 OA
ATOM     78  O   UNL A   1      38.050  27.421  32.832  1.00  0.00    -0.744 OA
ENDBRANCH  71  75
ENDBRANCH  54  68
BRANCH  55  79
ATOM     79  C   UNL A   1      49.291  27.079  25.873  1.00  0.00     0.023 A 
ATOM     80  C   UNL A   1      50.415  26.748  26.643  1.00  0.00     0.031 A 
ATOM     81  C   UNL A   1      49.430  27.109  24.473  1.00  0.00     0.131 A 
ATOM     82  C   UNL A   1      51.641  26.485  26.010  1.00  0.00     0.055 A 
ATOM     83  C   UNL A   1      50.640  26.807  23.847  1.00  0.00     0.041 A 
ATOM     84  F   UNL A   1      48.379  27.406  23.693  1.00  0.00    -0.206 F 
ATOM     85  C   UNL A   1      51.757  26.499  24.617  1.00  0.00     0.022 A 
BRANCH  82  86
ATOM     86  S   UNL A   1      53.098  26.156  27.038  1.00  0.00     0.124 S 
ATOM     87  O   UNL A   1      52.515  26.103  28.372  1.00  0.00    -0.237 OA
ATOM     88  O   UNL A   1      53.573  24.888  26.492  1.00  0.00    -0.237 OA
ATOM     89  O   UNL A   1      53.963  27.305  26.778  1.00  0.00    -0.744 OA
ENDBRANCH  82  86
ENDBRANCH  55  79
BRANCH  67  90
ATOM     90  C   UNL A   1      46.363  32.894  28.406  1.00  0.00     0.023 A 
ATOM     91  C   UNL A   1      46.973  33.268  29.615  1.00  0.00     0.031 A 
ATOM     92  C   UNL A   1      46.275  33.853  27.380  1.00  0.00     0.131 A 
ATOM     93  C   UNL A   1      47.447  34.578  29.780  1.00  0.00     0.055 A 
ATOM     94  C   UNL A   1      46.789  35.141  27.534  1.00  0.00     0.041 A 
ATOM     95  F   UNL A   1      45.699  33.547  26.207  1.00  0.00    -0.206 F 
ATOM     96  C   UNL A   1      47.373  35.512  28.741  1.00  0.00     0.022 A 
BRANCH  93  97
ATOM     97  S   UNL A   1      48.126  35.069  31.390  1.00  0.00     0.124 S 
ATOM     98  O   UNL A   1      46.916  35.231  32.190  1.00  0.00    -0.237 OA
ATOM     99  O   UNL A   1      48.971  33.930  31.734  1.00  0.00    -0.237 OA
ATOM    100  O   UNL A   1      48.846  36.307  31.096  1.00  0.00    -0.744 OA
ENDBRANCH  93  97
ENDBRANCH  67  90
ENDBRANCH  41  42
ENDBRANCH  33  36
ENDBRANCH  31  32
ENDBRANCH  30  31
ENDBRANCH   1  30
TORSDOF 17
ENDMDL
