MODEL 1
REMARK VINA RESULT:     -12.0      0.000      0.000
REMARK SMILES CCC(CC)(NC(=O)Nc1cc(Cl)cc(Cl)c1)C(=O)NCCCNC(=O)c1ccc(-c2c3nc(c(-c4cc(S(=O)(=O)[O-])ccc4F)c4ccc([nH]4)c(-c4cc(S(=O)(=O)[O-])ccc4F)c4nc(c(-c5cc(S(=O)(=O)[O-])ccc5F)c5ccc2[nH]5)C=C4)C=C3)cc1
REMARK SMILES IDX 22 1 21 2 20 3 18 4 19 5 3 7 2 8 1 9 4 10 5 11 6 12 7 13
REMARK SMILES IDX 8 15 9 16 10 18 11 19 17 20 12 21 15 22 13 23 14 24 16 25
REMARK SMILES IDX 23 26 24 27 25 28 26 30 27 31 28 32 89 33 29 34 88 35 30 36
REMARK SMILES IDX 31 37 32 38 82 39 33 40 87 41 81 42 83 43 34 44 86 45 80 46
REMARK SMILES IDX 79 47 35 49 67 50 47 51 66 52 48 53 51 54 65 55 84 56 49 57
REMARK SMILES IDX 50 58 64 60 85 61 52 62 36 63 37 64 45 65 38 66 44 67 46 68
REMARK SMILES IDX 43 69 39 70 40 71 41 72 42 73 68 74 69 75 77 76 70 77 76 78
REMARK SMILES IDX 78 79 75 80 71 81 72 82 73 83 74 84 53 85 54 86 62 87 55 88
REMARK SMILES IDX 61 89 63 90 60 91 56 92 57 93 58 94 59 95
REMARK H PARENT 20 6 6 14 9 17 24 29 83 48 51 59
REMARK Flexibility Score: inf
ROOT
ATOM      1  C   UNL A   1      31.911  29.544  25.071  1.00  0.00     0.042 C 
ENDROOT
BRANCH   1   2
ATOM      2  C   UNL A   1      32.627  28.284  24.547  1.00  0.00     0.117 C 
BRANCH   2   3
ATOM      3  N   UNL A   1      31.669  27.280  24.110  1.00  0.00    -0.354 N 
ATOM      4  C   UNL A   1      30.904  26.367  24.833  1.00  0.00     0.245 C 
ATOM      5  O   UNL A   1      29.711  26.537  25.057  1.00  0.00    -0.272 OA
ATOM      6  H   UNL A   1      31.538  27.239  23.135  1.00  0.00     0.163 HD
BRANCH   4   7
ATOM      7  C   UNL A   1      31.734  25.196  25.423  1.00  0.00     0.120 C 
BRANCH   7   8
ATOM      8  C   UNL A   1      33.117  25.377  26.081  1.00  0.00     0.035 C 
ATOM      9  C   UNL A   1      34.355  25.172  25.238  1.00  0.00     0.007 C 
ENDBRANCH   7   8
BRANCH   7  10
ATOM     10  C   UNL A   1      31.858  24.371  24.077  1.00  0.00     0.035 C 
ATOM     11  C   UNL A   1      30.663  23.813  23.332  1.00  0.00     0.007 C 
ENDBRANCH   7  10
BRANCH   7  12
ATOM     12  N   UNL A   1      30.857  24.623  26.484  1.00  0.00    -0.323 N 
ATOM     13  C   UNL A   1      30.560  23.362  26.870  1.00  0.00     0.320 C 
ATOM     14  H   UNL A   1      30.396  25.310  27.018  1.00  0.00     0.166 HD
ATOM     15  O   UNL A   1      29.557  23.251  27.585  1.00  0.00    -0.248 OA
ATOM     16  N   UNL A   1      31.187  22.207  26.553  1.00  0.00    -0.308 N 
ATOM     17  H   UNL A   1      30.593  21.468  26.817  1.00  0.00     0.171 HD
BRANCH  16  18
ATOM     18  C   UNL A   1      32.361  21.628  25.988  1.00  0.00     0.045 A 
ATOM     19  C   UNL A   1      33.700  21.910  26.266  1.00  0.00     0.046 A 
ATOM     20  C   UNL A   1      32.155  20.516  25.161  1.00  0.00     0.046 A 
ATOM     21  C   UNL A   1      34.761  21.338  25.549  1.00  0.00     0.044 A 
ATOM     22  C   UNL A   1      33.217  19.892  24.484  1.00  0.00     0.044 A 
ATOM     23  Cl  UNL A   1      36.380  21.852  25.849  1.00  0.00    -0.084 Cl
ATOM     24  C   UNL A   1      34.521  20.343  24.624  1.00  0.00     0.041 A 
ATOM     25  Cl  UNL A   1      32.904  18.543  23.464  1.00  0.00    -0.084 Cl
ENDBRANCH  16  18
ENDBRANCH   7  12
ENDBRANCH   4   7
ENDBRANCH   2   3
ENDBRANCH   1   2
BRANCH   1  26
ATOM     26  C   UNL A   1      32.245  29.982  26.499  1.00  0.00     0.118 C 
BRANCH  26  27
ATOM     27  N   UNL A   1      32.161  31.415  26.691  1.00  0.00    -0.352 N 
ATOM     28  C   UNL A   1      33.024  32.263  27.352  1.00  0.00     0.251 C 
ATOM     29  H   UNL A   1      31.373  31.846  26.291  1.00  0.00     0.163 HD
ATOM     30  O   UNL A   1      32.711  33.425  27.538  1.00  0.00    -0.269 OA
BRANCH  28  31
ATOM     31  C   UNL A   1      34.308  31.741  27.877  1.00  0.00     0.039 A 
ATOM     32  C   UNL A   1      35.378  32.629  28.010  1.00  0.00     0.014 A 
ATOM     33  C   UNL A   1      34.460  30.399  28.242  1.00  0.00     0.014 A 
ATOM     34  C   UNL A   1      36.574  32.192  28.584  1.00  0.00     0.010 A 
ATOM     35  C   UNL A   1      35.637  29.981  28.869  1.00  0.00     0.010 A 
ATOM     36  C   UNL A   1      36.700  30.877  29.064  1.00  0.00    -0.014 A 
BRANCH  36  37
ATOM     37  C   UNL A   1      37.914  30.452  29.816  1.00  0.00     0.031 A 
ATOM     38  C   UNL A   1      38.885  29.471  29.218  1.00  0.00     0.074 A 
ATOM     39  C   UNL A   1      38.115  30.917  31.066  1.00  0.00     0.049 A 
ATOM     40  N   UNL A   1      39.958  28.941  29.752  1.00  0.00    -0.248 NA
ATOM     41  C   UNL A   1      38.604  29.013  27.851  1.00  0.00     0.031 C 
ATOM     42  C   UNL A   1      37.236  31.856  31.767  1.00  0.00     0.029 A 
ATOM     43  N   UNL A   1      39.115  30.663  31.974  1.00  0.00    -0.354 N 
ATOM     44  C   UNL A   1      40.479  28.084  28.789  1.00  0.00     0.074 A 
ATOM     45  C   UNL A   1      39.571  28.127  27.660  1.00  0.00     0.031 C 
ATOM     46  C   UNL A   1      37.745  32.112  32.982  1.00  0.00     0.029 A 
ATOM     47  C   UNL A   1      38.954  31.318  33.174  1.00  0.00     0.049 A 
ATOM     48  H   UNL A   1      39.875  30.067  31.783  1.00  0.00     0.167 HD
ATOM     49  C   UNL A   1      41.616  27.344  28.834  1.00  0.00     0.034 A 
ATOM     50  C   UNL A   1      39.680  31.270  34.309  1.00  0.00     0.034 A 
ATOM     51  C   UNL A   1      42.510  27.306  29.968  1.00  0.00     0.049 A 
ATOM     52  C   UNL A   1      40.903  30.389  34.359  1.00  0.00     0.074 A 
ATOM     53  C   UNL A   1      43.712  26.629  30.095  1.00  0.00     0.029 A 
ATOM     54  N   UNL A   1      42.297  27.958  31.177  1.00  0.00    -0.354 N 
ATOM     55  N   UNL A   1      41.408  29.622  33.420  1.00  0.00    -0.248 NA
ATOM     56  C   UNL A   1      41.657  30.371  35.619  1.00  0.00     0.031 C 
ATOM     57  C   UNL A   1      44.180  26.802  31.402  1.00  0.00     0.029 A 
ATOM     58  C   UNL A   1      43.320  27.661  32.068  1.00  0.00     0.049 A 
ATOM     59  H   UNL A   1      41.533  28.545  31.374  1.00  0.00     0.167 HD
ATOM     60  C   UNL A   1      42.554  29.053  33.970  1.00  0.00     0.074 A 
ATOM     61  C   UNL A   1      42.675  29.582  35.313  1.00  0.00     0.031 C 
ATOM     62  C   UNL A   1      43.426  28.175  33.414  1.00  0.00     0.034 A 
BRANCH  49  63
ATOM     63  C   UNL A   1      41.939  26.485  27.634  1.00  0.00     0.023 A 
ATOM     64  C   UNL A   1      41.531  25.141  27.553  1.00  0.00     0.031 A 
ATOM     65  C   UNL A   1      42.675  27.011  26.557  1.00  0.00     0.131 A 
ATOM     66  C   UNL A   1      41.923  24.353  26.461  1.00  0.00     0.055 A 
ATOM     67  C   UNL A   1      42.988  26.245  25.432  1.00  0.00     0.041 A 
ATOM     68  F   UNL A   1      43.109  28.281  26.581  1.00  0.00    -0.206 F 
ATOM     69  C   UNL A   1      42.626  24.902  25.387  1.00  0.00     0.022 A 
BRANCH  66  70
ATOM     70  S   UNL A   1      41.627  22.565  26.535  1.00  0.00     0.124 S 
ATOM     71  O   UNL A   1      40.171  22.503  26.436  1.00  0.00    -0.237 OA
ATOM     72  O   UNL A   1      42.368  22.074  25.378  1.00  0.00    -0.237 OA
ATOM     73  O   UNL A   1      42.173  22.181  27.835  1.00  0.00    -0.744 OA
ENDBRANCH  66  70
ENDBRANCH  49  63
BRANCH  50  74
ATOM     74  C   UNL A   1      39.261  32.051  35.510  1.00  0.00     0.023 A 
ATOM     75  C   UNL A   1      38.563  31.441  36.565  1.00  0.00     0.031 A 
ATOM     76  C   UNL A   1      39.507  33.433  35.596  1.00  0.00     0.131 A 
ATOM     77  C   UNL A   1      38.092  32.220  37.634  1.00  0.00     0.055 A 
ATOM     78  C   UNL A   1      39.089  34.192  36.691  1.00  0.00     0.041 A 
ATOM     79  F   UNL A   1      40.168  34.069  34.616  1.00  0.00    -0.206 F 
ATOM     80  C   UNL A   1      38.364  33.587  37.712  1.00  0.00     0.022 A 
BRANCH  77  81
ATOM     81  S   UNL A   1      37.030  31.433  38.877  1.00  0.00     0.124 S 
ATOM     82  O   UNL A   1      37.864  31.509  40.071  1.00  0.00    -0.237 OA
ATOM     83  O   UNL A   1      35.852  32.295  38.858  1.00  0.00    -0.237 OA
ATOM     84  O   UNL A   1      36.824  30.088  38.344  1.00  0.00    -0.744 OA
ENDBRANCH  77  81
ENDBRANCH  50  74
BRANCH  62  85
ATOM     85  C   UNL A   1      44.613  27.759  34.253  1.00  0.00     0.023 A 
ATOM     86  C   UNL A   1      44.575  26.620  35.077  1.00  0.00     0.031 A 
ATOM     87  C   UNL A   1      45.795  28.521  34.237  1.00  0.00     0.131 A 
ATOM     88  C   UNL A   1      45.674  26.309  35.893  1.00  0.00     0.055 A 
ATOM     89  C   UNL A   1      46.909  28.169  35.001  1.00  0.00     0.041 A 
ATOM     90  F   UNL A   1      45.889  29.622  33.475  1.00  0.00    -0.206 F 
ATOM     91  C   UNL A   1      46.847  27.065  35.845  1.00  0.00     0.022 A 
BRANCH  88  92
ATOM     92  S   UNL A   1      45.513  24.959  37.094  1.00  0.00     0.124 S 
ATOM     93  O   UNL A   1      46.075  23.831  36.358  1.00  0.00    -0.237 OA
ATOM     94  O   UNL A   1      46.304  25.444  38.219  1.00  0.00    -0.237 OA
ATOM     95  O   UNL A   1      44.073  24.885  37.336  1.00  0.00    -0.744 OA
ENDBRANCH  88  92
ENDBRANCH  62  85
ENDBRANCH  36  37
ENDBRANCH  28  31
ENDBRANCH  26  27
ENDBRANCH   1  26
TORSDOF 17
ENDMDL
MODEL 2
REMARK VINA RESULT:     -12.0      5.254      8.091
REMARK SMILES CCC(CC)(NC(=O)Nc1cc(Cl)cc(Cl)c1)C(=O)NCCCNC(=O)c1ccc(-c2c3nc(c(-c4cc(S(=O)(=O)[O-])ccc4F)c4ccc([nH]4)c(-c4cc(S(=O)(=O)[O-])ccc4F)c4nc(c(-c5cc(S(=O)(=O)[O-])ccc5F)c5ccc2[nH]5)C=C4)C=C3)cc1
REMARK SMILES IDX 22 1 21 2 20 3 18 4 19 5 3 7 2 8 1 9 4 10 5 11 6 12 7 13
REMARK SMILES IDX 8 15 9 16 10 18 11 19 17 20 12 21 15 22 13 23 14 24 16 25
REMARK SMILES IDX 23 26 24 27 25 28 26 30 27 31 28 32 89 33 29 34 88 35 30 36
REMARK SMILES IDX 31 37 32 38 82 39 33 40 87 41 81 42 83 43 34 44 86 45 80 46
REMARK SMILES IDX 79 47 35 49 67 50 47 51 66 52 48 53 51 54 65 55 84 56 49 57
REMARK SMILES IDX 50 58 64 60 85 61 52 62 36 63 37 64 45 65 38 66 44 67 46 68
REMARK SMILES IDX 43 69 39 70 40 71 41 72 42 73 68 74 69 75 77 76 70 77 76 78
REMARK SMILES IDX 78 79 75 80 71 81 72 82 73 83 74 84 53 85 54 86 62 87 55 88
REMARK SMILES IDX 61 89 63 90 60 91 56 92 57 93 58 94 59 95
REMARK H PARENT 20 6 6 14 9 17 24 29 83 48 51 59
REMARK Flexibility Score: inf
ROOT
ATOM      1  C   UNL A   1      36.897  20.553  25.068  1.00  0.00     0.042 C 
ENDROOT
BRANCH   1   2
ATOM      2  C   UNL A   1      35.807  21.613  24.812  1.00  0.00     0.117 C 
BRANCH   2   3
ATOM      3  N   UNL A   1      35.239  22.093  26.063  1.00  0.00    -0.354 N 
ATOM      4  C   UNL A   1      33.943  22.025  26.566  1.00  0.00     0.245 C 
ATOM      5  O   UNL A   1      33.609  21.216  27.425  1.00  0.00    -0.272 OA
ATOM      6  H   UNL A   1      35.883  22.544  26.656  1.00  0.00     0.163 HD
BRANCH   4   7
ATOM      7  C   UNL A   1      32.950  22.978  25.847  1.00  0.00     0.120 C 
BRANCH   7   8
ATOM      8  C   UNL A   1      32.723  22.981  24.322  1.00  0.00     0.035 C 
ATOM      9  C   UNL A   1      31.818  21.931  23.720  1.00  0.00     0.007 C 
ENDBRANCH   7   8
BRANCH   7  10
ATOM     10  C   UNL A   1      33.632  24.329  26.314  1.00  0.00     0.035 C 
ATOM     11  C   UNL A   1      34.175  25.362  25.349  1.00  0.00     0.007 C 
ENDBRANCH   7  10
BRANCH   7  12
ATOM     12  N   UNL A   1      31.626  22.650  26.449  1.00  0.00    -0.323 N 
ATOM     13  C   UNL A   1      30.588  23.398  26.887  1.00  0.00     0.320 C 
ATOM     14  H   UNL A   1      31.475  21.683  26.549  1.00  0.00     0.166 HD
ATOM     15  O   UNL A   1      29.779  22.805  27.609  1.00  0.00    -0.248 OA
ATOM     16  N   UNL A   1      30.336  24.709  26.673  1.00  0.00    -0.308 N 
ATOM     17  H   UNL A   1      29.631  24.980  27.304  1.00  0.00     0.171 HD
BRANCH  16  18
ATOM     18  C   UNL A   1      30.681  25.857  25.902  1.00  0.00     0.045 A 
ATOM     19  C   UNL A   1      30.481  26.094  24.540  1.00  0.00     0.046 A 
ATOM     20  C   UNL A   1      31.136  26.966  26.629  1.00  0.00     0.046 A 
ATOM     21  C   UNL A   1      30.976  27.232  23.886  1.00  0.00     0.044 A 
ATOM     22  C   UNL A   1      31.575  28.138  25.990  1.00  0.00     0.044 A 
ATOM     23  Cl  UNL A   1      30.821  27.377  22.175  1.00  0.00    -0.084 Cl
ATOM     24  C   UNL A   1      31.559  28.252  24.608  1.00  0.00     0.041 A 
ATOM     25  Cl  UNL A   1      32.144  29.461  26.932  1.00  0.00    -0.084 Cl
ENDBRANCH  16  18
ENDBRANCH   7  12
ENDBRANCH   4   7
ENDBRANCH   2   3
ENDBRANCH   1   2
BRANCH   1  26
ATOM     26  C   UNL A   1      38.342  21.054  25.134  1.00  0.00     0.118 C 
BRANCH  26  27
ATOM     27  N   UNL A   1      39.217  20.176  25.883  1.00  0.00    -0.352 N 
ATOM     28  C   UNL A   1      40.261  20.490  26.725  1.00  0.00     0.251 C 
ATOM     29  H   UNL A   1      39.039  19.215  25.774  1.00  0.00     0.163 HD
ATOM     30  O   UNL A   1      40.982  19.608  27.155  1.00  0.00    -0.269 OA
BRANCH  28  31
ATOM     31  C   UNL A   1      40.531  21.908  27.064  1.00  0.00     0.039 A 
ATOM     32  C   UNL A   1      41.453  22.182  28.076  1.00  0.00     0.014 A 
ATOM     33  C   UNL A   1      39.893  22.956  26.394  1.00  0.00     0.014 A 
ATOM     34  C   UNL A   1      41.798  23.506  28.360  1.00  0.00     0.010 A 
ATOM     35  C   UNL A   1      40.282  24.276  26.641  1.00  0.00     0.010 A 
ATOM     36  C   UNL A   1      41.253  24.564  27.613  1.00  0.00    -0.014 A 
BRANCH  36  37
ATOM     37  C   UNL A   1      41.732  25.961  27.807  1.00  0.00     0.031 A 
ATOM     38  C   UNL A   1      43.078  26.392  27.291  1.00  0.00     0.074 A 
ATOM     39  C   UNL A   1      40.969  26.833  28.498  1.00  0.00     0.049 A 
ATOM     40  N   UNL A   1      43.684  27.546  27.425  1.00  0.00    -0.248 NA
ATOM     41  C   UNL A   1      43.849  25.390  26.544  1.00  0.00     0.031 C 
ATOM     42  C   UNL A   1      39.654  26.532  29.069  1.00  0.00     0.029 A 
ATOM     43  N   UNL A   1      41.185  28.145  28.844  1.00  0.00    -0.354 N 
ATOM     44  C   UNL A   1      44.909  27.410  26.782  1.00  0.00     0.074 A 
ATOM     45  C   UNL A   1      44.979  26.042  26.308  1.00  0.00     0.031 C 
ATOM     46  C   UNL A   1      39.175  27.631  29.674  1.00  0.00     0.029 A 
ATOM     47  C   UNL A   1      40.167  28.698  29.587  1.00  0.00     0.049 A 
ATOM     48  H   UNL A   1      41.995  28.642  28.586  1.00  0.00     0.167 HD
ATOM     49  C   UNL A   1      45.878  28.341  26.591  1.00  0.00     0.034 A 
ATOM     50  C   UNL A   1      40.049  29.916  30.153  1.00  0.00     0.034 A 
ATOM     51  C   UNL A   1      45.797  29.701  27.074  1.00  0.00     0.049 A 
ATOM     52  C   UNL A   1      41.168  30.913  29.983  1.00  0.00     0.074 A 
ATOM     53  C   UNL A   1      46.700  30.734  26.891  1.00  0.00     0.029 A 
ATOM     54  N   UNL A   1      44.764  30.214  27.849  1.00  0.00    -0.354 N 
ATOM     55  N   UNL A   1      42.300  30.782  29.330  1.00  0.00    -0.248 NA
ATOM     56  C   UNL A   1      40.991  32.224  30.622  1.00  0.00     0.031 C 
ATOM     57  C   UNL A   1      46.258  31.843  27.621  1.00  0.00     0.029 A 
ATOM     58  C   UNL A   1      45.032  31.534  28.189  1.00  0.00     0.049 A 
ATOM     59  H   UNL A   1      43.960  29.716  28.118  1.00  0.00     0.167 HD
ATOM     60  C   UNL A   1      42.955  32.004  29.459  1.00  0.00     0.074 A 
ATOM     61  C   UNL A   1      42.083  32.863  30.232  1.00  0.00     0.031 C 
ATOM     62  C   UNL A   1      44.167  32.381  28.979  1.00  0.00     0.034 A 
BRANCH  49  63
ATOM     63  C   UNL A   1      47.126  27.910  25.857  1.00  0.00     0.023 A 
ATOM     64  C   UNL A   1      47.283  28.123  24.476  1.00  0.00     0.031 A 
ATOM     65  C   UNL A   1      48.172  27.268  26.543  1.00  0.00     0.131 A 
ATOM     66  C   UNL A   1      48.419  27.633  23.814  1.00  0.00     0.055 A 
ATOM     67  C   UNL A   1      49.339  26.859  25.895  1.00  0.00     0.041 A 
ATOM     68  F   UNL A   1      48.075  27.019  27.859  1.00  0.00    -0.206 F 
ATOM     69  C   UNL A   1      49.461  27.026  24.519  1.00  0.00     0.022 A 
BRANCH  66  70
ATOM     70  S   UNL A   1      48.448  27.669  22.001  1.00  0.00     0.124 S 
ATOM     71  O   UNL A   1      48.609  26.253  21.682  1.00  0.00    -0.237 OA
ATOM     72  O   UNL A   1      47.153  28.255  21.676  1.00  0.00    -0.237 OA
ATOM     73  O   UNL A   1      49.607  28.505  21.694  1.00  0.00    -0.744 OA
ENDBRANCH  66  70
ENDBRANCH  49  63
BRANCH  50  74
ATOM     74  C   UNL A   1      38.845  30.261  30.965  1.00  0.00     0.023 A 
ATOM     75  C   UNL A   1      37.773  30.974  30.407  1.00  0.00     0.031 A 
ATOM     76  C   UNL A   1      38.773  29.925  32.330  1.00  0.00     0.131 A 
ATOM     77  C   UNL A   1      36.700  31.374  31.219  1.00  0.00     0.055 A 
ATOM     78  C   UNL A   1      37.675  30.273  33.119  1.00  0.00     0.041 A 
ATOM     79  F   UNL A   1      39.769  29.244  32.917  1.00  0.00    -0.206 F 
ATOM     80  C   UNL A   1      36.636  31.015  32.566  1.00  0.00     0.022 A 
BRANCH  77  81
ATOM     81  S   UNL A   1      35.432  32.460  30.508  1.00  0.00     0.124 S 
ATOM     82  O   UNL A   1      34.386  32.397  31.522  1.00  0.00    -0.237 OA
ATOM     83  O   UNL A   1      36.146  33.727  30.395  1.00  0.00    -0.237 OA
ATOM     84  O   UNL A   1      35.108  31.814  29.237  1.00  0.00    -0.744 OA
ENDBRANCH  77  81
ENDBRANCH  50  74
BRANCH  62  85
ATOM     85  C   UNL A   1      44.604  33.802  29.250  1.00  0.00     0.023 A 
ATOM     86  C   UNL A   1      44.295  34.854  28.368  1.00  0.00     0.031 A 
ATOM     87  C   UNL A   1      45.352  34.108  30.402  1.00  0.00     0.131 A 
ATOM     88  C   UNL A   1      44.780  36.146  28.621  1.00  0.00     0.055 A 
ATOM     89  C   UNL A   1      45.774  35.408  30.683  1.00  0.00     0.041 A 
ATOM     90  F   UNL A   1      45.682  33.145  31.277  1.00  0.00    -0.206 F 
ATOM     91  C   UNL A   1      45.500  36.433  29.783  1.00  0.00     0.022 A 
BRANCH  88  92
ATOM     92  S   UNL A   1      44.541  37.429  27.361  1.00  0.00     0.124 S 
ATOM     93  O   UNL A   1      44.433  38.636  28.175  1.00  0.00    -0.237 OA
ATOM     94  O   UNL A   1      45.752  37.309  26.558  1.00  0.00    -0.237 OA
ATOM     95  O   UNL A   1      43.308  37.024  26.688  1.00  0.00    -0.744 OA
ENDBRANCH  88  92
ENDBRANCH  62  85
ENDBRANCH  36  37
ENDBRANCH  28  31
ENDBRANCH  26  27
ENDBRANCH   1  26
TORSDOF 17
ENDMDL
MODEL 3
REMARK VINA RESULT:     -12.0      5.296     10.234
REMARK SMILES CCC(CC)(NC(=O)Nc1cc(Cl)cc(Cl)c1)C(=O)NCCCNC(=O)c1ccc(-c2c3nc(c(-c4cc(S(=O)(=O)[O-])ccc4F)c4ccc([nH]4)c(-c4cc(S(=O)(=O)[O-])ccc4F)c4nc(c(-c5cc(S(=O)(=O)[O-])ccc5F)c5ccc2[nH]5)C=C4)C=C3)cc1
REMARK SMILES IDX 22 1 21 2 20 3 18 4 19 5 3 7 2 8 1 9 4 10 5 11 6 12 7 13
REMARK SMILES IDX 8 15 9 16 10 18 11 19 17 20 12 21 15 22 13 23 14 24 16 25
REMARK SMILES IDX 23 26 24 27 25 28 26 30 27 31 28 32 89 33 29 34 88 35 30 36
REMARK SMILES IDX 31 37 32 38 82 39 33 40 87 41 81 42 83 43 34 44 86 45 80 46
REMARK SMILES IDX 79 47 35 49 67 50 47 51 66 52 48 53 51 54 65 55 84 56 49 57
REMARK SMILES IDX 50 58 64 60 85 61 52 62 36 63 37 64 45 65 38 66 44 67 46 68
REMARK SMILES IDX 43 69 39 70 40 71 41 72 42 73 68 74 69 75 77 76 70 77 76 78
REMARK SMILES IDX 78 79 75 80 71 81 72 82 73 83 74 84 53 85 54 86 62 87 55 88
REMARK SMILES IDX 61 89 63 90 60 91 56 92 57 93 58 94 59 95
REMARK H PARENT 20 6 6 14 9 17 24 29 83 48 51 59
REMARK Flexibility Score: inf
ROOT
ATOM      1  C   UNL A   1      36.418  19.938  24.962  1.00  0.00     0.042 C 
ENDROOT
BRANCH   1   2
ATOM      2  C   UNL A   1      35.239  20.913  24.780  1.00  0.00     0.117 C 
BRANCH   2   3
ATOM      3  N   UNL A   1      34.149  20.594  25.691  1.00  0.00    -0.354 N 
ATOM      4  C   UNL A   1      32.768  20.666  25.528  1.00  0.00     0.245 C 
ATOM      5  O   UNL A   1      32.076  19.677  25.314  1.00  0.00    -0.272 OA
ATOM      6  H   UNL A   1      34.439  20.271  26.575  1.00  0.00     0.163 HD
BRANCH   4   7
ATOM      7  C   UNL A   1      32.222  22.119  25.518  1.00  0.00     0.120 C 
BRANCH   7   8
ATOM      8  C   UNL A   1      32.080  22.969  24.239  1.00  0.00     0.035 C 
ATOM      9  C   UNL A   1      32.318  22.311  22.899  1.00  0.00     0.007 C 
ENDBRANCH   7   8
BRANCH   7  10
ATOM     10  C   UNL A   1      33.326  22.730  26.476  1.00  0.00     0.035 C 
ATOM     11  C   UNL A   1      33.250  22.649  27.987  1.00  0.00     0.007 C 
ENDBRANCH   7  10
BRANCH   7  12
ATOM     12  N   UNL A   1      30.844  21.997  26.074  1.00  0.00    -0.323 N 
ATOM     13  C   UNL A   1      29.986  22.871  26.646  1.00  0.00     0.320 C 
ATOM     14  H   UNL A   1      30.480  21.085  26.009  1.00  0.00     0.166 HD
ATOM     15  O   UNL A   1      29.048  22.359  27.268  1.00  0.00    -0.248 OA
ATOM     16  N   UNL A   1      30.035  24.222  26.662  1.00  0.00    -0.308 N 
ATOM     17  H   UNL A   1      29.392  24.532  27.340  1.00  0.00     0.171 HD
BRANCH  16  18
ATOM     18  C   UNL A   1      30.644  25.379  26.093  1.00  0.00     0.045 A 
ATOM     19  C   UNL A   1      31.888  25.946  26.376  1.00  0.00     0.046 A 
ATOM     20  C   UNL A   1      29.983  25.935  24.990  1.00  0.00     0.046 A 
ATOM     21  C   UNL A   1      32.315  27.159  25.816  1.00  0.00     0.044 A 
ATOM     22  C   UNL A   1      30.435  27.117  24.377  1.00  0.00     0.044 A 
ATOM     23  Cl  UNL A   1      33.798  27.872  26.332  1.00  0.00    -0.084 Cl
ATOM     24  C   UNL A   1      31.569  27.772  24.831  1.00  0.00     0.041 A 
ATOM     25  Cl  UNL A   1      29.572  27.767  23.038  1.00  0.00    -0.084 Cl
ENDBRANCH  16  18
ENDBRANCH   7  12
ENDBRANCH   4   7
ENDBRANCH   2   3
ENDBRANCH   1   2
BRANCH   1  26
ATOM     26  C   UNL A   1      37.813  20.559  25.078  1.00  0.00     0.118 C 
BRANCH  26  27
ATOM     27  N   UNL A   1      38.830  19.607  25.471  1.00  0.00    -0.352 N 
ATOM     28  C   UNL A   1      40.054  19.826  26.065  1.00  0.00     0.251 C 
ATOM     29  H   UNL A   1      38.616  18.664  25.286  1.00  0.00     0.163 HD
ATOM     30  O   UNL A   1      40.845  18.908  26.187  1.00  0.00    -0.269 OA
BRANCH  28  31
ATOM     31  C   UNL A   1      40.421  21.193  26.507  1.00  0.00     0.039 A 
ATOM     32  C   UNL A   1      41.295  21.325  27.588  1.00  0.00     0.014 A 
ATOM     33  C   UNL A   1      39.921  22.330  25.865  1.00  0.00     0.014 A 
ATOM     34  C   UNL A   1      41.731  22.595  27.975  1.00  0.00     0.010 A 
ATOM     35  C   UNL A   1      40.404  23.593  26.217  1.00  0.00     0.010 A 
ATOM     36  C   UNL A   1      41.329  23.738  27.263  1.00  0.00    -0.014 A 
BRANCH  36  37
ATOM     37  C   UNL A   1      41.913  25.074  27.573  1.00  0.00     0.031 A 
ATOM     38  C   UNL A   1      41.089  26.136  28.247  1.00  0.00     0.074 A 
ATOM     39  C   UNL A   1      43.179  25.346  27.197  1.00  0.00     0.049 A 
ATOM     40  N   UNL A   1      41.411  27.373  28.534  1.00  0.00    -0.248 NA
ATOM     41  C   UNL A   1      39.721  25.765  28.632  1.00  0.00     0.031 C 
ATOM     42  C   UNL A   1      44.076  24.408  26.515  1.00  0.00     0.029 A 
ATOM     43  N   UNL A   1      43.934  26.486  27.326  1.00  0.00    -0.354 N 
ATOM     44  C   UNL A   1      40.286  27.932  29.131  1.00  0.00     0.074 A 
ATOM     45  C   UNL A   1      39.257  26.911  29.112  1.00  0.00     0.031 C 
ATOM     46  C   UNL A   1      45.260  25.004  26.306  1.00  0.00     0.029 A 
ATOM     47  C   UNL A   1      45.196  26.382  26.784  1.00  0.00     0.049 A 
ATOM     48  H   UNL A   1      43.603  27.304  27.764  1.00  0.00     0.167 HD
ATOM     49  C   UNL A   1      40.129  29.172  29.658  1.00  0.00     0.034 A 
ATOM     50  C   UNL A   1      46.182  27.293  26.663  1.00  0.00     0.034 A 
ATOM     51  C   UNL A   1      41.162  30.182  29.666  1.00  0.00     0.049 A 
ATOM     52  C   UNL A   1      45.962  28.685  27.199  1.00  0.00     0.074 A 
ATOM     53  C   UNL A   1      41.121  31.451  30.220  1.00  0.00     0.029 A 
ATOM     54  N   UNL A   1      42.416  30.050  29.080  1.00  0.00    -0.354 N 
ATOM     55  N   UNL A   1      44.907  29.181  27.804  1.00  0.00    -0.248 NA
ATOM     56  C   UNL A   1      47.066  29.640  27.040  1.00  0.00     0.031 C 
ATOM     57  C   UNL A   1      42.312  32.113  29.897  1.00  0.00     0.029 A 
ATOM     58  C   UNL A   1      43.136  31.228  29.219  1.00  0.00     0.049 A 
ATOM     59  H   UNL A   1      42.745  29.239  28.632  1.00  0.00     0.167 HD
ATOM     60  C   UNL A   1      45.234  30.497  28.120  1.00  0.00     0.074 A 
ATOM     61  C   UNL A   1      46.591  30.709  27.659  1.00  0.00     0.031 C 
ATOM     62  C   UNL A   1      44.482  31.442  28.739  1.00  0.00     0.034 A 
BRANCH  49  63
ATOM     63  C   UNL A   1      38.779  29.518  30.241  1.00  0.00     0.023 A 
ATOM     64  C   UNL A   1      37.813  30.225  29.503  1.00  0.00     0.031 A 
ATOM     65  C   UNL A   1      38.454  29.147  31.558  1.00  0.00     0.131 A 
ATOM     66  C   UNL A   1      36.604  30.602  30.107  1.00  0.00     0.055 A 
ATOM     67  C   UNL A   1      37.214  29.450  32.126  1.00  0.00     0.041 A 
ATOM     68  F   UNL A   1      39.340  28.487  32.322  1.00  0.00    -0.206 F 
ATOM     69  C   UNL A   1      36.287  30.196  31.405  1.00  0.00     0.022 A 
BRANCH  66  70
ATOM     70  S   UNL A   1      35.517  31.754  29.224  1.00  0.00     0.124 S 
ATOM     71  O   UNL A   1      36.481  32.699  28.667  1.00  0.00    -0.237 OA
ATOM     72  O   UNL A   1      34.847  30.883  28.264  1.00  0.00    -0.237 OA
ATOM     73  O   UNL A   1      34.663  32.296  30.278  1.00  0.00    -0.744 OA
ENDBRANCH  66  70
ENDBRANCH  49  63
BRANCH  50  74
ATOM     74  C   UNL A   1      47.461  26.939  25.980  1.00  0.00     0.023 A 
ATOM     75  C   UNL A   1      48.485  26.262  26.661  1.00  0.00     0.031 A 
ATOM     76  C   UNL A   1      47.698  27.319  24.646  1.00  0.00     0.131 A 
ATOM     77  C   UNL A   1      49.716  26.033  26.025  1.00  0.00     0.055 A 
ATOM     78  C   UNL A   1      48.901  27.035  23.999  1.00  0.00     0.041 A 
ATOM     79  F   UNL A   1      46.754  27.970  23.946  1.00  0.00    -0.206 F 
ATOM     80  C   UNL A   1      49.925  26.400  24.694  1.00  0.00     0.022 A 
BRANCH  77  81
ATOM     81  S   UNL A   1      51.077  25.333  26.998  1.00  0.00     0.124 S 
ATOM     82  O   UNL A   1      50.382  24.344  27.813  1.00  0.00    -0.237 OA
ATOM     83  O   UNL A   1      51.955  24.808  25.957  1.00  0.00    -0.237 OA
ATOM     84  O   UNL A   1      51.600  26.487  27.728  1.00  0.00    -0.744 OA
ENDBRANCH  77  81
ENDBRANCH  50  74
BRANCH  62  85
ATOM     85  C   UNL A   1      45.129  32.786  28.982  1.00  0.00     0.023 A 
ATOM     86  C   UNL A   1      45.077  33.818  28.027  1.00  0.00     0.031 A 
ATOM     87  C   UNL A   1      45.820  33.034  30.182  1.00  0.00     0.131 A 
ATOM     88  C   UNL A   1      45.751  35.026  28.264  1.00  0.00     0.055 A 
ATOM     89  C   UNL A   1      46.432  34.262  30.440  1.00  0.00     0.041 A 
ATOM     90  F   UNL A   1      45.909  32.086  31.128  1.00  0.00    -0.206 F 
ATOM     91  C   UNL A   1      46.411  35.261  29.472  1.00  0.00     0.022 A 
BRANCH  88  92
ATOM     92  S   UNL A   1      45.837  36.252  26.929  1.00  0.00     0.124 S 
ATOM     93  O   UNL A   1      46.869  37.159  27.418  1.00  0.00    -0.237 OA
ATOM     94  O   UNL A   1      46.201  35.434  25.777  1.00  0.00    -0.237 OA
ATOM     95  O   UNL A   1      44.487  36.811  26.889  1.00  0.00    -0.744 OA
ENDBRANCH  88  92
ENDBRANCH  62  85
ENDBRANCH  36  37
ENDBRANCH  28  31
ENDBRANCH  26  27
ENDBRANCH   1  26
TORSDOF 17
ENDMDL
