MODEL 1
REMARK VINA RESULT:     -12.3      0.000      0.000
REMARK SMILES O=C(NCCCNC(=O)[C@H]1CCCC[C@@H]1c1nc([C@@H]2CSCCS2)no1)c1ccc(-c2c3nc(c(-c4cc(S(=O)(=O)[O-])ccc4F)c4ccc([nH]4)c(-c4cc(S(=O)(=O)[O-])ccc4F)c4nc(c(-c5cc(S(=O)(=O)[O-])ccc5F)c5ccc2[nH]5)C=C4)C=C3)cc1
REMARK SMILES IDX 4 1 3 2 1 3 2 4 27 6 28 7 89 8 29 9 88 10 30 11 31 12 32 13
REMARK SMILES IDX 82 14 33 15 87 16 81 17 83 18 34 19 86 20 80 21 79 22 35 24
REMARK SMILES IDX 67 25 47 26 66 27 48 28 51 29 65 30 84 31 49 32 50 33 64 35
REMARK SMILES IDX 85 36 52 37 36 38 37 39 45 40 38 41 44 42 46 43 43 44 39 45
REMARK SMILES IDX 40 46 41 47 42 48 68 49 69 50 77 51 70 52 76 53 78 54 75 55
REMARK SMILES IDX 71 56 72 57 73 58 74 59 53 60 54 61 62 62 55 63 61 64 63 65
REMARK SMILES IDX 60 66 56 67 57 68 58 69 59 70 5 71 6 72 7 73 8 74 9 76 10 77
REMARK SMILES IDX 11 78 15 79 12 80 14 81 13 82 16 83 17 84 26 85 18 86 25 87
REMARK SMILES IDX 19 88 20 89 24 90 21 91 23 92 22 93
REMARK H PARENT 3 5 83 23 51 34 7 75
REMARK Flexibility Score: inf
ROOT
ATOM      1  C   UNL A   1      32.833  32.496  27.156  1.00  0.00     0.118 C 
ENDROOT
BRANCH   1   2
ATOM      2  N   UNL A   1      32.618  33.848  27.651  1.00  0.00    -0.352 N 
ATOM      3  O   UNL A   1      32.768  35.580  29.077  1.00  0.00    -0.269 OA
ATOM      4  C   UNL A   1      33.218  34.499  28.701  1.00  0.00     0.251 C 
ATOM      5  H   UNL A   1      31.944  34.371  27.162  1.00  0.00     0.163 HD
BRANCH   4   6
ATOM      6  C   UNL A   1      34.387  33.902  29.383  1.00  0.00     0.039 A 
ATOM      7  C   UNL A   1      34.214  32.968  30.407  1.00  0.00     0.014 A 
ATOM      8  C   UNL A   1      35.675  34.257  28.972  1.00  0.00     0.014 A 
ATOM      9  C   UNL A   1      35.318  32.494  31.108  1.00  0.00     0.010 A 
ATOM     10  C   UNL A   1      36.787  33.707  29.616  1.00  0.00     0.010 A 
ATOM     11  C   UNL A   1      36.618  32.835  30.704  1.00  0.00    -0.014 A 
BRANCH  11  12
ATOM     12  C   UNL A   1      37.782  32.200  31.374  1.00  0.00     0.031 A 
ATOM     13  C   UNL A   1      38.565  31.104  30.705  1.00  0.00     0.074 A 
ATOM     14  C   UNL A   1      38.132  32.632  32.603  1.00  0.00     0.049 A 
ATOM     15  N   UNL A   1      39.587  30.427  31.160  1.00  0.00    -0.248 NA
ATOM     16  C   UNL A   1      38.140  30.714  29.353  1.00  0.00     0.031 C 
ATOM     17  C   UNL A   1      37.441  33.690  33.348  1.00  0.00     0.029 A 
ATOM     18  N   UNL A   1      39.148  32.250  33.441  1.00  0.00    -0.354 N 
ATOM     19  C   UNL A   1      39.922  29.518  30.163  1.00  0.00     0.074 A 
ATOM     20  C   UNL A   1      38.969  29.714  29.088  1.00  0.00     0.031 C 
ATOM     21  C   UNL A   1      38.074  33.894  34.512  1.00  0.00     0.029 A 
ATOM     22  C   UNL A   1      39.160  32.932  34.636  1.00  0.00     0.049 A 
ATOM     23  H   UNL A   1      39.805  31.555  33.209  1.00  0.00     0.167 HD
ATOM     24  C   UNL A   1      40.930  28.611  30.148  1.00  0.00     0.034 A 
ATOM     25  C   UNL A   1      39.933  32.776  35.729  1.00  0.00     0.034 A 
ATOM     26  C   UNL A   1      41.867  28.435  31.235  1.00  0.00     0.049 A 
ATOM     27  C   UNL A   1      41.003  31.718  35.709  1.00  0.00     0.074 A 
ATOM     28  C   UNL A   1      42.954  27.580  31.304  1.00  0.00     0.029 A 
ATOM     29  N   UNL A   1      41.819  29.109  32.450  1.00  0.00    -0.354 N 
ATOM     30  N   UNL A   1      41.327  30.890  34.743  1.00  0.00    -0.248 NA
ATOM     31  C   UNL A   1      41.811  31.573  36.925  1.00  0.00     0.031 C 
ATOM     32  C   UNL A   1      43.508  27.675  32.585  1.00  0.00     0.029 A 
ATOM     33  C   UNL A   1      42.827  28.655  33.288  1.00  0.00     0.049 A 
ATOM     34  H   UNL A   1      41.166  29.808  32.681  1.00  0.00     0.167 HD
ATOM     35  C   UNL A   1      42.392  30.140  35.229  1.00  0.00     0.074 A 
ATOM     36  C   UNL A   1      42.669  30.630  36.564  1.00  0.00     0.031 C 
ATOM     37  C   UNL A   1      43.082  29.139  34.625  1.00  0.00     0.034 A 
BRANCH  24  38
ATOM     38  C   UNL A   1      41.046  27.705  28.945  1.00  0.00     0.023 A 
ATOM     39  C   UNL A   1      42.026  27.899  27.955  1.00  0.00     0.031 A 
ATOM     40  C   UNL A   1      40.160  26.624  28.785  1.00  0.00     0.131 A 
ATOM     41  C   UNL A   1      42.057  27.066  26.826  1.00  0.00     0.055 A 
ATOM     42  C   UNL A   1      40.244  25.752  27.698  1.00  0.00     0.041 A 
ATOM     43  F   UNL A   1      39.189  26.399  29.685  1.00  0.00    -0.206 F 
ATOM     44  C   UNL A   1      41.189  25.979  26.703  1.00  0.00     0.022 A 
BRANCH  41  45
ATOM     45  S   UNL A   1      43.159  27.505  25.453  1.00  0.00     0.124 S 
ATOM     46  O   UNL A   1      43.592  26.188  24.990  1.00  0.00    -0.237 OA
ATOM     47  O   UNL A   1      42.271  28.236  24.557  1.00  0.00    -0.237 OA
ATOM     48  O   UNL A   1      44.202  28.306  26.091  1.00  0.00    -0.744 OA
ENDBRANCH  41  45
ENDBRANCH  24  38
BRANCH  25  49
ATOM     49  C   UNL A   1      39.690  33.604  36.945  1.00  0.00     0.023 A 
ATOM     50  C   UNL A   1      39.099  33.053  38.091  1.00  0.00     0.031 A 
ATOM     51  C   UNL A   1      40.014  34.973  36.963  1.00  0.00     0.131 A 
ATOM     52  C   UNL A   1      38.805  33.877  39.190  1.00  0.00     0.055 A 
ATOM     53  C   UNL A   1      39.780  35.774  38.082  1.00  0.00     0.041 A 
ATOM     54  F   UNL A   1      40.582  35.552  35.893  1.00  0.00    -0.206 F 
ATOM     55  C   UNL A   1      39.157  35.228  39.199  1.00  0.00     0.022 A 
BRANCH  52  56
ATOM     56  S   UNL A   1      37.862  33.175  40.570  1.00  0.00     0.124 S 
ATOM     57  O   UNL A   1      37.997  34.219  41.581  1.00  0.00    -0.237 OA
ATOM     58  O   UNL A   1      36.536  33.019  39.982  1.00  0.00    -0.237 OA
ATOM     59  O   UNL A   1      38.564  31.928  40.862  1.00  0.00    -0.744 OA
ENDBRANCH  52  56
ENDBRANCH  25  49
BRANCH  37  60
ATOM     60  C   UNL A   1      44.230  28.537  35.399  1.00  0.00     0.023 A 
ATOM     61  C   UNL A   1      44.039  27.478  36.303  1.00  0.00     0.031 A 
ATOM     62  C   UNL A   1      45.533  29.040  35.235  1.00  0.00     0.131 A 
ATOM     63  C   UNL A   1      45.124  26.991  37.047  1.00  0.00     0.055 A 
ATOM     64  C   UNL A   1      46.619  28.508  35.931  1.00  0.00     0.041 A 
ATOM     65  F   UNL A   1      45.772  30.056  34.390  1.00  0.00    -0.206 F 
ATOM     66  C   UNL A   1      46.416  27.486  36.852  1.00  0.00     0.022 A 
BRANCH  63  67
ATOM     67  S   UNL A   1      44.810  25.760  38.342  1.00  0.00     0.124 S 
ATOM     68  O   UNL A   1      43.960  24.800  37.647  1.00  0.00    -0.237 OA
ATOM     69  O   UNL A   1      46.155  25.300  38.670  1.00  0.00    -0.237 OA
ATOM     70  O   UNL A   1      44.146  26.530  39.393  1.00  0.00    -0.744 OA
ENDBRANCH  63  67
ENDBRANCH  37  60
ENDBRANCH  11  12
ENDBRANCH   4   6
ENDBRANCH   1   2
BRANCH   1  71
ATOM     71  C   UNL A   1      31.571  31.875  26.567  1.00  0.00     0.042 C 
BRANCH  71  72
ATOM     72  C   UNL A   1      31.720  30.410  26.165  1.00  0.00     0.117 C 
BRANCH  72  73
ATOM     73  N   UNL A   1      31.250  30.160  24.813  1.00  0.00    -0.356 N 
ATOM     74  C   UNL A   1      31.205  29.015  24.080  1.00  0.00     0.223 C 
ATOM     75  H   UNL A   1      30.905  30.956  24.349  1.00  0.00     0.163 HD
ATOM     76  O   UNL A   1      30.706  29.089  22.956  1.00  0.00    -0.275 OA
BRANCH  74  77
ATOM     77  C   UNL A   1      31.741  27.704  24.658  1.00  0.00     0.091 C 
ATOM     78  C   UNL A   1      30.646  26.962  25.455  1.00  0.00     0.014 C 
ATOM     79  C   UNL A   1      32.339  26.816  23.554  1.00  0.00     0.091 C 
ATOM     80  C   UNL A   1      29.603  26.259  24.583  1.00  0.00     0.001 C 
ATOM     81  C   UNL A   1      31.240  26.192  22.672  1.00  0.00     0.014 C 
ATOM     82  C   UNL A   1      30.225  25.402  23.491  1.00  0.00     0.001 C 
BRANCH  79  83
ATOM     83  C   UNL A   1      33.255  25.751  24.070  1.00  0.00     0.230 A 
ATOM     84  N   UNL A   1      33.381  24.527  23.625  1.00  0.00    -0.195 NA
ATOM     85  O   UNL A   1      34.098  26.028  25.108  1.00  0.00    -0.339 OA
ATOM     86  C   UNL A   1      34.360  24.004  24.429  1.00  0.00     0.185 A 
ATOM     87  N   UNL A   1      34.829  24.860  25.352  1.00  0.00    -0.061 NA
BRANCH  86  88
ATOM     88  C   UNL A   1      34.885  22.610  24.265  1.00  0.00     0.128 C 
ATOM     89  C   UNL A   1      33.804  21.595  23.876  1.00  0.00     0.092 C 
ATOM     90  S   UNL A   1      35.883  22.054  25.713  1.00  0.00    -0.149 SA
ATOM     91  S   UNL A   1      32.476  21.319  25.097  1.00  0.00    -0.160 SA
ATOM     92  C   UNL A   1      34.555  21.801  26.944  1.00  0.00     0.081 C 
ATOM     93  C   UNL A   1      33.480  20.802  26.524  1.00  0.00     0.080 C 
ENDBRANCH  86  88
ENDBRANCH  79  83
ENDBRANCH  74  77
ENDBRANCH  72  73
ENDBRANCH  71  72
ENDBRANCH   1  71
TORSDOF 15
ENDMDL
MODEL 2
REMARK VINA RESULT:     -12.2      1.548      1.972
REMARK SMILES O=C(NCCCNC(=O)[C@H]1CCCC[C@@H]1c1nc([C@@H]2CSCCS2)no1)c1ccc(-c2c3nc(c(-c4cc(S(=O)(=O)[O-])ccc4F)c4ccc([nH]4)c(-c4cc(S(=O)(=O)[O-])ccc4F)c4nc(c(-c5cc(S(=O)(=O)[O-])ccc5F)c5ccc2[nH]5)C=C4)C=C3)cc1
REMARK SMILES IDX 4 1 3 2 1 3 2 4 27 6 28 7 89 8 29 9 88 10 30 11 31 12 32 13
REMARK SMILES IDX 82 14 33 15 87 16 81 17 83 18 34 19 86 20 80 21 79 22 35 24
REMARK SMILES IDX 67 25 47 26 66 27 48 28 51 29 65 30 84 31 49 32 50 33 64 35
REMARK SMILES IDX 85 36 52 37 36 38 37 39 45 40 38 41 44 42 46 43 43 44 39 45
REMARK SMILES IDX 40 46 41 47 42 48 68 49 69 50 77 51 70 52 76 53 78 54 75 55
REMARK SMILES IDX 71 56 72 57 73 58 74 59 53 60 54 61 62 62 55 63 61 64 63 65
REMARK SMILES IDX 60 66 56 67 57 68 58 69 59 70 5 71 6 72 7 73 8 74 9 76 10 77
REMARK SMILES IDX 11 78 15 79 12 80 14 81 13 82 16 83 17 84 26 85 18 86 25 87
REMARK SMILES IDX 19 88 20 89 24 90 21 91 23 92 22 93
REMARK H PARENT 3 5 83 23 51 34 7 75
REMARK Flexibility Score: inf
ROOT
ATOM      1  C   UNL A   1      32.612  31.987  26.899  1.00  0.00     0.118 C 
ENDROOT
BRANCH   1   2
ATOM      2  N   UNL A   1      32.492  33.385  27.284  1.00  0.00    -0.352 N 
ATOM      3  O   UNL A   1      32.815  35.224  28.538  1.00  0.00    -0.269 OA
ATOM      4  C   UNL A   1      33.189  34.094  28.232  1.00  0.00     0.251 C 
ATOM      5  H   UNL A   1      31.810  33.898  26.794  1.00  0.00     0.163 HD
BRANCH   4   6
ATOM      6  C   UNL A   1      34.374  33.499  28.889  1.00  0.00     0.039 A 
ATOM      7  C   UNL A   1      34.235  32.431  29.779  1.00  0.00     0.014 A 
ATOM      8  C   UNL A   1      35.645  33.997  28.589  1.00  0.00     0.014 A 
ATOM      9  C   UNL A   1      35.344  31.952  30.467  1.00  0.00     0.010 A 
ATOM     10  C   UNL A   1      36.771  33.450  29.212  1.00  0.00     0.010 A 
ATOM     11  C   UNL A   1      36.629  32.435  30.172  1.00  0.00    -0.014 A 
BRANCH  11  12
ATOM     12  C   UNL A   1      37.812  31.804  30.813  1.00  0.00     0.031 A 
ATOM     13  C   UNL A   1      38.645  30.788  30.082  1.00  0.00     0.074 A 
ATOM     14  C   UNL A   1      38.132  32.167  32.072  1.00  0.00     0.049 A 
ATOM     15  N   UNL A   1      39.690  30.124  30.504  1.00  0.00    -0.248 NA
ATOM     16  C   UNL A   1      38.249  30.472  28.702  1.00  0.00     0.031 C 
ATOM     17  C   UNL A   1      37.391  33.144  32.877  1.00  0.00     0.029 A 
ATOM     18  N   UNL A   1      39.155  31.772  32.894  1.00  0.00    -0.354 N 
ATOM     19  C   UNL A   1      40.071  29.298  29.452  1.00  0.00     0.074 A 
ATOM     20  C   UNL A   1      39.121  29.526  28.381  1.00  0.00     0.031 C 
ATOM     21  C   UNL A   1      38.004  33.296  34.059  1.00  0.00     0.029 A 
ATOM     22  C   UNL A   1      39.128  32.372  34.132  1.00  0.00     0.049 A 
ATOM     23  H   UNL A   1      39.843  31.121  32.625  1.00  0.00     0.167 HD
ATOM     24  C   UNL A   1      41.116  28.436  29.389  1.00  0.00     0.034 A 
ATOM     25  C   UNL A   1      39.897  32.176  35.221  1.00  0.00     0.034 A 
ATOM     26  C   UNL A   1      42.049  28.226  30.473  1.00  0.00     0.049 A 
ATOM     27  C   UNL A   1      41.009  31.165  35.145  1.00  0.00     0.074 A 
ATOM     28  C   UNL A   1      43.170  27.413  30.499  1.00  0.00     0.029 A 
ATOM     29  N   UNL A   1      41.963  28.814  31.729  1.00  0.00    -0.354 N 
ATOM     30  N   UNL A   1      41.376  30.417  34.129  1.00  0.00    -0.248 NA
ATOM     31  C   UNL A   1      41.812  30.973  36.358  1.00  0.00     0.031 C 
ATOM     32  C   UNL A   1      43.708  27.445  31.789  1.00  0.00     0.029 A 
ATOM     33  C   UNL A   1      42.981  28.347  32.548  1.00  0.00     0.049 A 
ATOM     34  H   UNL A   1      41.279  29.469  31.999  1.00  0.00     0.167 HD
ATOM     35  C   UNL A   1      42.467  29.681  34.578  1.00  0.00     0.074 A 
ATOM     36  C   UNL A   1      42.711  30.092  35.945  1.00  0.00     0.031 C 
ATOM     37  C   UNL A   1      43.203  28.751  33.917  1.00  0.00     0.034 A 
BRANCH  24  38
ATOM     38  C   UNL A   1      41.281  27.617  28.130  1.00  0.00     0.023 A 
ATOM     39  C   UNL A   1      40.933  26.255  28.074  1.00  0.00     0.031 A 
ATOM     40  C   UNL A   1      41.796  28.209  26.963  1.00  0.00     0.131 A 
ATOM     41  C   UNL A   1      41.159  25.521  26.900  1.00  0.00     0.055 A 
ATOM     42  C   UNL A   1      41.948  27.492  25.774  1.00  0.00     0.041 A 
ATOM     43  F   UNL A   1      42.167  29.500  26.959  1.00  0.00    -0.206 F 
ATOM     44  C   UNL A   1      41.640  26.136  25.742  1.00  0.00     0.022 A 
BRANCH  41  45
ATOM     45  S   UNL A   1      40.945  23.721  26.946  1.00  0.00     0.124 S 
ATOM     46  O   UNL A   1      41.342  23.411  28.318  1.00  0.00    -0.237 OA
ATOM     47  O   UNL A   1      39.527  23.564  26.641  1.00  0.00    -0.237 OA
ATOM     48  O   UNL A   1      41.862  23.237  25.916  1.00  0.00    -0.744 OA
ENDBRANCH  41  45
ENDBRANCH  24  38
BRANCH  25  49
ATOM     49  C   UNL A   1      39.608  32.910  36.487  1.00  0.00     0.023 A 
ATOM     50  C   UNL A   1      38.710  32.398  37.434  1.00  0.00     0.031 A 
ATOM     51  C   UNL A   1      40.204  34.158  36.749  1.00  0.00     0.131 A 
ATOM     52  C   UNL A   1      38.394  33.152  38.575  1.00  0.00     0.055 A 
ATOM     53  C   UNL A   1      39.936  34.873  37.917  1.00  0.00     0.041 A 
ATOM     54  F   UNL A   1      41.071  34.695  35.877  1.00  0.00    -0.206 F 
ATOM     55  C   UNL A   1      39.014  34.377  38.831  1.00  0.00     0.022 A 
BRANCH  52  56
ATOM     56  S   UNL A   1      37.083  32.552  39.674  1.00  0.00     0.124 S 
ATOM     57  O   UNL A   1      35.905  32.671  38.822  1.00  0.00    -0.237 OA
ATOM     58  O   UNL A   1      37.530  31.193  39.965  1.00  0.00    -0.237 OA
ATOM     59  O   UNL A   1      37.135  33.478  40.802  1.00  0.00    -0.744 OA
ENDBRANCH  52  56
ENDBRANCH  25  49
BRANCH  37  60
ATOM     60  C   UNL A   1      44.367  28.146  34.663  1.00  0.00     0.023 A 
ATOM     61  C   UNL A   1      44.227  26.980  35.435  1.00  0.00     0.031 A 
ATOM     62  C   UNL A   1      45.635  28.753  34.608  1.00  0.00     0.131 A 
ATOM     63  C   UNL A   1      45.321  26.487  36.162  1.00  0.00     0.055 A 
ATOM     64  C   UNL A   1      46.735  28.223  35.281  1.00  0.00     0.041 A 
ATOM     65  F   UNL A   1      45.825  29.873  33.891  1.00  0.00    -0.206 F 
ATOM     66  C   UNL A   1      46.579  27.090  36.074  1.00  0.00     0.022 A 
BRANCH  63  67
ATOM     67  S   UNL A   1      45.059  25.098  37.298  1.00  0.00     0.124 S 
ATOM     68  O   UNL A   1      44.278  25.721  38.362  1.00  0.00    -0.237 OA
ATOM     69  O   UNL A   1      44.344  24.139  36.461  1.00  0.00    -0.237 OA
ATOM     70  O   UNL A   1      46.414  24.701  37.674  1.00  0.00    -0.744 OA
ENDBRANCH  63  67
ENDBRANCH  37  60
ENDBRANCH  11  12
ENDBRANCH   4   6
ENDBRANCH   1   2
BRANCH   1  71
ATOM     71  C   UNL A   1      31.331  31.429  26.291  1.00  0.00     0.042 C 
BRANCH  71  72
ATOM     72  C   UNL A   1      31.470  30.027  25.706  1.00  0.00     0.117 C 
BRANCH  72  73
ATOM     73  N   UNL A   1      31.257  30.005  24.269  1.00  0.00    -0.356 N 
ATOM     74  C   UNL A   1      31.167  28.968  23.393  1.00  0.00     0.223 C 
ATOM     75  H   UNL A   1      31.164  30.895  23.858  1.00  0.00     0.163 HD
ATOM     76  O   UNL A   1      30.935  29.248  22.216  1.00  0.00    -0.275 OA
BRANCH  74  77
ATOM     77  C   UNL A   1      31.330  27.528  23.881  1.00  0.00     0.091 C 
ATOM     78  C   UNL A   1      30.743  26.527  22.862  1.00  0.00     0.014 C 
ATOM     79  C   UNL A   1      32.802  27.215  24.198  1.00  0.00     0.091 C 
ATOM     80  C   UNL A   1      31.617  26.306  21.624  1.00  0.00     0.001 C 
ATOM     81  C   UNL A   1      33.640  27.070  22.914  1.00  0.00     0.014 C 
ATOM     82  C   UNL A   1      33.069  26.016  21.971  1.00  0.00     0.001 C 
BRANCH  79  83
ATOM     83  C   UNL A   1      32.986  26.015  25.075  1.00  0.00     0.230 A 
ATOM     84  N   UNL A   1      34.099  25.369  25.314  1.00  0.00    -0.195 NA
ATOM     85  O   UNL A   1      31.917  25.498  25.747  1.00  0.00    -0.339 OA
ATOM     86  C   UNL A   1      33.706  24.390  26.188  1.00  0.00     0.185 A 
ATOM     87  N   UNL A   1      32.396  24.409  26.484  1.00  0.00    -0.061 NA
BRANCH  86  88
ATOM     88  C   UNL A   1      34.665  23.407  26.789  1.00  0.00     0.128 C 
ATOM     89  C   UNL A   1      35.843  23.066  25.867  1.00  0.00     0.092 C 
ATOM     90  S   UNL A   1      33.823  21.902  27.440  1.00  0.00    -0.149 SA
ATOM     91  S   UNL A   1      35.427  22.225  24.302  1.00  0.00    -0.160 SA
ATOM     92  C   UNL A   1      33.385  21.071  25.871  1.00  0.00     0.081 C 
ATOM     93  C   UNL A   1      34.571  20.762  24.963  1.00  0.00     0.080 C 
ENDBRANCH  86  88
ENDBRANCH  79  83
ENDBRANCH  74  77
ENDBRANCH  72  73
ENDBRANCH  71  72
ENDBRANCH   1  71
TORSDOF 15
ENDMDL
MODEL 3
REMARK VINA RESULT:     -12.2      1.330      1.636
REMARK SMILES O=C(NCCCNC(=O)[C@H]1CCCC[C@@H]1c1nc([C@@H]2CSCCS2)no1)c1ccc(-c2c3nc(c(-c4cc(S(=O)(=O)[O-])ccc4F)c4ccc([nH]4)c(-c4cc(S(=O)(=O)[O-])ccc4F)c4nc(c(-c5cc(S(=O)(=O)[O-])ccc5F)c5ccc2[nH]5)C=C4)C=C3)cc1
REMARK SMILES IDX 4 1 3 2 1 3 2 4 27 6 28 7 89 8 29 9 88 10 30 11 31 12 32 13
REMARK SMILES IDX 82 14 33 15 87 16 81 17 83 18 34 19 86 20 80 21 79 22 35 24
REMARK SMILES IDX 67 25 47 26 66 27 48 28 51 29 65 30 84 31 49 32 50 33 64 35
REMARK SMILES IDX 85 36 52 37 36 38 37 39 45 40 38 41 44 42 46 43 43 44 39 45
REMARK SMILES IDX 40 46 41 47 42 48 68 49 69 50 77 51 70 52 76 53 78 54 75 55
REMARK SMILES IDX 71 56 72 57 73 58 74 59 53 60 54 61 62 62 55 63 61 64 63 65
REMARK SMILES IDX 60 66 56 67 57 68 58 69 59 70 5 71 6 72 7 73 8 74 9 76 10 77
REMARK SMILES IDX 11 78 15 79 12 80 14 81 13 82 16 83 17 84 26 85 18 86 25 87
REMARK SMILES IDX 19 88 20 89 24 90 21 91 23 92 22 93
REMARK H PARENT 3 5 83 23 51 34 7 75
REMARK Flexibility Score: inf
ROOT
ATOM      1  C   UNL A   1      32.877  32.544  27.169  1.00  0.00     0.118 C 
ENDROOT
BRANCH   1   2
ATOM      2  N   UNL A   1      32.668  33.891  27.678  1.00  0.00    -0.352 N 
ATOM      3  O   UNL A   1      32.826  35.608  29.122  1.00  0.00    -0.269 OA
ATOM      4  C   UNL A   1      33.272  34.530  28.734  1.00  0.00     0.251 C 
ATOM      5  H   UNL A   1      31.996  34.423  27.195  1.00  0.00     0.163 HD
BRANCH   4   6
ATOM      6  C   UNL A   1      34.439  33.921  29.409  1.00  0.00     0.039 A 
ATOM      7  C   UNL A   1      34.265  32.942  30.391  1.00  0.00     0.014 A 
ATOM      8  C   UNL A   1      35.728  34.312  29.033  1.00  0.00     0.014 A 
ATOM      9  C   UNL A   1      35.365  32.455  31.088  1.00  0.00     0.010 A 
ATOM     10  C   UNL A   1      36.838  33.750  29.671  1.00  0.00     0.010 A 
ATOM     11  C   UNL A   1      36.666  32.831  30.719  1.00  0.00    -0.014 A 
BRANCH  11  12
ATOM     12  C   UNL A   1      37.829  32.185  31.380  1.00  0.00     0.031 A 
ATOM     13  C   UNL A   1      38.588  31.073  30.711  1.00  0.00     0.074 A 
ATOM     14  C   UNL A   1      38.200  32.622  32.601  1.00  0.00     0.049 A 
ATOM     15  N   UNL A   1      39.606  30.385  31.159  1.00  0.00    -0.248 NA
ATOM     16  C   UNL A   1      38.141  30.678  29.367  1.00  0.00     0.031 C 
ATOM     17  C   UNL A   1      37.533  33.695  33.346  1.00  0.00     0.029 A 
ATOM     18  N   UNL A   1      39.220  32.232  33.429  1.00  0.00    -0.354 N 
ATOM     19  C   UNL A   1      39.915  29.463  30.165  1.00  0.00     0.074 A 
ATOM     20  C   UNL A   1      38.952  29.664  29.100  1.00  0.00     0.031 C 
ATOM     21  C   UNL A   1      38.183  33.900  34.500  1.00  0.00     0.029 A 
ATOM     22  C   UNL A   1      39.257  32.923  34.619  1.00  0.00     0.049 A 
ATOM     23  H   UNL A   1      39.865  31.526  33.196  1.00  0.00     0.167 HD
ATOM     24  C   UNL A   1      40.911  28.542  30.145  1.00  0.00     0.034 A 
ATOM     25  C   UNL A   1      40.041  32.766  35.703  1.00  0.00     0.034 A 
ATOM     26  C   UNL A   1      41.858  28.362  31.222  1.00  0.00     0.049 A 
ATOM     27  C   UNL A   1      41.096  31.692  35.680  1.00  0.00     0.074 A 
ATOM     28  C   UNL A   1      42.933  27.491  31.285  1.00  0.00     0.029 A 
ATOM     29  N   UNL A   1      41.835  29.045  32.432  1.00  0.00    -0.354 N 
ATOM     30  N   UNL A   1      41.395  30.852  34.716  1.00  0.00    -0.248 NA
ATOM     31  C   UNL A   1      41.916  31.546  36.887  1.00  0.00     0.031 C 
ATOM     32  C   UNL A   1      43.505  27.589  32.558  1.00  0.00     0.029 A 
ATOM     33  C   UNL A   1      42.846  28.584  33.262  1.00  0.00     0.049 A 
ATOM     34  H   UNL A   1      41.194  29.755  32.666  1.00  0.00     0.167 HD
ATOM     35  C   UNL A   1      42.456  30.091  35.196  1.00  0.00     0.074 A 
ATOM     36  C   UNL A   1      42.757  30.588  36.523  1.00  0.00     0.031 C 
ATOM     37  C   UNL A   1      43.124  29.076  34.592  1.00  0.00     0.034 A 
BRANCH  24  38
ATOM     38  C   UNL A   1      40.999  27.624  28.949  1.00  0.00     0.023 A 
ATOM     39  C   UNL A   1      41.993  27.773  27.965  1.00  0.00     0.031 A 
ATOM     40  C   UNL A   1      40.071  26.578  28.789  1.00  0.00     0.131 A 
ATOM     41  C   UNL A   1      41.999  26.933  26.841  1.00  0.00     0.055 A 
ATOM     42  C   UNL A   1      40.129  25.697  27.707  1.00  0.00     0.041 A 
ATOM     43  F   UNL A   1      39.086  26.398  29.683  1.00  0.00    -0.206 F 
ATOM     44  C   UNL A   1      41.089  25.880  26.718  1.00  0.00     0.022 A 
BRANCH  41  45
ATOM     45  S   UNL A   1      43.126  27.319  25.473  1.00  0.00     0.124 S 
ATOM     46  O   UNL A   1      44.213  28.004  26.171  1.00  0.00    -0.237 OA
ATOM     47  O   UNL A   1      43.441  25.999  24.941  1.00  0.00    -0.237 OA
ATOM     48  O   UNL A   1      42.325  28.172  24.596  1.00  0.00    -0.744 OA
ENDBRANCH  41  45
ENDBRANCH  24  38
BRANCH  25  49
ATOM     49  C   UNL A   1      39.824  33.607  36.916  1.00  0.00     0.023 A 
ATOM     50  C   UNL A   1      40.634  34.720  37.182  1.00  0.00     0.031 A 
ATOM     51  C   UNL A   1      38.820  33.284  37.847  1.00  0.00     0.131 A 
ATOM     52  C   UNL A   1      40.460  35.441  38.373  1.00  0.00     0.055 A 
ATOM     53  C   UNL A   1      38.608  34.044  38.999  1.00  0.00     0.041 A 
ATOM     54  F   UNL A   1      38.015  32.229  37.643  1.00  0.00    -0.206 F 
ATOM     55  C   UNL A   1      39.442  35.121  39.274  1.00  0.00     0.022 A 
BRANCH  52  56
ATOM     56  S   UNL A   1      41.652  36.746  38.777  1.00  0.00     0.124 S 
ATOM     57  O   UNL A   1      42.453  36.105  39.814  1.00  0.00    -0.237 OA
ATOM     58  O   UNL A   1      42.315  36.959  37.494  1.00  0.00    -0.237 OA
ATOM     59  O   UNL A   1      40.808  37.849  39.231  1.00  0.00    -0.744 OA
ENDBRANCH  52  56
ENDBRANCH  25  49
BRANCH  37  60
ATOM     60  C   UNL A   1      44.273  28.463  35.356  1.00  0.00     0.023 A 
ATOM     61  C   UNL A   1      44.071  27.451  36.310  1.00  0.00     0.031 A 
ATOM     62  C   UNL A   1      45.588  28.909  35.133  1.00  0.00     0.131 A 
ATOM     63  C   UNL A   1      45.161  26.955  37.043  1.00  0.00     0.055 A 
ATOM     64  C   UNL A   1      46.675  28.366  35.818  1.00  0.00     0.041 A 
ATOM     65  F   UNL A   1      45.838  29.878  34.237  1.00  0.00    -0.206 F 
ATOM     66  C   UNL A   1      46.463  27.392  36.788  1.00  0.00     0.022 A 
BRANCH  63  67
ATOM     67  S   UNL A   1      44.842  25.793  38.398  1.00  0.00     0.124 S 
ATOM     68  O   UNL A   1      46.089  25.860  39.153  1.00  0.00    -0.237 OA
ATOM     69  O   UNL A   1      43.673  26.378  39.046  1.00  0.00    -0.237 OA
ATOM     70  O   UNL A   1      44.600  24.524  37.713  1.00  0.00    -0.744 OA
ENDBRANCH  63  67
ENDBRANCH  37  60
ENDBRANCH  11  12
ENDBRANCH   4   6
ENDBRANCH   1   2
BRANCH   1  71
ATOM     71  C   UNL A   1      31.578  31.856  26.767  1.00  0.00     0.042 C 
BRANCH  71  72
ATOM     72  C   UNL A   1      31.744  30.402  26.333  1.00  0.00     0.117 C 
BRANCH  72  73
ATOM     73  N   UNL A   1      31.348  30.191  24.951  1.00  0.00    -0.356 N 
ATOM     74  C   UNL A   1      31.342  29.068  24.184  1.00  0.00     0.223 C 
ATOM     75  H   UNL A   1      31.030  31.001  24.491  1.00  0.00     0.163 HD
ATOM     76  O   UNL A   1      30.905  29.175  23.038  1.00  0.00    -0.275 OA
BRANCH  74  77
ATOM     77  C   UNL A   1      31.843  27.740  24.754  1.00  0.00     0.091 C 
ATOM     78  C   UNL A   1      30.724  27.011  25.528  1.00  0.00     0.014 C 
ATOM     79  C   UNL A   1      32.436  26.852  23.647  1.00  0.00     0.091 C 
ATOM     80  C   UNL A   1      29.677  26.339  24.636  1.00  0.00     0.001 C 
ATOM     81  C   UNL A   1      31.337  26.261  22.744  1.00  0.00     0.014 C 
ATOM     82  C   UNL A   1      30.296  25.483  23.541  1.00  0.00     0.001 C 
BRANCH  79  83
ATOM     83  C   UNL A   1      33.325  25.762  24.162  1.00  0.00     0.230 A 
ATOM     84  N   UNL A   1      33.438  24.544  23.698  1.00  0.00    -0.195 NA
ATOM     85  O   UNL A   1      34.152  26.007  25.220  1.00  0.00    -0.339 OA
ATOM     86  C   UNL A   1      34.392  23.991  24.512  1.00  0.00     0.185 A 
ATOM     87  N   UNL A   1      34.858  24.822  25.458  1.00  0.00    -0.061 NA
BRANCH  86  88
ATOM     88  C   UNL A   1      34.896  22.591  24.334  1.00  0.00     0.128 C 
ATOM     89  C   UNL A   1      33.801  21.597  23.927  1.00  0.00     0.092 C 
ATOM     90  S   UNL A   1      35.878  22.002  25.780  1.00  0.00    -0.149 SA
ATOM     91  S   UNL A   1      32.463  21.328  25.139  1.00  0.00    -0.160 SA
ATOM     92  C   UNL A   1      34.541  21.755  27.001  1.00  0.00     0.081 C 
ATOM     93  C   UNL A   1      33.453  20.779  26.565  1.00  0.00     0.080 C 
ENDBRANCH  86  88
ENDBRANCH  79  83
ENDBRANCH  74  77
ENDBRANCH  72  73
ENDBRANCH  71  72
ENDBRANCH   1  71
TORSDOF 15
ENDMDL
