MODEL 1
REMARK VINA RESULT:     -12.7      0.000      0.000
REMARK SMILES C[C@H]1CC[C@@H]([C@H](C(=O)NCCCNC(=O)c2ccc(-c3c4nc(c(-c5cc(S(=O)(=O)[O-])ccc5F)c5ccc([nH]5)c(-c5cc(S(=O)(=O)[O-])ccc5F)c5nc(c(-c6cc(S(=O)(=O)[O-])ccc6F)c6ccc3[nH]6)C=C5)C=C4)cc2)[C@@H]2CCS(=O)(=O)C2)C[C@@H]1C
REMARK SMILES IDX 12 1 11 2 10 3 9 4 7 5 8 6 6 8 5 9 1 10 2 11 3 12 87 13 4 14
REMARK SMILES IDX 86 15 88 16 79 17 80 18 85 19 81 20 82 21 83 22 84 23 13 24
REMARK SMILES IDX 14 25 15 27 16 28 17 29 78 30 18 31 77 32 19 33 20 34 21 35
REMARK SMILES IDX 71 36 22 37 76 38 70 39 72 40 23 41 75 42 69 43 68 44 24 46
REMARK SMILES IDX 56 47 36 48 55 49 37 50 40 51 54 52 73 53 38 54 39 55 53 57
REMARK SMILES IDX 74 58 41 59 25 60 26 61 34 62 27 63 33 64 35 65 32 66 28 67
REMARK SMILES IDX 29 68 30 69 31 70 57 71 58 72 66 73 59 74 65 75 67 76 64 77
REMARK SMILES IDX 60 78 61 79 62 80 63 81 42 82 43 83 51 84 44 85 50 86 52 87
REMARK SMILES IDX 49 88 45 89 46 90 47 91 48 92
REMARK H PARENT 9 7 13 26 72 45 40 56
REMARK Flexibility Score: inf
ROOT
ATOM      1  C   UNL A   1      37.499  21.964  25.203  1.00  0.00     0.118 C 
ENDROOT
BRANCH   1   2
ATOM      2  C   UNL A   1      36.364  21.309  24.429  1.00  0.00     0.042 C 
BRANCH   2   3
ATOM      3  C   UNL A   1      35.261  20.759  25.305  1.00  0.00     0.117 C 
BRANCH   3   4
ATOM      4  N   UNL A   1      34.049  20.360  24.604  1.00  0.00    -0.356 N 
ATOM      5  C   UNL A   1      33.097  21.136  24.002  1.00  0.00     0.223 C 
ATOM      6  O   UNL A   1      32.299  20.554  23.262  1.00  0.00    -0.275 OA
ATOM      7  H   UNL A   1      33.892  19.390  24.556  1.00  0.00     0.163 HD
BRANCH   5   8
ATOM      8  C   UNL A   1      32.997  22.675  24.265  1.00  0.00     0.085 C 
BRANCH   8   9
ATOM      9  C   UNL A   1      33.841  23.427  23.164  1.00  0.00     0.002 C 
ATOM     10  C   UNL A   1      32.428  27.495  22.757  1.00  0.00     0.008 C 
ATOM     11  C   UNL A   1      33.359  26.304  22.481  1.00  0.00    -0.011 C 
ATOM     12  C   UNL A   1      34.030  25.881  23.801  1.00  0.00     0.004 C 
ATOM     13  C   UNL A   1      32.605  25.187  21.703  1.00  0.00    -0.011 C 
ATOM     14  C   UNL A   1      34.725  24.542  23.728  1.00  0.00     0.005 C 
ATOM     15  C   UNL A   1      33.254  23.810  21.803  1.00  0.00     0.008 C 
ATOM     16  C   UNL A   1      32.395  25.576  20.232  1.00  0.00     0.008 C 
ENDBRANCH   8   9
BRANCH   8  17
ATOM     17  C   UNL A   1      31.475  23.044  24.437  1.00  0.00     0.018 C 
ATOM     18  C   UNL A   1      31.093  24.500  24.738  1.00  0.00     0.021 C 
ATOM     19  C   UNL A   1      30.757  22.254  25.561  1.00  0.00     0.141 C 
ATOM     20  C   UNL A   1      31.058  24.802  26.222  1.00  0.00     0.137 C 
ATOM     21  S   UNL A   1      30.783  23.263  27.033  1.00  0.00     0.150 S 
ATOM     22  O   UNL A   1      31.975  22.951  27.798  1.00  0.00    -0.229 OA
ATOM     23  O   UNL A   1      29.464  23.288  27.626  1.00  0.00    -0.229 OA
ENDBRANCH   8  17
ENDBRANCH   5   8
ENDBRANCH   3   4
ENDBRANCH   2   3
ENDBRANCH   1   2
BRANCH   1  24
ATOM     24  N   UNL A   1      38.521  21.033  25.679  1.00  0.00    -0.352 N 
ATOM     25  C   UNL A   1      39.662  21.240  26.425  1.00  0.00     0.251 C 
ATOM     26  H   UNL A   1      38.369  20.095  25.422  1.00  0.00     0.163 HD
ATOM     27  O   UNL A   1      40.440  20.306  26.609  1.00  0.00    -0.269 OA
BRANCH  25  28
ATOM     28  C   UNL A   1      39.975  22.585  26.956  1.00  0.00     0.039 A 
ATOM     29  C   UNL A   1      40.992  22.734  27.902  1.00  0.00     0.014 A 
ATOM     30  C   UNL A   1      39.299  23.708  26.486  1.00  0.00     0.014 A 
ATOM     31  C   UNL A   1      41.406  24.017  28.275  1.00  0.00     0.010 A 
ATOM     32  C   UNL A   1      39.811  24.973  26.735  1.00  0.00     0.010 A 
ATOM     33  C   UNL A   1      40.866  25.149  27.641  1.00  0.00    -0.014 A 
BRANCH  33  34
ATOM     34  C   UNL A   1      41.364  26.524  27.916  1.00  0.00     0.031 A 
ATOM     35  C   UNL A   1      42.767  26.904  27.515  1.00  0.00     0.074 A 
ATOM     36  C   UNL A   1      40.595  27.397  28.598  1.00  0.00     0.049 A 
ATOM     37  N   UNL A   1      43.433  28.002  27.766  1.00  0.00    -0.248 NA
ATOM     38  C   UNL A   1      43.540  25.893  26.776  1.00  0.00     0.031 C 
ATOM     39  C   UNL A   1      39.244  27.127  29.096  1.00  0.00     0.029 A 
ATOM     40  N   UNL A   1      40.841  28.686  29.003  1.00  0.00    -0.354 N 
ATOM     41  C   UNL A   1      44.703  27.803  27.234  1.00  0.00     0.074 A 
ATOM     42  C   UNL A   1      44.740  26.447  26.736  1.00  0.00     0.031 C 
ATOM     43  C   UNL A   1      38.769  28.226  29.704  1.00  0.00     0.029 A 
ATOM     44  C   UNL A   1      39.799  29.259  29.695  1.00  0.00     0.049 A 
ATOM     45  H   UNL A   1      41.685  29.157  28.814  1.00  0.00     0.167 HD
ATOM     46  C   UNL A   1      45.731  28.681  27.134  1.00  0.00     0.034 A 
ATOM     47  C   UNL A   1      39.690  30.472  30.274  1.00  0.00     0.034 A 
ATOM     48  C   UNL A   1      45.669  30.036  27.623  1.00  0.00     0.049 A 
ATOM     49  C   UNL A   1      40.853  31.427  30.174  1.00  0.00     0.074 A 
ATOM     50  C   UNL A   1      46.625  31.031  27.529  1.00  0.00     0.029 A 
ATOM     51  N   UNL A   1      44.590  30.585  28.307  1.00  0.00    -0.354 N 
ATOM     52  N   UNL A   1      42.027  31.245  29.613  1.00  0.00    -0.248 NA
ATOM     53  C   UNL A   1      40.673  32.756  30.772  1.00  0.00     0.031 C 
ATOM     54  C   UNL A   1      46.159  32.151  28.224  1.00  0.00     0.029 A 
ATOM     55  C   UNL A   1      44.873  31.891  28.672  1.00  0.00     0.049 A 
ATOM     56  H   UNL A   1      43.749  30.113  28.504  1.00  0.00     0.167 HD
ATOM     57  C   UNL A   1      42.712  32.447  29.766  1.00  0.00     0.074 A 
ATOM     58  C   UNL A   1      41.813  33.350  30.455  1.00  0.00     0.031 C 
ATOM     59  C   UNL A   1      43.968  32.778  29.370  1.00  0.00     0.034 A 
BRANCH  46  60
ATOM     60  C   UNL A   1      47.005  28.186  26.487  1.00  0.00     0.023 A 
ATOM     61  C   UNL A   1      47.203  28.258  25.095  1.00  0.00     0.031 A 
ATOM     62  C   UNL A   1      48.016  27.588  27.260  1.00  0.00     0.131 A 
ATOM     63  C   UNL A   1      48.327  27.654  24.513  1.00  0.00     0.055 A 
ATOM     64  C   UNL A   1      49.181  27.078  26.683  1.00  0.00     0.041 A 
ATOM     65  F   UNL A   1      47.879  27.467  28.590  1.00  0.00    -0.206 F 
ATOM     66  C   UNL A   1      49.333  27.091  25.300  1.00  0.00     0.022 A 
BRANCH  63  67
ATOM     67  S   UNL A   1      48.363  27.457  22.710  1.00  0.00     0.124 S 
ATOM     68  O   UNL A   1      49.627  28.108  22.369  1.00  0.00    -0.237 OA
ATOM     69  O   UNL A   1      48.328  26.008  22.550  1.00  0.00    -0.237 OA
ATOM     70  O   UNL A   1      47.167  28.166  22.264  1.00  0.00    -0.744 OA
ENDBRANCH  63  67
ENDBRANCH  46  60
BRANCH  47  71
ATOM     71  C   UNL A   1      38.447  30.850  31.010  1.00  0.00     0.023 A 
ATOM     72  C   UNL A   1      37.375  31.477  30.356  1.00  0.00     0.031 A 
ATOM     73  C   UNL A   1      38.328  30.618  32.393  1.00  0.00     0.131 A 
ATOM     74  C   UNL A   1      36.251  31.892  31.091  1.00  0.00     0.055 A 
ATOM     75  C   UNL A   1      37.185  30.979  33.108  1.00  0.00     0.041 A 
ATOM     76  F   UNL A   1      39.322  30.020  33.070  1.00  0.00    -0.206 F 
ATOM     77  C   UNL A   1      36.143  31.632  32.459  1.00  0.00     0.022 A 
BRANCH  74  78
ATOM     78  S   UNL A   1      34.969  32.860  30.248  1.00  0.00     0.124 S 
ATOM     79  O   UNL A   1      34.029  33.116  31.334  1.00  0.00    -0.237 OA
ATOM     80  O   UNL A   1      35.725  34.012  29.769  1.00  0.00    -0.237 OA
ATOM     81  O   UNL A   1      34.489  31.954  29.207  1.00  0.00    -0.744 OA
ENDBRANCH  74  78
ENDBRANCH  47  71
BRANCH  59  82
ATOM     82  C   UNL A   1      44.424  34.193  29.631  1.00  0.00     0.023 A 
ATOM     83  C   UNL A   1      44.099  35.251  28.765  1.00  0.00     0.031 A 
ATOM     84  C   UNL A   1      45.203  34.484  30.767  1.00  0.00     0.131 A 
ATOM     85  C   UNL A   1      44.599  36.538  29.016  1.00  0.00     0.055 A 
ATOM     86  C   UNL A   1      45.636  35.779  31.049  1.00  0.00     0.041 A 
ATOM     87  F   UNL A   1      45.548  33.512  31.628  1.00  0.00    -0.206 F 
ATOM     88  C   UNL A   1      45.347  36.813  30.163  1.00  0.00     0.022 A 
BRANCH  85  89
ATOM     89  S   UNL A   1      44.349  37.827  27.765  1.00  0.00     0.124 S 
ATOM     90  O   UNL A   1      43.896  38.952  28.578  1.00  0.00    -0.237 OA
ATOM     91  O   UNL A   1      45.680  37.957  27.181  1.00  0.00    -0.237 OA
ATOM     92  O   UNL A   1      43.336  37.254  26.880  1.00  0.00    -0.744 OA
ENDBRANCH  85  89
ENDBRANCH  59  82
ENDBRANCH  33  34
ENDBRANCH  25  28
ENDBRANCH   1  24
TORSDOF 15
ENDMDL
MODEL 2
REMARK VINA RESULT:     -12.6      5.076     10.023
REMARK SMILES C[C@H]1CC[C@@H]([C@H](C(=O)NCCCNC(=O)c2ccc(-c3c4nc(c(-c5cc(S(=O)(=O)[O-])ccc5F)c5ccc([nH]5)c(-c5cc(S(=O)(=O)[O-])ccc5F)c5nc(c(-c6cc(S(=O)(=O)[O-])ccc6F)c6ccc3[nH]6)C=C5)C=C4)cc2)[C@@H]2CCS(=O)(=O)C2)C[C@@H]1C
REMARK SMILES IDX 12 1 11 2 10 3 9 4 7 5 8 6 6 8 5 9 1 10 2 11 3 12 87 13 4 14
REMARK SMILES IDX 86 15 88 16 79 17 80 18 85 19 81 20 82 21 83 22 84 23 13 24
REMARK SMILES IDX 14 25 15 27 16 28 17 29 78 30 18 31 77 32 19 33 20 34 21 35
REMARK SMILES IDX 71 36 22 37 76 38 70 39 72 40 23 41 75 42 69 43 68 44 24 46
REMARK SMILES IDX 56 47 36 48 55 49 37 50 40 51 54 52 73 53 38 54 39 55 53 57
REMARK SMILES IDX 74 58 41 59 25 60 26 61 34 62 27 63 33 64 35 65 32 66 28 67
REMARK SMILES IDX 29 68 30 69 31 70 57 71 58 72 66 73 59 74 65 75 67 76 64 77
REMARK SMILES IDX 60 78 61 79 62 80 63 81 42 82 43 83 51 84 44 85 50 86 52 87
REMARK SMILES IDX 49 88 45 89 46 90 47 91 48 92
REMARK H PARENT 9 7 13 26 72 45 40 56
REMARK Flexibility Score: inf
ROOT
ATOM      1  C   UNL A   1      32.629  29.882  25.959  1.00  0.00     0.118 C 
ENDROOT
BRANCH   1   2
ATOM      2  C   UNL A   1      31.700  28.860  26.597  1.00  0.00     0.042 C 
BRANCH   2   3
ATOM      3  C   UNL A   1      32.325  27.497  26.790  1.00  0.00     0.117 C 
BRANCH   3   4
ATOM      4  N   UNL A   1      31.389  26.384  26.842  1.00  0.00    -0.356 N 
ATOM      5  C   UNL A   1      31.548  25.093  26.420  1.00  0.00     0.223 C 
ATOM      6  O   UNL A   1      30.700  24.280  26.800  1.00  0.00    -0.275 OA
ATOM      7  H   UNL A   1      30.513  26.590  27.240  1.00  0.00     0.163 HD
BRANCH   5   8
ATOM      8  C   UNL A   1      32.718  24.671  25.472  1.00  0.00     0.085 C 
BRANCH   8   9
ATOM      9  C   UNL A   1      33.613  23.610  26.223  1.00  0.00     0.002 C 
ATOM     10  C   UNL A   1      36.830  22.311  23.639  1.00  0.00     0.008 C 
ATOM     11  C   UNL A   1      36.038  22.390  24.953  1.00  0.00    -0.011 C 
ATOM     12  C   UNL A   1      36.019  23.853  25.435  1.00  0.00     0.004 C 
ATOM     13  C   UNL A   1      34.652  21.697  24.799  1.00  0.00    -0.011 C 
ATOM     14  C   UNL A   1      35.023  24.116  26.541  1.00  0.00     0.005 C 
ATOM     15  C   UNL A   1      33.621  22.128  25.839  1.00  0.00     0.008 C 
ATOM     16  C   UNL A   1      34.792  20.169  24.783  1.00  0.00     0.008 C 
ENDBRANCH   8   9
BRANCH   8  17
ATOM     17  C   UNL A   1      32.102  24.289  24.073  1.00  0.00     0.018 C 
ATOM     18  C   UNL A   1      33.039  24.124  22.869  1.00  0.00     0.021 C 
ATOM     19  C   UNL A   1      31.039  25.292  23.556  1.00  0.00     0.141 C 
ATOM     20  C   UNL A   1      33.260  25.420  22.115  1.00  0.00     0.137 C 
ATOM     21  S   UNL A   1      31.863  26.435  22.461  1.00  0.00     0.150 S 
ATOM     22  O   UNL A   1      32.327  27.574  23.231  1.00  0.00    -0.229 OA
ATOM     23  O   UNL A   1      31.092  26.581  21.246  1.00  0.00    -0.229 OA
ENDBRANCH   8  17
ENDBRANCH   5   8
ENDBRANCH   3   4
ENDBRANCH   2   3
ENDBRANCH   1   2
BRANCH   1  24
ATOM     24  N   UNL A   1      32.466  31.244  26.464  1.00  0.00    -0.352 N 
ATOM     25  C   UNL A   1      33.258  32.005  27.298  1.00  0.00     0.251 C 
ATOM     26  H   UNL A   1      31.649  31.698  26.155  1.00  0.00     0.163 HD
ATOM     27  O   UNL A   1      32.853  33.101  27.680  1.00  0.00    -0.269 OA
BRANCH  25  28
ATOM     28  C   UNL A   1      34.560  31.486  27.772  1.00  0.00     0.039 A 
ATOM     29  C   UNL A   1      35.610  32.375  28.015  1.00  0.00     0.014 A 
ATOM     30  C   UNL A   1      34.734  30.128  28.023  1.00  0.00     0.014 A 
ATOM     31  C   UNL A   1      36.780  31.912  28.626  1.00  0.00     0.010 A 
ATOM     32  C   UNL A   1      35.825  29.700  28.765  1.00  0.00     0.010 A 
ATOM     33  C   UNL A   1      36.870  30.583  29.070  1.00  0.00    -0.014 A 
BRANCH  33  34
ATOM     34  C   UNL A   1      38.044  30.080  29.834  1.00  0.00     0.031 A 
ATOM     35  C   UNL A   1      38.291  30.575  31.237  1.00  0.00     0.074 A 
ATOM     36  C   UNL A   1      38.930  29.254  29.242  1.00  0.00     0.049 A 
ATOM     37  N   UNL A   1      39.310  30.357  32.026  1.00  0.00    -0.248 NA
ATOM     38  C   UNL A   1      37.276  31.475  31.807  1.00  0.00     0.031 C 
ATOM     39  C   UNL A   1      38.837  28.753  27.868  1.00  0.00     0.029 A 
ATOM     40  N   UNL A   1      40.093  28.695  29.715  1.00  0.00    -0.354 N 
ATOM     41  C   UNL A   1      39.068  31.108  33.172  1.00  0.00     0.074 A 
ATOM     42  C   UNL A   1      37.856  31.857  32.932  1.00  0.00     0.031 C 
ATOM     43  C   UNL A   1      39.874  27.936  27.624  1.00  0.00     0.029 A 
ATOM     44  C   UNL A   1      40.739  27.899  28.797  1.00  0.00     0.049 A 
ATOM     45  H   UNL A   1      40.432  28.849  30.626  1.00  0.00     0.167 HD
ATOM     46  C   UNL A   1      39.767  31.140  34.333  1.00  0.00     0.034 A 
ATOM     47  C   UNL A   1      41.906  27.228  28.883  1.00  0.00     0.034 A 
ATOM     48  C   UNL A   1      40.966  30.370  34.559  1.00  0.00     0.049 A 
ATOM     49  C   UNL A   1      42.685  27.295  30.174  1.00  0.00     0.074 A 
ATOM     50  C   UNL A   1      41.728  30.280  35.710  1.00  0.00     0.029 A 
ATOM     51  N   UNL A   1      41.583  29.564  33.609  1.00  0.00    -0.354 N 
ATOM     52  N   UNL A   1      42.409  27.962  31.272  1.00  0.00    -0.248 NA
ATOM     53  C   UNL A   1      43.923  26.509  30.243  1.00  0.00     0.031 C 
ATOM     54  C   UNL A   1      42.845  29.486  35.433  1.00  0.00     0.029 A 
ATOM     55  C   UNL A   1      42.735  29.003  34.138  1.00  0.00     0.049 A 
ATOM     56  H   UNL A   1      41.251  29.415  32.695  1.00  0.00     0.167 HD
ATOM     57  C   UNL A   1      43.426  27.650  32.171  1.00  0.00     0.074 A 
ATOM     58  C   UNL A   1      44.307  26.723  31.492  1.00  0.00     0.031 C 
ATOM     59  C   UNL A   1      43.612  28.087  33.443  1.00  0.00     0.034 A 
BRANCH  46  60
ATOM     60  C   UNL A   1      39.255  32.049  35.427  1.00  0.00     0.023 A 
ATOM     61  C   UNL A   1      39.645  33.399  35.508  1.00  0.00     0.031 A 
ATOM     62  C   UNL A   1      38.407  31.553  36.433  1.00  0.00     0.131 A 
ATOM     63  C   UNL A   1      39.274  34.172  36.617  1.00  0.00     0.055 A 
ATOM     64  C   UNL A   1      37.958  32.358  37.482  1.00  0.00     0.041 A 
ATOM     65  F   UNL A   1      38.017  30.269  36.426  1.00  0.00    -0.206 F 
ATOM     66  C   UNL A   1      38.408  33.671  37.590  1.00  0.00     0.022 A 
BRANCH  63  67
ATOM     67  S   UNL A   1      40.084  35.777  36.860  1.00  0.00     0.124 S 
ATOM     68  O   UNL A   1      41.490  35.385  36.951  1.00  0.00    -0.237 OA
ATOM     69  O   UNL A   1      39.702  36.509  35.659  1.00  0.00    -0.237 OA
ATOM     70  O   UNL A   1      39.502  36.270  38.106  1.00  0.00    -0.744 OA
ENDBRANCH  63  67
ENDBRANCH  46  60
BRANCH  47  71
ATOM     71  C   UNL A   1      42.420  26.451  27.717  1.00  0.00     0.023 A 
ATOM     72  C   UNL A   1      42.046  25.114  27.510  1.00  0.00     0.031 A 
ATOM     73  C   UNL A   1      43.324  27.029  26.805  1.00  0.00     0.131 A 
ATOM     74  C   UNL A   1      42.607  24.385  26.449  1.00  0.00     0.055 A 
ATOM     75  C   UNL A   1      43.833  26.318  25.718  1.00  0.00     0.041 A 
ATOM     76  F   UNL A   1      43.714  28.305  26.952  1.00  0.00    -0.206 F 
ATOM     77  C   UNL A   1      43.485  24.982  25.542  1.00  0.00     0.022 A 
BRANCH  74  78
ATOM     78  S   UNL A   1      42.243  22.612  26.322  1.00  0.00     0.124 S 
ATOM     79  O   UNL A   1      40.786  22.612  26.260  1.00  0.00    -0.237 OA
ATOM     80  O   UNL A   1      42.939  22.247  25.092  1.00  0.00    -0.237 OA
ATOM     81  O   UNL A   1      42.816  22.058  27.547  1.00  0.00    -0.744 OA
ENDBRANCH  74  78
ENDBRANCH  47  71
BRANCH  59  82
ATOM     82  C   UNL A   1      44.792  27.525  34.199  1.00  0.00     0.023 A 
ATOM     83  C   UNL A   1      44.702  26.333  34.939  1.00  0.00     0.031 A 
ATOM     84  C   UNL A   1      46.026  28.200  34.181  1.00  0.00     0.131 A 
ATOM     85  C   UNL A   1      45.808  25.884  35.677  1.00  0.00     0.055 A 
ATOM     86  C   UNL A   1      47.143  27.710  34.858  1.00  0.00     0.041 A 
ATOM     87  F   UNL A   1      46.170  29.345  33.495  1.00  0.00    -0.206 F 
ATOM     88  C   UNL A   1      47.033  26.553  35.624  1.00  0.00     0.022 A 
BRANCH  85  89
ATOM     89  S   UNL A   1      45.593  24.472  36.794  1.00  0.00     0.124 S 
ATOM     90  O   UNL A   1      45.051  25.111  37.989  1.00  0.00    -0.237 OA
ATOM     91  O   UNL A   1      44.667  23.623  36.049  1.00  0.00    -0.237 OA
ATOM     92  O   UNL A   1      46.946  23.937  36.935  1.00  0.00    -0.744 OA
ENDBRANCH  85  89
ENDBRANCH  59  82
ENDBRANCH  33  34
ENDBRANCH  25  28
ENDBRANCH   1  24
TORSDOF 15
ENDMDL
MODEL 3
REMARK VINA RESULT:     -12.5      5.212      7.770
REMARK SMILES C[C@H]1CC[C@@H]([C@H](C(=O)NCCCNC(=O)c2ccc(-c3c4nc(c(-c5cc(S(=O)(=O)[O-])ccc5F)c5ccc([nH]5)c(-c5cc(S(=O)(=O)[O-])ccc5F)c5nc(c(-c6cc(S(=O)(=O)[O-])ccc6F)c6ccc3[nH]6)C=C5)C=C4)cc2)[C@@H]2CCS(=O)(=O)C2)C[C@@H]1C
REMARK SMILES IDX 12 1 11 2 10 3 9 4 7 5 8 6 6 8 5 9 1 10 2 11 3 12 87 13 4 14
REMARK SMILES IDX 86 15 88 16 79 17 80 18 85 19 81 20 82 21 83 22 84 23 13 24
REMARK SMILES IDX 14 25 15 27 16 28 17 29 78 30 18 31 77 32 19 33 20 34 21 35
REMARK SMILES IDX 71 36 22 37 76 38 70 39 72 40 23 41 75 42 69 43 68 44 24 46
REMARK SMILES IDX 56 47 36 48 55 49 37 50 40 51 54 52 73 53 38 54 39 55 53 57
REMARK SMILES IDX 74 58 41 59 25 60 26 61 34 62 27 63 33 64 35 65 32 66 28 67
REMARK SMILES IDX 29 68 30 69 31 70 57 71 58 72 66 73 59 74 65 75 67 76 64 77
REMARK SMILES IDX 60 78 61 79 62 80 63 81 42 82 43 83 51 84 44 85 50 86 52 87
REMARK SMILES IDX 49 88 45 89 46 90 47 91 48 92
REMARK H PARENT 9 7 13 26 72 45 40 56
REMARK Flexibility Score: inf
ROOT
ATOM      1  C   UNL A   1      32.599  29.508  26.079  1.00  0.00     0.118 C 
ENDROOT
BRANCH   1   2
ATOM      2  C   UNL A   1      31.754  28.496  26.838  1.00  0.00     0.042 C 
BRANCH   2   3
ATOM      3  C   UNL A   1      32.219  27.065  26.679  1.00  0.00     0.117 C 
BRANCH   3   4
ATOM      4  N   UNL A   1      31.169  26.059  26.738  1.00  0.00    -0.356 N 
ATOM      5  C   UNL A   1      31.203  24.743  26.370  1.00  0.00     0.223 C 
ATOM      6  O   UNL A   1      30.263  24.039  26.749  1.00  0.00    -0.275 OA
ATOM      7  H   UNL A   1      30.307  26.372  27.097  1.00  0.00     0.163 HD
BRANCH   5   8
ATOM      8  C   UNL A   1      32.351  24.163  25.479  1.00  0.00     0.085 C 
BRANCH   8   9
ATOM      9  C   UNL A   1      33.021  22.959  26.248  1.00  0.00     0.002 C 
ATOM     10  C   UNL A   1      36.678  21.796  24.251  1.00  0.00     0.008 C 
ATOM     11  C   UNL A   1      35.620  21.757  25.364  1.00  0.00    -0.011 C 
ATOM     12  C   UNL A   1      35.548  23.143  26.031  1.00  0.00     0.004 C 
ATOM     13  C   UNL A   1      34.278  21.181  24.825  1.00  0.00    -0.011 C 
ATOM     14  C   UNL A   1      34.344  23.327  26.925  1.00  0.00     0.005 C 
ATOM     15  C   UNL A   1      33.060  21.541  25.672  1.00  0.00     0.008 C 
ATOM     16  C   UNL A   1      34.364  19.662  24.626  1.00  0.00     0.008 C 
ENDBRANCH   8   9
BRANCH   8  17
ATOM     17  C   UNL A   1      31.773  23.914  24.035  1.00  0.00     0.018 C 
ATOM     18  C   UNL A   1      32.748  23.659  22.878  1.00  0.00     0.021 C 
ATOM     19  C   UNL A   1      30.889  25.069  23.500  1.00  0.00     0.141 C 
ATOM     20  C   UNL A   1      33.187  24.936  22.189  1.00  0.00     0.137 C 
ATOM     21  S   UNL A   1      31.923  26.122  22.498  1.00  0.00     0.150 S 
ATOM     22  O   UNL A   1      32.491  27.162  23.335  1.00  0.00    -0.229 OA
ATOM     23  O   UNL A   1      31.253  26.411  21.249  1.00  0.00    -0.229 OA
ENDBRANCH   8  17
ENDBRANCH   5   8
ENDBRANCH   3   4
ENDBRANCH   2   3
ENDBRANCH   1   2
BRANCH   1  24
ATOM     24  N   UNL A   1      32.361  30.900  26.462  1.00  0.00    -0.352 N 
ATOM     25  C   UNL A   1      33.103  31.769  27.234  1.00  0.00     0.251 C 
ATOM     26  H   UNL A   1      31.527  31.283  26.106  1.00  0.00     0.163 HD
ATOM     27  O   UNL A   1      32.639  32.871  27.515  1.00  0.00    -0.269 OA
BRANCH  25  28
ATOM     28  C   UNL A   1      34.422  31.359  27.764  1.00  0.00     0.039 A 
ATOM     29  C   UNL A   1      35.402  32.327  28.001  1.00  0.00     0.014 A 
ATOM     30  C   UNL A   1      34.679  30.027  28.076  1.00  0.00     0.014 A 
ATOM     31  C   UNL A   1      36.582  31.969  28.662  1.00  0.00     0.010 A 
ATOM     32  C   UNL A   1      35.773  29.704  28.865  1.00  0.00     0.010 A 
ATOM     33  C   UNL A   1      36.747  30.667  29.162  1.00  0.00    -0.014 A 
BRANCH  33  34
ATOM     34  C   UNL A   1      37.929  30.277  29.978  1.00  0.00     0.031 A 
ATOM     35  C   UNL A   1      38.947  29.321  29.408  1.00  0.00     0.074 A 
ATOM     36  C   UNL A   1      38.043  30.707  31.250  1.00  0.00     0.049 A 
ATOM     37  N   UNL A   1      39.978  28.764  29.989  1.00  0.00    -0.248 NA
ATOM     38  C   UNL A   1      38.748  28.899  28.013  1.00  0.00     0.031 C 
ATOM     39  C   UNL A   1      37.091  31.584  31.937  1.00  0.00     0.029 A 
ATOM     40  N   UNL A   1      39.002  30.457  32.202  1.00  0.00    -0.354 N 
ATOM     41  C   UNL A   1      40.534  27.914  29.038  1.00  0.00     0.074 A 
ATOM     42  C   UNL A   1      39.669  27.959  27.881  1.00  0.00     0.031 C 
ATOM     43  C   UNL A   1      37.532  31.828  33.182  1.00  0.00     0.029 A 
ATOM     44  C   UNL A   1      38.764  31.079  33.406  1.00  0.00     0.049 A 
ATOM     45  H   UNL A   1      39.787  29.887  32.037  1.00  0.00     0.167 HD
ATOM     46  C   UNL A   1      41.679  27.193  29.107  1.00  0.00     0.034 A 
ATOM     47  C   UNL A   1      39.450  31.038  34.567  1.00  0.00     0.034 A 
ATOM     48  C   UNL A   1      42.538  27.174  30.266  1.00  0.00     0.049 A 
ATOM     49  C   UNL A   1      40.709  30.210  34.633  1.00  0.00     0.074 A 
ATOM     50  C   UNL A   1      43.749  26.526  30.431  1.00  0.00     0.029 A 
ATOM     51  N   UNL A   1      42.270  27.828  31.463  1.00  0.00    -0.354 N 
ATOM     52  N   UNL A   1      41.255  29.460  33.702  1.00  0.00    -0.248 NA
ATOM     53  C   UNL A   1      41.452  30.235  35.899  1.00  0.00     0.031 C 
ATOM     54  C   UNL A   1      44.172  26.722  31.749  1.00  0.00     0.029 A 
ATOM     55  C   UNL A   1      43.275  27.569  32.382  1.00  0.00     0.049 A 
ATOM     56  H   UNL A   1      41.482  28.392  31.633  1.00  0.00     0.167 HD
ATOM     57  C   UNL A   1      42.422  28.948  34.265  1.00  0.00     0.074 A 
ATOM     58  C   UNL A   1      42.507  29.490  35.604  1.00  0.00     0.031 C 
ATOM     59  C   UNL A   1      43.341  28.109  33.721  1.00  0.00     0.034 A 
BRANCH  46  60
ATOM     60  C   UNL A   1      42.048  26.360  27.900  1.00  0.00     0.023 A 
ATOM     61  C   UNL A   1      41.601  25.033  27.755  1.00  0.00     0.031 A 
ATOM     62  C   UNL A   1      42.897  26.875  26.905  1.00  0.00     0.131 A 
ATOM     63  C   UNL A   1      42.083  24.240  26.703  1.00  0.00     0.055 A 
ATOM     64  C   UNL A   1      43.293  26.111  25.805  1.00  0.00     0.041 A 
ATOM     65  F   UNL A   1      43.377  28.125  26.995  1.00  0.00    -0.206 F 
ATOM     66  C   UNL A   1      42.903  24.778  25.710  1.00  0.00     0.022 A 
BRANCH  63  67
ATOM     67  S   UNL A   1      41.770  22.454  26.756  1.00  0.00     0.124 S 
ATOM     68  O   UNL A   1      42.793  22.004  27.698  1.00  0.00    -0.237 OA
ATOM     69  O   UNL A   1      40.393  22.388  27.230  1.00  0.00    -0.237 OA
ATOM     70  O   UNL A   1      41.978  22.028  25.374  1.00  0.00    -0.744 OA
ENDBRANCH  63  67
ENDBRANCH  46  60
BRANCH  47  71
ATOM     71  C   UNL A   1      38.958  31.785  35.762  1.00  0.00     0.023 A 
ATOM     72  C   UNL A   1      38.293  31.128  36.809  1.00  0.00     0.031 A 
ATOM     73  C   UNL A   1      39.118  33.180  35.858  1.00  0.00     0.131 A 
ATOM     74  C   UNL A   1      37.772  31.869  37.883  1.00  0.00     0.055 A 
ATOM     75  C   UNL A   1      38.651  33.904  36.956  1.00  0.00     0.041 A 
ATOM     76  F   UNL A   1      39.749  33.860  34.887  1.00  0.00    -0.206 F 
ATOM     77  C   UNL A   1      37.961  33.250  37.971  1.00  0.00     0.022 A 
BRANCH  74  78
ATOM     78  S   UNL A   1      36.762  31.013  39.123  1.00  0.00     0.124 S 
ATOM     79  O   UNL A   1      35.588  31.875  39.196  1.00  0.00    -0.237 OA
ATOM     80  O   UNL A   1      36.562  29.707  38.502  1.00  0.00    -0.237 OA
ATOM     81  O   UNL A   1      37.611  31.011  40.312  1.00  0.00    -0.744 OA
ENDBRANCH  74  78
ENDBRANCH  47  71
BRANCH  59  82
ATOM     82  C   UNL A   1      44.546  27.767  34.564  1.00  0.00     0.023 A 
ATOM     83  C   UNL A   1      44.565  26.646  35.413  1.00  0.00     0.031 A 
ATOM     84  C   UNL A   1      45.692  28.581  34.519  1.00  0.00     0.131 A 
ATOM     85  C   UNL A   1      45.684  26.404  36.225  1.00  0.00     0.055 A 
ATOM     86  C   UNL A   1      46.829  28.295  35.275  1.00  0.00     0.041 A 
ATOM     87  F   UNL A   1      45.729  29.667  33.730  1.00  0.00    -0.206 F 
ATOM     88  C   UNL A   1      46.823  27.208  36.146  1.00  0.00     0.022 A 
BRANCH  85  89
ATOM     89  S   UNL A   1      45.588  25.085  37.465  1.00  0.00     0.124 S 
ATOM     90  O   UNL A   1      46.239  23.975  36.776  1.00  0.00    -0.237 OA
ATOM     91  O   UNL A   1      46.325  25.659  38.588  1.00  0.00    -0.237 OA
ATOM     92  O   UNL A   1      44.152  24.924  37.685  1.00  0.00    -0.744 OA
ENDBRANCH  85  89
ENDBRANCH  59  82
ENDBRANCH  33  34
ENDBRANCH  25  28
ENDBRANCH   1  24
TORSDOF 15
ENDMDL
