MODEL 1
REMARK VINA RESULT:     -11.1      0.000      0.000
REMARK SMILES C[C@H](CN(C)C(=O)CCc1nc2ccccc2o1)C(=O)NCCCNC(=O)c1ccc(-c2c3nc(c(-c4cc(S(=O)(=O)[O-])ccc4F)c4ccc([nH]4)c(-c4cc(S(=O)(=O)[O-])ccc4F)c4nc(c(-c5cc(S(=O)(=O)[O-])ccc5F)c5ccc2[nH]5)C=C4)C=C3)cc1
REMARK SMILES IDX 19 1 20 2 21 3 2 5 1 6 3 7 4 8 5 9 6 10 7 11 8 12 9 13 10 14
REMARK SMILES IDX 11 15 18 16 12 17 17 18 13 19 16 20 14 21 15 22 22 23 23 24
REMARK SMILES IDX 24 25 25 26 26 27 27 29 28 30 29 31 90 32 30 33 89 34 31 35
REMARK SMILES IDX 32 36 33 37 83 38 34 39 88 40 82 41 84 42 35 43 87 44 81 45
REMARK SMILES IDX 80 46 36 48 68 49 48 50 67 51 49 52 52 53 66 54 85 55 50 56
REMARK SMILES IDX 51 57 65 59 86 60 53 61 37 62 38 63 46 64 39 65 45 66 47 67
REMARK SMILES IDX 44 68 40 69 41 70 42 71 43 72 69 73 70 74 78 75 71 76 77 77
REMARK SMILES IDX 79 78 76 79 72 80 73 81 74 82 75 83 54 84 55 85 63 86 56 87
REMARK SMILES IDX 62 88 64 89 61 90 57 91 58 92 59 93 60 94
REMARK H PARENT 21 4 25 28 84 47 52 58
REMARK Flexibility Score: inf
ROOT
ATOM      1  C   UNL A   1      33.795  25.958  25.471  1.00  0.00     0.224 C 
ATOM      2  O   UNL A   1      33.241  26.521  26.420  1.00  0.00    -0.275 OA
ATOM      3  N   UNL A   1      34.581  24.883  25.754  1.00  0.00    -0.356 N 
ATOM      4  H   UNL A   1      34.637  24.653  26.709  1.00  0.00     0.163 HD
ENDROOT
BRANCH   1   5
ATOM      5  C   UNL A   1      33.555  26.456  24.043  1.00  0.00     0.095 C 
ATOM      6  C   UNL A   1      33.826  27.953  23.920  1.00  0.00     0.020 C 
BRANCH   5   7
ATOM      7  C   UNL A   1      32.241  25.909  23.461  1.00  0.00     0.132 C 
BRANCH   7   8
ATOM      8  N   UNL A   1      32.251  24.513  23.007  1.00  0.00    -0.345 N 
ATOM      9  C   UNL A   1      33.044  24.247  21.821  1.00  0.00     0.146 C 
BRANCH   8  10
ATOM     10  C   UNL A   1      31.698  23.535  23.820  1.00  0.00     0.222 C 
ATOM     11  O   UNL A   1      30.887  23.819  24.705  1.00  0.00    -0.275 OA
BRANCH  10  12
ATOM     12  C   UNL A   1      32.004  22.066  23.610  1.00  0.00     0.110 C 
BRANCH  12  13
ATOM     13  C   UNL A   1      32.685  21.437  24.831  1.00  0.00     0.107 C 
BRANCH  13  14
ATOM     14  C   UNL A   1      32.875  19.980  24.625  1.00  0.00     0.195 A 
ATOM     15  N   UNL A   1      32.015  19.020  24.910  1.00  0.00    -0.214 NA
ATOM     16  O   UNL A   1      34.137  19.550  24.311  1.00  0.00    -0.441 OA
ATOM     17  C   UNL A   1      32.798  17.904  24.974  1.00  0.00     0.109 A 
ATOM     18  C   UNL A   1      34.088  18.209  24.573  1.00  0.00     0.154 A 
ATOM     19  C   UNL A   1      32.514  16.627  25.468  1.00  0.00     0.032 A 
ATOM     20  C   UNL A   1      35.144  17.308  24.568  1.00  0.00     0.049 A 
ATOM     21  C   UNL A   1      33.569  15.708  25.545  1.00  0.00     0.003 A 
ATOM     22  C   UNL A   1      34.853  16.039  25.089  1.00  0.00     0.004 A 
ENDBRANCH  13  14
ENDBRANCH  12  13
ENDBRANCH  10  12
ENDBRANCH   8  10
ENDBRANCH   7   8
ENDBRANCH   5   7
ENDBRANCH   1   5
BRANCH   3  23
ATOM     23  C   UNL A   1      35.351  24.022  24.873  1.00  0.00     0.117 C 
BRANCH  23  24
ATOM     24  C   UNL A   1      36.160  22.979  25.640  1.00  0.00     0.042 C 
BRANCH  24  25
ATOM     25  C   UNL A   1      37.381  22.494  24.880  1.00  0.00     0.118 C 
BRANCH  25  26
ATOM     26  N   UNL A   1      38.151  21.531  25.656  1.00  0.00    -0.352 N 
ATOM     27  C   UNL A   1      39.291  21.695  26.400  1.00  0.00     0.251 C 
ATOM     28  H   UNL A   1      37.795  20.614  25.645  1.00  0.00     0.163 HD
ATOM     29  O   UNL A   1      39.922  20.690  26.743  1.00  0.00    -0.269 OA
BRANCH  27  30
ATOM     30  C   UNL A   1      39.777  23.039  26.786  1.00  0.00     0.039 A 
ATOM     31  C   UNL A   1      40.616  23.166  27.898  1.00  0.00     0.014 A 
ATOM     32  C   UNL A   1      39.372  24.184  26.097  1.00  0.00     0.014 A 
ATOM     33  C   UNL A   1      41.085  24.427  28.281  1.00  0.00     0.010 A 
ATOM     34  C   UNL A   1      39.927  25.421  26.410  1.00  0.00     0.010 A 
ATOM     35  C   UNL A   1      40.772  25.563  27.518  1.00  0.00    -0.014 A 
BRANCH  35  36
ATOM     36  C   UNL A   1      41.278  26.914  27.880  1.00  0.00     0.031 A 
ATOM     37  C   UNL A   1      42.703  27.290  27.563  1.00  0.00     0.074 A 
ATOM     38  C   UNL A   1      40.486  27.769  28.558  1.00  0.00     0.049 A 
ATOM     39  N   UNL A   1      43.375  28.361  27.898  1.00  0.00    -0.248 NA
ATOM     40  C   UNL A   1      43.489  26.306  26.800  1.00  0.00     0.031 C 
ATOM     41  C   UNL A   1      39.104  27.500  28.963  1.00  0.00     0.029 A 
ATOM     42  N   UNL A   1      40.731  29.030  29.036  1.00  0.00    -0.354 N 
ATOM     43  C   UNL A   1      44.665  28.167  27.416  1.00  0.00     0.074 A 
ATOM     44  C   UNL A   1      44.697  26.848  26.824  1.00  0.00     0.031 C 
ATOM     45  C   UNL A   1      38.616  28.576  29.602  1.00  0.00     0.029 A 
ATOM     46  C   UNL A   1      39.662  29.588  29.699  1.00  0.00     0.049 A 
ATOM     47  H   UNL A   1      41.591  29.494  28.917  1.00  0.00     0.167 HD
ATOM     48  C   UNL A   1      45.720  29.020  27.440  1.00  0.00     0.034 A 
ATOM     49  C   UNL A   1      39.542  30.776  30.325  1.00  0.00     0.034 A 
ATOM     50  C   UNL A   1      45.658  30.347  28.005  1.00  0.00     0.049 A 
ATOM     51  C   UNL A   1      40.724  31.711  30.338  1.00  0.00     0.074 A 
ATOM     52  C   UNL A   1      46.640  31.322  28.028  1.00  0.00     0.029 A 
ATOM     53  N   UNL A   1      44.549  30.884  28.648  1.00  0.00    -0.354 N 
ATOM     54  N   UNL A   1      41.925  31.530  29.837  1.00  0.00    -0.248 NA
ATOM     55  C   UNL A   1      40.532  33.012  30.989  1.00  0.00     0.031 C 
ATOM     56  C   UNL A   1      46.147  32.423  28.737  1.00  0.00     0.029 A 
ATOM     57  C   UNL A   1      44.832  32.166  29.094  1.00  0.00     0.049 A 
ATOM     58  H   UNL A   1      43.689  30.422  28.770  1.00  0.00     0.167 HD
ATOM     59  C   UNL A   1      42.621  32.709  30.088  1.00  0.00     0.074 A 
ATOM     60  C   UNL A   1      41.701  33.596  30.769  1.00  0.00     0.031 C 
ATOM     61  C   UNL A   1      43.903  33.032  29.779  1.00  0.00     0.034 A 
BRANCH  48  62
ATOM     62  C   UNL A   1      47.026  28.533  26.855  1.00  0.00     0.023 A 
ATOM     63  C   UNL A   1      47.211  28.397  25.467  1.00  0.00     0.031 A 
ATOM     64  C   UNL A   1      48.091  28.165  27.696  1.00  0.00     0.131 A 
ATOM     65  C   UNL A   1      48.392  27.828  24.969  1.00  0.00     0.055 A 
ATOM     66  C   UNL A   1      49.298  27.682  27.189  1.00  0.00     0.041 A 
ATOM     67  F   UNL A   1      47.970  28.253  29.031  1.00  0.00    -0.206 F 
ATOM     68  C   UNL A   1      49.449  27.494  25.818  1.00  0.00     0.022 A 
BRANCH  65  69
ATOM     69  S   UNL A   1      48.468  27.392  23.209  1.00  0.00     0.124 S 
ATOM     70  O   UNL A   1      47.326  28.130  22.675  1.00  0.00    -0.237 OA
ATOM     71  O   UNL A   1      49.785  27.881  22.818  1.00  0.00    -0.237 OA
ATOM     72  O   UNL A   1      48.316  25.939  23.210  1.00  0.00    -0.744 OA
ENDBRANCH  65  69
ENDBRANCH  48  62
BRANCH  49  73
ATOM     73  C   UNL A   1      38.264  31.151  30.996  1.00  0.00     0.023 A 
ATOM     74  C   UNL A   1      37.233  31.782  30.281  1.00  0.00     0.031 A 
ATOM     75  C   UNL A   1      38.066  30.914  32.367  1.00  0.00     0.131 A 
ATOM     76  C   UNL A   1      36.071  32.197  30.949  1.00  0.00     0.055 A 
ATOM     77  C   UNL A   1      36.886  31.281  33.016  1.00  0.00     0.041 A 
ATOM     78  F   UNL A   1      39.016  30.308  33.096  1.00  0.00    -0.206 F 
ATOM     79  C   UNL A   1      35.884  31.939  32.309  1.00  0.00     0.022 A 
BRANCH  76  80
ATOM     80  S   UNL A   1      34.835  33.155  30.030  1.00  0.00     0.124 S 
ATOM     81  O   UNL A   1      34.276  32.143  29.141  1.00  0.00    -0.237 OA
ATOM     82  O   UNL A   1      33.961  33.626  31.099  1.00  0.00    -0.237 OA
ATOM     83  O   UNL A   1      35.628  34.192  29.373  1.00  0.00    -0.744 OA
ENDBRANCH  76  80
ENDBRANCH  49  73
BRANCH  61  84
ATOM     84  C   UNL A   1      44.361  34.424  30.138  1.00  0.00     0.023 A 
ATOM     85  C   UNL A   1      44.179  35.510  29.266  1.00  0.00     0.031 A 
ATOM     86  C   UNL A   1      44.998  34.661  31.369  1.00  0.00     0.131 A 
ATOM     87  C   UNL A   1      44.678  36.775  29.613  1.00  0.00     0.055 A 
ATOM     88  C   UNL A   1      45.439  35.933  31.735  1.00  0.00     0.041 A 
ATOM     89  F   UNL A   1      45.198  33.658  32.239  1.00  0.00    -0.206 F 
ATOM     90  C   UNL A   1      45.291  36.997  30.849  1.00  0.00     0.022 A 
BRANCH  87  91
ATOM     91  S   UNL A   1      44.593  38.111  28.389  1.00  0.00     0.124 S 
ATOM     92  O   UNL A   1      43.173  38.127  28.056  1.00  0.00    -0.237 OA
ATOM     93  O   UNL A   1      45.085  39.259  29.142  1.00  0.00    -0.237 OA
ATOM     94  O   UNL A   1      45.475  37.650  27.318  1.00  0.00    -0.744 OA
ENDBRANCH  87  91
ENDBRANCH  61  84
ENDBRANCH  35  36
ENDBRANCH  27  30
ENDBRANCH  25  26
ENDBRANCH  24  25
ENDBRANCH  23  24
ENDBRANCH   3  23
TORSDOF 19
ENDMDL
MODEL 2
REMARK VINA RESULT:     -11.0      2.069      2.459
REMARK SMILES C[C@H](CN(C)C(=O)CCc1nc2ccccc2o1)C(=O)NCCCNC(=O)c1ccc(-c2c3nc(c(-c4cc(S(=O)(=O)[O-])ccc4F)c4ccc([nH]4)c(-c4cc(S(=O)(=O)[O-])ccc4F)c4nc(c(-c5cc(S(=O)(=O)[O-])ccc5F)c5ccc2[nH]5)C=C4)C=C3)cc1
REMARK SMILES IDX 19 1 20 2 21 3 2 5 1 6 3 7 4 8 5 9 6 10 7 11 8 12 9 13 10 14
REMARK SMILES IDX 11 15 18 16 12 17 17 18 13 19 16 20 14 21 15 22 22 23 23 24
REMARK SMILES IDX 24 25 25 26 26 27 27 29 28 30 29 31 90 32 30 33 89 34 31 35
REMARK SMILES IDX 32 36 33 37 83 38 34 39 88 40 82 41 84 42 35 43 87 44 81 45
REMARK SMILES IDX 80 46 36 48 68 49 48 50 67 51 49 52 52 53 66 54 85 55 50 56
REMARK SMILES IDX 51 57 65 59 86 60 53 61 37 62 38 63 46 64 39 65 45 66 47 67
REMARK SMILES IDX 44 68 40 69 41 70 42 71 43 72 69 73 70 74 78 75 71 76 77 77
REMARK SMILES IDX 79 78 76 79 72 80 73 81 74 82 75 83 54 84 55 85 63 86 56 87
REMARK SMILES IDX 62 88 64 89 61 90 57 91 58 92 59 93 60 94
REMARK H PARENT 21 4 25 28 84 47 52 58
REMARK Flexibility Score: inf
ROOT
ATOM      1  C   UNL A   1      33.772  25.149  25.524  1.00  0.00     0.224 C 
ATOM      2  O   UNL A   1      33.075  24.991  26.531  1.00  0.00    -0.275 OA
ATOM      3  N   UNL A   1      34.658  24.162  25.216  1.00  0.00    -0.356 N 
ATOM      4  H   UNL A   1      34.661  23.401  25.839  1.00  0.00     0.163 HD
ENDROOT
BRANCH   1   5
ATOM      5  C   UNL A   1      33.594  26.402  24.662  1.00  0.00     0.095 C 
ATOM      6  C   UNL A   1      33.969  27.667  25.430  1.00  0.00     0.020 C 
BRANCH   5   7
ATOM      7  C   UNL A   1      32.257  26.387  23.902  1.00  0.00     0.132 C 
BRANCH   7   8
ATOM      8  N   UNL A   1      32.097  25.354  22.871  1.00  0.00    -0.345 N 
ATOM      9  C   UNL A   1      32.967  25.481  21.717  1.00  0.00     0.146 C 
BRANCH   8  10
ATOM     10  C   UNL A   1      31.305  24.248  23.143  1.00  0.00     0.222 C 
ATOM     11  O   UNL A   1      30.074  24.321  23.135  1.00  0.00    -0.275 OA
BRANCH  10  12
ATOM     12  C   UNL A   1      31.914  22.881  23.387  1.00  0.00     0.110 C 
BRANCH  12  13
ATOM     13  C   UNL A   1      31.585  22.343  24.783  1.00  0.00     0.107 C 
BRANCH  13  14
ATOM     14  C   UNL A   1      32.405  21.143  25.083  1.00  0.00     0.195 A 
ATOM     15  N   UNL A   1      33.723  21.074  25.129  1.00  0.00    -0.214 NA
ATOM     16  O   UNL A   1      31.763  19.933  25.105  1.00  0.00    -0.441 OA
ATOM     17  C   UNL A   1      33.974  19.741  24.982  1.00  0.00     0.109 A 
ATOM     18  C   UNL A   1      32.785  19.031  25.004  1.00  0.00     0.154 A 
ATOM     19  C   UNL A   1      35.172  19.070  24.712  1.00  0.00     0.032 A 
ATOM     20  C   UNL A   1      32.685  17.657  24.831  1.00  0.00     0.049 A 
ATOM     21  C   UNL A   1      35.106  17.694  24.463  1.00  0.00     0.003 A 
ATOM     22  C   UNL A   1      33.889  17.001  24.537  1.00  0.00     0.004 A 
ENDBRANCH  13  14
ENDBRANCH  12  13
ENDBRANCH  10  12
ENDBRANCH   8  10
ENDBRANCH   7   8
ENDBRANCH   5   7
ENDBRANCH   1   5
BRANCH   3  23
ATOM     23  C   UNL A   1      35.599  24.054  24.114  1.00  0.00     0.117 C 
BRANCH  23  24
ATOM     24  C   UNL A   1      36.729  23.069  24.410  1.00  0.00     0.042 C 
BRANCH  24  25
ATOM     25  C   UNL A   1      37.100  23.012  25.880  1.00  0.00     0.118 C 
BRANCH  25  26
ATOM     26  N   UNL A   1      38.235  22.129  26.115  1.00  0.00    -0.352 N 
ATOM     27  C   UNL A   1      39.542  22.418  26.409  1.00  0.00     0.251 C 
ATOM     28  H   UNL A   1      38.029  21.168  26.053  1.00  0.00     0.163 HD
ATOM     29  O   UNL A   1      40.385  21.523  26.292  1.00  0.00    -0.269 OA
BRANCH  27  30
ATOM     30  C   UNL A   1      39.956  23.769  26.849  1.00  0.00     0.039 A 
ATOM     31  C   UNL A   1      40.039  24.798  25.904  1.00  0.00     0.014 A 
ATOM     32  C   UNL A   1      40.316  24.024  28.174  1.00  0.00     0.014 A 
ATOM     33  C   UNL A   1      40.431  26.081  26.299  1.00  0.00     0.010 A 
ATOM     34  C   UNL A   1      40.595  25.323  28.586  1.00  0.00     0.010 A 
ATOM     35  C   UNL A   1      40.678  26.364  27.651  1.00  0.00    -0.014 A 
BRANCH  35  36
ATOM     36  C   UNL A   1      41.067  27.725  28.110  1.00  0.00     0.031 A 
ATOM     37  C   UNL A   1      42.519  28.133  28.095  1.00  0.00     0.074 A 
ATOM     38  C   UNL A   1      40.133  28.558  28.607  1.00  0.00     0.049 A 
ATOM     39  N   UNL A   1      43.082  29.218  28.562  1.00  0.00    -0.248 NA
ATOM     40  C   UNL A   1      43.468  27.170  27.513  1.00  0.00     0.031 C 
ATOM     41  C   UNL A   1      38.703  28.257  28.716  1.00  0.00     0.029 A 
ATOM     42  N   UNL A   1      40.244  29.823  29.125  1.00  0.00    -0.354 N 
ATOM     43  C   UNL A   1      44.448  29.054  28.358  1.00  0.00     0.074 A 
ATOM     44  C   UNL A   1      44.632  27.738  27.787  1.00  0.00     0.031 C 
ATOM     45  C   UNL A   1      38.069  29.319  29.240  1.00  0.00     0.029 A 
ATOM     46  C   UNL A   1      39.049  30.354  29.551  1.00  0.00     0.049 A 
ATOM     47  H   UNL A   1      41.100  30.307  29.187  1.00  0.00     0.167 HD
ATOM     48  C   UNL A   1      45.455  29.931  28.600  1.00  0.00     0.034 A 
ATOM     49  C   UNL A   1      38.774  31.537  30.138  1.00  0.00     0.034 A 
ATOM     50  C   UNL A   1      45.248  31.253  29.139  1.00  0.00     0.049 A 
ATOM     51  C   UNL A   1      39.907  32.497  30.396  1.00  0.00     0.074 A 
ATOM     52  C   UNL A   1      46.181  32.250  29.365  1.00  0.00     0.029 A 
ATOM     53  N   UNL A   1      44.018  31.763  29.538  1.00  0.00    -0.354 N 
ATOM     54  N   UNL A   1      41.190  32.345  30.156  1.00  0.00    -0.248 NA
ATOM     55  C   UNL A   1      39.555  33.792  30.992  1.00  0.00     0.031 C 
ATOM     56  C   UNL A   1      45.527  33.336  29.956  1.00  0.00     0.029 A 
ATOM     57  C   UNL A   1      44.172  33.049  30.032  1.00  0.00     0.049 A 
ATOM     58  H   UNL A   1      43.161  31.282  29.478  1.00  0.00     0.167 HD
ATOM     59  C   UNL A   1      41.791  33.539  30.545  1.00  0.00     0.074 A 
ATOM     60  C   UNL A   1      40.730  34.402  31.019  1.00  0.00     0.031 C 
ATOM     61  C   UNL A   1      43.102  33.892  30.509  1.00  0.00     0.034 A 
BRANCH  48  62
ATOM     62  C   UNL A   1      46.865  29.474  28.300  1.00  0.00     0.023 A 
ATOM     63  C   UNL A   1      47.693  28.924  29.295  1.00  0.00     0.031 A 
ATOM     64  C   UNL A   1      47.403  29.622  27.009  1.00  0.00     0.131 A 
ATOM     65  C   UNL A   1      49.032  28.624  29.007  1.00  0.00     0.055 A 
ATOM     66  C   UNL A   1      48.711  29.239  26.707  1.00  0.00     0.041 A 
ATOM     67  F   UNL A   1      46.670  30.158  26.020  1.00  0.00    -0.206 F 
ATOM     68  C   UNL A   1      49.541  28.752  27.713  1.00  0.00     0.022 A 
BRANCH  65  69
ATOM     69  S   UNL A   1      50.141  28.208  30.382  1.00  0.00     0.124 S 
ATOM     70  O   UNL A   1      50.936  27.129  29.802  1.00  0.00    -0.237 OA
ATOM     71  O   UNL A   1      50.843  29.466  30.613  1.00  0.00    -0.237 OA
ATOM     72  O   UNL A   1      49.229  27.798  31.446  1.00  0.00    -0.744 OA
ENDBRANCH  65  69
ENDBRANCH  48  62
BRANCH  49  73
ATOM     73  C   UNL A   1      37.377  31.881  30.528  1.00  0.00     0.023 A 
ATOM     74  C   UNL A   1      36.514  32.525  29.627  1.00  0.00     0.031 A 
ATOM     75  C   UNL A   1      36.893  31.601  31.818  1.00  0.00     0.131 A 
ATOM     76  C   UNL A   1      35.230  32.909  30.040  1.00  0.00     0.055 A 
ATOM     77  C   UNL A   1      35.595  31.938  32.208  1.00  0.00     0.041 A 
ATOM     78  F   UNL A   1      37.673  30.980  32.717  1.00  0.00    -0.206 F 
ATOM     79  C   UNL A   1      34.760  32.608  31.320  1.00  0.00     0.022 A 
BRANCH  76  80
ATOM     80  S   UNL A   1      34.207  33.885  28.904  1.00  0.00     0.124 S 
ATOM     81  O   UNL A   1      33.226  34.467  29.813  1.00  0.00    -0.237 OA
ATOM     82  O   UNL A   1      35.183  34.808  28.335  1.00  0.00    -0.237 OA
ATOM     83  O   UNL A   1      33.682  32.886  27.976  1.00  0.00    -0.744 OA
ENDBRANCH  76  80
ENDBRANCH  49  73
BRANCH  61  84
ATOM     84  C   UNL A   1      43.444  35.291  30.954  1.00  0.00     0.023 A 
ATOM     85  C   UNL A   1      43.488  36.366  30.050  1.00  0.00     0.031 A 
ATOM     86  C   UNL A   1      43.740  35.549  32.305  1.00  0.00     0.131 A 
ATOM     87  C   UNL A   1      43.873  37.639  30.496  1.00  0.00     0.055 A 
ATOM     88  C   UNL A   1      44.064  36.829  32.754  1.00  0.00     0.041 A 
ATOM     89  F   UNL A   1      43.714  34.559  33.211  1.00  0.00    -0.206 F 
ATOM     90  C   UNL A   1      44.144  37.881  31.845  1.00  0.00     0.022 A 
BRANCH  87  91
ATOM     91  S   UNL A   1      44.100  38.959  29.272  1.00  0.00     0.124 S 
ATOM     92  O   UNL A   1      45.242  38.471  28.508  1.00  0.00    -0.237 OA
ATOM     93  O   UNL A   1      42.818  38.962  28.575  1.00  0.00    -0.237 OA
ATOM     94  O   UNL A   1      44.362  40.142  30.090  1.00  0.00    -0.744 OA
ENDBRANCH  87  91
ENDBRANCH  61  84
ENDBRANCH  35  36
ENDBRANCH  27  30
ENDBRANCH  25  26
ENDBRANCH  24  25
ENDBRANCH  23  24
ENDBRANCH   3  23
TORSDOF 19
ENDMDL
MODEL 3
REMARK VINA RESULT:     -10.8      5.587     12.236
REMARK SMILES C[C@H](CN(C)C(=O)CCc1nc2ccccc2o1)C(=O)NCCCNC(=O)c1ccc(-c2c3nc(c(-c4cc(S(=O)(=O)[O-])ccc4F)c4ccc([nH]4)c(-c4cc(S(=O)(=O)[O-])ccc4F)c4nc(c(-c5cc(S(=O)(=O)[O-])ccc5F)c5ccc2[nH]5)C=C4)C=C3)cc1
REMARK SMILES IDX 19 1 20 2 21 3 2 5 1 6 3 7 4 8 5 9 6 10 7 11 8 12 9 13 10 14
REMARK SMILES IDX 11 15 18 16 12 17 17 18 13 19 16 20 14 21 15 22 22 23 23 24
REMARK SMILES IDX 24 25 25 26 26 27 27 29 28 30 29 31 90 32 30 33 89 34 31 35
REMARK SMILES IDX 32 36 33 37 83 38 34 39 88 40 82 41 84 42 35 43 87 44 81 45
REMARK SMILES IDX 80 46 36 48 68 49 48 50 67 51 49 52 52 53 66 54 85 55 50 56
REMARK SMILES IDX 51 57 65 59 86 60 53 61 37 62 38 63 46 64 39 65 45 66 47 67
REMARK SMILES IDX 44 68 40 69 41 70 42 71 43 72 69 73 70 74 78 75 71 76 77 77
REMARK SMILES IDX 79 78 76 79 72 80 73 81 74 82 75 83 54 84 55 85 63 86 56 87
REMARK SMILES IDX 62 88 64 89 61 90 57 91 58 92 59 93 60 94
REMARK H PARENT 21 4 25 28 84 47 52 58
REMARK Flexibility Score: inf
ROOT
ATOM      1  C   UNL A   1      34.194  35.190  31.551  1.00  0.00     0.224 C 
ATOM      2  O   UNL A   1      34.501  36.080  32.351  1.00  0.00    -0.275 OA
ATOM      3  N   UNL A   1      33.769  35.578  30.317  1.00  0.00    -0.356 N 
ATOM      4  H   UNL A   1      33.743  36.552  30.177  1.00  0.00     0.163 HD
ENDROOT
BRANCH   1   5
ATOM      5  C   UNL A   1      34.334  33.720  31.955  1.00  0.00     0.095 C 
ATOM      6  C   UNL A   1      33.758  33.466  33.345  1.00  0.00     0.020 C 
BRANCH   5   7
ATOM      7  C   UNL A   1      35.736  33.172  31.642  1.00  0.00     0.132 C 
BRANCH   7   8
ATOM      8  N   UNL A   1      36.667  33.059  32.772  1.00  0.00    -0.345 N 
ATOM      9  C   UNL A   1      36.826  31.725  33.320  1.00  0.00     0.146 C 
BRANCH   8  10
ATOM     10  C   UNL A   1      37.464  34.146  33.100  1.00  0.00     0.222 C 
ATOM     11  O   UNL A   1      37.120  34.957  33.962  1.00  0.00    -0.275 OA
BRANCH  10  12
ATOM     12  C   UNL A   1      38.828  34.345  32.470  1.00  0.00     0.110 C 
BRANCH  12  13
ATOM     13  C   UNL A   1      38.760  34.365  30.939  1.00  0.00     0.107 C 
BRANCH  13  14
ATOM     14  C   UNL A   1      40.124  34.452  30.362  1.00  0.00     0.195 A 
ATOM     15  N   UNL A   1      41.267  34.248  30.990  1.00  0.00    -0.214 NA
ATOM     16  O   UNL A   1      40.242  35.004  29.113  1.00  0.00    -0.441 OA
ATOM     17  C   UNL A   1      42.181  34.875  30.193  1.00  0.00     0.109 A 
ATOM     18  C   UNL A   1      41.572  35.307  29.026  1.00  0.00     0.154 A 
ATOM     19  C   UNL A   1      43.515  35.214  30.441  1.00  0.00     0.032 A 
ATOM     20  C   UNL A   1      42.213  36.024  28.025  1.00  0.00     0.049 A 
ATOM     21  C   UNL A   1      44.177  35.996  29.486  1.00  0.00     0.003 A 
ATOM     22  C   UNL A   1      43.542  36.378  28.296  1.00  0.00     0.004 A 
ENDBRANCH  13  14
ENDBRANCH  12  13
ENDBRANCH  10  12
ENDBRANCH   8  10
ENDBRANCH   7   8
ENDBRANCH   5   7
ENDBRANCH   1   5
BRANCH   3  23
ATOM     23  C   UNL A   1      33.347  34.785  29.175  1.00  0.00     0.117 C 
BRANCH  23  24
ATOM     24  C   UNL A   1      34.420  34.711  28.090  1.00  0.00     0.042 C 
BRANCH  24  25
ATOM     25  C   UNL A   1      35.161  33.387  28.074  1.00  0.00     0.118 C 
BRANCH  25  26
ATOM     26  N   UNL A   1      34.273  32.277  27.756  1.00  0.00    -0.352 N 
ATOM     27  C   UNL A   1      34.531  30.935  27.642  1.00  0.00     0.251 C 
ATOM     28  H   UNL A   1      33.335  32.531  27.597  1.00  0.00     0.163 HD
ATOM     29  O   UNL A   1      33.689  30.217  27.094  1.00  0.00    -0.269 OA
BRANCH  27  30
ATOM     30  C   UNL A   1      35.788  30.343  28.150  1.00  0.00     0.039 A 
ATOM     31  C   UNL A   1      36.917  30.330  27.325  1.00  0.00     0.014 A 
ATOM     32  C   UNL A   1      35.854  29.749  29.413  1.00  0.00     0.014 A 
ATOM     33  C   UNL A   1      38.115  29.773  27.785  1.00  0.00     0.010 A 
ATOM     34  C   UNL A   1      37.073  29.299  29.911  1.00  0.00     0.010 A 
ATOM     35  C   UNL A   1      38.213  29.283  29.097  1.00  0.00    -0.014 A 
BRANCH  35  36
ATOM     36  C   UNL A   1      39.479  28.712  29.628  1.00  0.00     0.031 A 
ATOM     37  C   UNL A   1      40.182  29.390  30.777  1.00  0.00     0.074 A 
ATOM     38  C   UNL A   1      40.032  27.637  29.033  1.00  0.00     0.049 A 
ATOM     39  N   UNL A   1      41.350  29.129  31.307  1.00  0.00    -0.248 NA
ATOM     40  C   UNL A   1      39.496  30.543  31.381  1.00  0.00     0.031 C 
ATOM     41  C   UNL A   1      39.469  26.923  27.885  1.00  0.00     0.029 A 
ATOM     42  N   UNL A   1      41.196  26.962  29.303  1.00  0.00    -0.354 N 
ATOM     43  C   UNL A   1      41.549  30.101  32.283  1.00  0.00     0.074 A 
ATOM     44  C   UNL A   1      40.413  30.994  32.223  1.00  0.00     0.031 C 
ATOM     45  C   UNL A   1      40.274  25.894  27.568  1.00  0.00     0.029 A 
ATOM     46  C   UNL A   1      41.433  25.906  28.454  1.00  0.00     0.049 A 
ATOM     47  H   UNL A   1      41.805  27.211  30.035  1.00  0.00     0.167 HD
ATOM     48  C   UNL A   1      42.573  30.223  33.165  1.00  0.00     0.034 A 
ATOM     49  C   UNL A   1      42.473  25.051  28.388  1.00  0.00     0.034 A 
ATOM     50  C   UNL A   1      43.681  29.302  33.231  1.00  0.00     0.049 A 
ATOM     51  C   UNL A   1      43.598  25.201  29.380  1.00  0.00     0.074 A 
ATOM     52  C   UNL A   1      44.740  29.286  34.122  1.00  0.00     0.029 A 
ATOM     53  N   UNL A   1      43.874  28.230  32.367  1.00  0.00    -0.354 N 
ATOM     54  N   UNL A   1      43.750  26.100  30.326  1.00  0.00    -0.248 NA
ATOM     55  C   UNL A   1      44.685  24.218  29.302  1.00  0.00     0.031 C 
ATOM     56  C   UNL A   1      45.602  28.245  33.761  1.00  0.00     0.029 A 
ATOM     57  C   UNL A   1      45.047  27.563  32.689  1.00  0.00     0.049 A 
ATOM     58  H   UNL A   1      43.267  27.980  31.634  1.00  0.00     0.167 HD
ATOM     59  C   UNL A   1      44.936  25.769  30.975  1.00  0.00     0.074 A 
ATOM     60  C   UNL A   1      45.449  24.582  30.321  1.00  0.00     0.031 C 
ATOM     61  C   UNL A   1      45.546  26.386  32.019  1.00  0.00     0.034 A 
BRANCH  48  62
ATOM     62  C   UNL A   1      42.543  31.402  34.110  1.00  0.00     0.023 A 
ATOM     63  C   UNL A   1      41.727  31.413  35.256  1.00  0.00     0.031 A 
ATOM     64  C   UNL A   1      43.314  32.549  33.845  1.00  0.00     0.131 A 
ATOM     65  C   UNL A   1      41.635  32.571  36.042  1.00  0.00     0.055 A 
ATOM     66  C   UNL A   1      43.284  33.666  34.681  1.00  0.00     0.041 A 
ATOM     67  F   UNL A   1      44.098  32.609  32.757  1.00  0.00    -0.206 F 
ATOM     68  C   UNL A   1      42.429  33.689  35.779  1.00  0.00     0.022 A 
BRANCH  65  69
ATOM     69  S   UNL A   1      40.353  32.648  37.323  1.00  0.00     0.124 S 
ATOM     70  O   UNL A   1      41.143  32.479  38.540  1.00  0.00    -0.237 OA
ATOM     71  O   UNL A   1      39.776  33.971  37.113  1.00  0.00    -0.237 OA
ATOM     72  O   UNL A   1      39.475  31.526  36.998  1.00  0.00    -0.744 OA
ENDBRANCH  65  69
ENDBRANCH  48  62
BRANCH  49  73
ATOM     73  C   UNL A   1      42.507  23.981  27.350  1.00  0.00     0.023 A 
ATOM     74  C   UNL A   1      41.817  22.772  27.537  1.00  0.00     0.031 A 
ATOM     75  C   UNL A   1      43.256  24.137  26.171  1.00  0.00     0.131 A 
ATOM     76  C   UNL A   1      41.927  21.749  26.583  1.00  0.00     0.055 A 
ATOM     77  C   UNL A   1      43.319  23.136  25.200  1.00  0.00     0.041 A 
ATOM     78  F   UNL A   1      43.930  25.275  25.938  1.00  0.00    -0.206 F 
ATOM     79  C   UNL A   1      42.662  21.928  25.409  1.00  0.00     0.022 A 
BRANCH  76  80
ATOM     80  S   UNL A   1      41.159  20.145  26.937  1.00  0.00     0.124 S 
ATOM     81  O   UNL A   1      39.998  20.170  26.054  1.00  0.00    -0.237 OA
ATOM     82  O   UNL A   1      42.222  19.214  26.575  1.00  0.00    -0.237 OA
ATOM     83  O   UNL A   1      40.858  20.219  28.365  1.00  0.00    -0.744 OA
ENDBRANCH  76  80
ENDBRANCH  49  73
BRANCH  61  84
ATOM     84  C   UNL A   1      46.810  25.753  32.543  1.00  0.00     0.023 A 
ATOM     85  C   UNL A   1      48.051  25.947  31.913  1.00  0.00     0.031 A 
ATOM     86  C   UNL A   1      46.768  24.935  33.687  1.00  0.00     0.131 A 
ATOM     87  C   UNL A   1      49.191  25.287  32.397  1.00  0.00     0.055 A 
ATOM     88  C   UNL A   1      47.915  24.329  34.199  1.00  0.00     0.041 A 
ATOM     89  F   UNL A   1      45.608  24.716  34.327  1.00  0.00    -0.206 F 
ATOM     90  C   UNL A   1      49.134  24.494  33.546  1.00  0.00     0.022 A 
BRANCH  87  91
ATOM     91  S   UNL A   1      50.735  25.410  31.453  1.00  0.00     0.124 S 
ATOM     92  O   UNL A   1      51.386  24.144  31.771  1.00  0.00    -0.237 OA
ATOM     93  O   UNL A   1      50.253  25.554  30.084  1.00  0.00    -0.237 OA
ATOM     94  O   UNL A   1      51.382  26.597  32.010  1.00  0.00    -0.744 OA
ENDBRANCH  87  91
ENDBRANCH  61  84
ENDBRANCH  35  36
ENDBRANCH  27  30
ENDBRANCH  25  26
ENDBRANCH  24  25
ENDBRANCH  23  24
ENDBRANCH   3  23
TORSDOF 19
ENDMDL
