MODEL 1
REMARK VINA RESULT:     -12.7      0.000      0.000
REMARK SMILES Nc1ncc(C(=O)NCCCNC(=O)c2ccc(-c3c4nc(c(-c5cc(S(=O)(=O)[O-])ccc5F)c5ccc([nH]5)c(-c5cc(S(=O)(=O)[O-])ccc5F)c5nc(c(-c6cc(S(=O)(=O)[O-])ccc6F)c6ccc3[nH]6)C=C5)C=C4)cc2)c(-c2ccccc2)n1
REMARK SMILES IDX 11 1 10 2 9 3 8 4 6 5 7 6 5 8 2 9 3 10 85 11 4 12 78 13 1 14
REMARK SMILES IDX 79 17 80 18 84 19 81 20 83 21 82 22 12 23 13 24 14 26 15 27
REMARK SMILES IDX 16 28 77 29 17 30 76 31 18 32 19 33 20 34 70 35 21 36 75 37
REMARK SMILES IDX 69 38 71 39 22 40 74 41 68 42 67 43 23 45 55 46 35 47 54 48
REMARK SMILES IDX 36 49 39 50 53 51 72 52 37 53 38 54 52 56 73 57 40 58 24 59
REMARK SMILES IDX 25 60 33 61 26 62 32 63 34 64 31 65 27 66 28 67 29 68 30 69
REMARK SMILES IDX 56 70 57 71 65 72 58 73 64 74 66 75 63 76 59 77 60 78 61 79
REMARK SMILES IDX 62 80 41 81 42 82 50 83 43 84 49 85 51 86 48 87 44 88 45 89
REMARK SMILES IDX 46 90 47 91
REMARK H PARENT 8 7 1 15 1 16 12 25 71 44 39 55
REMARK Flexibility Score: inf
ROOT
ATOM      1  C   UNL A   1      32.313  30.245  26.139  1.00  0.00     0.118 C 
ENDROOT
BRANCH   1   2
ATOM      2  C   UNL A   1      31.793  29.177  27.096  1.00  0.00     0.042 C 
BRANCH   2   3
ATOM      3  C   UNL A   1      31.956  27.750  26.602  1.00  0.00     0.118 C 
BRANCH   3   4
ATOM      4  N   UNL A   1      30.760  26.938  26.551  1.00  0.00    -0.352 N 
ATOM      5  C   UNL A   1      30.237  26.194  25.521  1.00  0.00     0.255 C 
ATOM      6  O   UNL A   1      29.249  25.502  25.781  1.00  0.00    -0.269 OA
ATOM      7  H   UNL A   1      30.238  26.916  27.385  1.00  0.00     0.163 HD
BRANCH   5   8
ATOM      8  C   UNL A   1      30.696  26.221  24.110  1.00  0.00     0.084 A 
ATOM      9  C   UNL A   1      31.801  25.923  21.620  1.00  0.00     0.220 A 
ATOM     10  N   UNL A   1      32.129  25.027  22.545  1.00  0.00    -0.221 NA
ATOM     11  N   UNL A   1      30.985  26.954  21.834  1.00  0.00    -0.212 NA
ATOM     12  C   UNL A   1      31.574  25.203  23.766  1.00  0.00     0.131 A 
ATOM     13  C   UNL A   1      30.444  27.112  23.076  1.00  0.00     0.089 A 
BRANCH   9  14
ATOM     14  N   UNL A   1      32.313  25.773  20.367  1.00  0.00    -0.368 N 
ATOM     15  H   UNL A   1      32.684  26.550  19.891  1.00  0.00     0.159 HD
ATOM     16  H   UNL A   1      32.312  24.886  19.938  1.00  0.00     0.159 HD
ENDBRANCH   9  14
BRANCH  13  17
ATOM     17  C   UNL A   1      29.565  28.287  23.126  1.00  0.00     0.001 A 
ATOM     18  C   UNL A   1      30.047  29.587  23.346  1.00  0.00     0.010 A 
ATOM     19  C   UNL A   1      28.171  28.106  22.989  1.00  0.00     0.010 A 
ATOM     20  C   UNL A   1      29.154  30.650  23.523  1.00  0.00     0.001 A 
ATOM     21  C   UNL A   1      27.283  29.162  23.184  1.00  0.00     0.001 A 
ATOM     22  C   UNL A   1      27.775  30.432  23.469  1.00  0.00     0.000 A 
ENDBRANCH  13  17
ENDBRANCH   5   8
ENDBRANCH   3   4
ENDBRANCH   2   3
ENDBRANCH   1   2
BRANCH   1  23
ATOM     23  N   UNL A   1      32.227  31.613  26.643  1.00  0.00    -0.352 N 
ATOM     24  C   UNL A   1      33.049  32.407  27.408  1.00  0.00     0.251 C 
ATOM     25  H   UNL A   1      31.397  32.068  26.373  1.00  0.00     0.163 HD
ATOM     26  O   UNL A   1      32.628  33.517  27.742  1.00  0.00    -0.269 OA
BRANCH  24  27
ATOM     27  C   UNL A   1      34.379  31.962  27.896  1.00  0.00     0.039 A 
ATOM     28  C   UNL A   1      35.418  32.902  27.974  1.00  0.00     0.014 A 
ATOM     29  C   UNL A   1      34.647  30.646  28.254  1.00  0.00     0.014 A 
ATOM     30  C   UNL A   1      36.662  32.546  28.512  1.00  0.00     0.010 A 
ATOM     31  C   UNL A   1      35.838  30.321  28.902  1.00  0.00     0.010 A 
ATOM     32  C   UNL A   1      36.860  31.267  29.051  1.00  0.00    -0.014 A 
BRANCH  32  33
ATOM     33  C   UNL A   1      38.103  30.882  29.782  1.00  0.00     0.031 A 
ATOM     34  C   UNL A   1      39.064  29.893  29.168  1.00  0.00     0.074 A 
ATOM     35  C   UNL A   1      38.305  31.316  31.044  1.00  0.00     0.049 A 
ATOM     36  N   UNL A   1      40.062  29.251  29.720  1.00  0.00    -0.248 NA
ATOM     37  C   UNL A   1      38.832  29.543  27.759  1.00  0.00     0.031 C 
ATOM     38  C   UNL A   1      37.435  32.241  31.773  1.00  0.00     0.029 A 
ATOM     39  N   UNL A   1      39.293  31.014  31.950  1.00  0.00    -0.354 N 
ATOM     40  C   UNL A   1      40.547  28.390  28.740  1.00  0.00     0.074 A 
ATOM     41  C   UNL A   1      39.692  28.552  27.583  1.00  0.00     0.031 C 
ATOM     42  C   UNL A   1      37.938  32.450  33.000  1.00  0.00     0.029 A 
ATOM     43  C   UNL A   1      39.127  31.623  33.174  1.00  0.00     0.049 A 
ATOM     44  H   UNL A   1      40.049  30.419  31.744  1.00  0.00     0.167 HD
ATOM     45  C   UNL A   1      41.618  27.556  28.792  1.00  0.00     0.034 A 
ATOM     46  C   UNL A   1      39.831  31.510  34.318  1.00  0.00     0.034 A 
ATOM     47  C   UNL A   1      42.487  27.443  29.938  1.00  0.00     0.049 A 
ATOM     48  C   UNL A   1      41.015  30.578  34.355  1.00  0.00     0.074 A 
ATOM     49  C   UNL A   1      43.644  26.694  30.072  1.00  0.00     0.029 A 
ATOM     50  N   UNL A   1      42.299  28.097  31.149  1.00  0.00    -0.354 N 
ATOM     51  N   UNL A   1      41.479  29.795  33.409  1.00  0.00    -0.248 NA
ATOM     52  C   UNL A   1      41.770  30.515  35.613  1.00  0.00     0.031 C 
ATOM     53  C   UNL A   1      44.119  26.848  31.379  1.00  0.00     0.029 A 
ATOM     54  C   UNL A   1      43.301  27.749  32.041  1.00  0.00     0.049 A 
ATOM     55  H   UNL A   1      41.561  28.719  31.343  1.00  0.00     0.167 HD
ATOM     56  C   UNL A   1      42.597  29.167  33.951  1.00  0.00     0.074 A 
ATOM     57  C   UNL A   1      42.745  29.675  35.301  1.00  0.00     0.031 C 
ATOM     58  C   UNL A   1      43.428  28.256  33.386  1.00  0.00     0.034 A 
BRANCH  45  59
ATOM     59  C   UNL A   1      41.891  26.693  27.581  1.00  0.00     0.023 A 
ATOM     60  C   UNL A   1      41.463  25.355  27.516  1.00  0.00     0.031 A 
ATOM     61  C   UNL A   1      42.616  27.202  26.489  1.00  0.00     0.131 A 
ATOM     62  C   UNL A   1      41.841  24.550  26.430  1.00  0.00     0.055 A 
ATOM     63  C   UNL A   1      42.911  26.420  25.370  1.00  0.00     0.041 A 
ATOM     64  F   UNL A   1      43.067  28.467  26.498  1.00  0.00    -0.206 F 
ATOM     65  C   UNL A   1      42.538  25.079  25.344  1.00  0.00     0.022 A 
BRANCH  62  66
ATOM     66  S   UNL A   1      41.542  22.764  26.539  1.00  0.00     0.124 S 
ATOM     67  O   UNL A   1      42.187  22.436  27.808  1.00  0.00    -0.237 OA
ATOM     68  O   UNL A   1      40.087  22.686  26.523  1.00  0.00    -0.237 OA
ATOM     69  O   UNL A   1      42.211  22.233  25.353  1.00  0.00    -0.744 OA
ENDBRANCH  62  66
ENDBRANCH  45  59
BRANCH  46  70
ATOM     70  C   UNL A   1      39.432  32.279  35.532  1.00  0.00     0.023 A 
ATOM     71  C   UNL A   1      38.676  31.674  36.548  1.00  0.00     0.031 A 
ATOM     72  C   UNL A   1      39.766  33.637  35.678  1.00  0.00     0.131 A 
ATOM     73  C   UNL A   1      38.240  32.436  37.644  1.00  0.00     0.055 A 
ATOM     74  C   UNL A   1      39.375  34.377  36.796  1.00  0.00     0.041 A 
ATOM     75  F   UNL A   1      40.493  34.263  34.740  1.00  0.00    -0.206 F 
ATOM     76  C   UNL A   1      38.595  33.778  37.782  1.00  0.00     0.022 A 
BRANCH  73  77
ATOM     77  S   UNL A   1      37.127  31.661  38.849  1.00  0.00     0.124 S 
ATOM     78  O   UNL A   1      37.915  31.737  40.074  1.00  0.00    -0.237 OA
ATOM     79  O   UNL A   1      35.957  32.532  38.784  1.00  0.00    -0.237 OA
ATOM     80  O   UNL A   1      36.930  30.316  38.314  1.00  0.00    -0.744 OA
ENDBRANCH  73  77
ENDBRANCH  46  70
BRANCH  58  81
ATOM     81  C   UNL A   1      44.596  27.785  34.217  1.00  0.00     0.023 A 
ATOM     82  C   UNL A   1      44.504  26.655  35.047  1.00  0.00     0.031 A 
ATOM     83  C   UNL A   1      45.816  28.483  34.178  1.00  0.00     0.131 A 
ATOM     84  C   UNL A   1      45.599  26.282  35.841  1.00  0.00     0.055 A 
ATOM     85  C   UNL A   1      46.920  28.074  34.928  1.00  0.00     0.041 A 
ATOM     86  F   UNL A   1      45.957  29.571  33.404  1.00  0.00    -0.206 F 
ATOM     87  C   UNL A   1      46.811  26.974  35.773  1.00  0.00     0.022 A 
BRANCH  84  88
ATOM     88  S   UNL A   1      45.393  24.923  37.025  1.00  0.00     0.124 S 
ATOM     89  O   UNL A   1      44.230  25.362  37.790  1.00  0.00    -0.237 OA
ATOM     90  O   UNL A   1      45.184  23.775  36.149  1.00  0.00    -0.237 OA
ATOM     91  O   UNL A   1      46.655  24.917  37.762  1.00  0.00    -0.744 OA
ENDBRANCH  84  88
ENDBRANCH  58  81
ENDBRANCH  32  33
ENDBRANCH  24  27
ENDBRANCH   1  23
TORSDOF 15
ENDMDL
MODEL 2
REMARK VINA RESULT:     -12.6      1.404      1.730
REMARK SMILES Nc1ncc(C(=O)NCCCNC(=O)c2ccc(-c3c4nc(c(-c5cc(S(=O)(=O)[O-])ccc5F)c5ccc([nH]5)c(-c5cc(S(=O)(=O)[O-])ccc5F)c5nc(c(-c6cc(S(=O)(=O)[O-])ccc6F)c6ccc3[nH]6)C=C5)C=C4)cc2)c(-c2ccccc2)n1
REMARK SMILES IDX 11 1 10 2 9 3 8 4 6 5 7 6 5 8 2 9 3 10 85 11 4 12 78 13 1 14
REMARK SMILES IDX 79 17 80 18 84 19 81 20 83 21 82 22 12 23 13 24 14 26 15 27
REMARK SMILES IDX 16 28 77 29 17 30 76 31 18 32 19 33 20 34 70 35 21 36 75 37
REMARK SMILES IDX 69 38 71 39 22 40 74 41 68 42 67 43 23 45 55 46 35 47 54 48
REMARK SMILES IDX 36 49 39 50 53 51 72 52 37 53 38 54 52 56 73 57 40 58 24 59
REMARK SMILES IDX 25 60 33 61 26 62 32 63 34 64 31 65 27 66 28 67 29 68 30 69
REMARK SMILES IDX 56 70 57 71 65 72 58 73 64 74 66 75 63 76 59 77 60 78 61 79
REMARK SMILES IDX 62 80 41 81 42 82 50 83 43 84 49 85 51 86 48 87 44 88 45 89
REMARK SMILES IDX 46 90 47 91
REMARK H PARENT 8 7 1 15 1 16 12 25 71 44 39 55
REMARK Flexibility Score: inf
ROOT
ATOM      1  C   UNL A   1      32.298  30.034  26.156  1.00  0.00     0.118 C 
ENDROOT
BRANCH   1   2
ATOM      2  C   UNL A   1      31.754  29.011  27.147  1.00  0.00     0.042 C 
BRANCH   2   3
ATOM      3  C   UNL A   1      31.944  27.562  26.731  1.00  0.00     0.118 C 
BRANCH   3   4
ATOM      4  N   UNL A   1      30.754  26.744  26.659  1.00  0.00    -0.352 N 
ATOM      5  C   UNL A   1      30.226  26.039  25.605  1.00  0.00     0.255 C 
ATOM      6  O   UNL A   1      29.245  25.329  25.847  1.00  0.00    -0.269 OA
ATOM      7  H   UNL A   1      30.242  26.684  27.497  1.00  0.00     0.163 HD
BRANCH   5   8
ATOM      8  C   UNL A   1      30.669  26.128  24.191  1.00  0.00     0.084 A 
ATOM      9  C   UNL A   1      31.759  25.951  21.684  1.00  0.00     0.220 A 
ATOM     10  N   UNL A   1      32.130  25.039  22.576  1.00  0.00    -0.221 NA
ATOM     11  N   UNL A   1      30.907  26.942  21.938  1.00  0.00    -0.212 NA
ATOM     12  C   UNL A   1      31.580  25.156  23.808  1.00  0.00     0.131 A 
ATOM     13  C   UNL A   1      30.373  27.041  23.189  1.00  0.00     0.089 A 
BRANCH   9  14
ATOM     14  N   UNL A   1      32.264  25.859  20.423  1.00  0.00    -0.368 N 
ATOM     15  H   UNL A   1      32.070  26.563  19.763  1.00  0.00     0.159 HD
ATOM     16  H   UNL A   1      32.822  25.088  20.170  1.00  0.00     0.159 HD
ENDBRANCH   9  14
BRANCH  13  17
ATOM     17  C   UNL A   1      29.451  28.180  23.284  1.00  0.00     0.001 A 
ATOM     18  C   UNL A   1      28.061  28.045  23.150  1.00  0.00     0.010 A 
ATOM     19  C   UNL A   1      29.982  29.475  23.476  1.00  0.00     0.010 A 
ATOM     20  C   UNL A   1      27.242  29.180  23.109  1.00  0.00     0.001 A 
ATOM     21  C   UNL A   1      29.167  30.605  23.416  1.00  0.00     0.001 A 
ATOM     22  C   UNL A   1      27.798  30.457  23.215  1.00  0.00     0.000 A 
ENDBRANCH  13  17
ENDBRANCH   5   8
ENDBRANCH   3   4
ENDBRANCH   2   3
ENDBRANCH   1   2
BRANCH   1  23
ATOM     23  N   UNL A   1      32.195  31.424  26.591  1.00  0.00    -0.352 N 
ATOM     24  C   UNL A   1      33.008  32.266  27.314  1.00  0.00     0.251 C 
ATOM     25  H   UNL A   1      31.358  31.855  26.302  1.00  0.00     0.163 HD
ATOM     26  O   UNL A   1      32.572  33.385  27.594  1.00  0.00    -0.269 OA
BRANCH  24  27
ATOM     27  C   UNL A   1      34.345  31.864  27.819  1.00  0.00     0.039 A 
ATOM     28  C   UNL A   1      35.337  32.847  27.957  1.00  0.00     0.014 A 
ATOM     29  C   UNL A   1      34.665  30.549  28.136  1.00  0.00     0.014 A 
ATOM     30  C   UNL A   1      36.583  32.528  28.514  1.00  0.00     0.010 A 
ATOM     31  C   UNL A   1      35.854  30.254  28.801  1.00  0.00     0.010 A 
ATOM     32  C   UNL A   1      36.827  31.240  29.011  1.00  0.00    -0.014 A 
BRANCH  32  33
ATOM     33  C   UNL A   1      38.070  30.884  29.758  1.00  0.00     0.031 A 
ATOM     34  C   UNL A   1      39.045  29.893  29.173  1.00  0.00     0.074 A 
ATOM     35  C   UNL A   1      38.257  31.347  31.012  1.00  0.00     0.049 A 
ATOM     36  N   UNL A   1      40.046  29.274  29.746  1.00  0.00    -0.248 NA
ATOM     37  C   UNL A   1      38.827  29.509  27.771  1.00  0.00     0.031 C 
ATOM     38  C   UNL A   1      37.372  32.279  31.715  1.00  0.00     0.029 A 
ATOM     39  N   UNL A   1      39.241  31.076  31.931  1.00  0.00    -0.354 N 
ATOM     40  C   UNL A   1      40.547  28.396  28.789  1.00  0.00     0.074 A 
ATOM     41  C   UNL A   1      39.699  28.524  27.622  1.00  0.00     0.031 C 
ATOM     42  C   UNL A   1      37.863  32.520  32.940  1.00  0.00     0.029 A 
ATOM     43  C   UNL A   1      39.060  31.710  33.141  1.00  0.00     0.049 A 
ATOM     44  H   UNL A   1      40.006  30.485  31.744  1.00  0.00     0.167 HD
ATOM     45  C   UNL A   1      41.626  27.576  28.866  1.00  0.00     0.034 A 
ATOM     46  C   UNL A   1      39.758  31.630  34.292  1.00  0.00     0.034 A 
ATOM     47  C   UNL A   1      42.489  27.497  30.020  1.00  0.00     0.049 A 
ATOM     48  C   UNL A   1      40.951  30.712  34.357  1.00  0.00     0.074 A 
ATOM     49  C   UNL A   1      43.653  26.764  30.178  1.00  0.00     0.029 A 
ATOM     50  N   UNL A   1      42.285  28.176  31.215  1.00  0.00    -0.354 N 
ATOM     51  N   UNL A   1      41.431  29.913  33.431  1.00  0.00    -0.248 NA
ATOM     52  C   UNL A   1      41.698  30.684  35.622  1.00  0.00     0.031 C 
ATOM     53  C   UNL A   1      44.117  26.952  31.485  1.00  0.00     0.029 A 
ATOM     54  C   UNL A   1      43.284  27.858  32.121  1.00  0.00     0.049 A 
ATOM     55  H   UNL A   1      41.539  28.794  31.391  1.00  0.00     0.167 HD
ATOM     56  C   UNL A   1      42.551  29.310  33.995  1.00  0.00     0.074 A 
ATOM     57  C   UNL A   1      42.684  29.848  35.334  1.00  0.00     0.031 C 
ATOM     58  C   UNL A   1      43.396  28.395  33.457  1.00  0.00     0.034 A 
BRANCH  45  59
ATOM     59  C   UNL A   1      41.918  26.690  27.676  1.00  0.00     0.023 A 
ATOM     60  C   UNL A   1      41.452  25.365  27.610  1.00  0.00     0.031 A 
ATOM     61  C   UNL A   1      42.698  27.163  26.606  1.00  0.00     0.131 A 
ATOM     62  C   UNL A   1      41.845  24.535  26.549  1.00  0.00     0.055 A 
ATOM     63  C   UNL A   1      43.009  26.359  25.507  1.00  0.00     0.041 A 
ATOM     64  F   UNL A   1      43.186  28.414  26.617  1.00  0.00    -0.206 F 
ATOM     65  C   UNL A   1      42.598  25.029  25.484  1.00  0.00     0.022 A 
BRANCH  62  66
ATOM     66  S   UNL A   1      41.489  22.760  26.667  1.00  0.00     0.124 S 
ATOM     67  O   UNL A   1      42.086  22.259  25.432  1.00  0.00    -0.237 OA
ATOM     68  O   UNL A   1      42.166  22.384  27.902  1.00  0.00    -0.237 OA
ATOM     69  O   UNL A   1      40.029  22.706  26.712  1.00  0.00    -0.744 OA
ENDBRANCH  62  66
ENDBRANCH  45  59
BRANCH  46  70
ATOM     70  C   UNL A   1      39.341  32.420  35.486  1.00  0.00     0.023 A 
ATOM     71  C   UNL A   1      39.761  33.750  35.648  1.00  0.00     0.031 A 
ATOM     72  C   UNL A   1      38.551  31.850  36.500  1.00  0.00     0.131 A 
ATOM     73  C   UNL A   1      39.427  34.452  36.818  1.00  0.00     0.055 A 
ATOM     74  C   UNL A   1      38.177  32.570  37.636  1.00  0.00     0.041 A 
ATOM     75  F   UNL A   1      38.117  30.585  36.392  1.00  0.00    -0.206 F 
ATOM     76  C   UNL A   1      38.627  33.876  37.806  1.00  0.00     0.022 A 
BRANCH  73  77
ATOM     77  S   UNL A   1      40.127  36.107  37.064  1.00  0.00     0.124 S 
ATOM     78  O   UNL A   1      41.528  35.801  37.330  1.00  0.00    -0.237 OA
ATOM     79  O   UNL A   1      39.842  36.749  35.785  1.00  0.00    -0.237 OA
ATOM     80  O   UNL A   1      39.374  36.629  38.202  1.00  0.00    -0.744 OA
ENDBRANCH  73  77
ENDBRANCH  46  70
BRANCH  58  81
ATOM     81  C   UNL A   1      44.562  27.956  34.305  1.00  0.00     0.023 A 
ATOM     82  C   UNL A   1      44.482  26.835  35.148  1.00  0.00     0.031 A 
ATOM     83  C   UNL A   1      45.771  28.674  34.270  1.00  0.00     0.131 A 
ATOM     84  C   UNL A   1      45.574  26.491  35.959  1.00  0.00     0.055 A 
ATOM     85  C   UNL A   1      46.873  28.294  35.037  1.00  0.00     0.041 A 
ATOM     86  F   UNL A   1      45.901  29.756  33.485  1.00  0.00    -0.206 F 
ATOM     87  C   UNL A   1      46.774  27.203  35.895  1.00  0.00     0.022 A 
BRANCH  84  88
ATOM     88  S   UNL A   1      45.379  25.142  37.156  1.00  0.00     0.124 S 
ATOM     89  O   UNL A   1      44.183  24.469  36.662  1.00  0.00    -0.237 OA
ATOM     90  O   UNL A   1      46.632  24.409  37.008  1.00  0.00    -0.237 OA
ATOM     91  O   UNL A   1      45.218  25.838  38.432  1.00  0.00    -0.744 OA
ENDBRANCH  84  88
ENDBRANCH  58  81
ENDBRANCH  32  33
ENDBRANCH  24  27
ENDBRANCH   1  23
TORSDOF 15
ENDMDL
MODEL 3
REMARK VINA RESULT:     -12.6      5.683     10.761
REMARK SMILES Nc1ncc(C(=O)NCCCNC(=O)c2ccc(-c3c4nc(c(-c5cc(S(=O)(=O)[O-])ccc5F)c5ccc([nH]5)c(-c5cc(S(=O)(=O)[O-])ccc5F)c5nc(c(-c6cc(S(=O)(=O)[O-])ccc6F)c6ccc3[nH]6)C=C5)C=C4)cc2)c(-c2ccccc2)n1
REMARK SMILES IDX 11 1 10 2 9 3 8 4 6 5 7 6 5 8 2 9 3 10 85 11 4 12 78 13 1 14
REMARK SMILES IDX 79 17 80 18 84 19 81 20 83 21 82 22 12 23 13 24 14 26 15 27
REMARK SMILES IDX 16 28 77 29 17 30 76 31 18 32 19 33 20 34 70 35 21 36 75 37
REMARK SMILES IDX 69 38 71 39 22 40 74 41 68 42 67 43 23 45 55 46 35 47 54 48
REMARK SMILES IDX 36 49 39 50 53 51 72 52 37 53 38 54 52 56 73 57 40 58 24 59
REMARK SMILES IDX 25 60 33 61 26 62 32 63 34 64 31 65 27 66 28 67 29 68 30 69
REMARK SMILES IDX 56 70 57 71 65 72 58 73 64 74 66 75 63 76 59 77 60 78 61 79
REMARK SMILES IDX 62 80 41 81 42 82 50 83 43 84 49 85 51 86 48 87 44 88 45 89
REMARK SMILES IDX 46 90 47 91
REMARK H PARENT 8 7 1 15 1 16 12 25 71 44 39 55
REMARK Flexibility Score: inf
ROOT
ATOM      1  C   UNL A   1      36.805  21.392  25.318  1.00  0.00     0.118 C 
ENDROOT
BRANCH   1   2
ATOM      2  C   UNL A   1      36.748  22.117  23.978  1.00  0.00     0.042 C 
BRANCH   2   3
ATOM      3  C   UNL A   1      35.668  23.181  23.878  1.00  0.00     0.118 C 
BRANCH   3   4
ATOM      4  N   UNL A   1      34.820  23.140  22.708  1.00  0.00    -0.352 N 
ATOM      5  C   UNL A   1      33.454  23.021  22.607  1.00  0.00     0.255 C 
ATOM      6  O   UNL A   1      32.970  23.121  21.475  1.00  0.00    -0.269 OA
ATOM      7  H   UNL A   1      35.295  23.207  21.849  1.00  0.00     0.163 HD
BRANCH   5   8
ATOM      8  C   UNL A   1      32.527  22.691  23.717  1.00  0.00     0.084 A 
ATOM      9  C   UNL A   1      30.767  22.525  25.810  1.00  0.00     0.220 A 
ATOM     10  N   UNL A   1      31.028  23.735  25.327  1.00  0.00    -0.221 NA
ATOM     11  N   UNL A   1      31.314  21.401  25.349  1.00  0.00    -0.212 NA
ATOM     12  C   UNL A   1      31.906  23.786  24.298  1.00  0.00     0.131 A 
ATOM     13  C   UNL A   1      32.200  21.483  24.316  1.00  0.00     0.089 A 
BRANCH   9  14
ATOM     14  N   UNL A   1      29.869  22.419  26.828  1.00  0.00    -0.368 N 
ATOM     15  H   UNL A   1      30.184  22.279  27.750  1.00  0.00     0.159 HD
ATOM     16  H   UNL A   1      28.904  22.481  26.642  1.00  0.00     0.159 HD
ENDBRANCH   9  14
BRANCH  13  17
ATOM     17  C   UNL A   1      32.691  20.152  23.933  1.00  0.00     0.001 A 
ATOM     18  C   UNL A   1      32.169  19.434  22.847  1.00  0.00     0.010 A 
ATOM     19  C   UNL A   1      33.702  19.546  24.711  1.00  0.00     0.010 A 
ATOM     20  C   UNL A   1      32.576  18.115  22.611  1.00  0.00     0.001 A 
ATOM     21  C   UNL A   1      34.092  18.226  24.487  1.00  0.00     0.001 A 
ATOM     22  C   UNL A   1      33.514  17.505  23.446  1.00  0.00     0.000 A 
ENDBRANCH  13  17
ENDBRANCH   5   8
ENDBRANCH   3   4
ENDBRANCH   2   3
ENDBRANCH   1   2
BRANCH   1  23
ATOM     23  N   UNL A   1      37.945  20.493  25.479  1.00  0.00    -0.352 N 
ATOM     24  C   UNL A   1      39.221  20.641  25.970  1.00  0.00     0.251 C 
ATOM     25  H   UNL A   1      37.756  19.577  25.170  1.00  0.00     0.163 HD
ATOM     26  O   UNL A   1      39.987  19.678  25.878  1.00  0.00    -0.269 OA
BRANCH  24  27
ATOM     27  C   UNL A   1      39.728  21.914  26.540  1.00  0.00     0.039 A 
ATOM     28  C   UNL A   1      40.718  21.863  27.532  1.00  0.00     0.014 A 
ATOM     29  C   UNL A   1      39.242  23.158  26.151  1.00  0.00     0.014 A 
ATOM     30  C   UNL A   1      41.287  23.042  28.033  1.00  0.00     0.010 A 
ATOM     31  C   UNL A   1      39.889  24.324  26.554  1.00  0.00     0.010 A 
ATOM     32  C   UNL A   1      40.929  24.285  27.493  1.00  0.00    -0.014 A 
BRANCH  32  33
ATOM     33  C   UNL A   1      41.614  25.557  27.868  1.00  0.00     0.031 A 
ATOM     34  C   UNL A   1      40.864  26.624  28.627  1.00  0.00     0.074 A 
ATOM     35  C   UNL A   1      42.862  25.808  27.418  1.00  0.00     0.049 A 
ATOM     36  N   UNL A   1      41.186  27.874  28.841  1.00  0.00    -0.248 NA
ATOM     37  C   UNL A   1      39.550  26.243  29.166  1.00  0.00     0.031 C 
ATOM     38  C   UNL A   1      43.687  24.881  26.640  1.00  0.00     0.029 A 
ATOM     39  N   UNL A   1      43.647  26.930  27.528  1.00  0.00    -0.354 N 
ATOM     40  C   UNL A   1      40.098  28.439  29.501  1.00  0.00     0.074 A 
ATOM     41  C   UNL A   1      39.086  27.407  29.593  1.00  0.00     0.031 C 
ATOM     42  C   UNL A   1      44.865  25.461  26.363  1.00  0.00     0.029 A 
ATOM     43  C   UNL A   1      44.859  26.824  26.883  1.00  0.00     0.049 A 
ATOM     44  H   UNL A   1      43.370  27.735  28.021  1.00  0.00     0.167 HD
ATOM     45  C   UNL A   1      39.961  29.694  30.001  1.00  0.00     0.034 A 
ATOM     46  C   UNL A   1      45.844  27.726  26.702  1.00  0.00     0.034 A 
ATOM     47  C   UNL A   1      40.999  30.695  29.942  1.00  0.00     0.049 A 
ATOM     48  C   UNL A   1      45.672  29.114  27.264  1.00  0.00     0.074 A 
ATOM     49  C   UNL A   1      41.001  31.968  30.486  1.00  0.00     0.029 A 
ATOM     50  N   UNL A   1      42.222  30.537  29.303  1.00  0.00    -0.354 N 
ATOM     51  N   UNL A   1      44.649  29.621  27.913  1.00  0.00    -0.248 NA
ATOM     52  C   UNL A   1      46.787  30.051  27.070  1.00  0.00     0.031 C 
ATOM     53  C   UNL A   1      42.196  32.599  30.124  1.00  0.00     0.029 A 
ATOM     54  C   UNL A   1      42.973  31.696  29.416  1.00  0.00     0.049 A 
ATOM     55  H   UNL A   1      42.513  29.719  28.838  1.00  0.00     0.167 HD
ATOM     56  C   UNL A   1      45.011  30.928  28.227  1.00  0.00     0.074 A 
ATOM     57  C   UNL A   1      46.351  31.125  27.710  1.00  0.00     0.031 C 
ATOM     58  C   UNL A   1      44.303  31.880  28.885  1.00  0.00     0.034 A 
BRANCH  45  59
ATOM     59  C   UNL A   1      38.637  30.052  30.637  1.00  0.00     0.023 A 
ATOM     60  C   UNL A   1      37.629  30.718  29.918  1.00  0.00     0.031 A 
ATOM     61  C   UNL A   1      38.389  29.754  31.989  1.00  0.00     0.131 A 
ATOM     62  C   UNL A   1      36.464  31.144  30.574  1.00  0.00     0.055 A 
ATOM     63  C   UNL A   1      37.188  30.100  32.612  1.00  0.00     0.041 A 
ATOM     64  F   UNL A   1      39.318  29.135  32.733  1.00  0.00    -0.206 F 
ATOM     65  C   UNL A   1      36.224  30.816  31.909  1.00  0.00     0.022 A 
BRANCH  62  66
ATOM     66  S   UNL A   1      35.343  32.268  29.696  1.00  0.00     0.124 S 
ATOM     67  O   UNL A   1      36.249  33.350  29.320  1.00  0.00    -0.237 OA
ATOM     68  O   UNL A   1      34.854  31.436  28.604  1.00  0.00    -0.237 OA
ATOM     69  O   UNL A   1      34.350  32.620  30.708  1.00  0.00    -0.744 OA
ENDBRANCH  62  66
ENDBRANCH  45  59
BRANCH  46  70
ATOM     70  C   UNL A   1      47.074  27.362  25.940  1.00  0.00     0.023 A 
ATOM     71  C   UNL A   1      47.211  27.715  24.589  1.00  0.00     0.031 A 
ATOM     72  C   UNL A   1      48.111  26.625  26.538  1.00  0.00     0.131 A 
ATOM     73  C   UNL A   1      48.339  27.293  23.866  1.00  0.00     0.055 A 
ATOM     74  C   UNL A   1      49.255  26.253  25.829  1.00  0.00     0.041 A 
ATOM     75  F   UNL A   1      48.034  26.267  27.830  1.00  0.00    -0.206 F 
ATOM     76  C   UNL A   1      49.367  26.577  24.480  1.00  0.00     0.022 A 
BRANCH  73  77
ATOM     77  S   UNL A   1      48.400  27.626  22.084  1.00  0.00     0.124 S 
ATOM     78  O   UNL A   1      48.604  26.289  21.539  1.00  0.00    -0.237 OA
ATOM     79  O   UNL A   1      47.091  28.225  21.844  1.00  0.00    -0.237 OA
ATOM     80  O   UNL A   1      49.534  28.537  21.947  1.00  0.00    -0.744 OA
ENDBRANCH  73  77
ENDBRANCH  46  70
BRANCH  58  81
ATOM     81  C   UNL A   1      44.986  33.204  29.118  1.00  0.00     0.023 A 
ATOM     82  C   UNL A   1      44.991  34.215  28.142  1.00  0.00     0.031 A 
ATOM     83  C   UNL A   1      45.644  33.454  30.335  1.00  0.00     0.131 A 
ATOM     84  C   UNL A   1      45.681  35.413  28.381  1.00  0.00     0.055 A 
ATOM     85  C   UNL A   1      46.281  34.669  30.589  1.00  0.00     0.041 A 
ATOM     86  F   UNL A   1      45.673  32.522  31.301  1.00  0.00    -0.206 F 
ATOM     87  C   UNL A   1      46.311  35.652  29.605  1.00  0.00     0.022 A 
BRANCH  84  88
ATOM     88  S   UNL A   1      45.810  36.626  27.039  1.00  0.00     0.124 S 
ATOM     89  O   UNL A   1      46.892  37.485  27.510  1.00  0.00    -0.237 OA
ATOM     90  O   UNL A   1      46.118  35.786  25.886  1.00  0.00    -0.237 OA
ATOM     91  O   UNL A   1      44.488  37.250  27.014  1.00  0.00    -0.744 OA
ENDBRANCH  84  88
ENDBRANCH  58  81
ENDBRANCH  32  33
ENDBRANCH  24  27
ENDBRANCH   1  23
TORSDOF 15
ENDMDL
