MODEL 1
REMARK VINA RESULT:     -10.9      0.000      0.000
REMARK SMILES N#CCC1(C[N@@H+]2CCO[C@H](CC(=O)NCCCNC(=O)c3ccc(-c4c5nc(c(-c6cc(S(=O)(=O)[O-])ccc6F)c6ccc([nH]6)c(-c6cc(S(=O)(=O)[O-])ccc6F)c6nc(c(-c7cc(S(=O)(=O)[O-])ccc7F)c7ccc4[nH]7)C=C6)C=C5)cc3)C2)CC1
REMARK SMILES IDX 15 1 14 2 12 3 13 4 11 6 10 7 6 8 7 9 84 10 8 12 9 13 5 14
REMARK SMILES IDX 4 15 85 16 86 17 3 18 2 19 1 20 16 21 17 22 18 23 19 24
REMARK SMILES IDX 20 26 21 27 22 28 83 29 23 30 82 31 24 32 25 33 26 34 76 35
REMARK SMILES IDX 27 36 81 37 75 38 77 39 28 40 80 41 74 42 73 43 29 45 61 46
REMARK SMILES IDX 41 47 60 48 42 49 45 50 59 51 78 52 43 53 44 54 58 56 79 57
REMARK SMILES IDX 46 58 30 59 31 60 39 61 32 62 38 63 40 64 37 65 33 66 34 67
REMARK SMILES IDX 35 68 36 69 62 70 63 71 71 72 64 73 70 74 72 75 69 76 65 77
REMARK SMILES IDX 66 78 67 79 68 80 47 81 48 82 56 83 49 84 55 85 57 86 54 87
REMARK SMILES IDX 50 88 51 89 52 90 53 91
REMARK H PARENT 14 5 6 11 18 25 77 44 45 55
REMARK Flexibility Score: inf
ROOT
ATOM      1  C   UNL A   1      31.602  30.046  25.757  1.00  0.00     0.117 C 
ENDROOT
BRANCH   1   2
ATOM      2  N   UNL A   1      32.853  29.650  25.122  1.00  0.00    -0.356 N 
ATOM      3  C   UNL A   1      33.077  28.788  24.088  1.00  0.00     0.222 C 
ATOM      4  O   UNL A   1      33.886  29.167  23.235  1.00  0.00    -0.275 OA
ATOM      5  H   UNL A   1      33.662  30.069  25.498  1.00  0.00     0.163 HD
BRANCH   3   6
ATOM      6  C   UNL A   1      32.388  27.437  23.925  1.00  0.00     0.138 C 
BRANCH   6   7
ATOM      7  C   UNL A   1      32.277  26.504  25.145  1.00  0.00     0.182 C 
ATOM      8  N   UNL A   1      33.200  23.285  25.831  1.00  0.00    -0.330 N 
ATOM      9  C   UNL A   1      31.463  22.998  26.625  1.00  0.00     0.291 C 
ATOM     10  C   UNL A   1      33.649  25.057  25.281  1.00  0.00     0.295 C 
ATOM     11  H   UNL A   1      33.823  22.960  26.570  1.00  0.00     0.348 HD
ATOM     12  C   UNL A   1      30.030  24.452  26.563  1.00  0.00     0.222 C 
ATOM     13  O   UNL A   1      30.480  26.079  25.639  1.00  0.00    -0.366 OA
BRANCH   8  14
ATOM     14  C   UNL A   1      33.220  22.628  24.488  1.00  0.00     0.270 C 
BRANCH  14  15
ATOM     15  C   UNL A   1      33.749  21.283  24.800  1.00  0.00     0.032 C 
ATOM     16  C   UNL A   1      32.949  20.089  24.255  1.00  0.00     0.015 C 
ATOM     17  C   UNL A   1      33.164  20.198  25.718  1.00  0.00     0.015 C 
BRANCH  15  18
ATOM     18  C   UNL A   1      35.225  21.274  24.624  1.00  0.00     0.133 C 
BRANCH  18  19
ATOM     19  C   UNL A   1      36.037  22.394  23.994  1.00  0.00     0.063 C 
ATOM     20  N   UNL A   1      36.711  23.323  23.472  1.00  0.00    -0.198 NA
ENDBRANCH  18  19
ENDBRANCH  15  18
ENDBRANCH  14  15
ENDBRANCH   8  14
ENDBRANCH   6   7
ENDBRANCH   3   6
ENDBRANCH   1   2
BRANCH   1  21
ATOM     21  C   UNL A   1      31.529  31.474  26.314  1.00  0.00     0.042 C 
BRANCH  21  22
ATOM     22  C   UNL A   1      32.749  32.015  27.064  1.00  0.00     0.118 C 
BRANCH  22  23
ATOM     23  N   UNL A   1      32.641  33.416  27.432  1.00  0.00    -0.352 N 
ATOM     24  C   UNL A   1      33.319  34.166  28.366  1.00  0.00     0.251 C 
ATOM     25  H   UNL A   1      31.964  33.919  26.924  1.00  0.00     0.163 HD
ATOM     26  O   UNL A   1      32.922  35.306  28.601  1.00  0.00    -0.269 OA
BRANCH  24  27
ATOM     27  C   UNL A   1      34.482  33.628  29.115  1.00  0.00     0.039 A 
ATOM     28  C   UNL A   1      34.243  32.698  30.132  1.00  0.00     0.014 A 
ATOM     29  C   UNL A   1      35.785  34.077  28.890  1.00  0.00     0.014 A 
ATOM     30  C   UNL A   1      35.310  32.170  30.869  1.00  0.00     0.010 A 
ATOM     31  C   UNL A   1      36.857  33.497  29.577  1.00  0.00     0.010 A 
ATOM     32  C   UNL A   1      36.634  32.536  30.575  1.00  0.00    -0.014 A 
BRANCH  32  33
ATOM     33  C   UNL A   1      37.777  31.906  31.298  1.00  0.00     0.031 A 
ATOM     34  C   UNL A   1      38.580  30.800  30.666  1.00  0.00     0.074 A 
ATOM     35  C   UNL A   1      38.060  32.299  32.556  1.00  0.00     0.049 A 
ATOM     36  N   UNL A   1      39.595  30.129  31.151  1.00  0.00    -0.248 NA
ATOM     37  C   UNL A   1      38.166  30.372  29.324  1.00  0.00     0.031 C 
ATOM     38  C   UNL A   1      37.314  33.310  33.309  1.00  0.00     0.029 A 
ATOM     39  N   UNL A   1      39.041  31.896  33.429  1.00  0.00    -0.354 N 
ATOM     40  C   UNL A   1      39.932  29.189  30.180  1.00  0.00     0.074 A 
ATOM     41  C   UNL A   1      38.966  29.338  29.111  1.00  0.00     0.031 C 
ATOM     42  C   UNL A   1      37.875  33.462  34.518  1.00  0.00     0.029 A 
ATOM     43  C   UNL A   1      38.994  32.534  34.647  1.00  0.00     0.049 A 
ATOM     44  H   UNL A   1      39.714  31.213  33.204  1.00  0.00     0.167 HD
ATOM     45  C   UNL A   1      40.963  28.303  30.171  1.00  0.00     0.034 A 
ATOM     46  C   UNL A   1      39.756  32.387  35.749  1.00  0.00     0.034 A 
ATOM     47  C   UNL A   1      41.916  28.169  31.248  1.00  0.00     0.049 A 
ATOM     48  C   UNL A   1      40.897  31.406  35.720  1.00  0.00     0.074 A 
ATOM     49  C   UNL A   1      43.041  27.364  31.314  1.00  0.00     0.029 A 
ATOM     50  N   UNL A   1      41.848  28.845  32.463  1.00  0.00    -0.354 N 
ATOM     51  N   UNL A   1      41.259  30.588  34.757  1.00  0.00    -0.248 NA
ATOM     52  C   UNL A   1      41.744  31.343  36.916  1.00  0.00     0.031 C 
ATOM     53  C   UNL A   1      43.602  27.492  32.591  1.00  0.00     0.029 A 
ATOM     54  C   UNL A   1      42.883  28.443  33.297  1.00  0.00     0.049 A 
ATOM     55  H   UNL A   1      41.163  29.512  32.698  1.00  0.00     0.167 HD
ATOM     56  C   UNL A   1      42.387  29.922  35.229  1.00  0.00     0.074 A 
ATOM     57  C   UNL A   1      42.660  30.459  36.549  1.00  0.00     0.031 C 
ATOM     58  C   UNL A   1      43.128  28.955  34.627  1.00  0.00     0.034 A 
BRANCH  45  59
ATOM     59  C   UNL A   1      41.080  27.391  28.967  1.00  0.00     0.023 A 
ATOM     60  C   UNL A   1      42.094  27.558  28.005  1.00  0.00     0.031 A 
ATOM     61  C   UNL A   1      40.135  26.372  28.746  1.00  0.00     0.131 A 
ATOM     62  C   UNL A   1      42.077  26.800  26.823  1.00  0.00     0.055 A 
ATOM     63  C   UNL A   1      40.181  25.555  27.612  1.00  0.00     0.041 A 
ATOM     64  F   UNL A   1      39.133  26.168  29.614  1.00  0.00    -0.206 F 
ATOM     65  C   UNL A   1      41.142  25.782  26.632  1.00  0.00     0.022 A 
BRANCH  62  66
ATOM     66  S   UNL A   1      43.173  27.297  25.465  1.00  0.00     0.124 S 
ATOM     67  O   UNL A   1      43.485  26.009  24.851  1.00  0.00    -0.237 OA
ATOM     68  O   UNL A   1      42.325  28.190  24.686  1.00  0.00    -0.237 OA
ATOM     69  O   UNL A   1      44.296  27.939  26.150  1.00  0.00    -0.744 OA
ENDBRANCH  62  66
ENDBRANCH  45  59
BRANCH  46  70
ATOM     70  C   UNL A   1      39.448  33.177  36.976  1.00  0.00     0.023 A 
ATOM     71  C   UNL A   1      40.084  34.400  37.240  1.00  0.00     0.031 A 
ATOM     72  C   UNL A   1      38.503  32.711  37.908  1.00  0.00     0.131 A 
ATOM     73  C   UNL A   1      39.788  35.102  38.420  1.00  0.00     0.055 A 
ATOM     74  C   UNL A   1      38.177  33.435  39.055  1.00  0.00     0.041 A 
ATOM     75  F   UNL A   1      37.861  31.550  37.698  1.00  0.00    -0.206 F 
ATOM     76  C   UNL A   1      38.828  34.635  39.321  1.00  0.00     0.022 A 
BRANCH  73  77
ATOM     77  S   UNL A   1      40.713  36.618  38.790  1.00  0.00     0.124 S 
ATOM     78  O   UNL A   1      41.633  36.690  37.660  1.00  0.00    -0.237 OA
ATOM     79  O   UNL A   1      39.653  37.621  38.817  1.00  0.00    -0.237 OA
ATOM     80  O   UNL A   1      41.331  36.334  40.083  1.00  0.00    -0.744 OA
ENDBRANCH  73  77
ENDBRANCH  46  70
BRANCH  58  81
ATOM     81  C   UNL A   1      44.319  28.432  35.398  1.00  0.00     0.023 A 
ATOM     82  C   UNL A   1      44.186  27.419  36.366  1.00  0.00     0.031 A 
ATOM     83  C   UNL A   1      45.598  28.978  35.190  1.00  0.00     0.131 A 
ATOM     84  C   UNL A   1      45.293  27.039  37.139  1.00  0.00     0.055 A 
ATOM     85  C   UNL A   1      46.711  28.545  35.913  1.00  0.00     0.041 A 
ATOM     86  F   UNL A   1      45.788  29.952  34.285  1.00  0.00    -0.206 F 
ATOM     87  C   UNL A   1      46.559  27.582  36.906  1.00  0.00     0.022 A 
BRANCH  84  88
ATOM     88  S   UNL A   1      45.031  25.919  38.542  1.00  0.00     0.124 S 
ATOM     89  O   UNL A   1      44.538  24.715  37.881  1.00  0.00    -0.237 OA
ATOM     90  O   UNL A   1      46.366  25.827  39.122  1.00  0.00    -0.237 OA
ATOM     91  O   UNL A   1      44.047  26.622  39.363  1.00  0.00    -0.744 OA
ENDBRANCH  84  88
ENDBRANCH  58  81
ENDBRANCH  32  33
ENDBRANCH  24  27
ENDBRANCH  22  23
ENDBRANCH  21  22
ENDBRANCH   1  21
TORSDOF 18
ENDMDL
MODEL 2
REMARK VINA RESULT:     -10.8      3.322      8.748
REMARK SMILES N#CCC1(C[N@@H+]2CCO[C@H](CC(=O)NCCCNC(=O)c3ccc(-c4c5nc(c(-c6cc(S(=O)(=O)[O-])ccc6F)c6ccc([nH]6)c(-c6cc(S(=O)(=O)[O-])ccc6F)c6nc(c(-c7cc(S(=O)(=O)[O-])ccc7F)c7ccc4[nH]7)C=C6)C=C5)cc3)C2)CC1
REMARK SMILES IDX 15 1 14 2 12 3 13 4 11 6 10 7 6 8 7 9 84 10 8 12 9 13 5 14
REMARK SMILES IDX 4 15 85 16 86 17 3 18 2 19 1 20 16 21 17 22 18 23 19 24
REMARK SMILES IDX 20 26 21 27 22 28 83 29 23 30 82 31 24 32 25 33 26 34 76 35
REMARK SMILES IDX 27 36 81 37 75 38 77 39 28 40 80 41 74 42 73 43 29 45 61 46
REMARK SMILES IDX 41 47 60 48 42 49 45 50 59 51 78 52 43 53 44 54 58 56 79 57
REMARK SMILES IDX 46 58 30 59 31 60 39 61 32 62 38 63 40 64 37 65 33 66 34 67
REMARK SMILES IDX 35 68 36 69 62 70 63 71 71 72 64 73 70 74 72 75 69 76 65 77
REMARK SMILES IDX 66 78 67 79 68 80 47 81 48 82 56 83 49 84 55 85 57 86 54 87
REMARK SMILES IDX 50 88 51 89 52 90 53 91
REMARK H PARENT 14 5 6 11 18 25 77 44 45 55
REMARK Flexibility Score: inf
ROOT
ATOM      1  C   UNL A   1      32.824  28.961  23.942  1.00  0.00     0.117 C 
ENDROOT
BRANCH   1   2
ATOM      2  N   UNL A   1      31.620  29.349  23.217  1.00  0.00    -0.356 N 
ATOM      3  C   UNL A   1      30.311  29.060  23.473  1.00  0.00     0.222 C 
ATOM      4  O   UNL A   1      29.518  30.001  23.356  1.00  0.00    -0.275 OA
ATOM      5  H   UNL A   1      31.776  29.905  22.418  1.00  0.00     0.163 HD
BRANCH   3   6
ATOM      6  C   UNL A   1      29.797  27.690  23.903  1.00  0.00     0.138 C 
BRANCH   6   7
ATOM      7  C   UNL A   1      30.319  26.436  23.176  1.00  0.00     0.182 C 
ATOM      8  N   UNL A   1      32.661  24.038  23.850  1.00  0.00    -0.330 N 
ATOM      9  C   UNL A   1      33.306  24.218  22.038  1.00  0.00     0.291 C 
ATOM     10  C   UNL A   1      31.081  24.995  24.333  1.00  0.00     0.295 C 
ATOM     11  H   UNL A   1      32.518  23.032  23.921  1.00  0.00     0.348 HD
ATOM     12  C   UNL A   1      32.539  25.638  20.787  1.00  0.00     0.222 C 
ATOM     13  O   UNL A   1      31.194  26.806  21.518  1.00  0.00    -0.366 OA
BRANCH   8  14
ATOM     14  C   UNL A   1      33.623  24.729  24.763  1.00  0.00     0.270 C 
BRANCH  14  15
ATOM     15  C   UNL A   1      34.600  23.660  25.062  1.00  0.00     0.032 C 
ATOM     16  C   UNL A   1      35.941  24.109  25.665  1.00  0.00     0.015 C 
ATOM     17  C   UNL A   1      35.947  23.359  24.386  1.00  0.00     0.015 C 
BRANCH  15  18
ATOM     18  C   UNL A   1      33.903  22.507  25.688  1.00  0.00     0.133 C 
BRANCH  18  19
ATOM     19  C   UNL A   1      33.209  22.533  27.041  1.00  0.00     0.063 C 
ATOM     20  N   UNL A   1      32.633  22.556  28.162  1.00  0.00    -0.198 NA
ENDBRANCH  18  19
ENDBRANCH  15  18
ENDBRANCH  14  15
ENDBRANCH   8  14
ENDBRANCH   6   7
ENDBRANCH   3   6
ENDBRANCH   1   2
BRANCH   1  21
ATOM     21  C   UNL A   1      32.666  28.674  25.441  1.00  0.00     0.042 C 
BRANCH  21  22
ATOM     22  C   UNL A   1      33.843  29.002  26.364  1.00  0.00     0.118 C 
BRANCH  22  23
ATOM     23  N   UNL A   1      33.884  30.388  26.797  1.00  0.00    -0.352 N 
ATOM     24  C   UNL A   1      34.736  31.047  27.653  1.00  0.00     0.251 C 
ATOM     25  H   UNL A   1      33.180  30.955  26.410  1.00  0.00     0.163 HD
ATOM     26  O   UNL A   1      34.455  32.198  27.985  1.00  0.00    -0.269 OA
BRANCH  24  27
ATOM     27  C   UNL A   1      35.952  30.403  28.208  1.00  0.00     0.039 A 
ATOM     28  C   UNL A   1      37.123  30.426  27.444  1.00  0.00     0.014 A 
ATOM     29  C   UNL A   1      35.941  29.714  29.424  1.00  0.00     0.014 A 
ATOM     30  C   UNL A   1      38.292  29.823  27.926  1.00  0.00     0.010 A 
ATOM     31  C   UNL A   1      37.126  29.176  29.937  1.00  0.00     0.010 A 
ATOM     32  C   UNL A   1      38.317  29.223  29.196  1.00  0.00    -0.014 A 
BRANCH  32  33
ATOM     33  C   UNL A   1      39.584  28.663  29.748  1.00  0.00     0.031 A 
ATOM     34  C   UNL A   1      40.233  29.265  30.966  1.00  0.00     0.074 A 
ATOM     35  C   UNL A   1      40.181  27.633  29.116  1.00  0.00     0.049 A 
ATOM     36  N   UNL A   1      41.340  28.919  31.574  1.00  0.00    -0.248 NA
ATOM     37  C   UNL A   1      39.565  30.432  31.557  1.00  0.00     0.031 C 
ATOM     38  C   UNL A   1      39.694  27.004  27.886  1.00  0.00     0.029 A 
ATOM     39  N   UNL A   1      41.329  26.937  29.408  1.00  0.00    -0.354 N 
ATOM     40  C   UNL A   1      41.510  29.833  32.611  1.00  0.00     0.074 A 
ATOM     41  C   UNL A   1      40.425  30.787  32.500  1.00  0.00     0.031 C 
ATOM     42  C   UNL A   1      40.521  26.006  27.543  1.00  0.00     0.029 A 
ATOM     43  C   UNL A   1      41.621  25.945  28.501  1.00  0.00     0.049 A 
ATOM     44  H   UNL A   1      41.890  27.131  30.194  1.00  0.00     0.167 HD
ATOM     45  C   UNL A   1      42.465  29.860  33.577  1.00  0.00     0.034 A 
ATOM     46  C   UNL A   1      42.660  25.089  28.435  1.00  0.00     0.034 A 
ATOM     47  C   UNL A   1      43.540  28.899  33.671  1.00  0.00     0.049 A 
ATOM     48  C   UNL A   1      43.706  25.129  29.517  1.00  0.00     0.074 A 
ATOM     49  C   UNL A   1      44.515  28.784  34.648  1.00  0.00     0.029 A 
ATOM     50  N   UNL A   1      43.797  27.896  32.742  1.00  0.00    -0.354 N 
ATOM     51  N   UNL A   1      43.803  25.942  30.544  1.00  0.00    -0.248 NA
ATOM     52  C   UNL A   1      44.770  24.121  29.442  1.00  0.00     0.031 C 
ATOM     53  C   UNL A   1      45.403  27.769  34.268  1.00  0.00     0.029 A 
ATOM     54  C   UNL A   1      44.937  27.189  33.099  1.00  0.00     0.049 A 
ATOM     55  H   UNL A   1      43.249  27.715  31.944  1.00  0.00     0.167 HD
ATOM     56  C   UNL A   1      44.933  25.535  31.246  1.00  0.00     0.074 A 
ATOM     57  C   UNL A   1      45.464  24.384  30.540  1.00  0.00     0.031 C 
ATOM     58  C   UNL A   1      45.483  26.064  32.370  1.00  0.00     0.034 A 
BRANCH  45  59
ATOM     59  C   UNL A   1      42.399  30.991  34.584  1.00  0.00     0.023 A 
ATOM     60  C   UNL A   1      43.048  32.220  34.362  1.00  0.00     0.031 A 
ATOM     61  C   UNL A   1      41.723  30.823  35.806  1.00  0.00     0.131 A 
ATOM     62  C   UNL A   1      43.100  33.184  35.382  1.00  0.00     0.055 A 
ATOM     63  C   UNL A   1      41.697  31.826  36.780  1.00  0.00     0.041 A 
ATOM     64  F   UNL A   1      41.096  29.671  36.089  1.00  0.00    -0.206 F 
ATOM     65  C   UNL A   1      42.407  33.005  36.580  1.00  0.00     0.022 A 
BRANCH  62  66
ATOM     66  S   UNL A   1      44.243  34.581  35.191  1.00  0.00     0.124 S 
ATOM     67  O   UNL A   1      45.017  34.172  34.023  1.00  0.00    -0.237 OA
ATOM     68  O   UNL A   1      43.337  35.705  34.999  1.00  0.00    -0.237 OA
ATOM     69  O   UNL A   1      44.989  34.586  36.451  1.00  0.00    -0.744 OA
ENDBRANCH  62  66
ENDBRANCH  45  59
BRANCH  46  70
ATOM     70  C   UNL A   1      42.765  24.136  27.293  1.00  0.00     0.023 A 
ATOM     71  C   UNL A   1      42.160  22.870  27.334  1.00  0.00     0.031 A 
ATOM     72  C   UNL A   1      43.483  24.486  26.134  1.00  0.00     0.131 A 
ATOM     73  C   UNL A   1      42.306  21.989  26.250  1.00  0.00     0.055 A 
ATOM     74  C   UNL A   1      43.584  23.626  25.040  1.00  0.00     0.041 A 
ATOM     75  F   UNL A   1      44.074  25.688  26.041  1.00  0.00    -0.206 F 
ATOM     76  C   UNL A   1      43.000  22.366  25.097  1.00  0.00     0.022 A 
BRANCH  73  77
ATOM     77  S   UNL A   1      41.613  20.318  26.383  1.00  0.00     0.124 S 
ATOM     78  O   UNL A   1      42.294  19.625  25.294  1.00  0.00    -0.237 OA
ATOM     79  O   UNL A   1      42.006  19.933  27.734  1.00  0.00    -0.237 OA
ATOM     80  O   UNL A   1      40.180  20.527  26.190  1.00  0.00    -0.744 OA
ENDBRANCH  73  77
ENDBRANCH  46  70
BRANCH  58  81
ATOM     81  C   UNL A   1      46.719  25.382  32.910  1.00  0.00     0.023 A 
ATOM     82  C   UNL A   1      46.637  24.351  33.865  1.00  0.00     0.031 A 
ATOM     83  C   UNL A   1      47.999  25.793  32.495  1.00  0.00     0.131 A 
ATOM     84  C   UNL A   1      47.809  23.820  34.425  1.00  0.00     0.055 A 
ATOM     85  C   UNL A   1      49.161  25.210  33.004  1.00  0.00     0.041 A 
ATOM     86  F   UNL A   1      48.143  26.776  31.592  1.00  0.00    -0.206 F 
ATOM     87  C   UNL A   1      49.070  24.230  33.988  1.00  0.00     0.022 A 
BRANCH  84  88
ATOM     88  S   UNL A   1      47.661  22.678  35.827  1.00  0.00     0.124 S 
ATOM     89  O   UNL A   1      48.833  23.025  36.626  1.00  0.00    -0.237 OA
ATOM     90  O   UNL A   1      46.370  23.047  36.396  1.00  0.00    -0.237 OA
ATOM     91  O   UNL A   1      47.707  21.358  35.201  1.00  0.00    -0.744 OA
ENDBRANCH  84  88
ENDBRANCH  58  81
ENDBRANCH  32  33
ENDBRANCH  24  27
ENDBRANCH  22  23
ENDBRANCH  21  22
ENDBRANCH   1  21
TORSDOF 18
ENDMDL
MODEL 3
REMARK VINA RESULT:     -10.8      2.763      3.442
REMARK SMILES N#CCC1(C[N@@H+]2CCO[C@H](CC(=O)NCCCNC(=O)c3ccc(-c4c5nc(c(-c6cc(S(=O)(=O)[O-])ccc6F)c6ccc([nH]6)c(-c6cc(S(=O)(=O)[O-])ccc6F)c6nc(c(-c7cc(S(=O)(=O)[O-])ccc7F)c7ccc4[nH]7)C=C6)C=C5)cc3)C2)CC1
REMARK SMILES IDX 15 1 14 2 12 3 13 4 11 6 10 7 6 8 7 9 84 10 8 12 9 13 5 14
REMARK SMILES IDX 4 15 85 16 86 17 3 18 2 19 1 20 16 21 17 22 18 23 19 24
REMARK SMILES IDX 20 26 21 27 22 28 83 29 23 30 82 31 24 32 25 33 26 34 76 35
REMARK SMILES IDX 27 36 81 37 75 38 77 39 28 40 80 41 74 42 73 43 29 45 61 46
REMARK SMILES IDX 41 47 60 48 42 49 45 50 59 51 78 52 43 53 44 54 58 56 79 57
REMARK SMILES IDX 46 58 30 59 31 60 39 61 32 62 38 63 40 64 37 65 33 66 34 67
REMARK SMILES IDX 35 68 36 69 62 70 63 71 71 72 64 73 70 74 72 75 69 76 65 77
REMARK SMILES IDX 66 78 67 79 68 80 47 81 48 82 56 83 49 84 55 85 57 86 54 87
REMARK SMILES IDX 50 88 51 89 52 90 53 91
REMARK H PARENT 14 5 6 11 18 25 77 44 45 55
REMARK Flexibility Score: inf
ROOT
ATOM      1  C   UNL A   1      32.217  26.855  25.230  1.00  0.00     0.117 C 
ENDROOT
BRANCH   1   2
ATOM      2  N   UNL A   1      32.308  26.259  23.903  1.00  0.00    -0.356 N 
ATOM      3  C   UNL A   1      33.012  25.169  23.477  1.00  0.00     0.222 C 
ATOM      4  O   UNL A   1      32.407  24.398  22.724  1.00  0.00    -0.275 OA
ATOM      5  H   UNL A   1      31.782  26.714  23.205  1.00  0.00     0.163 HD
BRANCH   3   6
ATOM      6  C   UNL A   1      34.446  24.854  23.887  1.00  0.00     0.138 C 
BRANCH   6   7
ATOM      7  C   UNL A   1      34.694  23.808  24.989  1.00  0.00     0.182 C 
ATOM      8  N   UNL A   1      34.372  20.413  25.232  1.00  0.00    -0.330 N 
ATOM      9  C   UNL A   1      33.522  20.657  26.949  1.00  0.00     0.291 C 
ATOM     10  C   UNL A   1      35.107  21.952  24.373  1.00  0.00     0.295 C 
ATOM     11  H   UNL A   1      35.099  19.733  25.454  1.00  0.00     0.348 HD
ATOM     12  C   UNL A   1      33.114  22.527  27.660  1.00  0.00     0.222 C 
ATOM     13  O   UNL A   1      33.568  24.010  26.520  1.00  0.00    -0.366 OA
BRANCH   8  14
ATOM     14  C   UNL A   1      33.317  20.084  24.225  1.00  0.00     0.270 C 
BRANCH  14  15
ATOM     15  C   UNL A   1      33.333  18.606  24.219  1.00  0.00     0.032 C 
ATOM     16  C   UNL A   1      32.573  17.918  23.074  1.00  0.00     0.015 C 
ATOM     17  C   UNL A   1      32.181  17.621  24.473  1.00  0.00     0.015 C 
BRANCH  15  18
ATOM     18  C   UNL A   1      34.700  18.120  24.541  1.00  0.00     0.133 C 
BRANCH  18  19
ATOM     19  C   UNL A   1      35.057  16.686  24.900  1.00  0.00     0.063 C 
ATOM     20  N   UNL A   1      35.353  15.497  25.198  1.00  0.00    -0.198 NA
ENDBRANCH  18  19
ENDBRANCH  15  18
ENDBRANCH  14  15
ENDBRANCH   8  14
ENDBRANCH   6   7
ENDBRANCH   3   6
ENDBRANCH   1   2
BRANCH   1  21
ATOM     21  C   UNL A   1      33.390  27.740  25.673  1.00  0.00     0.042 C 
BRANCH  21  22
ATOM     22  C   UNL A   1      33.625  29.052  24.920  1.00  0.00     0.118 C 
BRANCH  22  23
ATOM     23  N   UNL A   1      32.910  30.188  25.475  1.00  0.00    -0.352 N 
ATOM     24  C   UNL A   1      33.124  30.928  26.615  1.00  0.00     0.251 C 
ATOM     25  H   UNL A   1      32.136  30.480  24.941  1.00  0.00     0.163 HD
ATOM     26  O   UNL A   1      32.268  31.745  26.951  1.00  0.00    -0.269 OA
BRANCH  24  27
ATOM     27  C   UNL A   1      34.329  30.743  27.461  1.00  0.00     0.039 A 
ATOM     28  C   UNL A   1      34.464  29.545  28.171  1.00  0.00     0.014 A 
ATOM     29  C   UNL A   1      35.284  31.749  27.627  1.00  0.00     0.014 A 
ATOM     30  C   UNL A   1      35.582  29.332  28.987  1.00  0.00     0.010 A 
ATOM     31  C   UNL A   1      36.436  31.507  28.384  1.00  0.00     0.010 A 
ATOM     32  C   UNL A   1      36.600  30.296  29.074  1.00  0.00    -0.014 A 
BRANCH  32  33
ATOM     33  C   UNL A   1      37.833  30.031  29.870  1.00  0.00     0.031 A 
ATOM     34  C   UNL A   1      38.922  29.136  29.339  1.00  0.00     0.074 A 
ATOM     35  C   UNL A   1      37.950  30.561  31.104  1.00  0.00     0.049 A 
ATOM     36  N   UNL A   1      40.053  28.783  29.898  1.00  0.00    -0.248 NA
ATOM     37  C   UNL A   1      38.692  28.532  28.020  1.00  0.00     0.031 C 
ATOM     38  C   UNL A   1      36.936  31.387  31.763  1.00  0.00     0.029 A 
ATOM     39  N   UNL A   1      38.962  30.482  32.029  1.00  0.00    -0.354 N 
ATOM     40  C   UNL A   1      40.663  27.905  29.005  1.00  0.00     0.074 A 
ATOM     41  C   UNL A   1      39.740  27.731  27.903  1.00  0.00     0.031 C 
ATOM     42  C   UNL A   1      37.385  31.755  32.972  1.00  0.00     0.029 A 
ATOM     43  C   UNL A   1      38.699  31.160  33.196  1.00  0.00     0.049 A 
ATOM     44  H   UNL A   1      39.798  29.985  31.871  1.00  0.00     0.167 HD
ATOM     45  C   UNL A   1      41.887  27.319  29.086  1.00  0.00     0.034 A 
ATOM     46  C   UNL A   1      39.423  31.284  34.327  1.00  0.00     0.034 A 
ATOM     47  C   UNL A   1      42.794  27.505  30.195  1.00  0.00     0.049 A 
ATOM     48  C   UNL A   1      40.779  30.634  34.397  1.00  0.00     0.074 A 
ATOM     49  C   UNL A   1      44.085  27.025  30.348  1.00  0.00     0.029 A 
ATOM     50  N   UNL A   1      42.501  28.213  31.357  1.00  0.00    -0.354 N 
ATOM     51  N   UNL A   1      41.382  29.880  33.505  1.00  0.00    -0.248 NA
ATOM     52  C   UNL A   1      41.560  30.868  35.616  1.00  0.00     0.031 C 
ATOM     53  C   UNL A   1      44.537  27.374  31.627  1.00  0.00     0.029 A 
ATOM     54  C   UNL A   1      43.566  28.146  32.244  1.00  0.00     0.049 A 
ATOM     55  H   UNL A   1      41.657  28.692  31.525  1.00  0.00     0.167 HD
ATOM     56  C   UNL A   1      42.621  29.562  34.053  1.00  0.00     0.074 A 
ATOM     57  C   UNL A   1      42.688  30.232  35.338  1.00  0.00     0.031 C 
ATOM     58  C   UNL A   1      43.612  28.786  33.541  1.00  0.00     0.034 A 
BRANCH  45  59
ATOM     59  C   UNL A   1      42.288  26.396  27.954  1.00  0.00     0.023 A 
ATOM     60  C   UNL A   1      42.010  25.017  27.986  1.00  0.00     0.031 A 
ATOM     61  C   UNL A   1      43.006  26.889  26.849  1.00  0.00     0.131 A 
ATOM     62  C   UNL A   1      42.536  24.168  26.999  1.00  0.00     0.055 A 
ATOM     63  C   UNL A   1      43.444  26.052  25.818  1.00  0.00     0.041 A 
ATOM     64  F   UNL A   1      43.319  28.191  26.761  1.00  0.00    -0.206 F 
ATOM     65  C   UNL A   1      43.229  24.680  25.902  1.00  0.00     0.022 A 
BRANCH  62  66
ATOM     66  S   UNL A   1      42.464  22.376  27.275  1.00  0.00     0.124 S 
ATOM     67  O   UNL A   1      41.051  22.096  27.036  1.00  0.00    -0.237 OA
ATOM     68  O   UNL A   1      43.397  21.866  26.280  1.00  0.00    -0.237 OA
ATOM     69  O   UNL A   1      42.892  22.228  28.668  1.00  0.00    -0.744 OA
ENDBRANCH  62  66
ENDBRANCH  45  59
BRANCH  46  70
ATOM     70  C   UNL A   1      38.869  32.041  35.485  1.00  0.00     0.023 A 
ATOM     71  C   UNL A   1      38.299  31.385  36.587  1.00  0.00     0.031 A 
ATOM     72  C   UNL A   1      38.902  33.448  35.501  1.00  0.00     0.131 A 
ATOM     73  C   UNL A   1      37.762  32.134  37.647  1.00  0.00     0.055 A 
ATOM     74  C   UNL A   1      38.410  34.188  36.577  1.00  0.00     0.041 A 
ATOM     75  F   UNL A   1      39.443  34.124  34.473  1.00  0.00    -0.206 F 
ATOM     76  C   UNL A   1      37.828  33.530  37.655  1.00  0.00     0.022 A 
BRANCH  73  77
ATOM     77  S   UNL A   1      36.928  31.261  39.000  1.00  0.00     0.124 S 
ATOM     78  O   UNL A   1      35.677  32.003  39.108  1.00  0.00    -0.237 OA
ATOM     79  O   UNL A   1      36.826  29.905  38.469  1.00  0.00    -0.237 OA
ATOM     80  O   UNL A   1      37.847  31.418  40.125  1.00  0.00    -0.744 OA
ENDBRANCH  73  77
ENDBRANCH  46  70
BRANCH  58  81
ATOM     81  C   UNL A   1      44.863  28.639  34.378  1.00  0.00     0.023 A 
ATOM     82  C   UNL A   1      45.000  27.610  35.328  1.00  0.00     0.031 A 
ATOM     83  C   UNL A   1      45.917  29.562  34.253  1.00  0.00     0.131 A 
ATOM     84  C   UNL A   1      46.126  27.573  36.164  1.00  0.00     0.055 A 
ATOM     85  C   UNL A   1      47.068  29.477  35.038  1.00  0.00     0.041 A 
ATOM     86  F   UNL A   1      45.843  30.570  33.368  1.00  0.00    -0.206 F 
ATOM     87  C   UNL A   1      47.170  28.489  36.013  1.00  0.00     0.022 A 
BRANCH  84  88
ATOM     88  S   UNL A   1      46.150  26.390  37.539  1.00  0.00     0.124 S 
ATOM     89  O   UNL A   1      46.882  25.267  36.961  1.00  0.00    -0.237 OA
ATOM     90  O   UNL A   1      46.847  27.136  38.581  1.00  0.00    -0.237 OA
ATOM     91  O   UNL A   1      44.734  26.138  37.799  1.00  0.00    -0.744 OA
ENDBRANCH  84  88
ENDBRANCH  58  81
ENDBRANCH  32  33
ENDBRANCH  24  27
ENDBRANCH  22  23
ENDBRANCH  21  22
ENDBRANCH   1  21
TORSDOF 18
ENDMDL
