MODEL 1
REMARK VINA RESULT:     -11.9      0.000      0.000
REMARK SMILES C[C@@H](Sc1nc(C[NH+]2CCCC2)nc2ccccc12)C(=O)NCCCNC(=O)c1ccc(-c2c3nc(c(-c4cc(S(=O)(=O)[O-])ccc4F)c4ccc([nH]4)c(-c4cc(S(=O)(=O)[O-])ccc4F)c4nc(c(-c5cc(S(=O)(=O)[O-])ccc5F)c5ccc2[nH]5)C=C4)C=C3)cc1
REMARK SMILES IDX 23 1 22 2 20 3 21 4 2 6 1 7 3 8 4 9 5 10 19 11 6 12 14 13
REMARK SMILES IDX 18 14 13 15 15 16 17 17 16 18 7 19 8 20 9 21 12 22 10 24
REMARK SMILES IDX 11 25 24 26 25 27 26 28 27 29 28 31 29 32 30 33 91 34 31 35
REMARK SMILES IDX 90 36 32 37 33 38 34 39 84 40 35 41 89 42 83 43 85 44 36 45
REMARK SMILES IDX 88 46 82 47 81 48 37 50 69 51 49 52 68 53 50 54 53 55 67 56
REMARK SMILES IDX 86 57 51 58 52 59 66 61 87 62 54 63 38 64 39 65 47 66 40 67
REMARK SMILES IDX 46 68 48 69 45 70 41 71 42 72 43 73 44 74 70 75 71 76 79 77
REMARK SMILES IDX 72 78 78 79 80 80 77 81 73 82 74 83 75 84 76 85 55 86 56 87
REMARK SMILES IDX 64 88 57 89 63 90 65 91 62 92 58 93 59 94 60 95 61 96
REMARK H PARENT 22 5 8 23 26 30 85 49 53 60
REMARK Flexibility Score: inf
ROOT
ATOM      1  C   UNL A   1      34.513  22.926  24.737  1.00  0.00     0.117 C 
ENDROOT
BRANCH   1   2
ATOM      2  N   UNL A   1      33.167  22.471  25.056  1.00  0.00    -0.355 N 
ATOM      3  C   UNL A   1      31.966  23.102  24.894  1.00  0.00     0.233 C 
ATOM      4  O   UNL A   1      30.945  22.482  25.205  1.00  0.00    -0.274 OA
ATOM      5  H   UNL A   1      33.116  21.570  25.449  1.00  0.00     0.163 HD
BRANCH   3   6
ATOM      6  C   UNL A   1      31.888  24.536  24.357  1.00  0.00     0.139 C 
ATOM      7  C   UNL A   1      31.953  24.523  22.831  1.00  0.00     0.030 C 
BRANCH   6   8
ATOM      8  S   UNL A   1      30.440  25.332  25.196  1.00  0.00    -0.093 SA
BRANCH   8   9
ATOM      9  C   UNL A   1      30.589  27.067  24.825  1.00  0.00     0.109 A 
ATOM     10  N   UNL A   1      30.011  27.476  23.690  1.00  0.00    -0.220 NA
ATOM     11  C   UNL A   1      31.337  27.916  25.656  1.00  0.00     0.033 A 
ATOM     12  C   UNL A   1      30.206  28.749  23.323  1.00  0.00     0.185 A 
ATOM     13  C   UNL A   1      31.452  29.228  25.191  1.00  0.00     0.075 A 
ATOM     14  C   UNL A   1      31.969  27.549  26.878  1.00  0.00     0.013 A 
ATOM     15  N   UNL A   1      30.908  29.643  24.041  1.00  0.00    -0.227 NA
ATOM     16  C   UNL A   1      32.184  30.137  25.948  1.00  0.00     0.029 A 
ATOM     17  C   UNL A   1      32.700  28.476  27.614  1.00  0.00     0.001 A 
ATOM     18  C   UNL A   1      32.807  29.777  27.146  1.00  0.00     0.002 A 
BRANCH  12  19
ATOM     19  C   UNL A   1      29.654  29.178  21.971  1.00  0.00     0.340 C 
BRANCH  19  20
ATOM     20  N   UNL A   1      28.290  29.755  21.929  1.00  0.00    -0.329 N 
ATOM     21  C   UNL A   1      28.175  30.982  21.138  1.00  0.00     0.262 C 
ATOM     22  C   UNL A   1      27.730  30.031  23.253  1.00  0.00     0.262 C 
ATOM     23  H   UNL A   1      27.757  29.015  21.474  1.00  0.00     0.348 HD
ATOM     24  C   UNL A   1      28.130  32.140  22.117  1.00  0.00     0.067 C 
ATOM     25  C   UNL A   1      27.623  31.542  23.412  1.00  0.00     0.067 C 
ENDBRANCH  19  20
ENDBRANCH  12  19
ENDBRANCH   8   9
ENDBRANCH   6   8
ENDBRANCH   3   6
ENDBRANCH   1   2
BRANCH   1  26
ATOM     26  C   UNL A   1      35.199  23.562  25.933  1.00  0.00     0.042 C 
BRANCH  26  27
ATOM     27  C   UNL A   1      36.660  23.884  25.667  1.00  0.00     0.118 C 
BRANCH  27  28
ATOM     28  N   UNL A   1      37.537  22.767  25.999  1.00  0.00    -0.352 N 
ATOM     29  C   UNL A   1      38.841  22.780  26.435  1.00  0.00     0.251 C 
ATOM     30  H   UNL A   1      37.138  21.873  25.898  1.00  0.00     0.163 HD
ATOM     31  O   UNL A   1      39.492  21.739  26.446  1.00  0.00    -0.269 OA
BRANCH  29  32
ATOM     32  C   UNL A   1      39.450  24.055  26.861  1.00  0.00     0.039 A 
ATOM     33  C   UNL A   1      40.074  24.870  25.913  1.00  0.00     0.014 A 
ATOM     34  C   UNL A   1      39.374  24.457  28.196  1.00  0.00     0.014 A 
ATOM     35  C   UNL A   1      40.545  26.131  26.292  1.00  0.00     0.010 A 
ATOM     36  C   UNL A   1      39.757  25.745  28.549  1.00  0.00     0.010 A 
ATOM     37  C   UNL A   1      40.346  26.596  27.602  1.00  0.00    -0.014 A 
BRANCH  37  38
ATOM     38  C   UNL A   1      40.749  27.960  28.028  1.00  0.00     0.031 A 
ATOM     39  C   UNL A   1      42.208  28.324  28.053  1.00  0.00     0.074 A 
ATOM     40  C   UNL A   1      39.823  28.822  28.494  1.00  0.00     0.049 A 
ATOM     41  N   UNL A   1      42.793  29.375  28.564  1.00  0.00    -0.248 NA
ATOM     42  C   UNL A   1      43.135  27.347  27.458  1.00  0.00     0.031 C 
ATOM     43  C   UNL A   1      38.382  28.571  28.548  1.00  0.00     0.029 A 
ATOM     44  N   UNL A   1      39.960  30.076  29.034  1.00  0.00    -0.354 N 
ATOM     45  C   UNL A   1      44.158  29.175  28.380  1.00  0.00     0.074 A 
ATOM     46  C   UNL A   1      44.311  27.874  27.762  1.00  0.00     0.031 C 
ATOM     47  C   UNL A   1      37.768  29.641  29.078  1.00  0.00     0.029 A 
ATOM     48  C   UNL A   1      38.772  30.630  29.455  1.00  0.00     0.049 A 
ATOM     49  H   UNL A   1      40.826  30.537  29.112  1.00  0.00     0.167 HD
ATOM     50  C   UNL A   1      45.184  30.007  28.680  1.00  0.00     0.034 A 
ATOM     51  C   UNL A   1      38.525  31.790  30.095  1.00  0.00     0.034 A 
ATOM     52  C   UNL A   1      45.008  31.309  29.274  1.00  0.00     0.049 A 
ATOM     53  C   UNL A   1      39.683  32.694  30.438  1.00  0.00     0.074 A 
ATOM     54  C   UNL A   1      45.968  32.258  29.574  1.00  0.00     0.029 A 
ATOM     55  N   UNL A   1      43.785  31.845  29.661  1.00  0.00    -0.354 N 
ATOM     56  N   UNL A   1      40.966  32.503  30.232  1.00  0.00    -0.248 NA
ATOM     57  C   UNL A   1      39.360  33.969  31.090  1.00  0.00     0.031 C 
ATOM     58  C   UNL A   1      45.336  33.340  30.196  1.00  0.00     0.029 A 
ATOM     59  C   UNL A   1      43.972  33.102  30.215  1.00  0.00     0.049 A 
ATOM     60  H   UNL A   1      42.914  31.399  29.555  1.00  0.00     0.167 HD
ATOM     61  C   UNL A   1      41.598  33.655  30.692  1.00  0.00     0.074 A 
ATOM     62  C   UNL A   1      40.557  34.531  31.187  1.00  0.00     0.031 C 
ATOM     63  C   UNL A   1      42.920  33.964  30.697  1.00  0.00     0.034 A 
BRANCH  50  64
ATOM     64  C   UNL A   1      46.584  29.516  28.394  1.00  0.00     0.023 A 
ATOM     65  C   UNL A   1      47.338  28.832  29.363  1.00  0.00     0.031 A 
ATOM     66  C   UNL A   1      47.185  29.765  27.148  1.00  0.00     0.131 A 
ATOM     67  C   UNL A   1      48.675  28.495  29.102  1.00  0.00     0.055 A 
ATOM     68  C   UNL A   1      48.488  29.349  26.864  1.00  0.00     0.041 A 
ATOM     69  F   UNL A   1      46.524  30.433  26.191  1.00  0.00    -0.206 F 
ATOM     70  C   UNL A   1      49.246  28.725  27.850  1.00  0.00     0.022 A 
BRANCH  67  71
ATOM     71  S   UNL A   1      49.697  27.891  30.473  1.00  0.00     0.124 S 
ATOM     72  O   UNL A   1      49.443  28.903  31.496  1.00  0.00    -0.237 OA
ATOM     73  O   UNL A   1      49.135  26.570  30.728  1.00  0.00    -0.237 OA
ATOM     74  O   UNL A   1      51.050  27.899  29.922  1.00  0.00    -0.744 OA
ENDBRANCH  67  71
ENDBRANCH  50  64
BRANCH  51  75
ATOM     75  C   UNL A   1      37.131  32.162  30.471  1.00  0.00     0.023 A 
ATOM     76  C   UNL A   1      36.276  32.782  29.546  1.00  0.00     0.031 A 
ATOM     77  C   UNL A   1      36.643  31.935  31.771  1.00  0.00     0.131 A 
ATOM     78  C   UNL A   1      34.997  33.197  29.945  1.00  0.00     0.055 A 
ATOM     79  C   UNL A   1      35.349  32.302  32.147  1.00  0.00     0.041 A 
ATOM     80  F   UNL A   1      37.416  31.339  32.692  1.00  0.00    -0.206 F 
ATOM     81  C   UNL A   1      34.522  32.949  31.235  1.00  0.00     0.022 A 
BRANCH  78  82
ATOM     82  S   UNL A   1      33.986  34.140  28.771  1.00  0.00     0.124 S 
ATOM     83  O   UNL A   1      32.885  34.584  29.617  1.00  0.00    -0.237 OA
ATOM     84  O   UNL A   1      34.918  35.174  28.332  1.00  0.00    -0.237 OA
ATOM     85  O   UNL A   1      33.634  33.151  27.754  1.00  0.00    -0.744 OA
ENDBRANCH  78  82
ENDBRANCH  51  75
BRANCH  63  86
ATOM     86  C   UNL A   1      43.305  35.337  31.185  1.00  0.00     0.023 A 
ATOM     87  C   UNL A   1      43.487  36.418  30.307  1.00  0.00     0.031 A 
ATOM     88  C   UNL A   1      43.472  35.565  32.564  1.00  0.00     0.131 A 
ATOM     89  C   UNL A   1      43.863  37.671  30.814  1.00  0.00     0.055 A 
ATOM     90  C   UNL A   1      43.795  36.825  33.067  1.00  0.00     0.041 A 
ATOM     91  F   UNL A   1      43.310  34.565  33.446  1.00  0.00    -0.206 F 
ATOM     92  C   UNL A   1      44.001  37.885  32.189  1.00  0.00     0.022 A 
BRANCH  89  93
ATOM     93  S   UNL A   1      44.230  39.011  29.649  1.00  0.00     0.124 S 
ATOM     94  O   UNL A   1      45.278  39.746  30.351  1.00  0.00    -0.237 OA
ATOM     95  O   UNL A   1      44.653  38.283  28.457  1.00  0.00    -0.237 OA
ATOM     96  O   UNL A   1      42.957  39.717  29.523  1.00  0.00    -0.744 OA
ENDBRANCH  89  93
ENDBRANCH  63  86
ENDBRANCH  37  38
ENDBRANCH  29  32
ENDBRANCH  27  28
ENDBRANCH  26  27
ENDBRANCH   1  26
TORSDOF 17
ENDMDL
MODEL 2
REMARK VINA RESULT:     -11.8      2.027      7.990
REMARK SMILES C[C@@H](Sc1nc(C[NH+]2CCCC2)nc2ccccc12)C(=O)NCCCNC(=O)c1ccc(-c2c3nc(c(-c4cc(S(=O)(=O)[O-])ccc4F)c4ccc([nH]4)c(-c4cc(S(=O)(=O)[O-])ccc4F)c4nc(c(-c5cc(S(=O)(=O)[O-])ccc5F)c5ccc2[nH]5)C=C4)C=C3)cc1
REMARK SMILES IDX 23 1 22 2 20 3 21 4 2 6 1 7 3 8 4 9 5 10 19 11 6 12 14 13
REMARK SMILES IDX 18 14 13 15 15 16 17 17 16 18 7 19 8 20 9 21 12 22 10 24
REMARK SMILES IDX 11 25 24 26 25 27 26 28 27 29 28 31 29 32 30 33 91 34 31 35
REMARK SMILES IDX 90 36 32 37 33 38 34 39 84 40 35 41 89 42 83 43 85 44 36 45
REMARK SMILES IDX 88 46 82 47 81 48 37 50 69 51 49 52 68 53 50 54 53 55 67 56
REMARK SMILES IDX 86 57 51 58 52 59 66 61 87 62 54 63 38 64 39 65 47 66 40 67
REMARK SMILES IDX 46 68 48 69 45 70 41 71 42 72 43 73 44 74 70 75 71 76 79 77
REMARK SMILES IDX 72 78 78 79 80 80 77 81 73 82 74 83 75 84 76 85 55 86 56 87
REMARK SMILES IDX 64 88 57 89 63 90 65 91 62 92 58 93 59 94 60 95 61 96
REMARK H PARENT 22 5 8 23 26 30 85 49 53 60
REMARK Flexibility Score: inf
ROOT
ATOM      1  C   UNL A   1      33.742  22.331  24.794  1.00  0.00     0.117 C 
ENDROOT
BRANCH   1   2
ATOM      2  N   UNL A   1      32.976  22.670  25.985  1.00  0.00    -0.355 N 
ATOM      3  C   UNL A   1      31.976  23.585  26.155  1.00  0.00     0.233 C 
ATOM      4  O   UNL A   1      31.445  23.657  27.267  1.00  0.00    -0.274 OA
ATOM      5  H   UNL A   1      33.217  22.159  26.792  1.00  0.00     0.163 HD
BRANCH   3   6
ATOM      6  C   UNL A   1      31.537  24.503  25.009  1.00  0.00     0.139 C 
ATOM      7  C   UNL A   1      31.364  23.688  23.729  1.00  0.00     0.030 C 
BRANCH   6   8
ATOM      8  S   UNL A   1      30.110  25.498  25.649  1.00  0.00    -0.093 SA
BRANCH   8   9
ATOM      9  C   UNL A   1      30.415  27.159  25.086  1.00  0.00     0.109 A 
ATOM     10  N   UNL A   1      29.821  27.508  23.940  1.00  0.00    -0.220 NA
ATOM     11  C   UNL A   1      31.291  28.003  25.787  1.00  0.00     0.033 A 
ATOM     12  C   UNL A   1      30.126  28.707  23.428  1.00  0.00     0.185 A 
ATOM     13  C   UNL A   1      31.515  29.240  25.177  1.00  0.00     0.075 A 
ATOM     14  C   UNL A   1      31.948  27.698  27.012  1.00  0.00     0.013 A 
ATOM     15  N   UNL A   1      30.954  29.590  24.014  1.00  0.00    -0.227 NA
ATOM     16  C   UNL A   1      32.376  30.138  25.798  1.00  0.00     0.029 A 
ATOM     17  C   UNL A   1      32.810  28.612  27.610  1.00  0.00     0.001 A 
ATOM     18  C   UNL A   1      33.024  29.838  27.000  1.00  0.00     0.002 A 
BRANCH  12  19
ATOM     19  C   UNL A   1      29.547  29.051  22.063  1.00  0.00     0.340 C 
BRANCH  19  20
ATOM     20  N   UNL A   1      28.213  29.694  22.016  1.00  0.00    -0.329 N 
ATOM     21  C   UNL A   1      28.132  30.861  21.136  1.00  0.00     0.262 C 
ATOM     22  C   UNL A   1      27.710  30.098  23.330  1.00  0.00     0.262 C 
ATOM     23  H   UNL A   1      27.629  28.950  21.635  1.00  0.00     0.348 HD
ATOM     24  C   UNL A   1      28.178  32.091  22.023  1.00  0.00     0.067 C 
ATOM     25  C   UNL A   1      27.684  31.620  23.375  1.00  0.00     0.067 C 
ENDBRANCH  19  20
ENDBRANCH  12  19
ENDBRANCH   8   9
ENDBRANCH   6   8
ENDBRANCH   3   6
ENDBRANCH   1   2
BRANCH   1  26
ATOM     26  C   UNL A   1      35.136  22.931  24.822  1.00  0.00     0.042 C 
BRANCH  26  27
ATOM     27  C   UNL A   1      35.925  22.520  26.055  1.00  0.00     0.118 C 
BRANCH  27  28
ATOM     28  N   UNL A   1      36.864  21.441  25.771  1.00  0.00    -0.352 N 
ATOM     29  C   UNL A   1      38.237  21.444  25.811  1.00  0.00     0.251 C 
ATOM     30  H   UNL A   1      36.454  20.583  25.513  1.00  0.00     0.163 HD
ATOM     31  O   UNL A   1      38.866  20.511  25.321  1.00  0.00    -0.269 OA
BRANCH  29  32
ATOM     32  C   UNL A   1      38.941  22.588  26.425  1.00  0.00     0.039 A 
ATOM     33  C   UNL A   1      40.022  22.353  27.278  1.00  0.00     0.014 A 
ATOM     34  C   UNL A   1      38.549  23.895  26.127  1.00  0.00     0.014 A 
ATOM     35  C   UNL A   1      40.764  23.433  27.763  1.00  0.00     0.010 A 
ATOM     36  C   UNL A   1      39.343  24.959  26.533  1.00  0.00     0.010 A 
ATOM     37  C   UNL A   1      40.459  24.741  27.355  1.00  0.00    -0.014 A 
BRANCH  37  38
ATOM     38  C   UNL A   1      41.271  25.912  27.773  1.00  0.00     0.031 A 
ATOM     39  C   UNL A   1      40.610  27.042  28.514  1.00  0.00     0.074 A 
ATOM     40  C   UNL A   1      42.561  26.008  27.392  1.00  0.00     0.049 A 
ATOM     41  N   UNL A   1      41.075  28.229  28.804  1.00  0.00    -0.248 NA
ATOM     42  C   UNL A   1      39.223  26.813  28.949  1.00  0.00     0.031 C 
ATOM     43  C   UNL A   1      43.303  24.991  26.644  1.00  0.00     0.029 A 
ATOM     44  N   UNL A   1      43.471  27.022  27.561  1.00  0.00    -0.354 N 
ATOM     45  C   UNL A   1      40.029  28.901  29.428  1.00  0.00     0.074 A 
ATOM     46  C   UNL A   1      38.891  28.006  29.420  1.00  0.00     0.031 C 
ATOM     47  C   UNL A   1      44.555  25.426  26.431  1.00  0.00     0.029 A 
ATOM     48  C   UNL A   1      44.691  26.774  26.974  1.00  0.00     0.049 A 
ATOM     49  H   UNL A   1      43.270  27.848  28.057  1.00  0.00     0.167 HD
ATOM     50  C   UNL A   1      40.025  30.142  29.973  1.00  0.00     0.034 A 
ATOM     51  C   UNL A   1      45.784  27.554  26.863  1.00  0.00     0.034 A 
ATOM     52  C   UNL A   1      41.178  31.009  29.991  1.00  0.00     0.049 A 
ATOM     53  C   UNL A   1      45.754  28.939  27.461  1.00  0.00     0.074 A 
ATOM     54  C   UNL A   1      41.305  32.263  30.560  1.00  0.00     0.029 A 
ATOM     55  N   UNL A   1      42.404  30.709  29.409  1.00  0.00    -0.354 N 
ATOM     56  N   UNL A   1      44.766  29.551  28.073  1.00  0.00    -0.248 NA
ATOM     57  C   UNL A   1      46.984  29.734  27.359  1.00  0.00     0.031 C 
ATOM     58  C   UNL A   1      42.585  32.747  30.271  1.00  0.00     0.029 A 
ATOM     59  C   UNL A   1      43.284  31.766  29.588  1.00  0.00     0.049 A 
ATOM     60  H   UNL A   1      42.617  29.871  28.939  1.00  0.00     0.167 HD
ATOM     61  C   UNL A   1      45.272  30.787  28.466  1.00  0.00     0.074 A 
ATOM     62  C   UNL A   1      46.649  30.833  28.020  1.00  0.00     0.031 C 
ATOM     63  C   UNL A   1      44.657  31.790  29.143  1.00  0.00     0.034 A 
BRANCH  50  64
ATOM     64  C   UNL A   1      38.727  30.636  30.567  1.00  0.00     0.023 A 
ATOM     65  C   UNL A   1      37.774  31.319  29.792  1.00  0.00     0.031 A 
ATOM     66  C   UNL A   1      38.454  30.454  31.934  1.00  0.00     0.131 A 
ATOM     67  C   UNL A   1      36.635  31.866  30.402  1.00  0.00     0.055 A 
ATOM     68  C   UNL A   1      37.276  30.925  32.518  1.00  0.00     0.041 A 
ATOM     69  F   UNL A   1      39.336  29.829  32.730  1.00  0.00    -0.206 F 
ATOM     70  C   UNL A   1      36.367  31.650  31.755  1.00  0.00     0.022 A 
BRANCH  67  71
ATOM     71  S   UNL A   1      35.592  32.990  29.434  1.00  0.00     0.124 S 
ATOM     72  O   UNL A   1      35.703  34.228  30.202  1.00  0.00    -0.237 OA
ATOM     73  O   UNL A   1      36.247  32.985  28.131  1.00  0.00    -0.237 OA
ATOM     74  O   UNL A   1      34.276  32.357  29.474  1.00  0.00    -0.744 OA
ENDBRANCH  67  71
ENDBRANCH  50  64
BRANCH  51  75
ATOM     75  C   UNL A   1      46.995  27.060  26.148  1.00  0.00     0.023 A 
ATOM     76  C   UNL A   1      48.023  26.402  26.842  1.00  0.00     0.031 A 
ATOM     77  C   UNL A   1      47.159  27.268  24.767  1.00  0.00     0.131 A 
ATOM     78  C   UNL A   1      49.189  26.017  26.164  1.00  0.00     0.055 A 
ATOM     79  C   UNL A   1      48.299  26.834  24.086  1.00  0.00     0.041 A 
ATOM     80  F   UNL A   1      46.204  27.884  24.054  1.00  0.00    -0.206 F 
ATOM     81  C   UNL A   1      49.329  26.216  24.789  1.00  0.00     0.022 A 
BRANCH  78  82
ATOM     82  S   UNL A   1      50.561  25.321  27.125  1.00  0.00     0.124 S 
ATOM     83  O   UNL A   1      51.468  24.880  26.071  1.00  0.00    -0.237 OA
ATOM     84  O   UNL A   1      50.997  26.472  27.909  1.00  0.00    -0.237 OA
ATOM     85  O   UNL A   1      49.928  24.250  27.894  1.00  0.00    -0.744 OA
ENDBRANCH  78  82
ENDBRANCH  51  75
BRANCH  63  86
ATOM     86  C   UNL A   1      45.492  32.990  29.507  1.00  0.00     0.023 A 
ATOM     87  C   UNL A   1      45.594  34.112  28.668  1.00  0.00     0.031 A 
ATOM     88  C   UNL A   1      46.182  33.012  30.734  1.00  0.00     0.131 A 
ATOM     89  C   UNL A   1      46.401  35.195  29.049  1.00  0.00     0.055 A 
ATOM     90  C   UNL A   1      46.940  34.113  31.130  1.00  0.00     0.041 A 
ATOM     91  F   UNL A   1      46.118  31.965  31.572  1.00  0.00    -0.206 F 
ATOM     92  C   UNL A   1      47.060  35.210  30.282  1.00  0.00     0.022 A 
BRANCH  89  93
ATOM     93  S   UNL A   1      46.629  36.567  27.885  1.00  0.00     0.124 S 
ATOM     94  O   UNL A   1      45.700  36.215  26.815  1.00  0.00    -0.237 OA
ATOM     95  O   UNL A   1      46.261  37.727  28.692  1.00  0.00    -0.237 OA
ATOM     96  O   UNL A   1      48.044  36.486  27.529  1.00  0.00    -0.744 OA
ENDBRANCH  89  93
ENDBRANCH  63  86
ENDBRANCH  37  38
ENDBRANCH  29  32
ENDBRANCH  27  28
ENDBRANCH  26  27
ENDBRANCH   1  26
TORSDOF 17
ENDMDL
MODEL 3
REMARK VINA RESULT:     -11.4      4.889      9.508
REMARK SMILES C[C@@H](Sc1nc(C[NH+]2CCCC2)nc2ccccc12)C(=O)NCCCNC(=O)c1ccc(-c2c3nc(c(-c4cc(S(=O)(=O)[O-])ccc4F)c4ccc([nH]4)c(-c4cc(S(=O)(=O)[O-])ccc4F)c4nc(c(-c5cc(S(=O)(=O)[O-])ccc5F)c5ccc2[nH]5)C=C4)C=C3)cc1
REMARK SMILES IDX 23 1 22 2 20 3 21 4 2 6 1 7 3 8 4 9 5 10 19 11 6 12 14 13
REMARK SMILES IDX 18 14 13 15 15 16 17 17 16 18 7 19 8 20 9 21 12 22 10 24
REMARK SMILES IDX 11 25 24 26 25 27 26 28 27 29 28 31 29 32 30 33 91 34 31 35
REMARK SMILES IDX 90 36 32 37 33 38 34 39 84 40 35 41 89 42 83 43 85 44 36 45
REMARK SMILES IDX 88 46 82 47 81 48 37 50 69 51 49 52 68 53 50 54 53 55 67 56
REMARK SMILES IDX 86 57 51 58 52 59 66 61 87 62 54 63 38 64 39 65 47 66 40 67
REMARK SMILES IDX 46 68 48 69 45 70 41 71 42 72 43 73 44 74 70 75 71 76 79 77
REMARK SMILES IDX 72 78 78 79 80 80 77 81 73 82 74 83 75 84 76 85 55 86 56 87
REMARK SMILES IDX 64 88 57 89 63 90 65 91 62 92 58 93 59 94 60 95 61 96
REMARK H PARENT 22 5 8 23 26 30 85 49 53 60
REMARK Flexibility Score: inf
ROOT
ATOM      1  C   UNL A   1      32.146  30.939  26.924  1.00  0.00     0.117 C 
ENDROOT
BRANCH   1   2
ATOM      2  N   UNL A   1      33.432  30.530  27.473  1.00  0.00    -0.355 N 
ATOM      3  C   UNL A   1      34.056  29.316  27.436  1.00  0.00     0.233 C 
ATOM      4  O   UNL A   1      35.179  29.231  27.943  1.00  0.00    -0.274 OA
ATOM      5  H   UNL A   1      33.927  31.240  27.943  1.00  0.00     0.163 HD
BRANCH   3   6
ATOM      6  C   UNL A   1      33.382  28.095  26.799  1.00  0.00     0.139 C 
ATOM      7  C   UNL A   1      31.944  27.977  27.301  1.00  0.00     0.030 C 
BRANCH   6   8
ATOM      8  S   UNL A   1      33.699  28.210  24.977  1.00  0.00    -0.093 SA
BRANCH   8   9
ATOM      9  C   UNL A   1      32.250  27.515  24.211  1.00  0.00     0.109 A 
ATOM     10  N   UNL A   1      31.344  28.392  23.765  1.00  0.00    -0.220 NA
ATOM     11  C   UNL A   1      32.064  26.125  24.160  1.00  0.00     0.033 A 
ATOM     12  C   UNL A   1      30.192  27.902  23.293  1.00  0.00     0.185 A 
ATOM     13  C   UNL A   1      30.838  25.724  23.623  1.00  0.00     0.075 A 
ATOM     14  C   UNL A   1      32.987  25.139  24.608  1.00  0.00     0.013 A 
ATOM     15  N   UNL A   1      29.909  26.591  23.204  1.00  0.00    -0.227 NA
ATOM     16  C   UNL A   1      30.565  24.363  23.542  1.00  0.00     0.029 A 
ATOM     17  C   UNL A   1      32.687  23.783  24.521  1.00  0.00     0.001 A 
ATOM     18  C   UNL A   1      31.470  23.393  23.984  1.00  0.00     0.002 A 
BRANCH  12  19
ATOM     19  C   UNL A   1      29.114  28.904  22.902  1.00  0.00     0.340 C 
BRANCH  19  20
ATOM     20  N   UNL A   1      29.519  30.314  22.697  1.00  0.00    -0.329 N 
ATOM     21  C   UNL A   1      29.096  31.228  23.760  1.00  0.00     0.262 C 
ATOM     22  C   UNL A   1      29.062  30.877  21.425  1.00  0.00     0.262 C 
ATOM     23  H   UNL A   1      30.537  30.249  22.701  1.00  0.00     0.348 HD
ATOM     24  C   UNL A   1      27.889  31.987  23.240  1.00  0.00     0.067 C 
ATOM     25  C   UNL A   1      28.014  31.939  21.731  1.00  0.00     0.067 C 
ENDBRANCH  19  20
ENDBRANCH  12  19
ENDBRANCH   8   9
ENDBRANCH   6   8
ENDBRANCH   3   6
ENDBRANCH   1   2
BRANCH   1  26
ATOM     26  C   UNL A   1      31.969  32.447  26.950  1.00  0.00     0.042 C 
BRANCH  26  27
ATOM     27  C   UNL A   1      33.173  33.168  27.531  1.00  0.00     0.118 C 
BRANCH  27  28
ATOM     28  N   UNL A   1      32.813  34.455  28.115  1.00  0.00    -0.352 N 
ATOM     29  C   UNL A   1      33.193  35.007  29.314  1.00  0.00     0.251 C 
ATOM     30  H   UNL A   1      32.210  35.010  27.570  1.00  0.00     0.163 HD
ATOM     31  O   UNL A   1      32.611  36.000  29.742  1.00  0.00    -0.269 OA
BRANCH  29  32
ATOM     32  C   UNL A   1      34.285  34.381  30.087  1.00  0.00     0.039 A 
ATOM     33  C   UNL A   1      33.974  33.539  31.157  1.00  0.00     0.014 A 
ATOM     34  C   UNL A   1      35.616  34.606  29.729  1.00  0.00     0.014 A 
ATOM     35  C   UNL A   1      35.000  32.852  31.813  1.00  0.00     0.010 A 
ATOM     36  C   UNL A   1      36.622  33.852  30.318  1.00  0.00     0.010 A 
ATOM     37  C   UNL A   1      36.326  32.967  31.366  1.00  0.00    -0.014 A 
BRANCH  37  38
ATOM     38  C   UNL A   1      37.437  32.190  31.973  1.00  0.00     0.031 A 
ATOM     39  C   UNL A   1      37.937  32.564  33.342  1.00  0.00     0.074 A 
ATOM     40  C   UNL A   1      38.062  31.235  31.257  1.00  0.00     0.049 A 
ATOM     41  N   UNL A   1      39.004  32.156  33.976  1.00  0.00    -0.248 NA
ATOM     42  C   UNL A   1      37.146  33.567  34.073  1.00  0.00     0.031 C 
ATOM     43  C   UNL A   1      37.688  30.805  29.908  1.00  0.00     0.029 A 
ATOM     44  N   UNL A   1      39.161  30.468  31.554  1.00  0.00    -0.354 N 
ATOM     45  C   UNL A   1      39.031  32.872  35.169  1.00  0.00     0.074 A 
ATOM     46  C   UNL A   1      37.903  33.780  35.138  1.00  0.00     0.031 C 
ATOM     47  C   UNL A   1      38.534  29.845  29.501  1.00  0.00     0.029 A 
ATOM     48  C   UNL A   1      39.544  29.629  30.532  1.00  0.00     0.049 A 
ATOM     49  H   UNL A   1      39.631  30.513  32.418  1.00  0.00     0.167 HD
ATOM     50  C   UNL A   1      39.904  32.767  36.200  1.00  0.00     0.034 A 
ATOM     51  C   UNL A   1      40.602  28.801  30.428  1.00  0.00     0.034 A 
ATOM     52  C   UNL A   1      41.007  31.838  36.220  1.00  0.00     0.049 A 
ATOM     53  C   UNL A   1      41.572  28.712  31.580  1.00  0.00     0.074 A 
ATOM     54  C   UNL A   1      41.922  31.607  37.231  1.00  0.00     0.029 A 
ATOM     55  N   UNL A   1      41.344  30.985  35.175  1.00  0.00    -0.354 N 
ATOM     56  N   UNL A   1      41.569  29.375  32.713  1.00  0.00    -0.248 NA
ATOM     57  C   UNL A   1      42.682  27.761  31.441  1.00  0.00     0.031 C 
ATOM     58  C   UNL A   1      42.848  30.662  36.777  1.00  0.00     0.029 A 
ATOM     59  C   UNL A   1      42.467  30.245  35.512  1.00  0.00     0.049 A 
ATOM     60  H   UNL A   1      40.858  30.916  34.323  1.00  0.00     0.167 HD
ATOM     61  C   UNL A   1      42.652  28.888  33.439  1.00  0.00     0.074 A 
ATOM     62  C   UNL A   1      43.285  27.879  32.616  1.00  0.00     0.031 C 
ATOM     63  C   UNL A   1      43.080  29.237  34.680  1.00  0.00     0.034 A 
BRANCH  50  64
ATOM     64  C   UNL A   1      39.710  33.699  37.373  1.00  0.00     0.023 A 
ATOM     65  C   UNL A   1      40.489  34.858  37.531  1.00  0.00     0.031 A 
ATOM     66  C   UNL A   1      38.757  33.407  38.364  1.00  0.00     0.131 A 
ATOM     67  C   UNL A   1      40.362  35.636  38.691  1.00  0.00     0.055 A 
ATOM     68  C   UNL A   1      38.574  34.235  39.475  1.00  0.00     0.041 A 
ATOM     69  F   UNL A   1      37.998  32.304  38.281  1.00  0.00    -0.206 F 
ATOM     70  C   UNL A   1      39.391  35.347  39.651  1.00  0.00     0.022 A 
BRANCH  67  71
ATOM     71  S   UNL A   1      41.586  36.939  38.995  1.00  0.00     0.124 S 
ATOM     72  O   UNL A   1      40.731  38.064  39.366  1.00  0.00    -0.237 OA
ATOM     73  O   UNL A   1      42.393  36.370  40.068  1.00  0.00    -0.237 OA
ATOM     74  O   UNL A   1      42.265  37.080  37.709  1.00  0.00    -0.744 OA
ENDBRANCH  67  71
ENDBRANCH  50  64
BRANCH  51  75
ATOM     75  C   UNL A   1      40.815  28.001  29.189  1.00  0.00     0.023 A 
ATOM     76  C   UNL A   1      41.793  28.370  28.252  1.00  0.00     0.031 A 
ATOM     77  C   UNL A   1      40.020  26.875  28.904  1.00  0.00     0.131 A 
ATOM     78  C   UNL A   1      41.922  27.650  27.055  1.00  0.00     0.055 A 
ATOM     79  C   UNL A   1      40.189  26.130  27.735  1.00  0.00     0.041 A 
ATOM     80  F   UNL A   1      39.076  26.474  29.768  1.00  0.00    -0.206 F 
ATOM     81  C   UNL A   1      41.136  26.525  26.795  1.00  0.00     0.022 A 
BRANCH  78  82
ATOM     82  S   UNL A   1      43.083  28.256  25.800  1.00  0.00     0.124 S 
ATOM     83  O   UNL A   1      42.366  27.960  24.565  1.00  0.00    -0.237 OA
ATOM     84  O   UNL A   1      43.200  29.667  26.152  1.00  0.00    -0.237 OA
ATOM     85  O   UNL A   1      44.284  27.456  26.033  1.00  0.00    -0.744 OA
ENDBRANCH  78  82
ENDBRANCH  51  75
BRANCH  63  86
ATOM     86  C   UNL A   1      44.243  28.468  35.250  1.00  0.00     0.023 A 
ATOM     87  C   UNL A   1      44.071  27.259  35.944  1.00  0.00     0.031 A 
ATOM     88  C   UNL A   1      45.553  28.951  35.071  1.00  0.00     0.131 A 
ATOM     89  C   UNL A   1      45.188  26.593  36.470  1.00  0.00     0.055 A 
ATOM     90  C   UNL A   1      46.663  28.258  35.550  1.00  0.00     0.041 A 
ATOM     91  F   UNL A   1      45.772  30.101  34.414  1.00  0.00    -0.206 F 
ATOM     92  C   UNL A   1      46.485  27.076  36.263  1.00  0.00     0.022 A 
BRANCH  89  93
ATOM     93  S   UNL A   1      44.927  25.112  37.484  1.00  0.00     0.124 S 
ATOM     94  O   UNL A   1      45.716  25.416  38.674  1.00  0.00    -0.237 OA
ATOM     95  O   UNL A   1      43.478  25.108  37.665  1.00  0.00    -0.237 OA
ATOM     96  O   UNL A   1      45.449  24.029  36.654  1.00  0.00    -0.744 OA
ENDBRANCH  89  93
ENDBRANCH  63  86
ENDBRANCH  37  38
ENDBRANCH  29  32
ENDBRANCH  27  28
ENDBRANCH  26  27
ENDBRANCH   1  26
TORSDOF 17
ENDMDL
