MODEL 1
REMARK VINA RESULT:     -12.2      0.000      0.000
REMARK SMILES O=C(NCCCNC(=O)[C@@H]1C=C[C@H](NC(=O)c2ccc(Cl)cc2[N+](=O)[O-])C1)c1ccc(-c2c3nc(c(-c4cc(S(=O)(=O)[O-])ccc4F)c4ccc([nH]4)c(-c4cc(S(=O)(=O)[O-])ccc4F)c4nc(c(-c5cc(S(=O)(=O)[O-])ccc5F)c5ccc2[nH]5)C=C4)C=C3)cc1
REMARK SMILES IDX 5 1 4 2 3 3 1 4 2 5 28 7 29 8 90 9 30 10 89 11 31 12 32 13
REMARK SMILES IDX 33 14 83 15 34 16 88 17 82 18 84 19 35 20 87 21 81 22 80 23
REMARK SMILES IDX 36 25 68 26 48 27 67 28 49 29 52 30 66 31 85 32 50 33 51 34
REMARK SMILES IDX 65 36 86 37 53 38 37 39 38 40 46 41 39 42 45 43 47 44 44 45
REMARK SMILES IDX 40 46 41 47 42 48 43 49 69 50 70 51 78 52 71 53 77 54 79 55
REMARK SMILES IDX 76 56 72 57 73 58 74 59 75 60 54 61 55 62 63 63 56 64 62 65
REMARK SMILES IDX 64 66 61 67 57 68 58 69 59 70 60 71 6 72 7 73 8 74 9 76
REMARK SMILES IDX 10 77 11 78 27 79 12 80 13 81 14 82 15 83 16 85 17 86 18 87
REMARK SMILES IDX 23 88 19 89 22 90 20 91 21 92 24 93 25 94 26 95
REMARK H PARENT 3 6 84 24 52 35 7 75 14 84
REMARK Flexibility Score: inf
ROOT
ATOM      1  C   UNL A   1      31.407  32.408  26.498  1.00  0.00     0.042 C 
ENDROOT
BRANCH   1   2
ATOM      2  C   UNL A   1      32.656  32.862  27.253  1.00  0.00     0.118 C 
BRANCH   2   3
ATOM      3  N   UNL A   1      32.541  34.230  27.736  1.00  0.00    -0.352 N 
ATOM      4  O   UNL A   1      32.818  35.961  29.142  1.00  0.00    -0.269 OA
ATOM      5  C   UNL A   1      33.195  34.854  28.773  1.00  0.00     0.251 C 
ATOM      6  H   UNL A   1      31.899  34.794  27.247  1.00  0.00     0.163 HD
BRANCH   5   7
ATOM      7  C   UNL A   1      34.334  34.191  29.450  1.00  0.00     0.039 A 
ATOM      8  C   UNL A   1      35.653  34.520  29.130  1.00  0.00     0.014 A 
ATOM      9  C   UNL A   1      34.074  33.251  30.453  1.00  0.00     0.014 A 
ATOM     10  C   UNL A   1      36.706  33.825  29.719  1.00  0.00     0.010 A 
ATOM     11  C   UNL A   1      35.135  32.615  31.105  1.00  0.00     0.010 A 
ATOM     12  C   UNL A   1      36.461  32.880  30.729  1.00  0.00    -0.014 A 
BRANCH  12  13
ATOM     13  C   UNL A   1      37.607  32.233  31.422  1.00  0.00     0.031 A 
ATOM     14  C   UNL A   1      38.370  31.108  30.778  1.00  0.00     0.074 A 
ATOM     15  C   UNL A   1      37.964  32.680  32.642  1.00  0.00     0.049 A 
ATOM     16  N   UNL A   1      39.392  30.433  31.241  1.00  0.00    -0.248 NA
ATOM     17  C   UNL A   1      37.919  30.680  29.448  1.00  0.00     0.031 C 
ATOM     18  C   UNL A   1      37.295  33.763  33.367  1.00  0.00     0.029 A 
ATOM     19  N   UNL A   1      38.978  32.297  33.482  1.00  0.00    -0.354 N 
ATOM     20  C   UNL A   1      39.703  29.492  30.265  1.00  0.00     0.074 A 
ATOM     21  C   UNL A   1      38.727  29.658  29.206  1.00  0.00     0.031 C 
ATOM     22  C   UNL A   1      37.943  33.988  34.518  1.00  0.00     0.029 A 
ATOM     23  C   UNL A   1      39.027  33.020  34.650  1.00  0.00     0.049 A 
ATOM     24  H   UNL A   1      39.611  31.574  33.268  1.00  0.00     0.167 HD
ATOM     25  C   UNL A   1      40.714  28.585  30.251  1.00  0.00     0.034 A 
ATOM     26  C   UNL A   1      39.834  32.906  35.722  1.00  0.00     0.034 A 
ATOM     27  C   UNL A   1      41.668  28.430  31.326  1.00  0.00     0.049 A 
ATOM     28  C   UNL A   1      40.903  31.847  35.714  1.00  0.00     0.074 A 
ATOM     29  C   UNL A   1      42.749  27.566  31.402  1.00  0.00     0.029 A 
ATOM     30  N   UNL A   1      41.651  29.141  32.521  1.00  0.00    -0.354 N 
ATOM     31  N   UNL A   1      41.200  30.980  34.774  1.00  0.00    -0.248 NA
ATOM     32  C   UNL A   1      41.746  31.753  36.911  1.00  0.00     0.031 C 
ATOM     33  C   UNL A   1      43.327  27.694  32.670  1.00  0.00     0.029 A 
ATOM     34  C   UNL A   1      42.671  28.704  33.355  1.00  0.00     0.049 A 
ATOM     35  H   UNL A   1      41.006  29.851  32.744  1.00  0.00     0.167 HD
ATOM     36  C   UNL A   1      42.284  30.254  35.257  1.00  0.00     0.074 A 
ATOM     37  C   UNL A   1      42.596  30.798  36.563  1.00  0.00     0.031 C 
ATOM     38  C   UNL A   1      42.963  29.235  34.669  1.00  0.00     0.034 A 
BRANCH  25  39
ATOM     39  C   UNL A   1      40.801  27.660  29.056  1.00  0.00     0.023 A 
ATOM     40  C   UNL A   1      41.757  27.844  28.042  1.00  0.00     0.031 A 
ATOM     41  C   UNL A   1      39.890  26.597  28.911  1.00  0.00     0.131 A 
ATOM     42  C   UNL A   1      41.724  27.041  26.890  1.00  0.00     0.055 A 
ATOM     43  C   UNL A   1      39.919  25.744  27.806  1.00  0.00     0.041 A 
ATOM     44  F   UNL A   1      38.939  26.379  29.834  1.00  0.00    -0.206 F 
ATOM     45  C   UNL A   1      40.828  25.975  26.777  1.00  0.00     0.022 A 
BRANCH  42  46
ATOM     46  S   UNL A   1      42.749  27.519  25.471  1.00  0.00     0.124 S 
ATOM     47  O   UNL A   1      42.802  26.273  24.709  1.00  0.00    -0.237 OA
ATOM     48  O   UNL A   1      41.978  28.601  24.872  1.00  0.00    -0.237 OA
ATOM     49  O   UNL A   1      44.017  27.917  26.081  1.00  0.00    -0.744 OA
ENDBRANCH  42  46
ENDBRANCH  25  39
BRANCH  26  50
ATOM     50  C   UNL A   1      39.643  33.800  36.900  1.00  0.00     0.023 A 
ATOM     51  C   UNL A   1      39.029  33.334  38.072  1.00  0.00     0.031 A 
ATOM     52  C   UNL A   1      40.062  35.143  36.862  1.00  0.00     0.131 A 
ATOM     53  C   UNL A   1      38.818  34.213  39.146  1.00  0.00     0.055 A 
ATOM     54  C   UNL A   1      39.903  35.996  37.954  1.00  0.00     0.041 A 
ATOM     55  F   UNL A   1      40.655  35.640  35.765  1.00  0.00    -0.206 F 
ATOM     56  C   UNL A   1      39.267  35.535  39.101  1.00  0.00     0.022 A 
BRANCH  53  57
ATOM     57  S   UNL A   1      37.877  33.622  40.579  1.00  0.00     0.124 S 
ATOM     58  O   UNL A   1      37.663  34.858  41.323  1.00  0.00    -0.237 OA
ATOM     59  O   UNL A   1      36.697  33.040  39.949  1.00  0.00    -0.237 OA
ATOM     60  O   UNL A   1      38.782  32.663  41.208  1.00  0.00    -0.744 OA
ENDBRANCH  53  57
ENDBRANCH  26  50
BRANCH  38  61
ATOM     61  C   UNL A   1      44.141  28.671  35.428  1.00  0.00     0.023 A 
ATOM     62  C   UNL A   1      43.998  27.625  36.356  1.00  0.00     0.031 A 
ATOM     63  C   UNL A   1      45.428  29.209  35.236  1.00  0.00     0.131 A 
ATOM     64  C   UNL A   1      45.106  27.190  37.100  1.00  0.00     0.055 A 
ATOM     65  C   UNL A   1      46.538  28.726  35.928  1.00  0.00     0.041 A 
ATOM     66  F   UNL A   1      45.625  30.215  34.367  1.00  0.00    -0.206 F 
ATOM     67  C   UNL A   1      46.379  27.721  36.876  1.00  0.00     0.022 A 
BRANCH  64  68
ATOM     68  S   UNL A   1      44.845  25.994  38.437  1.00  0.00     0.124 S 
ATOM     69  O   UNL A   1      44.110  26.788  39.416  1.00  0.00    -0.237 OA
ATOM     70  O   UNL A   1      44.086  24.940  37.772  1.00  0.00    -0.237 OA
ATOM     71  O   UNL A   1      46.202  25.622  38.835  1.00  0.00    -0.744 OA
ENDBRANCH  64  68
ENDBRANCH  38  61
ENDBRANCH  12  13
ENDBRANCH   5   7
ENDBRANCH   2   3
ENDBRANCH   1   2
BRANCH   1  72
ATOM     72  C   UNL A   1      31.208  30.897  26.483  1.00  0.00     0.117 C 
BRANCH  72  73
ATOM     73  N   UNL A   1      31.853  30.302  25.329  1.00  0.00    -0.356 N 
ATOM     74  C   UNL A   1      32.089  29.014  24.968  1.00  0.00     0.227 C 
ATOM     75  H   UNL A   1      32.185  30.961  24.677  1.00  0.00     0.163 HD
ATOM     76  O   UNL A   1      32.714  28.855  23.915  1.00  0.00    -0.274 OA
BRANCH  74  77
ATOM     77  C   UNL A   1      31.445  27.824  25.694  1.00  0.00     0.103 C 
ATOM     78  C   UNL A   1      32.281  26.886  26.508  1.00  0.00    -0.016 C 
ATOM     79  C   UNL A   1      30.783  26.843  24.691  1.00  0.00     0.047 C 
ATOM     80  C   UNL A   1      32.339  25.664  25.971  1.00  0.00    -0.006 C 
ATOM     81  C   UNL A   1      31.657  25.577  24.661  1.00  0.00     0.106 C 
BRANCH  81  82
ATOM     82  N   UNL A   1      32.532  25.509  23.492  1.00  0.00    -0.346 N 
ATOM     83  C   UNL A   1      33.196  24.538  22.788  1.00  0.00     0.258 C 
ATOM     84  H   UNL A   1      32.686  26.402  23.106  1.00  0.00     0.164 HD
ATOM     85  O   UNL A   1      33.743  24.814  21.723  1.00  0.00    -0.269 OA
BRANCH  83  86
ATOM     86  C   UNL A   1      33.298  23.154  23.262  1.00  0.00     0.117 A 
ATOM     87  C   UNL A   1      32.299  22.242  22.895  1.00  0.00     0.022 A 
ATOM     88  C   UNL A   1      34.386  22.702  24.017  1.00  0.00     0.283 A 
ATOM     89  C   UNL A   1      32.293  20.955  23.441  1.00  0.00     0.022 A 
ATOM     90  C   UNL A   1      34.410  21.392  24.523  1.00  0.00     0.107 A 
ATOM     91  C   UNL A   1      33.331  20.550  24.278  1.00  0.00     0.047 A 
ATOM     92  Cl  UNL A   1      33.244  19.030  25.074  1.00  0.00    -0.084 Cl
BRANCH  88  93
ATOM     93  N   UNL A   1      35.487  23.586  24.387  1.00  0.00     0.063 N 
ATOM     94  O   UNL A   1      36.517  23.521  23.701  1.00  0.00    -0.258 OA
ATOM     95  O   UNL A   1      35.379  24.242  25.429  1.00  0.00    -0.258 OA
ENDBRANCH  88  93
ENDBRANCH  83  86
ENDBRANCH  81  82
ENDBRANCH  74  77
ENDBRANCH  72  73
ENDBRANCH   1  72
TORSDOF 16
ENDMDL
MODEL 2
REMARK VINA RESULT:     -12.2      1.367      1.906
REMARK SMILES O=C(NCCCNC(=O)[C@@H]1C=C[C@H](NC(=O)c2ccc(Cl)cc2[N+](=O)[O-])C1)c1ccc(-c2c3nc(c(-c4cc(S(=O)(=O)[O-])ccc4F)c4ccc([nH]4)c(-c4cc(S(=O)(=O)[O-])ccc4F)c4nc(c(-c5cc(S(=O)(=O)[O-])ccc5F)c5ccc2[nH]5)C=C4)C=C3)cc1
REMARK SMILES IDX 5 1 4 2 3 3 1 4 2 5 28 7 29 8 90 9 30 10 89 11 31 12 32 13
REMARK SMILES IDX 33 14 83 15 34 16 88 17 82 18 84 19 35 20 87 21 81 22 80 23
REMARK SMILES IDX 36 25 68 26 48 27 67 28 49 29 52 30 66 31 85 32 50 33 51 34
REMARK SMILES IDX 65 36 86 37 53 38 37 39 38 40 46 41 39 42 45 43 47 44 44 45
REMARK SMILES IDX 40 46 41 47 42 48 43 49 69 50 70 51 78 52 71 53 77 54 79 55
REMARK SMILES IDX 76 56 72 57 73 58 74 59 75 60 54 61 55 62 63 63 56 64 62 65
REMARK SMILES IDX 64 66 61 67 57 68 58 69 59 70 60 71 6 72 7 73 8 74 9 76
REMARK SMILES IDX 10 77 11 78 27 79 12 80 13 81 14 82 15 83 16 85 17 86 18 87
REMARK SMILES IDX 23 88 19 89 22 90 20 91 21 92 24 93 25 94 26 95
REMARK H PARENT 3 6 84 24 52 35 7 75 14 84
REMARK Flexibility Score: inf
ROOT
ATOM      1  C   UNL A   1      31.361  31.896  26.721  1.00  0.00     0.042 C 
ENDROOT
BRANCH   1   2
ATOM      2  C   UNL A   1      32.691  32.443  27.237  1.00  0.00     0.118 C 
BRANCH   2   3
ATOM      3  N   UNL A   1      32.595  33.840  27.635  1.00  0.00    -0.352 N 
ATOM      4  O   UNL A   1      32.900  35.650  28.930  1.00  0.00    -0.269 OA
ATOM      5  C   UNL A   1      33.262  34.519  28.628  1.00  0.00     0.251 C 
ATOM      6  H   UNL A   1      31.955  34.380  27.117  1.00  0.00     0.163 HD
BRANCH   5   7
ATOM      7  C   UNL A   1      34.399  33.886  29.337  1.00  0.00     0.039 A 
ATOM      8  C   UNL A   1      34.188  32.879  30.283  1.00  0.00     0.014 A 
ATOM      9  C   UNL A   1      35.702  34.281  29.017  1.00  0.00     0.014 A 
ATOM     10  C   UNL A   1      35.266  32.359  30.995  1.00  0.00     0.010 A 
ATOM     11  C   UNL A   1      36.789  33.695  29.674  1.00  0.00     0.010 A 
ATOM     12  C   UNL A   1      36.580  32.744  30.684  1.00  0.00    -0.014 A 
BRANCH  12  13
ATOM     13  C   UNL A   1      37.720  32.091  31.382  1.00  0.00     0.031 A 
ATOM     14  C   UNL A   1      38.495  30.978  30.733  1.00  0.00     0.074 A 
ATOM     15  C   UNL A   1      38.060  32.522  32.613  1.00  0.00     0.049 A 
ATOM     16  N   UNL A   1      39.514  30.300  31.198  1.00  0.00    -0.248 NA
ATOM     17  C   UNL A   1      38.063  30.567  29.390  1.00  0.00     0.031 C 
ATOM     18  C   UNL A   1      37.378  33.592  33.345  1.00  0.00     0.029 A 
ATOM     19  N   UNL A   1      39.065  32.131  33.460  1.00  0.00    -0.354 N 
ATOM     20  C   UNL A   1      39.840  29.374  30.213  1.00  0.00     0.074 A 
ATOM     21  C   UNL A   1      38.877  29.551  29.145  1.00  0.00     0.031 C 
ATOM     22  C   UNL A   1      38.011  33.803  34.507  1.00  0.00     0.029 A 
ATOM     23  C   UNL A   1      39.096  32.837  34.639  1.00  0.00     0.049 A 
ATOM     24  H   UNL A   1      39.703  31.412  33.244  1.00  0.00     0.167 HD
ATOM     25  C   UNL A   1      40.854  28.471  30.199  1.00  0.00     0.034 A 
ATOM     26  C   UNL A   1      39.891  32.711  35.719  1.00  0.00     0.034 A 
ATOM     27  C   UNL A   1      41.796  28.304  31.283  1.00  0.00     0.049 A 
ATOM     28  C   UNL A   1      40.963  31.655  35.709  1.00  0.00     0.074 A 
ATOM     29  C   UNL A   1      42.879  27.443  31.361  1.00  0.00     0.029 A 
ATOM     30  N   UNL A   1      41.761  28.997  32.489  1.00  0.00    -0.354 N 
ATOM     31  N   UNL A   1      41.275  30.803  34.761  1.00  0.00    -0.248 NA
ATOM     32  C   UNL A   1      41.792  31.548  36.915  1.00  0.00     0.031 C 
ATOM     33  C   UNL A   1      43.441  27.555  32.638  1.00  0.00     0.029 A 
ATOM     34  C   UNL A   1      42.772  28.552  33.329  1.00  0.00     0.049 A 
ATOM     35  H   UNL A   1      41.111  29.702  32.713  1.00  0.00     0.167 HD
ATOM     36  C   UNL A   1      42.356  30.074  35.247  1.00  0.00     0.074 A 
ATOM     37  C   UNL A   1      42.650  30.601  36.565  1.00  0.00     0.031 C 
ATOM     38  C   UNL A   1      43.046  29.066  34.653  1.00  0.00     0.034 A 
BRANCH  25  39
ATOM     39  C   UNL A   1      40.960  27.563  28.993  1.00  0.00     0.023 A 
ATOM     40  C   UNL A   1      41.956  27.737  28.016  1.00  0.00     0.031 A 
ATOM     41  C   UNL A   1      40.027  26.528  28.797  1.00  0.00     0.131 A 
ATOM     42  C   UNL A   1      41.943  26.955  26.850  1.00  0.00     0.055 A 
ATOM     43  C   UNL A   1      40.074  25.692  27.679  1.00  0.00     0.041 A 
ATOM     44  F   UNL A   1      39.038  26.321  29.682  1.00  0.00    -0.206 F 
ATOM     45  C   UNL A   1      41.025  25.915  26.687  1.00  0.00     0.022 A 
BRANCH  42  46
ATOM     46  S   UNL A   1      43.031  27.427  25.477  1.00  0.00     0.124 S 
ATOM     47  O   UNL A   1      42.171  28.326  24.711  1.00  0.00    -0.237 OA
ATOM     48  O   UNL A   1      44.156  28.051  26.163  1.00  0.00    -0.237 OA
ATOM     49  O   UNL A   1      43.327  26.156  24.819  1.00  0.00    -0.744 OA
ENDBRANCH  42  46
ENDBRANCH  25  39
BRANCH  26  50
ATOM     50  C   UNL A   1      39.682  33.587  36.907  1.00  0.00     0.023 A 
ATOM     51  C   UNL A   1      39.100  33.088  38.083  1.00  0.00     0.031 A 
ATOM     52  C   UNL A   1      40.050  34.945  36.875  1.00  0.00     0.131 A 
ATOM     53  C   UNL A   1      38.871  33.950  39.167  1.00  0.00     0.055 A 
ATOM     54  C   UNL A   1      39.873  35.782  37.977  1.00  0.00     0.041 A 
ATOM     55  F   UNL A   1      40.610  35.472  35.776  1.00  0.00    -0.206 F 
ATOM     56  C   UNL A   1      39.269  35.289  39.128  1.00  0.00     0.022 A 
BRANCH  53  57
ATOM     57  S   UNL A   1      37.970  33.313  40.606  1.00  0.00     0.124 S 
ATOM     58  O   UNL A   1      38.097  34.419  41.548  1.00  0.00    -0.237 OA
ATOM     59  O   UNL A   1      36.638  33.088  40.056  1.00  0.00    -0.237 OA
ATOM     60  O   UNL A   1      38.709  32.103  40.960  1.00  0.00    -0.744 OA
ENDBRANCH  53  57
ENDBRANCH  26  50
BRANCH  38  61
ATOM     61  C   UNL A   1      44.217  28.496  35.420  1.00  0.00     0.023 A 
ATOM     62  C   UNL A   1      44.056  27.479  36.376  1.00  0.00     0.031 A 
ATOM     63  C   UNL A   1      45.514  28.998  35.203  1.00  0.00     0.131 A 
ATOM     64  C   UNL A   1      45.160  27.038  37.124  1.00  0.00     0.055 A 
ATOM     65  C   UNL A   1      46.618  28.508  35.901  1.00  0.00     0.041 A 
ATOM     66  F   UNL A   1      45.728  29.975  34.307  1.00  0.00    -0.206 F 
ATOM     67  C   UNL A   1      46.443  27.533  36.877  1.00  0.00     0.022 A 
BRANCH  64  68
ATOM     68  S   UNL A   1      44.882  25.884  38.495  1.00  0.00     0.124 S 
ATOM     69  O   UNL A   1      46.199  25.834  39.122  1.00  0.00    -0.237 OA
ATOM     70  O   UNL A   1      43.837  26.554  39.261  1.00  0.00    -0.237 OA
ATOM     71  O   UNL A   1      44.467  24.652  37.827  1.00  0.00    -0.744 OA
ENDBRANCH  64  68
ENDBRANCH  38  61
ENDBRANCH  12  13
ENDBRANCH   5   7
ENDBRANCH   2   3
ENDBRANCH   1   2
BRANCH   1  72
ATOM     72  C   UNL A   1      31.502  30.671  25.825  1.00  0.00     0.117 C 
BRANCH  72  73
ATOM     73  N   UNL A   1      31.831  29.494  26.604  1.00  0.00    -0.356 N 
ATOM     74  C   UNL A   1      31.856  28.168  26.306  1.00  0.00     0.227 C 
ATOM     75  H   UNL A   1      32.087  29.694  27.534  1.00  0.00     0.163 HD
ATOM     76  O   UNL A   1      32.148  27.412  27.237  1.00  0.00    -0.274 OA
BRANCH  74  77
ATOM     77  C   UNL A   1      31.743  27.646  24.866  1.00  0.00     0.103 C 
ATOM     78  C   UNL A   1      30.412  27.263  24.298  1.00  0.00    -0.016 C 
ATOM     79  C   UNL A   1      32.540  26.328  24.681  1.00  0.00     0.047 C 
ATOM     80  C   UNL A   1      30.318  25.951  24.069  1.00  0.00    -0.006 C 
ATOM     81  C   UNL A   1      31.505  25.198  24.532  1.00  0.00     0.106 C 
BRANCH  81  82
ATOM     82  N   UNL A   1      31.326  24.417  25.754  1.00  0.00    -0.346 N 
ATOM     83  C   UNL A   1      32.069  23.550  26.512  1.00  0.00     0.258 C 
ATOM     84  H   UNL A   1      30.428  24.549  26.137  1.00  0.00     0.164 HD
ATOM     85  O   UNL A   1      31.654  23.173  27.605  1.00  0.00    -0.269 OA
BRANCH  83  86
ATOM     86  C   UNL A   1      33.365  23.028  26.064  1.00  0.00     0.117 A 
ATOM     87  C   UNL A   1      34.535  23.567  26.614  1.00  0.00     0.022 A 
ATOM     88  C   UNL A   1      33.468  21.970  25.153  1.00  0.00     0.283 A 
ATOM     89  C   UNL A   1      35.783  23.190  26.111  1.00  0.00     0.022 A 
ATOM     90  C   UNL A   1      34.723  21.551  24.684  1.00  0.00     0.107 A 
ATOM     91  C   UNL A   1      35.867  22.208  25.126  1.00  0.00     0.047 A 
ATOM     92  Cl  UNL A   1      37.382  21.857  24.395  1.00  0.00    -0.084 Cl
BRANCH  88  93
ATOM     93  N   UNL A   1      32.289  21.327  24.583  1.00  0.00     0.063 N 
ATOM     94  O   UNL A   1      31.923  20.262  25.100  1.00  0.00    -0.258 OA
ATOM     95  O   UNL A   1      31.809  21.805  23.549  1.00  0.00    -0.258 OA
ENDBRANCH  88  93
ENDBRANCH  83  86
ENDBRANCH  81  82
ENDBRANCH  74  77
ENDBRANCH  72  73
ENDBRANCH   1  72
TORSDOF 16
ENDMDL
MODEL 3
REMARK VINA RESULT:     -12.1      1.970      2.403
REMARK SMILES O=C(NCCCNC(=O)[C@@H]1C=C[C@H](NC(=O)c2ccc(Cl)cc2[N+](=O)[O-])C1)c1ccc(-c2c3nc(c(-c4cc(S(=O)(=O)[O-])ccc4F)c4ccc([nH]4)c(-c4cc(S(=O)(=O)[O-])ccc4F)c4nc(c(-c5cc(S(=O)(=O)[O-])ccc5F)c5ccc2[nH]5)C=C4)C=C3)cc1
REMARK SMILES IDX 5 1 4 2 3 3 1 4 2 5 28 7 29 8 90 9 30 10 89 11 31 12 32 13
REMARK SMILES IDX 33 14 83 15 34 16 88 17 82 18 84 19 35 20 87 21 81 22 80 23
REMARK SMILES IDX 36 25 68 26 48 27 67 28 49 29 52 30 66 31 85 32 50 33 51 34
REMARK SMILES IDX 65 36 86 37 53 38 37 39 38 40 46 41 39 42 45 43 47 44 44 45
REMARK SMILES IDX 40 46 41 47 42 48 43 49 69 50 70 51 78 52 71 53 77 54 79 55
REMARK SMILES IDX 76 56 72 57 73 58 74 59 75 60 54 61 55 62 63 63 56 64 62 65
REMARK SMILES IDX 64 66 61 67 57 68 58 69 59 70 60 71 6 72 7 73 8 74 9 76
REMARK SMILES IDX 10 77 11 78 27 79 12 80 13 81 14 82 15 83 16 85 17 86 18 87
REMARK SMILES IDX 23 88 19 89 22 90 20 91 21 92 24 93 25 94 26 95
REMARK H PARENT 3 6 84 24 52 35 7 75 14 84
REMARK Flexibility Score: inf
ROOT
ATOM      1  C   UNL A   1      31.282  31.931  26.441  1.00  0.00     0.042 C 
ENDROOT
BRANCH   1   2
ATOM      2  C   UNL A   1      32.538  32.283  27.237  1.00  0.00     0.118 C 
BRANCH   2   3
ATOM      3  N   UNL A   1      32.624  33.707  27.529  1.00  0.00    -0.352 N 
ATOM      4  O   UNL A   1      33.251  35.561  28.633  1.00  0.00    -0.269 OA
ATOM      5  C   UNL A   1      33.464  34.379  28.385  1.00  0.00     0.251 C 
ATOM      6  H   UNL A   1      31.983  34.274  27.042  1.00  0.00     0.163 HD
BRANCH   5   7
ATOM      7  C   UNL A   1      34.610  33.681  29.015  1.00  0.00     0.039 A 
ATOM      8  C   UNL A   1      35.925  34.074  28.755  1.00  0.00     0.014 A 
ATOM      9  C   UNL A   1      34.358  32.641  29.915  1.00  0.00     0.014 A 
ATOM     10  C   UNL A   1      36.986  33.350  29.293  1.00  0.00     0.010 A 
ATOM     11  C   UNL A   1      35.425  31.969  30.522  1.00  0.00     0.010 A 
ATOM     12  C   UNL A   1      36.749  32.304  30.200  1.00  0.00    -0.014 A 
BRANCH  12  13
ATOM     13  C   UNL A   1      37.900  31.621  30.848  1.00  0.00     0.031 A 
ATOM     14  C   UNL A   1      38.701  30.581  30.114  1.00  0.00     0.074 A 
ATOM     15  C   UNL A   1      38.228  31.957  32.111  1.00  0.00     0.049 A 
ATOM     16  N   UNL A   1      39.732  29.888  30.527  1.00  0.00    -0.248 NA
ATOM     17  C   UNL A   1      38.281  30.271  28.740  1.00  0.00     0.031 C 
ATOM     18  C   UNL A   1      37.522  32.950  32.924  1.00  0.00     0.029 A 
ATOM     19  N   UNL A   1      39.238  31.519  32.928  1.00  0.00    -0.354 N 
ATOM     20  C   UNL A   1      40.081  29.053  29.472  1.00  0.00     0.074 A 
ATOM     21  C   UNL A   1      39.118  29.296  28.417  1.00  0.00     0.031 C 
ATOM     22  C   UNL A   1      38.146  33.079  34.103  1.00  0.00     0.029 A 
ATOM     23  C   UNL A   1      39.251  32.128  34.161  1.00  0.00     0.049 A 
ATOM     24  H   UNL A   1      39.892  30.834  32.658  1.00  0.00     0.167 HD
ATOM     25  C   UNL A   1      41.114  28.175  29.389  1.00  0.00     0.034 A 
ATOM     26  C   UNL A   1      40.045  31.931  35.230  1.00  0.00     0.034 A 
ATOM     27  C   UNL A   1      42.056  27.940  30.460  1.00  0.00     0.049 A 
ATOM     28  C   UNL A   1      41.140  30.902  35.140  1.00  0.00     0.074 A 
ATOM     29  C   UNL A   1      43.157  27.099  30.473  1.00  0.00     0.029 A 
ATOM     30  N   UNL A   1      42.003  28.532  31.718  1.00  0.00    -0.354 N 
ATOM     31  N   UNL A   1      41.473  30.137  34.127  1.00  0.00    -0.248 NA
ATOM     32  C   UNL A   1      41.967  30.714  36.337  1.00  0.00     0.031 C 
ATOM     33  C   UNL A   1      43.713  27.118  31.757  1.00  0.00     0.029 A 
ATOM     34  C   UNL A   1      43.021  28.042  32.523  1.00  0.00     0.049 A 
ATOM     35  H   UNL A   1      41.338  29.203  31.996  1.00  0.00     0.167 HD
ATOM     36  C   UNL A   1      42.567  29.393  34.557  1.00  0.00     0.074 A 
ATOM     37  C   UNL A   1      42.846  29.817  35.915  1.00  0.00     0.031 C 
ATOM     38  C   UNL A   1      43.280  28.451  33.887  1.00  0.00     0.034 A 
BRANCH  25  39
ATOM     39  C   UNL A   1      41.242  27.371  28.113  1.00  0.00     0.023 A 
ATOM     40  C   UNL A   1      40.871  26.016  28.047  1.00  0.00     0.031 A 
ATOM     41  C   UNL A   1      41.779  27.958  26.952  1.00  0.00     0.131 A 
ATOM     42  C   UNL A   1      41.121  25.273  26.883  1.00  0.00     0.055 A 
ATOM     43  C   UNL A   1      41.942  27.237  25.767  1.00  0.00     0.041 A 
ATOM     44  F   UNL A   1      42.173  29.241  26.953  1.00  0.00    -0.206 F 
ATOM     45  C   UNL A   1      41.630  25.881  25.733  1.00  0.00     0.022 A 
BRANCH  42  46
ATOM     46  S   UNL A   1      40.936  23.469  26.950  1.00  0.00     0.124 S 
ATOM     47  O   UNL A   1      41.397  23.172  28.304  1.00  0.00    -0.237 OA
ATOM     48  O   UNL A   1      39.510  23.287  26.707  1.00  0.00    -0.237 OA
ATOM     49  O   UNL A   1      41.818  22.993  25.885  1.00  0.00    -0.744 OA
ENDBRANCH  42  46
ENDBRANCH  25  39
BRANCH  26  50
ATOM     50  C   UNL A   1      39.814  32.703  36.485  1.00  0.00     0.023 A 
ATOM     51  C   UNL A   1      38.871  32.280  37.434  1.00  0.00     0.031 A 
ATOM     52  C   UNL A   1      40.528  33.888  36.744  1.00  0.00     0.131 A 
ATOM     53  C   UNL A   1      38.641  33.054  38.582  1.00  0.00     0.055 A 
ATOM     54  C   UNL A   1      40.336  34.623  37.914  1.00  0.00     0.041 A 
ATOM     55  F   UNL A   1      41.441  34.337  35.869  1.00  0.00    -0.206 F 
ATOM     56  C   UNL A   1      39.379  34.213  38.837  1.00  0.00     0.022 A 
BRANCH  53  57
ATOM     57  S   UNL A   1      37.303  32.566  39.704  1.00  0.00     0.124 S 
ATOM     58  O   UNL A   1      37.360  33.621  40.709  1.00  0.00    -0.237 OA
ATOM     59  O   UNL A   1      36.143  32.584  38.820  1.00  0.00    -0.237 OA
ATOM     60  O   UNL A   1      37.713  31.242  40.165  1.00  0.00    -0.744 OA
ENDBRANCH  53  57
ENDBRANCH  26  50
BRANCH  38  61
ATOM     61  C   UNL A   1      44.461  27.845  34.610  1.00  0.00     0.023 A 
ATOM     62  C   UNL A   1      44.336  26.690  35.400  1.00  0.00     0.031 A 
ATOM     63  C   UNL A   1      45.728  28.451  34.523  1.00  0.00     0.131 A 
ATOM     64  C   UNL A   1      45.442  26.210  36.120  1.00  0.00     0.055 A 
ATOM     65  C   UNL A   1      46.839  27.930  35.186  1.00  0.00     0.041 A 
ATOM     66  F   UNL A   1      45.906  29.561  33.788  1.00  0.00    -0.206 F 
ATOM     67  C   UNL A   1      46.697  26.813  36.002  1.00  0.00     0.022 A 
BRANCH  64  68
ATOM     68  S   UNL A   1      45.196  24.851  37.295  1.00  0.00     0.124 S 
ATOM     69  O   UNL A   1      44.112  25.363  38.129  1.00  0.00    -0.237 OA
ATOM     70  O   UNL A   1      44.855  23.736  36.419  1.00  0.00    -0.237 OA
ATOM     71  O   UNL A   1      46.491  24.738  37.965  1.00  0.00    -0.744 OA
ENDBRANCH  64  68
ENDBRANCH  38  61
ENDBRANCH  12  13
ENDBRANCH   5   7
ENDBRANCH   2   3
ENDBRANCH   1   2
BRANCH   1  72
ATOM     72  C   UNL A   1      31.411  30.656  25.615  1.00  0.00     0.117 C 
BRANCH  72  73
ATOM     73  N   UNL A   1      31.572  29.498  26.472  1.00  0.00    -0.356 N 
ATOM     74  C   UNL A   1      31.499  28.162  26.238  1.00  0.00     0.227 C 
ATOM     75  H   UNL A   1      31.775  29.724  27.408  1.00  0.00     0.163 HD
ATOM     76  O   UNL A   1      31.651  27.433  27.223  1.00  0.00    -0.274 OA
BRANCH  74  77
ATOM     77  C   UNL A   1      31.447  27.576  24.819  1.00  0.00     0.103 C 
ATOM     78  C   UNL A   1      30.161  27.052  24.259  1.00  0.00    -0.016 C 
ATOM     79  C   UNL A   1      32.360  26.328  24.691  1.00  0.00     0.047 C 
ATOM     80  C   UNL A   1      30.187  25.729  24.082  1.00  0.00    -0.006 C 
ATOM     81  C   UNL A   1      31.433  25.105  24.581  1.00  0.00     0.106 C 
BRANCH  81  82
ATOM     82  N   UNL A   1      31.313  24.359  25.832  1.00  0.00    -0.346 N 
ATOM     83  C   UNL A   1      32.100  23.530  26.588  1.00  0.00     0.258 C 
ATOM     84  H   UNL A   1      30.427  24.487  26.244  1.00  0.00     0.164 HD
ATOM     85  O   UNL A   1      31.732  23.180  27.707  1.00  0.00    -0.269 OA
BRANCH  83  86
ATOM     86  C   UNL A   1      33.389  23.017  26.109  1.00  0.00     0.117 A 
ATOM     87  C   UNL A   1      34.567  23.549  26.647  1.00  0.00     0.022 A 
ATOM     88  C   UNL A   1      33.476  21.975  25.178  1.00  0.00     0.283 A 
ATOM     89  C   UNL A   1      35.807  23.182  26.116  1.00  0.00     0.022 A 
ATOM     90  C   UNL A   1      34.724  21.566  24.681  1.00  0.00     0.107 A 
ATOM     91  C   UNL A   1      35.875  22.217  25.113  1.00  0.00     0.047 A 
ATOM     92  Cl  UNL A   1      37.377  21.881  24.350  1.00  0.00    -0.084 Cl
BRANCH  88  93
ATOM     93  N   UNL A   1      32.288  21.340  24.618  1.00  0.00     0.063 N 
ATOM     94  O   UNL A   1      31.910  20.286  25.150  1.00  0.00    -0.258 OA
ATOM     95  O   UNL A   1      31.813  21.810  23.579  1.00  0.00    -0.258 OA
ENDBRANCH  88  93
ENDBRANCH  83  86
ENDBRANCH  81  82
ENDBRANCH  74  77
ENDBRANCH  72  73
ENDBRANCH   1  72
TORSDOF 16
ENDMDL
