MODEL 1
REMARK VINA RESULT:     -11.5      0.000      0.000
REMARK SMILES CC[C@@H](C(=O)NCCCNC(=O)c1ccc(-c2c3nc(c(-c4cc(S(=O)(=O)[O-])ccc4F)c4ccc([nH]4)c(-c4cc(S(=O)(=O)[O-])ccc4F)c4nc(c(-c5cc(S(=O)(=O)[O-])ccc5F)c5ccc2[nH]5)C=C4)C=C3)cc1)n1c(SCc2cccc(C(F)(F)F)c2)nc2ccncc21
REMARK SMILES IDX 7 1 6 2 4 3 5 4 3 6 2 7 1 8 76 9 77 10 96 11 90 12 91 13
REMARK SMILES IDX 95 14 92 15 94 16 93 17 78 18 79 19 80 20 81 21 89 22 82 23
REMARK SMILES IDX 84 24 83 25 85 26 86 27 87 28 88 29 8 30 9 31 10 32 11 33
REMARK SMILES IDX 12 35 13 36 14 37 75 38 15 39 74 40 16 41 17 42 18 43 68 44
REMARK SMILES IDX 19 45 73 46 67 47 69 48 20 49 72 50 66 51 65 52 21 54 53 55
REMARK SMILES IDX 33 56 52 57 34 58 37 59 51 60 70 61 35 62 36 63 50 65 71 66
REMARK SMILES IDX 38 67 22 68 23 69 31 70 24 71 30 72 32 73 29 74 25 75 26 76
REMARK SMILES IDX 27 77 28 78 54 79 55 80 63 81 56 82 62 83 64 84 61 85 57 86
REMARK SMILES IDX 58 87 59 88 60 89 39 90 40 91 48 92 41 93 47 94 49 95 46 96
REMARK SMILES IDX 42 97 43 98 44 99 45 100
REMARK H PARENT 6 5 10 34 69 53 37 64
REMARK Flexibility Score: inf
ROOT
ATOM      1  C   UNL A   1      32.515  26.611  24.562  1.00  0.00     0.117 C 
ENDROOT
BRANCH   1   2
ATOM      2  N   UNL A   1      33.301  25.755  23.696  1.00  0.00    -0.354 N 
ATOM      3  C   UNL A   1      33.367  24.414  23.497  1.00  0.00     0.243 C 
ATOM      4  O   UNL A   1      34.059  24.102  22.520  1.00  0.00    -0.273 OA
ATOM      5  H   UNL A   1      33.926  26.258  23.126  1.00  0.00     0.163 HD
BRANCH   3   6
ATOM      6  C   UNL A   1      32.550  23.346  24.282  1.00  0.00     0.178 C 
BRANCH   6   7
ATOM      7  C   UNL A   1      31.658  23.764  25.463  1.00  0.00     0.032 C 
ATOM      8  C   UNL A   1      31.960  23.383  26.892  1.00  0.00     0.006 C 
ENDBRANCH   6   7
BRANCH   6   9
ATOM      9  N   UNL A   1      33.520  22.305  24.758  1.00  0.00    -0.305 N 
ATOM     10  C   UNL A   1      34.887  22.441  24.981  1.00  0.00     0.170 A 
ATOM     11  C   UNL A   1      33.267  20.940  24.784  1.00  0.00     0.088 A 
ATOM     12  N   UNL A   1      35.515  21.302  24.780  1.00  0.00    -0.222 NA
ATOM     13  C   UNL A   1      34.530  20.356  24.725  1.00  0.00     0.093 A 
ATOM     14  C   UNL A   1      32.119  20.164  24.835  1.00  0.00     0.139 A 
ATOM     15  C   UNL A   1      34.658  18.968  24.691  1.00  0.00     0.051 A 
ATOM     16  N   UNL A   1      32.244  18.813  24.867  1.00  0.00    -0.262 NA
ATOM     17  C   UNL A   1      33.477  18.258  24.792  1.00  0.00     0.113 A 
BRANCH  10  18
ATOM     18  S   UNL A   1      35.594  23.602  26.071  1.00  0.00    -0.083 SA
BRANCH  18  19
ATOM     19  C   UNL A   1      37.265  24.010  25.536  1.00  0.00     0.113 C 
BRANCH  19  20
ATOM     20  C   UNL A   1      38.474  23.530  26.299  1.00  0.00    -0.037 A 
ATOM     21  C   UNL A   1      39.239  24.399  27.082  1.00  0.00     0.004 A 
ATOM     22  C   UNL A   1      38.928  22.206  26.134  1.00  0.00     0.017 A 
ATOM     23  C   UNL A   1      40.377  23.946  27.748  1.00  0.00     0.001 A 
ATOM     24  C   UNL A   1      40.090  21.745  26.777  1.00  0.00     0.056 A 
ATOM     25  C   UNL A   1      40.801  22.627  27.600  1.00  0.00     0.013 A 
BRANCH  24  26
ATOM     26  C   UNL A   1      40.609  20.345  26.550  1.00  0.00     0.416 C 
ATOM     27  F   UNL A   1      39.723  19.561  25.887  1.00  0.00    -0.166 F 
ATOM     28  F   UNL A   1      41.757  20.329  25.814  1.00  0.00    -0.166 F 
ATOM     29  F   UNL A   1      40.911  19.697  27.709  1.00  0.00    -0.166 F 
ENDBRANCH  24  26
ENDBRANCH  19  20
ENDBRANCH  18  19
ENDBRANCH  10  18
ENDBRANCH   6   9
ENDBRANCH   3   6
ENDBRANCH   1   2
BRANCH   1  30
ATOM     30  C   UNL A   1      33.373  27.206  25.678  1.00  0.00     0.042 C 
BRANCH  30  31
ATOM     31  C   UNL A   1      34.047  28.527  25.332  1.00  0.00     0.118 C 
BRANCH  31  32
ATOM     32  N   UNL A   1      33.288  29.681  25.774  1.00  0.00    -0.352 N 
ATOM     33  C   UNL A   1      33.528  30.545  26.815  1.00  0.00     0.251 C 
ATOM     34  H   UNL A   1      32.477  29.874  25.250  1.00  0.00     0.163 HD
ATOM     35  O   UNL A   1      32.638  31.341  27.133  1.00  0.00    -0.269 OA
BRANCH  33  36
ATOM     36  C   UNL A   1      34.803  30.523  27.575  1.00  0.00     0.039 A 
ATOM     37  C   UNL A   1      35.185  29.334  28.206  1.00  0.00     0.014 A 
ATOM     38  C   UNL A   1      35.606  31.659  27.719  1.00  0.00     0.014 A 
ATOM     39  C   UNL A   1      36.382  29.271  28.929  1.00  0.00     0.010 A 
ATOM     40  C   UNL A   1      36.840  31.573  28.370  1.00  0.00     0.010 A 
ATOM     41  C   UNL A   1      37.239  30.382  28.995  1.00  0.00    -0.014 A 
BRANCH  41  42
ATOM     42  C   UNL A   1      38.532  30.315  29.735  1.00  0.00     0.031 A 
ATOM     43  C   UNL A   1      39.699  29.555  29.156  1.00  0.00     0.074 A 
ATOM     44  C   UNL A   1      38.650  30.909  30.939  1.00  0.00     0.049 A 
ATOM     45  N   UNL A   1      40.886  29.344  29.667  1.00  0.00    -0.248 NA
ATOM     46  C   UNL A   1      39.495  28.932  27.840  1.00  0.00     0.031 C 
ATOM     47  C   UNL A   1      37.590  31.652  31.621  1.00  0.00     0.029 A 
ATOM     48  N   UNL A   1      39.714  30.982  31.807  1.00  0.00    -0.354 N 
ATOM     49  C   UNL A   1      41.567  28.559  28.742  1.00  0.00     0.074 A 
ATOM     50  C   UNL A   1      40.636  28.280  27.669  1.00  0.00     0.031 C 
ATOM     51  C   UNL A   1      38.063  32.128  32.785  1.00  0.00     0.029 A 
ATOM     52  C   UNL A   1      39.443  31.684  32.960  1.00  0.00     0.049 A 
ATOM     53  H   UNL A   1      40.589  30.571  31.622  1.00  0.00     0.167 HD
ATOM     54  C   UNL A   1      42.854  28.129  28.771  1.00  0.00     0.034 A 
ATOM     55  C   UNL A   1      40.208  31.931  34.042  1.00  0.00     0.034 A 
ATOM     56  C   UNL A   1      43.775  28.420  29.842  1.00  0.00     0.049 A 
ATOM     57  C   UNL A   1      41.624  31.404  34.071  1.00  0.00     0.074 A 
ATOM     58  C   UNL A   1      45.111  28.073  29.947  1.00  0.00     0.029 A 
ATOM     59  N   UNL A   1      43.457  29.119  31.001  1.00  0.00    -0.354 N 
ATOM     60  N   UNL A   1      42.263  30.702  33.164  1.00  0.00    -0.248 NA
ATOM     61  C   UNL A   1      42.422  31.713  35.264  1.00  0.00     0.031 C 
ATOM     62  C   UNL A   1      45.578  28.492  31.198  1.00  0.00     0.029 A 
ATOM     63  C   UNL A   1      44.562  29.180  31.838  1.00  0.00     0.049 A 
ATOM     64  H   UNL A   1      42.577  29.512  31.198  1.00  0.00     0.167 HD
ATOM     65  C   UNL A   1      43.550  30.517  33.666  1.00  0.00     0.074 A 
ATOM     66  C   UNL A   1      43.598  31.196  34.944  1.00  0.00     0.031 C 
ATOM     67  C   UNL A   1      44.598  29.852  33.116  1.00  0.00     0.034 A 
BRANCH  54  68
ATOM     68  C   UNL A   1      43.330  27.274  27.618  1.00  0.00     0.023 A 
ATOM     69  C   UNL A   1      43.517  25.887  27.753  1.00  0.00     0.031 A 
ATOM     70  C   UNL A   1      43.612  27.856  26.369  1.00  0.00     0.131 A 
ATOM     71  C   UNL A   1      44.044  25.143  26.685  1.00  0.00     0.055 A 
ATOM     72  C   UNL A   1      44.055  27.094  25.284  1.00  0.00     0.041 A 
ATOM     73  F   UNL A   1      43.473  29.177  26.182  1.00  0.00    -0.206 F 
ATOM     74  C   UNL A   1      44.288  25.732  25.443  1.00  0.00     0.022 A 
BRANCH  71  75
ATOM     75  S   UNL A   1      44.542  23.425  26.989  1.00  0.00     0.124 S 
ATOM     76  O   UNL A   1      43.813  22.717  25.938  1.00  0.00    -0.237 OA
ATOM     77  O   UNL A   1      45.990  23.484  26.834  1.00  0.00    -0.237 OA
ATOM     78  O   UNL A   1      44.068  23.166  28.346  1.00  0.00    -0.744 OA
ENDBRANCH  71  75
ENDBRANCH  54  68
BRANCH  55  79
ATOM     79  C   UNL A   1      39.662  32.696  35.202  1.00  0.00     0.023 A 
ATOM     80  C   UNL A   1      39.014  32.043  36.263  1.00  0.00     0.031 A 
ATOM     81  C   UNL A   1      39.726  34.101  35.236  1.00  0.00     0.131 A 
ATOM     82  C   UNL A   1      38.411  32.794  37.284  1.00  0.00     0.055 A 
ATOM     83  C   UNL A   1      39.178  34.840  36.286  1.00  0.00     0.041 A 
ATOM     84  F   UNL A   1      40.332  34.778  34.249  1.00  0.00    -0.206 F 
ATOM     85  C   UNL A   1      38.502  34.186  37.311  1.00  0.00     0.022 A 
BRANCH  82  86
ATOM     86  S   UNL A   1      37.414  31.926  38.527  1.00  0.00     0.124 S 
ATOM     87  O   UNL A   1      37.298  30.597  37.939  1.00  0.00    -0.237 OA
ATOM     88  O   UNL A   1      38.253  32.032  39.716  1.00  0.00    -0.237 OA
ATOM     89  O   UNL A   1      36.175  32.701  38.571  1.00  0.00    -0.744 OA
ENDBRANCH  82  86
ENDBRANCH  55  79
BRANCH  67  90
ATOM     90  C   UNL A   1      45.904  29.873  33.876  1.00  0.00     0.023 A 
ATOM     91  C   UNL A   1      46.235  28.879  34.814  1.00  0.00     0.031 A 
ATOM     92  C   UNL A   1      46.828  30.911  33.662  1.00  0.00     0.131 A 
ATOM     93  C   UNL A   1      47.429  28.977  35.545  1.00  0.00     0.055 A 
ATOM     94  C   UNL A   1      48.045  30.967  34.343  1.00  0.00     0.041 A 
ATOM     95  F   UNL A   1      46.565  31.891  32.781  1.00  0.00    -0.206 F 
ATOM     96  C   UNL A   1      48.345  30.004  35.301  1.00  0.00     0.022 A 
BRANCH  93  97
ATOM     97  S   UNL A   1      47.727  27.798  36.891  1.00  0.00     0.124 S 
ATOM     98  O   UNL A   1      49.161  27.944  37.111  1.00  0.00    -0.237 OA
ATOM     99  O   UNL A   1      46.865  28.311  37.952  1.00  0.00    -0.237 OA
ATOM    100  O   UNL A   1      47.312  26.516  36.324  1.00  0.00    -0.744 OA
ENDBRANCH  93  97
ENDBRANCH  67  90
ENDBRANCH  41  42
ENDBRANCH  33  36
ENDBRANCH  31  32
ENDBRANCH  30  31
ENDBRANCH   1  30
TORSDOF 19
ENDMDL
MODEL 2
REMARK VINA RESULT:     -11.1      3.451      5.059
REMARK SMILES CC[C@@H](C(=O)NCCCNC(=O)c1ccc(-c2c3nc(c(-c4cc(S(=O)(=O)[O-])ccc4F)c4ccc([nH]4)c(-c4cc(S(=O)(=O)[O-])ccc4F)c4nc(c(-c5cc(S(=O)(=O)[O-])ccc5F)c5ccc2[nH]5)C=C4)C=C3)cc1)n1c(SCc2cccc(C(F)(F)F)c2)nc2ccncc21
REMARK SMILES IDX 7 1 6 2 4 3 5 4 3 6 2 7 1 8 76 9 77 10 96 11 90 12 91 13
REMARK SMILES IDX 95 14 92 15 94 16 93 17 78 18 79 19 80 20 81 21 89 22 82 23
REMARK SMILES IDX 84 24 83 25 85 26 86 27 87 28 88 29 8 30 9 31 10 32 11 33
REMARK SMILES IDX 12 35 13 36 14 37 75 38 15 39 74 40 16 41 17 42 18 43 68 44
REMARK SMILES IDX 19 45 73 46 67 47 69 48 20 49 72 50 66 51 65 52 21 54 53 55
REMARK SMILES IDX 33 56 52 57 34 58 37 59 51 60 70 61 35 62 36 63 50 65 71 66
REMARK SMILES IDX 38 67 22 68 23 69 31 70 24 71 30 72 32 73 29 74 25 75 26 76
REMARK SMILES IDX 27 77 28 78 54 79 55 80 63 81 56 82 62 83 64 84 61 85 57 86
REMARK SMILES IDX 58 87 59 88 60 89 39 90 40 91 48 92 41 93 47 94 49 95 46 96
REMARK SMILES IDX 42 97 43 98 44 99 45 100
REMARK H PARENT 6 5 10 34 69 53 37 64
REMARK Flexibility Score: inf
ROOT
ATOM      1  C   UNL A   1      32.759  26.508  25.603  1.00  0.00     0.117 C 
ENDROOT
BRANCH   1   2
ATOM      2  N   UNL A   1      32.446  25.423  26.510  1.00  0.00    -0.354 N 
ATOM      3  C   UNL A   1      32.140  24.111  26.346  1.00  0.00     0.243 C 
ATOM      4  O   UNL A   1      32.115  23.481  27.411  1.00  0.00    -0.273 OA
ATOM      5  H   UNL A   1      32.458  25.698  27.455  1.00  0.00     0.163 HD
BRANCH   3   6
ATOM      6  C   UNL A   1      31.985  23.387  24.977  1.00  0.00     0.178 C 
BRANCH   6   7
ATOM      7  C   UNL A   1      31.638  21.889  24.924  1.00  0.00     0.032 C 
ATOM      8  C   UNL A   1      32.413  20.899  24.091  1.00  0.00     0.006 C 
ENDBRANCH   6   7
BRANCH   6   9
ATOM      9  N   UNL A   1      33.252  23.614  24.206  1.00  0.00    -0.305 N 
ATOM     10  C   UNL A   1      33.399  23.848  22.843  1.00  0.00     0.170 A 
ATOM     11  C   UNL A   1      34.527  23.346  24.684  1.00  0.00     0.088 A 
ATOM     12  N   UNL A   1      34.557  23.398  22.408  1.00  0.00    -0.222 NA
ATOM     13  C   UNL A   1      35.289  23.148  23.535  1.00  0.00     0.093 A 
ATOM     14  C   UNL A   1      35.092  23.239  25.946  1.00  0.00     0.139 A 
ATOM     15  C   UNL A   1      36.638  22.812  23.638  1.00  0.00     0.051 A 
ATOM     16  N   UNL A   1      36.419  22.976  26.048  1.00  0.00    -0.262 NA
ATOM     17  C   UNL A   1      37.145  22.769  24.924  1.00  0.00     0.113 A 
BRANCH  10  18
ATOM     18  S   UNL A   1      32.637  25.156  21.981  1.00  0.00    -0.083 SA
BRANCH  18  19
ATOM     19  C   UNL A   1      31.205  25.747  22.900  1.00  0.00     0.113 C 
BRANCH  19  20
ATOM     20  C   UNL A   1      30.727  27.172  22.781  1.00  0.00    -0.037 A 
ATOM     21  C   UNL A   1      31.621  28.233  22.613  1.00  0.00     0.004 A 
ATOM     22  C   UNL A   1      29.361  27.472  22.960  1.00  0.00     0.017 A 
ATOM     23  C   UNL A   1      31.163  29.548  22.544  1.00  0.00     0.001 A 
ATOM     24  C   UNL A   1      28.892  28.796  22.922  1.00  0.00     0.056 A 
ATOM     25  C   UNL A   1      29.807  29.830  22.695  1.00  0.00     0.013 A 
BRANCH  24  26
ATOM     26  C   UNL A   1      27.439  29.120  23.176  1.00  0.00     0.416 C 
ATOM     27  F   UNL A   1      26.785  28.121  23.820  1.00  0.00    -0.166 F 
ATOM     28  F   UNL A   1      27.282  30.235  23.946  1.00  0.00    -0.166 F 
ATOM     29  F   UNL A   1      26.742  29.367  22.032  1.00  0.00    -0.166 F 
ENDBRANCH  24  26
ENDBRANCH  19  20
ENDBRANCH  18  19
ENDBRANCH  10  18
ENDBRANCH   6   9
ENDBRANCH   3   6
ENDBRANCH   1   2
BRANCH   1  30
ATOM     30  C   UNL A   1      32.645  27.863  26.301  1.00  0.00     0.042 C 
BRANCH  30  31
ATOM     31  C   UNL A   1      33.496  28.970  25.695  1.00  0.00     0.118 C 
BRANCH  31  32
ATOM     32  N   UNL A   1      33.051  30.298  26.074  1.00  0.00    -0.352 N 
ATOM     33  C   UNL A   1      33.538  31.146  27.039  1.00  0.00     0.251 C 
ATOM     34  H   UNL A   1      32.283  30.642  25.564  1.00  0.00     0.163 HD
ATOM     35  O   UNL A   1      32.875  32.148  27.325  1.00  0.00    -0.269 OA
BRANCH  33  36
ATOM     36  C   UNL A   1      34.809  30.872  27.756  1.00  0.00     0.039 A 
ATOM     37  C   UNL A   1      34.928  29.677  28.474  1.00  0.00     0.014 A 
ATOM     38  C   UNL A   1      35.867  31.787  27.774  1.00  0.00     0.014 A 
ATOM     39  C   UNL A   1      36.111  29.381  29.160  1.00  0.00     0.010 A 
ATOM     40  C   UNL A   1      37.077  31.453  28.390  1.00  0.00     0.010 A 
ATOM     41  C   UNL A   1      37.211  30.252  29.101  1.00  0.00    -0.014 A 
BRANCH  41  42
ATOM     42  C   UNL A   1      38.487  29.928  29.801  1.00  0.00     0.031 A 
ATOM     43  C   UNL A   1      39.461  28.951  29.192  1.00  0.00     0.074 A 
ATOM     44  C   UNL A   1      38.760  30.487  30.998  1.00  0.00     0.049 A 
ATOM     45  N   UNL A   1      40.598  28.508  29.668  1.00  0.00    -0.248 NA
ATOM     46  C   UNL A   1      39.096  28.381  27.887  1.00  0.00     0.031 C 
ATOM     47  C   UNL A   1      37.890  31.426  31.708  1.00  0.00     0.029 A 
ATOM     48  N   UNL A   1      39.844  30.348  31.832  1.00  0.00    -0.354 N 
ATOM     49  C   UNL A   1      41.079  27.603  28.727  1.00  0.00     0.074 A 
ATOM     50  C   UNL A   1      40.078  27.514  27.685  1.00  0.00     0.031 C 
ATOM     51  C   UNL A   1      38.485  31.799  32.853  1.00  0.00     0.029 A 
ATOM     52  C   UNL A   1      39.754  31.089  32.989  1.00  0.00     0.049 A 
ATOM     53  H   UNL A   1      40.613  29.770  31.623  1.00  0.00     0.167 HD
ATOM     54  C   UNL A   1      42.255  26.925  28.719  1.00  0.00     0.034 A 
ATOM     55  C   UNL A   1      40.587  31.179  34.045  1.00  0.00     0.034 A 
ATOM     56  C   UNL A   1      43.250  27.028  29.760  1.00  0.00     0.049 A 
ATOM     57  C   UNL A   1      41.869  30.381  34.033  1.00  0.00     0.074 A 
ATOM     58  C   UNL A   1      44.492  26.421  29.825  1.00  0.00     0.029 A 
ATOM     59  N   UNL A   1      43.114  27.776  30.923  1.00  0.00    -0.354 N 
ATOM     60  N   UNL A   1      42.327  29.565  33.112  1.00  0.00    -0.248 NA
ATOM     61  C   UNL A   1      42.751  30.525  35.199  1.00  0.00     0.031 C 
ATOM     62  C   UNL A   1      45.073  26.739  31.058  1.00  0.00     0.029 A 
ATOM     63  C   UNL A   1      44.234  27.616  31.725  1.00  0.00     0.049 A 
ATOM     64  H   UNL A   1      42.336  28.336  31.144  1.00  0.00     0.167 HD
ATOM     65  C   UNL A   1      43.567  29.128  33.575  1.00  0.00     0.074 A 
ATOM     66  C   UNL A   1      43.789  29.784  34.846  1.00  0.00     0.031 C 
ATOM     67  C   UNL A   1      44.443  28.268  32.997  1.00  0.00     0.034 A 
BRANCH  54  68
ATOM     68  C   UNL A   1      42.515  25.993  27.558  1.00  0.00     0.023 A 
ATOM     69  C   UNL A   1      42.009  24.681  27.534  1.00  0.00     0.031 A 
ATOM     70  C   UNL A   1      43.290  26.416  26.463  1.00  0.00     0.131 A 
ATOM     71  C   UNL A   1      42.345  23.818  26.479  1.00  0.00     0.055 A 
ATOM     72  C   UNL A   1      43.550  25.578  25.375  1.00  0.00     0.041 A 
ATOM     73  F   UNL A   1      43.819  27.649  26.435  1.00  0.00    -0.206 F 
ATOM     74  C   UNL A   1      43.090  24.266  25.386  1.00  0.00     0.022 A 
BRANCH  71  75
ATOM     75  S   UNL A   1      41.919  22.061  26.628  1.00  0.00     0.124 S 
ATOM     76  O   UNL A   1      40.458  22.107  26.577  1.00  0.00    -0.237 OA
ATOM     77  O   UNL A   1      42.580  21.476  25.468  1.00  0.00    -0.237 OA
ATOM     78  O   UNL A   1      42.476  21.682  27.924  1.00  0.00    -0.744 OA
ENDBRANCH  71  75
ENDBRANCH  54  68
BRANCH  55  79
ATOM     79  C   UNL A   1      40.240  32.038  35.215  1.00  0.00     0.023 A 
ATOM     80  C   UNL A   1      39.332  31.601  36.194  1.00  0.00     0.031 A 
ATOM     81  C   UNL A   1      40.767  33.336  35.342  1.00  0.00     0.131 A 
ATOM     82  C   UNL A   1      38.939  32.471  37.222  1.00  0.00     0.055 A 
ATOM     83  C   UNL A   1      40.419  34.175  36.402  1.00  0.00     0.041 A 
ATOM     84  F   UNL A   1      41.640  33.806  34.436  1.00  0.00    -0.206 F 
ATOM     85  C   UNL A   1      39.487  33.749  37.342  1.00  0.00     0.022 A 
BRANCH  82  86
ATOM     86  S   UNL A   1      37.617  31.943  38.348  1.00  0.00     0.124 S 
ATOM     87  O   UNL A   1      37.356  30.586  37.882  1.00  0.00    -0.237 OA
ATOM     88  O   UNL A   1      38.263  32.063  39.651  1.00  0.00    -0.237 OA
ATOM     89  O   UNL A   1      36.548  32.907  38.093  1.00  0.00    -0.744 OA
ENDBRANCH  82  86
ENDBRANCH  55  79
BRANCH  67  90
ATOM     90  C   UNL A   1      45.751  28.028  33.716  1.00  0.00     0.023 A 
ATOM     91  C   UNL A   1      45.912  26.980  34.640  1.00  0.00     0.031 A 
ATOM     92  C   UNL A   1      46.852  28.870  33.477  1.00  0.00     0.131 A 
ATOM     93  C   UNL A   1      47.123  26.838  35.334  1.00  0.00     0.055 A 
ATOM     94  C   UNL A   1      48.076  28.683  34.121  1.00  0.00     0.041 A 
ATOM     95  F   UNL A   1      46.757  29.890  32.609  1.00  0.00    -0.206 F 
ATOM     96  C   UNL A   1      48.212  27.670  35.065  1.00  0.00     0.022 A 
BRANCH  93  97
ATOM     97  S   UNL A   1      47.226  25.611  36.666  1.00  0.00     0.124 S 
ATOM     98  O   UNL A   1      45.860  25.601  37.176  1.00  0.00    -0.237 OA
ATOM     99  O   UNL A   1      47.649  24.410  35.952  1.00  0.00    -0.237 OA
ATOM    100  O   UNL A   1      48.224  26.173  37.575  1.00  0.00    -0.744 OA
ENDBRANCH  93  97
ENDBRANCH  67  90
ENDBRANCH  41  42
ENDBRANCH  33  36
ENDBRANCH  31  32
ENDBRANCH  30  31
ENDBRANCH   1  30
TORSDOF 19
ENDMDL
MODEL 3
REMARK VINA RESULT:     -11.0      2.136      7.590
REMARK SMILES CC[C@@H](C(=O)NCCCNC(=O)c1ccc(-c2c3nc(c(-c4cc(S(=O)(=O)[O-])ccc4F)c4ccc([nH]4)c(-c4cc(S(=O)(=O)[O-])ccc4F)c4nc(c(-c5cc(S(=O)(=O)[O-])ccc5F)c5ccc2[nH]5)C=C4)C=C3)cc1)n1c(SCc2cccc(C(F)(F)F)c2)nc2ccncc21
REMARK SMILES IDX 7 1 6 2 4 3 5 4 3 6 2 7 1 8 76 9 77 10 96 11 90 12 91 13
REMARK SMILES IDX 95 14 92 15 94 16 93 17 78 18 79 19 80 20 81 21 89 22 82 23
REMARK SMILES IDX 84 24 83 25 85 26 86 27 87 28 88 29 8 30 9 31 10 32 11 33
REMARK SMILES IDX 12 35 13 36 14 37 75 38 15 39 74 40 16 41 17 42 18 43 68 44
REMARK SMILES IDX 19 45 73 46 67 47 69 48 20 49 72 50 66 51 65 52 21 54 53 55
REMARK SMILES IDX 33 56 52 57 34 58 37 59 51 60 70 61 35 62 36 63 50 65 71 66
REMARK SMILES IDX 38 67 22 68 23 69 31 70 24 71 30 72 32 73 29 74 25 75 26 76
REMARK SMILES IDX 27 77 28 78 54 79 55 80 63 81 56 82 62 83 64 84 61 85 57 86
REMARK SMILES IDX 58 87 59 88 60 89 39 90 40 91 48 92 41 93 47 94 49 95 46 96
REMARK SMILES IDX 42 97 43 98 44 99 45 100
REMARK H PARENT 6 5 10 34 69 53 37 64
REMARK Flexibility Score: inf
ROOT
ATOM      1  C   UNL A   1      34.022  26.677  24.962  1.00  0.00     0.117 C 
ENDROOT
BRANCH   1   2
ATOM      2  N   UNL A   1      33.230  25.723  25.711  1.00  0.00    -0.354 N 
ATOM      3  C   UNL A   1      32.869  24.430  25.513  1.00  0.00     0.243 C 
ATOM      4  O   UNL A   1      32.322  23.921  26.500  1.00  0.00    -0.273 OA
ATOM      5  H   UNL A   1      32.874  26.096  26.550  1.00  0.00     0.163 HD
BRANCH   3   6
ATOM      6  C   UNL A   1      33.222  23.578  24.259  1.00  0.00     0.178 C 
BRANCH   6   7
ATOM      7  C   UNL A   1      32.113  23.103  23.304  1.00  0.00     0.032 C 
ATOM      8  C   UNL A   1      30.701  23.632  23.363  1.00  0.00     0.006 C 
ENDBRANCH   6   7
BRANCH   6   9
ATOM      9  N   UNL A   1      33.992  22.382  24.735  1.00  0.00    -0.305 N 
ATOM     10  C   UNL A   1      35.368  22.251  24.890  1.00  0.00     0.170 A 
ATOM     11  C   UNL A   1      33.477  21.097  24.833  1.00  0.00     0.088 A 
ATOM     12  N   UNL A   1      35.748  21.004  24.711  1.00  0.00    -0.222 NA
ATOM     13  C   UNL A   1      34.595  20.271  24.742  1.00  0.00     0.093 A 
ATOM     14  C   UNL A   1      32.203  20.566  24.970  1.00  0.00     0.139 A 
ATOM     15  C   UNL A   1      34.446  18.885  24.764  1.00  0.00     0.051 A 
ATOM     16  N   UNL A   1      32.061  19.219  25.056  1.00  0.00    -0.262 NA
ATOM     17  C   UNL A   1      33.154  18.428  24.950  1.00  0.00     0.113 A 
BRANCH  10  18
ATOM     18  S   UNL A   1      36.347  23.285  25.894  1.00  0.00    -0.083 SA
BRANCH  18  19
ATOM     19  C   UNL A   1      38.057  22.716  25.882  1.00  0.00     0.113 C 
BRANCH  19  20
ATOM     20  C   UNL A   1      39.118  23.394  26.710  1.00  0.00    -0.037 A 
ATOM     21  C   UNL A   1      39.078  24.767  26.969  1.00  0.00     0.004 A 
ATOM     22  C   UNL A   1      40.245  22.666  27.140  1.00  0.00     0.017 A 
ATOM     23  C   UNL A   1      40.090  25.384  27.705  1.00  0.00     0.001 A 
ATOM     24  C   UNL A   1      41.285  23.282  27.857  1.00  0.00     0.056 A 
ATOM     25  C   UNL A   1      41.186  24.648  28.148  1.00  0.00     0.013 A 
BRANCH  24  26
ATOM     26  C   UNL A   1      42.520  22.515  28.263  1.00  0.00     0.416 C 
ATOM     27  F   UNL A   1      43.620  22.882  27.556  1.00  0.00    -0.166 F 
ATOM     28  F   UNL A   1      42.836  22.696  29.577  1.00  0.00    -0.166 F 
ATOM     29  F   UNL A   1      42.387  21.169  28.102  1.00  0.00    -0.166 F 
ENDBRANCH  24  26
ENDBRANCH  19  20
ENDBRANCH  18  19
ENDBRANCH  10  18
ENDBRANCH   6   9
ENDBRANCH   3   6
ENDBRANCH   1   2
BRANCH   1  30
ATOM     30  C   UNL A   1      33.585  28.111  25.256  1.00  0.00     0.042 C 
BRANCH  30  31
ATOM     31  C   UNL A   1      34.379  28.812  26.349  1.00  0.00     0.118 C 
BRANCH  31  32
ATOM     32  N   UNL A   1      33.927  30.168  26.595  1.00  0.00    -0.352 N 
ATOM     33  C   UNL A   1      34.391  31.101  27.491  1.00  0.00     0.251 C 
ATOM     34  H   UNL A   1      33.173  30.466  26.037  1.00  0.00     0.163 HD
ATOM     35  O   UNL A   1      33.723  32.125  27.669  1.00  0.00    -0.269 OA
BRANCH  33  36
ATOM     36  C   UNL A   1      35.643  30.893  28.262  1.00  0.00     0.039 A 
ATOM     37  C   UNL A   1      36.602  31.912  28.267  1.00  0.00     0.014 A 
ATOM     38  C   UNL A   1      35.912  29.700  28.941  1.00  0.00     0.014 A 
ATOM     39  C   UNL A   1      37.794  31.756  28.985  1.00  0.00     0.010 A 
ATOM     40  C   UNL A   1      37.064  29.579  29.724  1.00  0.00     0.010 A 
ATOM     41  C   UNL A   1      38.026  30.600  29.746  1.00  0.00    -0.014 A 
BRANCH  41  42
ATOM     42  C   UNL A   1      39.277  30.439  30.540  1.00  0.00     0.031 A 
ATOM     43  C   UNL A   1      39.365  30.995  31.940  1.00  0.00     0.074 A 
ATOM     44  C   UNL A   1      40.346  29.822  29.997  1.00  0.00     0.049 A 
ATOM     45  N   UNL A   1      40.379  30.996  32.770  1.00  0.00    -0.248 NA
ATOM     46  C   UNL A   1      38.162  31.656  32.466  1.00  0.00     0.031 C 
ATOM     47  C   UNL A   1      40.400  29.264  28.645  1.00  0.00     0.029 A 
ATOM     48  N   UNL A   1      41.594  29.561  30.511  1.00  0.00    -0.354 N 
ATOM     49  C   UNL A   1      39.939  31.663  33.909  1.00  0.00     0.074 A 
ATOM     50  C   UNL A   1      38.589  32.107  33.636  1.00  0.00     0.031 C 
ATOM     51  C   UNL A   1      41.604  28.703  28.447  1.00  0.00     0.029 A 
ATOM     52  C   UNL A   1      42.429  28.904  29.635  1.00  0.00     0.049 A 
ATOM     53  H   UNL A   1      41.866  29.819  31.421  1.00  0.00     0.167 HD
ATOM     54  C   UNL A   1      40.591  31.868  35.082  1.00  0.00     0.034 A 
ATOM     55  C   UNL A   1      43.716  28.521  29.764  1.00  0.00     0.034 A 
ATOM     56  C   UNL A   1      41.935  31.414  35.345  1.00  0.00     0.049 A 
ATOM     57  C   UNL A   1      44.434  28.799  31.063  1.00  0.00     0.074 A 
ATOM     58  C   UNL A   1      42.669  31.528  36.513  1.00  0.00     0.029 A 
ATOM     59  N   UNL A   1      42.754  30.768  34.426  1.00  0.00    -0.354 N 
ATOM     60  N   UNL A   1      43.985  29.391  32.146  1.00  0.00    -0.248 NA
ATOM     61  C   UNL A   1      45.828  28.347  31.160  1.00  0.00     0.031 C 
ATOM     62  C   UNL A   1      43.952  31.023  36.278  1.00  0.00     0.029 A 
ATOM     63  C   UNL A   1      43.995  30.512  34.992  1.00  0.00     0.049 A 
ATOM     64  H   UNL A   1      42.492  30.528  33.509  1.00  0.00     0.167 HD
ATOM     65  C   UNL A   1      45.033  29.349  33.063  1.00  0.00     0.074 A 
ATOM     66  C   UNL A   1      46.127  28.660  32.411  1.00  0.00     0.031 C 
ATOM     67  C   UNL A   1      45.084  29.832  34.331  1.00  0.00     0.034 A 
BRANCH  54  68
ATOM     68  C   UNL A   1      39.863  32.640  36.158  1.00  0.00     0.023 A 
ATOM     69  C   UNL A   1      39.047  31.999  37.106  1.00  0.00     0.031 A 
ATOM     70  C   UNL A   1      39.976  34.040  36.231  1.00  0.00     0.131 A 
ATOM     71  C   UNL A   1      38.318  32.759  38.035  1.00  0.00     0.055 A 
ATOM     72  C   UNL A   1      39.315  34.784  37.213  1.00  0.00     0.041 A 
ATOM     73  F   UNL A   1      40.724  34.714  35.343  1.00  0.00    -0.206 F 
ATOM     74  C   UNL A   1      38.469  34.145  38.112  1.00  0.00     0.022 A 
BRANCH  71  75
ATOM     75  S   UNL A   1      37.062  31.924  39.043  1.00  0.00     0.124 S 
ATOM     76  O   UNL A   1      37.648  32.015  40.379  1.00  0.00    -0.237 OA
ATOM     77  O   UNL A   1      35.877  32.739  38.809  1.00  0.00    -0.237 OA
ATOM     78  O   UNL A   1      37.015  30.576  38.484  1.00  0.00    -0.744 OA
ENDBRANCH  71  75
ENDBRANCH  54  68
BRANCH  55  79
ATOM     79  C   UNL A   1      44.425  27.849  28.636  1.00  0.00     0.023 A 
ATOM     80  C   UNL A   1      45.199  28.584  27.723  1.00  0.00     0.031 A 
ATOM     81  C   UNL A   1      44.289  26.466  28.417  1.00  0.00     0.131 A 
ATOM     82  C   UNL A   1      45.763  27.944  26.608  1.00  0.00     0.055 A 
ATOM     83  C   UNL A   1      44.904  25.824  27.340  1.00  0.00     0.041 A 
ATOM     84  F   UNL A   1      43.561  25.713  29.257  1.00  0.00    -0.206 F 
ATOM     85  C   UNL A   1      45.634  26.568  26.419  1.00  0.00     0.022 A 
BRANCH  82  86
ATOM     86  S   UNL A   1      46.586  28.959  25.349  1.00  0.00     0.124 S 
ATOM     87  O   UNL A   1      46.000  30.271  25.598  1.00  0.00    -0.237 OA
ATOM     88  O   UNL A   1      47.992  28.804  25.706  1.00  0.00    -0.237 OA
ATOM     89  O   UNL A   1      46.191  28.327  24.092  1.00  0.00    -0.744 OA
ENDBRANCH  82  86
ENDBRANCH  55  79
BRANCH  67  90
ATOM     90  C   UNL A   1      46.351  29.582  35.115  1.00  0.00     0.023 A 
ATOM     91  C   UNL A   1      47.420  30.496  35.112  1.00  0.00     0.031 A 
ATOM     92  C   UNL A   1      46.493  28.404  35.870  1.00  0.00     0.131 A 
ATOM     93  C   UNL A   1      48.604  30.189  35.800  1.00  0.00     0.055 A 
ATOM     94  C   UNL A   1      47.648  28.136  36.607  1.00  0.00     0.041 A 
ATOM     95  F   UNL A   1      45.508  27.492  35.907  1.00  0.00    -0.206 F 
ATOM     96  C   UNL A   1      48.717  29.025  36.564  1.00  0.00     0.022 A 
BRANCH  93  97
ATOM     97  S   UNL A   1      50.036  31.287  35.605  1.00  0.00     0.124 S 
ATOM     98  O   UNL A   1      50.440  31.016  34.230  1.00  0.00    -0.237 OA
ATOM     99  O   UNL A   1      49.455  32.604  35.850  1.00  0.00    -0.237 OA
ATOM    100  O   UNL A   1      50.968  30.822  36.630  1.00  0.00    -0.744 OA
ENDBRANCH  93  97
ENDBRANCH  67  90
ENDBRANCH  41  42
ENDBRANCH  33  36
ENDBRANCH  31  32
ENDBRANCH  30  31
ENDBRANCH   1  30
TORSDOF 19
ENDMDL
