MODEL 1
REMARK VINA RESULT:     -12.2      0.000      0.000
REMARK SMILES C[C@H]1[C@H](C(=O)NCCCNC(=O)c2ccc(-c3c4nc(c(-c5cc(S(=O)(=O)[O-])ccc5F)c5ccc([nH]5)c(-c5cc(S(=O)(=O)[O-])ccc5F)c5nc(c(-c6cc(S(=O)(=O)[O-])ccc6F)c6ccc3[nH]6)C=C5)C=C4)cc2)CCN1C(=O)[C@H]1CC=CCC1
REMARK SMILES IDX 8 1 7 2 6 3 4 4 5 5 3 7 1 8 2 9 78 10 76 11 77 12 79 13
REMARK SMILES IDX 80 14 81 15 82 16 86 17 83 18 85 19 84 20 9 21 10 22 11 23
REMARK SMILES IDX 12 25 13 26 14 27 75 28 15 29 74 30 16 31 17 32 18 33 68 34
REMARK SMILES IDX 19 35 73 36 67 37 69 38 20 39 72 40 66 41 65 42 21 44 53 45
REMARK SMILES IDX 33 46 52 47 34 48 37 49 51 50 70 51 35 52 36 53 50 55 71 56
REMARK SMILES IDX 38 57 22 58 23 59 31 60 24 61 30 62 32 63 29 64 25 65 26 66
REMARK SMILES IDX 27 67 28 68 54 69 55 70 63 71 56 72 62 73 64 74 61 75 57 76
REMARK SMILES IDX 58 77 59 78 60 79 39 80 40 81 48 82 41 83 47 84 49 85 46 86
REMARK SMILES IDX 42 87 43 88 44 89 45 90
REMARK H PARENT 6 6 10 24 69 43 37 54
REMARK Flexibility Score: inf
ROOT
ATOM      1  C   UNL A   1      32.374  27.957  27.174  1.00  0.00     0.042 C 
ENDROOT
BRANCH   1   2
ATOM      2  C   UNL A   1      31.530  27.022  26.316  1.00  0.00     0.117 C 
BRANCH   2   3
ATOM      3  N   UNL A   1      31.386  25.697  26.900  1.00  0.00    -0.356 N 
ATOM      4  C   UNL A   1      31.826  24.472  26.532  1.00  0.00     0.225 C 
ATOM      5  O   UNL A   1      31.555  23.541  27.301  1.00  0.00    -0.275 OA
ATOM      6  H   UNL A   1      30.861  25.693  27.733  1.00  0.00     0.163 HD
BRANCH   4   7
ATOM      7  C   UNL A   1      32.573  24.166  25.245  1.00  0.00     0.102 C 
ATOM      8  C   UNL A   1      35.001  23.715  24.894  1.00  0.00     0.032 C 
ATOM      9  C   UNL A   1      33.693  23.128  25.439  1.00  0.00     0.094 C 
ATOM     10  N   UNL A   1      33.260  21.966  24.671  1.00  0.00    -0.339 N 
ATOM     11  C   UNL A   1      31.748  23.708  24.047  1.00  0.00     0.037 C 
ATOM     12  C   UNL A   1      32.364  22.388  23.605  1.00  0.00     0.120 C 
BRANCH  10  13
ATOM     13  C   UNL A   1      33.607  20.637  24.755  1.00  0.00     0.226 C 
ATOM     14  O   UNL A   1      34.799  20.348  24.946  1.00  0.00    -0.275 OA
BRANCH  13  15
ATOM     15  C   UNL A   1      32.623  19.461  24.590  1.00  0.00     0.083 C 
ATOM     16  C   UNL A   1      32.430  18.911  23.178  1.00  0.00     0.040 C 
ATOM     17  C   UNL A   1      32.667  18.395  25.687  1.00  0.00     0.018 C 
ATOM     18  C   UNL A   1      32.982  17.538  22.941  1.00  0.00    -0.030 C 
ATOM     19  C   UNL A   1      33.446  17.121  25.361  1.00  0.00     0.028 C 
ATOM     20  C   UNL A   1      33.436  16.739  23.915  1.00  0.00    -0.031 C 
ENDBRANCH  13  15
ENDBRANCH  10  13
ENDBRANCH   4   7
ENDBRANCH   2   3
ENDBRANCH   1   2
BRANCH   1  21
ATOM     21  C   UNL A   1      33.473  28.717  26.443  1.00  0.00     0.118 C 
BRANCH  21  22
ATOM     22  N   UNL A   1      33.452  30.140  26.727  1.00  0.00    -0.352 N 
ATOM     23  C   UNL A   1      34.285  30.900  27.512  1.00  0.00     0.251 C 
ATOM     24  H   UNL A   1      32.725  30.639  26.288  1.00  0.00     0.163 HD
ATOM     25  O   UNL A   1      33.945  32.058  27.770  1.00  0.00    -0.269 OA
BRANCH  23  26
ATOM     26  C   UNL A   1      35.551  30.362  28.070  1.00  0.00     0.039 A 
ATOM     27  C   UNL A   1      36.708  30.430  27.284  1.00  0.00     0.014 A 
ATOM     28  C   UNL A   1      35.613  29.734  29.316  1.00  0.00     0.014 A 
ATOM     29  C   UNL A   1      37.918  29.917  27.763  1.00  0.00     0.010 A 
ATOM     30  C   UNL A   1      36.839  29.299  29.830  1.00  0.00     0.010 A 
ATOM     31  C   UNL A   1      38.004  29.368  29.053  1.00  0.00    -0.014 A 
BRANCH  31  32
ATOM     32  C   UNL A   1      39.295  28.837  29.577  1.00  0.00     0.031 A 
ATOM     33  C   UNL A   1      39.970  29.498  30.753  1.00  0.00     0.074 A 
ATOM     34  C   UNL A   1      39.881  27.780  28.980  1.00  0.00     0.049 A 
ATOM     35  N   UNL A   1      41.111  29.205  31.328  1.00  0.00    -0.248 NA
ATOM     36  C   UNL A   1      39.286  30.659  31.340  1.00  0.00     0.031 C 
ATOM     37  C   UNL A   1      39.359  27.077  27.806  1.00  0.00     0.029 A 
ATOM     38  N   UNL A   1      41.045  27.114  29.274  1.00  0.00    -0.354 N 
ATOM     39  C   UNL A   1      41.285  30.151  32.333  1.00  0.00     0.074 A 
ATOM     40  C   UNL A   1      40.165  31.064  32.243  1.00  0.00     0.031 C 
ATOM     41  C   UNL A   1      40.186  26.066  27.496  1.00  0.00     0.029 A 
ATOM     42  C   UNL A   1      41.315  26.068  28.421  1.00  0.00     0.049 A 
ATOM     43  H   UNL A   1      41.632  27.361  30.024  1.00  0.00     0.167 HD
ATOM     44  C   UNL A   1      42.270  30.238  33.264  1.00  0.00     0.034 A 
ATOM     45  C   UNL A   1      42.354  25.210  28.382  1.00  0.00     0.034 A 
ATOM     46  C   UNL A   1      43.375  29.315  33.356  1.00  0.00     0.049 A 
ATOM     47  C   UNL A   1      43.436  25.322  29.425  1.00  0.00     0.074 A 
ATOM     48  C   UNL A   1      44.400  29.282  34.289  1.00  0.00     0.029 A 
ATOM     49  N   UNL A   1      43.607  28.259  32.482  1.00  0.00    -0.354 N 
ATOM     50  N   UNL A   1      43.560  26.194  30.398  1.00  0.00    -0.248 NA
ATOM     51  C   UNL A   1      44.510  24.321  29.372  1.00  0.00     0.031 C 
ATOM     52  C   UNL A   1      45.279  28.248  33.944  1.00  0.00     0.029 A 
ATOM     53  C   UNL A   1      44.769  27.588  32.838  1.00  0.00     0.049 A 
ATOM     54  H   UNL A   1      43.031  28.022  31.720  1.00  0.00     0.167 HD
ATOM     55  C   UNL A   1      44.716  25.834  31.086  1.00  0.00     0.074 A 
ATOM     56  C   UNL A   1      45.238  24.652  30.429  1.00  0.00     0.031 C 
ATOM     57  C   UNL A   1      45.293  26.424  32.163  1.00  0.00     0.034 A 
BRANCH  44  58
ATOM     58  C   UNL A   1      42.197  31.389  34.243  1.00  0.00     0.023 A 
ATOM     59  C   UNL A   1      41.303  31.378  35.328  1.00  0.00     0.031 A 
ATOM     60  C   UNL A   1      43.005  32.526  34.069  1.00  0.00     0.131 A 
ATOM     61  C   UNL A   1      41.175  32.513  36.143  1.00  0.00     0.055 A 
ATOM     62  C   UNL A   1      42.934  33.619  34.937  1.00  0.00     0.041 A 
ATOM     63  F   UNL A   1      43.866  32.605  33.042  1.00  0.00    -0.206 F 
ATOM     64  C   UNL A   1      42.003  33.624  35.971  1.00  0.00     0.022 A 
BRANCH  61  65
ATOM     65  S   UNL A   1      39.808  32.574  37.333  1.00  0.00     0.124 S 
ATOM     66  O   UNL A   1      39.219  33.877  37.037  1.00  0.00    -0.237 OA
ATOM     67  O   UNL A   1      39.010  31.411  36.956  1.00  0.00    -0.237 OA
ATOM     68  O   UNL A   1      40.475  32.479  38.628  1.00  0.00    -0.744 OA
ENDBRANCH  61  65
ENDBRANCH  44  58
BRANCH  45  69
ATOM     69  C   UNL A   1      42.432  24.173  27.316  1.00  0.00     0.023 A 
ATOM     70  C   UNL A   1      41.611  23.034  27.347  1.00  0.00     0.031 A 
ATOM     71  C   UNL A   1      43.358  24.292  26.264  1.00  0.00     0.131 A 
ATOM     72  C   UNL A   1      41.760  22.038  26.369  1.00  0.00     0.055 A 
ATOM     73  C   UNL A   1      43.469  23.321  25.266  1.00  0.00     0.041 A 
ATOM     74  F   UNL A   1      44.161  25.365  26.184  1.00  0.00    -0.206 F 
ATOM     75  C   UNL A   1      42.675  22.180  25.323  1.00  0.00     0.022 A 
BRANCH  72  76
ATOM     76  S   UNL A   1      40.787  20.516  26.524  1.00  0.00     0.124 S 
ATOM     77  O   UNL A   1      41.504  19.612  25.631  1.00  0.00    -0.237 OA
ATOM     78  O   UNL A   1      40.897  20.230  27.951  1.00  0.00    -0.237 OA
ATOM     79  O   UNL A   1      39.456  20.915  26.072  1.00  0.00    -0.744 OA
ENDBRANCH  72  76
ENDBRANCH  45  69
BRANCH  57  80
ATOM     80  C   UNL A   1      46.540  25.773  32.711  1.00  0.00     0.023 A 
ATOM     81  C   UNL A   1      47.785  25.912  32.074  1.00  0.00     0.031 A 
ATOM     82  C   UNL A   1      46.475  24.979  33.870  1.00  0.00     0.131 A 
ATOM     83  C   UNL A   1      48.903  25.216  32.562  1.00  0.00     0.055 A 
ATOM     84  C   UNL A   1      47.601  24.337  34.384  1.00  0.00     0.041 A 
ATOM     85  F   UNL A   1      45.311  24.810  34.518  1.00  0.00    -0.206 F 
ATOM     86  C   UNL A   1      48.822  24.441  33.721  1.00  0.00     0.022 A 
BRANCH  83  87
ATOM     87  S   UNL A   1      50.441  25.258  31.602  1.00  0.00     0.124 S 
ATOM     88  O   UNL A   1      50.920  23.885  31.734  1.00  0.00    -0.237 OA
ATOM     89  O   UNL A   1      49.973  25.645  30.276  1.00  0.00    -0.237 OA
ATOM     90  O   UNL A   1      51.248  26.263  32.291  1.00  0.00    -0.744 OA
ENDBRANCH  83  87
ENDBRANCH  57  80
ENDBRANCH  31  32
ENDBRANCH  23  26
ENDBRANCH  21  22
ENDBRANCH   1  21
TORSDOF 15
ENDMDL
MODEL 2
REMARK VINA RESULT:     -12.1      2.028      2.748
REMARK SMILES C[C@H]1[C@H](C(=O)NCCCNC(=O)c2ccc(-c3c4nc(c(-c5cc(S(=O)(=O)[O-])ccc5F)c5ccc([nH]5)c(-c5cc(S(=O)(=O)[O-])ccc5F)c5nc(c(-c6cc(S(=O)(=O)[O-])ccc6F)c6ccc3[nH]6)C=C5)C=C4)cc2)CCN1C(=O)[C@H]1CC=CCC1
REMARK SMILES IDX 8 1 7 2 6 3 4 4 5 5 3 7 1 8 2 9 78 10 76 11 77 12 79 13
REMARK SMILES IDX 80 14 81 15 82 16 86 17 83 18 85 19 84 20 9 21 10 22 11 23
REMARK SMILES IDX 12 25 13 26 14 27 75 28 15 29 74 30 16 31 17 32 18 33 68 34
REMARK SMILES IDX 19 35 73 36 67 37 69 38 20 39 72 40 66 41 65 42 21 44 53 45
REMARK SMILES IDX 33 46 52 47 34 48 37 49 51 50 70 51 35 52 36 53 50 55 71 56
REMARK SMILES IDX 38 57 22 58 23 59 31 60 24 61 30 62 32 63 29 64 25 65 26 66
REMARK SMILES IDX 27 67 28 68 54 69 55 70 63 71 56 72 62 73 64 74 61 75 57 76
REMARK SMILES IDX 58 77 59 78 60 79 39 80 40 81 48 82 41 83 47 84 49 85 46 86
REMARK SMILES IDX 42 87 43 88 44 89 45 90
REMARK H PARENT 6 6 10 24 69 43 37 54
REMARK Flexibility Score: inf
ROOT
ATOM      1  C   UNL A   1      33.254  28.504  27.182  1.00  0.00     0.042 C 
ENDROOT
BRANCH   1   2
ATOM      2  C   UNL A   1      31.733  28.509  27.279  1.00  0.00     0.117 C 
BRANCH   2   3
ATOM      3  N   UNL A   1      31.163  27.170  27.268  1.00  0.00    -0.356 N 
ATOM      4  C   UNL A   1      30.728  26.359  26.276  1.00  0.00     0.225 C 
ATOM      5  O   UNL A   1      30.335  25.238  26.621  1.00  0.00    -0.275 OA
ATOM      6  H   UNL A   1      31.077  26.774  28.165  1.00  0.00     0.163 HD
BRANCH   4   7
ATOM      7  C   UNL A   1      30.651  26.744  24.808  1.00  0.00     0.102 C 
ATOM      8  C   UNL A   1      32.004  28.408  23.535  1.00  0.00     0.032 C 
ATOM      9  C   UNL A   1      32.033  27.022  24.193  1.00  0.00     0.094 C 
ATOM     10  N   UNL A   1      32.223  25.961  23.209  1.00  0.00    -0.339 N 
ATOM     11  C   UNL A   1      29.933  25.781  23.868  1.00  0.00     0.037 C 
ATOM     12  C   UNL A   1      30.929  25.472  22.758  1.00  0.00     0.120 C 
BRANCH  10  13
ATOM     13  C   UNL A   1      33.361  25.444  22.634  1.00  0.00     0.226 C 
ATOM     14  O   UNL A   1      33.647  25.789  21.476  1.00  0.00    -0.275 OA
BRANCH  13  15
ATOM     15  C   UNL A   1      34.302  24.427  23.310  1.00  0.00     0.083 C 
ATOM     16  C   UNL A   1      34.678  24.690  24.766  1.00  0.00     0.040 C 
ATOM     17  C   UNL A   1      34.045  22.955  22.976  1.00  0.00     0.018 C 
ATOM     18  C   UNL A   1      34.104  23.730  25.764  1.00  0.00    -0.030 C 
ATOM     19  C   UNL A   1      33.264  22.152  24.017  1.00  0.00     0.028 C 
ATOM     20  C   UNL A   1      33.473  22.598  25.429  1.00  0.00    -0.031 C 
ENDBRANCH  13  15
ENDBRANCH  10  13
ENDBRANCH   4   7
ENDBRANCH   2   3
ENDBRANCH   1   2
BRANCH   1  21
ATOM     21  C   UNL A   1      33.869  29.629  26.359  1.00  0.00     0.118 C 
BRANCH  21  22
ATOM     22  N   UNL A   1      33.740  30.924  26.999  1.00  0.00    -0.352 N 
ATOM     23  C   UNL A   1      34.463  31.484  28.024  1.00  0.00     0.251 C 
ATOM     24  H   UNL A   1      33.019  31.492  26.641  1.00  0.00     0.163 HD
ATOM     25  O   UNL A   1      34.034  32.519  28.543  1.00  0.00    -0.269 OA
BRANCH  23  26
ATOM     26  C   UNL A   1      35.714  30.869  28.534  1.00  0.00     0.039 A 
ATOM     27  C   UNL A   1      36.934  31.300  28.001  1.00  0.00     0.014 A 
ATOM     28  C   UNL A   1      35.711  29.833  29.473  1.00  0.00     0.014 A 
ATOM     29  C   UNL A   1      38.136  30.733  28.440  1.00  0.00     0.010 A 
ATOM     30  C   UNL A   1      36.915  29.327  29.972  1.00  0.00     0.010 A 
ATOM     31  C   UNL A   1      38.143  29.758  29.449  1.00  0.00    -0.014 A 
BRANCH  31  32
ATOM     32  C   UNL A   1      39.421  29.163  29.934  1.00  0.00     0.031 A 
ATOM     33  C   UNL A   1      40.134  29.755  31.124  1.00  0.00     0.074 A 
ATOM     34  C   UNL A   1      39.962  28.110  29.289  1.00  0.00     0.049 A 
ATOM     35  N   UNL A   1      41.272  29.401  31.671  1.00  0.00    -0.248 NA
ATOM     36  C   UNL A   1      39.499  30.915  31.764  1.00  0.00     0.031 C 
ATOM     37  C   UNL A   1      39.401  27.471  28.097  1.00  0.00     0.029 A 
ATOM     38  N   UNL A   1      41.107  27.394  29.540  1.00  0.00    -0.354 N 
ATOM     39  C   UNL A   1      41.492  30.301  32.709  1.00  0.00     0.074 A 
ATOM     40  C   UNL A   1      40.403  31.255  32.670  1.00  0.00     0.031 C 
ATOM     41  C   UNL A   1      40.189  26.446  27.736  1.00  0.00     0.029 A 
ATOM     42  C   UNL A   1      41.329  26.374  28.644  1.00  0.00     0.049 A 
ATOM     43  H   UNL A   1      41.711  27.592  30.290  1.00  0.00     0.167 HD
ATOM     44  C   UNL A   1      42.492  30.319  33.628  1.00  0.00     0.034 A 
ATOM     45  C   UNL A   1      42.337  25.483  28.558  1.00  0.00     0.034 A 
ATOM     46  C   UNL A   1      43.565  29.355  33.669  1.00  0.00     0.049 A 
ATOM     47  C   UNL A   1      43.436  25.518  29.588  1.00  0.00     0.074 A 
ATOM     48  C   UNL A   1      44.600  29.252  34.584  1.00  0.00     0.029 A 
ATOM     49  N   UNL A   1      43.749  28.327  32.752  1.00  0.00    -0.354 N 
ATOM     50  N   UNL A   1      43.603  26.347  30.592  1.00  0.00    -0.248 NA
ATOM     51  C   UNL A   1      44.474  24.483  29.482  1.00  0.00     0.031 C 
ATOM     52  C   UNL A   1      45.438  28.203  34.188  1.00  0.00     0.029 A 
ATOM     53  C   UNL A   1      44.891  27.603  33.066  1.00  0.00     0.049 A 
ATOM     54  H   UNL A   1      43.155  28.139  31.990  1.00  0.00     0.167 HD
ATOM     55  C   UNL A   1      44.755  25.921  31.249  1.00  0.00     0.074 A 
ATOM     56  C   UNL A   1      45.226  24.748  30.540  1.00  0.00     0.031 C 
ATOM     57  C   UNL A   1      45.366  26.449  32.339  1.00  0.00     0.034 A 
BRANCH  44  58
ATOM     58  C   UNL A   1      42.471  31.432  34.651  1.00  0.00     0.023 A 
ATOM     59  C   UNL A   1      41.529  31.458  35.694  1.00  0.00     0.031 A 
ATOM     60  C   UNL A   1      43.381  32.501  34.561  1.00  0.00     0.131 A 
ATOM     61  C   UNL A   1      41.461  32.567  36.551  1.00  0.00     0.055 A 
ATOM     62  C   UNL A   1      43.363  33.561  35.471  1.00  0.00     0.041 A 
ATOM     63  F   UNL A   1      44.294  32.543  33.577  1.00  0.00    -0.206 F 
ATOM     64  C   UNL A   1      42.388  33.608  36.463  1.00  0.00     0.022 A 
BRANCH  61  65
ATOM     65  S   UNL A   1      40.049  32.702  37.681  1.00  0.00     0.124 S 
ATOM     66  O   UNL A   1      39.129  31.716  37.121  1.00  0.00    -0.237 OA
ATOM     67  O   UNL A   1      40.643  32.362  38.971  1.00  0.00    -0.237 OA
ATOM     68  O   UNL A   1      39.625  34.092  37.537  1.00  0.00    -0.744 OA
ENDBRANCH  61  65
ENDBRANCH  44  58
BRANCH  45  69
ATOM     69  C   UNL A   1      42.365  24.485  27.451  1.00  0.00     0.023 A 
ATOM     70  C   UNL A   1      41.580  23.323  27.500  1.00  0.00     0.031 A 
ATOM     71  C   UNL A   1      43.209  24.667  26.341  1.00  0.00     0.131 A 
ATOM     72  C   UNL A   1      41.684  22.366  26.479  1.00  0.00     0.055 A 
ATOM     73  C   UNL A   1      43.272  23.735  25.303  1.00  0.00     0.041 A 
ATOM     74  F   UNL A   1      43.974  25.766  26.243  1.00  0.00    -0.206 F 
ATOM     75  C   UNL A   1      42.515  22.570  25.375  1.00  0.00     0.022 A 
BRANCH  72  76
ATOM     76  S   UNL A   1      40.765  20.811  26.647  1.00  0.00     0.124 S 
ATOM     77  O   UNL A   1      40.800  20.599  28.091  1.00  0.00    -0.237 OA
ATOM     78  O   UNL A   1      39.467  21.164  26.082  1.00  0.00    -0.237 OA
ATOM     79  O   UNL A   1      41.549  19.865  25.858  1.00  0.00    -0.744 OA
ENDBRANCH  72  76
ENDBRANCH  45  69
BRANCH  57  80
ATOM     80  C   UNL A   1      46.596  25.735  32.844  1.00  0.00     0.023 A 
ATOM     81  C   UNL A   1      46.516  24.728  33.821  1.00  0.00     0.031 A 
ATOM     82  C   UNL A   1      47.869  26.088  32.362  1.00  0.00     0.131 A 
ATOM     83  C   UNL A   1      47.690  24.153  34.332  1.00  0.00     0.055 A 
ATOM     84  C   UNL A   1      49.029  25.472  32.832  1.00  0.00     0.041 A 
ATOM     85  F   UNL A   1      48.006  27.045  31.430  1.00  0.00    -0.206 F 
ATOM     86  C   UNL A   1      48.945  24.508  33.834  1.00  0.00     0.022 A 
BRANCH  83  87
ATOM     87  S   UNL A   1      47.559  23.005  35.730  1.00  0.00     0.124 S 
ATOM     88  O   UNL A   1      47.910  23.860  36.860  1.00  0.00    -0.237 OA
ATOM     89  O   UNL A   1      46.165  22.582  35.660  1.00  0.00    -0.237 OA
ATOM     90  O   UNL A   1      48.538  21.966  35.413  1.00  0.00    -0.744 OA
ENDBRANCH  83  87
ENDBRANCH  57  80
ENDBRANCH  31  32
ENDBRANCH  23  26
ENDBRANCH  21  22
ENDBRANCH   1  21
TORSDOF 15
ENDMDL
MODEL 3
REMARK VINA RESULT:     -12.1      2.897      4.670
REMARK SMILES C[C@H]1[C@H](C(=O)NCCCNC(=O)c2ccc(-c3c4nc(c(-c5cc(S(=O)(=O)[O-])ccc5F)c5ccc([nH]5)c(-c5cc(S(=O)(=O)[O-])ccc5F)c5nc(c(-c6cc(S(=O)(=O)[O-])ccc6F)c6ccc3[nH]6)C=C5)C=C4)cc2)CCN1C(=O)[C@H]1CC=CCC1
REMARK SMILES IDX 8 1 7 2 6 3 4 4 5 5 3 7 1 8 2 9 78 10 76 11 77 12 79 13
REMARK SMILES IDX 80 14 81 15 82 16 86 17 83 18 85 19 84 20 9 21 10 22 11 23
REMARK SMILES IDX 12 25 13 26 14 27 75 28 15 29 74 30 16 31 17 32 18 33 68 34
REMARK SMILES IDX 19 35 73 36 67 37 69 38 20 39 72 40 66 41 65 42 21 44 53 45
REMARK SMILES IDX 33 46 52 47 34 48 37 49 51 50 70 51 35 52 36 53 50 55 71 56
REMARK SMILES IDX 38 57 22 58 23 59 31 60 24 61 30 62 32 63 29 64 25 65 26 66
REMARK SMILES IDX 27 67 28 68 54 69 55 70 63 71 56 72 62 73 64 74 61 75 57 76
REMARK SMILES IDX 58 77 59 78 60 79 39 80 40 81 48 82 41 83 47 84 49 85 46 86
REMARK SMILES IDX 42 87 43 88 44 89 45 90
REMARK H PARENT 6 6 10 24 69 43 37 54
REMARK Flexibility Score: inf
ROOT
ATOM      1  C   UNL A   1      33.163  29.163  25.430  1.00  0.00     0.042 C 
ENDROOT
BRANCH   1   2
ATOM      2  C   UNL A   1      33.355  27.701  25.046  1.00  0.00     0.117 C 
BRANCH   2   3
ATOM      3  N   UNL A   1      32.600  26.791  25.895  1.00  0.00    -0.356 N 
ATOM      4  C   UNL A   1      31.542  25.979  25.668  1.00  0.00     0.225 C 
ATOM      5  O   UNL A   1      31.168  25.289  26.625  1.00  0.00    -0.275 OA
ATOM      6  H   UNL A   1      32.926  26.761  26.823  1.00  0.00     0.163 HD
BRANCH   4   7
ATOM      7  C   UNL A   1      30.774  25.895  24.360  1.00  0.00     0.102 C 
ATOM      8  C   UNL A   1      28.401  26.492  23.876  1.00  0.00     0.032 C 
ATOM      9  C   UNL A   1      29.793  27.065  24.169  1.00  0.00     0.094 C 
ATOM     10  N   UNL A   1      30.320  27.812  23.032  1.00  0.00    -0.339 N 
ATOM     11  C   UNL A   1      31.589  25.787  23.075  1.00  0.00     0.037 C 
ATOM     12  C   UNL A   1      31.109  26.928  22.187  1.00  0.00     0.120 C 
BRANCH  10  13
ATOM     13  C   UNL A   1      30.135  29.115  22.632  1.00  0.00     0.226 C 
ATOM     14  O   UNL A   1      31.077  29.703  22.077  1.00  0.00    -0.275 OA
BRANCH  13  15
ATOM     15  C   UNL A   1      28.843  29.927  22.856  1.00  0.00     0.083 C 
ATOM     16  C   UNL A   1      28.941  31.153  23.761  1.00  0.00     0.040 C 
ATOM     17  C   UNL A   1      27.951  30.116  21.626  1.00  0.00     0.018 C 
ATOM     18  C   UNL A   1      28.794  32.476  23.073  1.00  0.00    -0.030 C 
ATOM     19  C   UNL A   1      28.064  31.461  20.909  1.00  0.00     0.028 C 
ATOM     20  C   UNL A   1      28.402  32.613  21.800  1.00  0.00    -0.031 C 
ENDBRANCH  13  15
ENDBRANCH  10  13
ENDBRANCH   4   7
ENDBRANCH   2   3
ENDBRANCH   1   2
BRANCH   1  21
ATOM     21  C   UNL A   1      33.320  29.487  26.910  1.00  0.00     0.118 C 
BRANCH  21  22
ATOM     22  N   UNL A   1      33.411  30.912  27.164  1.00  0.00    -0.352 N 
ATOM     23  C   UNL A   1      34.318  31.624  27.911  1.00  0.00     0.251 C 
ATOM     24  H   UNL A   1      32.712  31.455  26.732  1.00  0.00     0.163 HD
ATOM     25  O   UNL A   1      34.072  32.809  28.153  1.00  0.00    -0.269 OA
BRANCH  23  26
ATOM     26  C   UNL A   1      35.555  31.005  28.449  1.00  0.00     0.039 A 
ATOM     27  C   UNL A   1      36.791  31.495  28.012  1.00  0.00     0.014 A 
ATOM     28  C   UNL A   1      35.528  29.911  29.320  1.00  0.00     0.014 A 
ATOM     29  C   UNL A   1      37.982  30.928  28.479  1.00  0.00     0.010 A 
ATOM     30  C   UNL A   1      36.716  29.401  29.851  1.00  0.00     0.010 A 
ATOM     31  C   UNL A   1      37.959  29.890  29.424  1.00  0.00    -0.014 A 
BRANCH  31  32
ATOM     32  C   UNL A   1      39.224  29.294  29.940  1.00  0.00     0.031 A 
ATOM     33  C   UNL A   1      39.896  29.868  31.162  1.00  0.00     0.074 A 
ATOM     34  C   UNL A   1      39.791  28.254  29.295  1.00  0.00     0.049 A 
ATOM     35  N   UNL A   1      41.017  29.511  31.739  1.00  0.00    -0.248 NA
ATOM     36  C   UNL A   1      39.235  31.015  31.800  1.00  0.00     0.031 C 
ATOM     37  C   UNL A   1      39.272  27.632  28.076  1.00  0.00     0.029 A 
ATOM     38  N   UNL A   1      40.931  27.539  29.572  1.00  0.00    -0.354 N 
ATOM     39  C   UNL A   1      41.200  30.395  32.798  1.00  0.00     0.074 A 
ATOM     40  C   UNL A   1      40.108  31.344  32.740  1.00  0.00     0.031 C 
ATOM     41  C   UNL A   1      40.076  26.616  27.724  1.00  0.00     0.029 A 
ATOM     42  C   UNL A   1      41.187  26.534  28.667  1.00  0.00     0.049 A 
ATOM     43  H   UNL A   1      41.510  27.727  30.344  1.00  0.00     0.167 HD
ATOM     44  C   UNL A   1      42.169  30.402  33.749  1.00  0.00     0.034 A 
ATOM     45  C   UNL A   1      42.202  25.649  28.599  1.00  0.00     0.034 A 
ATOM     46  C   UNL A   1      43.246  29.443  33.809  1.00  0.00     0.049 A 
ATOM     47  C   UNL A   1      43.267  25.672  29.664  1.00  0.00     0.074 A 
ATOM     48  C   UNL A   1      44.251  29.329  34.755  1.00  0.00     0.029 A 
ATOM     49  N   UNL A   1      43.464  28.431  32.881  1.00  0.00    -0.354 N 
ATOM     50  N   UNL A   1      43.397  26.486  30.686  1.00  0.00    -0.248 NA
ATOM     51  C   UNL A   1      44.313  24.645  29.574  1.00  0.00     0.031 C 
ATOM     52  C   UNL A   1      45.107  28.291  34.369  1.00  0.00     0.029 A 
ATOM     53  C   UNL A   1      44.600  27.707  33.220  1.00  0.00     0.049 A 
ATOM     54  H   UNL A   1      42.896  28.253  32.098  1.00  0.00     0.167 HD
ATOM     55  C   UNL A   1      44.530  26.054  31.372  1.00  0.00     0.074 A 
ATOM     56  C   UNL A   1      45.030  24.896  30.660  1.00  0.00     0.031 C 
ATOM     57  C   UNL A   1      45.103  26.567  32.490  1.00  0.00     0.034 A 
BRANCH  44  58
ATOM     58  C   UNL A   1      42.111  31.499  34.789  1.00  0.00     0.023 A 
ATOM     59  C   UNL A   1      41.137  31.502  35.804  1.00  0.00     0.031 A 
ATOM     60  C   UNL A   1      43.015  32.575  34.743  1.00  0.00     0.131 A 
ATOM     61  C   UNL A   1      41.036  32.596  36.676  1.00  0.00     0.055 A 
ATOM     62  C   UNL A   1      42.963  33.620  35.669  1.00  0.00     0.041 A 
ATOM     63  F   UNL A   1      43.956  32.639  33.788  1.00  0.00    -0.206 F 
ATOM     64  C   UNL A   1      41.957  33.644  36.632  1.00  0.00     0.022 A 
BRANCH  61  65
ATOM     65  S   UNL A   1      39.590  32.703  37.765  1.00  0.00     0.124 S 
ATOM     66  O   UNL A   1      39.097  34.045  37.469  1.00  0.00    -0.237 OA
ATOM     67  O   UNL A   1      38.759  31.598  37.295  1.00  0.00    -0.237 OA
ATOM     68  O   UNL A   1      40.153  32.535  39.102  1.00  0.00    -0.744 OA
ENDBRANCH  61  65
ENDBRANCH  44  58
BRANCH  45  69
ATOM     69  C   UNL A   1      42.270  24.670  27.477  1.00  0.00     0.023 A 
ATOM     70  C   UNL A   1      41.504  23.494  27.491  1.00  0.00     0.031 A 
ATOM     71  C   UNL A   1      43.134  24.884  26.388  1.00  0.00     0.131 A 
ATOM     72  C   UNL A   1      41.646  22.555  26.458  1.00  0.00     0.055 A 
ATOM     73  C   UNL A   1      43.235  23.970  25.338  1.00  0.00     0.041 A 
ATOM     74  F   UNL A   1      43.882  25.997  26.324  1.00  0.00    -0.206 F 
ATOM     75  C   UNL A   1      42.497  22.791  25.376  1.00  0.00     0.022 A 
BRANCH  72  76
ATOM     76  S   UNL A   1      40.751  20.983  26.582  1.00  0.00     0.124 S 
ATOM     77  O   UNL A   1      39.443  21.341  26.044  1.00  0.00    -0.237 OA
ATOM     78  O   UNL A   1      41.567  20.103  25.752  1.00  0.00    -0.237 OA
ATOM     79  O   UNL A   1      40.778  20.688  28.013  1.00  0.00    -0.744 OA
ENDBRANCH  72  76
ENDBRANCH  45  69
BRANCH  57  80
ATOM     80  C   UNL A   1      46.320  25.851  33.023  1.00  0.00     0.023 A 
ATOM     81  C   UNL A   1      46.207  24.742  33.880  1.00  0.00     0.031 A 
ATOM     82  C   UNL A   1      47.610  26.302  32.692  1.00  0.00     0.131 A 
ATOM     83  C   UNL A   1      47.361  24.161  34.428  1.00  0.00     0.055 A 
ATOM     84  C   UNL A   1      48.756  25.684  33.194  1.00  0.00     0.041 A 
ATOM     85  F   UNL A   1      47.777  27.358  31.880  1.00  0.00    -0.206 F 
ATOM     86  C   UNL A   1      48.635  24.615  34.079  1.00  0.00     0.022 A 
BRANCH  83  87
ATOM     87  S   UNL A   1      47.172  22.865  35.682  1.00  0.00     0.124 S 
ATOM     88  O   UNL A   1      47.830  21.728  35.047  1.00  0.00    -0.237 OA
ATOM     89  O   UNL A   1      47.860  23.440  36.833  1.00  0.00    -0.237 OA
ATOM     90  O   UNL A   1      45.722  22.738  35.828  1.00  0.00    -0.744 OA
ENDBRANCH  83  87
ENDBRANCH  57  80
ENDBRANCH  31  32
ENDBRANCH  23  26
ENDBRANCH  21  22
ENDBRANCH   1  21
TORSDOF 15
ENDMDL
