MODEL 1
REMARK VINA RESULT:     -14.4      0.000      0.000
REMARK SMILES Cc1c(CC(=O)NCCCNC(=O)c2ccc(-c3c4nc(c(-c5cc(S(=O)(=O)[O-])ccc5F)c5ccc([nH]5)c(-c5cc(S(=O)(=O)[O-])ccc5F)c5nc(c(-c6cc(S(=O)(=O)[O-])ccc6F)c6ccc3[nH]6)C=C5)C=C4)cc2)cc(-c2ccc(S(C)(=O)=O)cc2)n1-c1ccccc1
REMARK SMILES IDX 9 1 8 2 7 3 5 4 6 5 4 7 3 8 1 9 2 10 89 11 77 12 78 13 90 14
REMARK SMILES IDX 91 15 95 16 92 17 94 18 93 19 79 20 80 21 88 22 81 23 87 24
REMARK SMILES IDX 82 25 83 26 84 27 85 28 86 29 10 30 11 31 12 32 13 34 14 35
REMARK SMILES IDX 15 36 76 37 16 38 75 39 17 40 18 41 19 42 69 43 20 44 74 45
REMARK SMILES IDX 68 46 70 47 21 48 73 49 67 50 66 51 22 53 54 54 34 55 53 56
REMARK SMILES IDX 35 57 38 58 52 59 71 60 36 61 37 62 51 64 72 65 39 66 23 67
REMARK SMILES IDX 24 68 32 69 25 70 31 71 33 72 30 73 26 74 27 75 28 76 29 77
REMARK SMILES IDX 55 78 56 79 64 80 57 81 63 82 65 83 62 84 58 85 59 86 60 87
REMARK SMILES IDX 61 88 40 89 41 90 49 91 42 92 48 93 50 94 47 95 43 96 44 97
REMARK SMILES IDX 45 98 46 99
REMARK H PARENT 7 6 11 33 70 52 38 63
REMARK Flexibility Score: inf
ROOT
ATOM      1  C   UNL A   1      32.627  30.592  26.717  1.00  0.00     0.042 C 
ENDROOT
BRANCH   1   2
ATOM      2  C   UNL A   1      31.833  29.276  26.769  1.00  0.00     0.117 C 
BRANCH   2   3
ATOM      3  N   UNL A   1      31.289  28.864  25.487  1.00  0.00    -0.356 N 
ATOM      4  C   UNL A   1      30.874  27.648  25.035  1.00  0.00     0.224 C 
ATOM      5  O   UNL A   1      30.465  27.580  23.872  1.00  0.00    -0.275 OA
ATOM      6  H   UNL A   1      31.205  29.592  24.830  1.00  0.00     0.163 HD
BRANCH   4   7
ATOM      7  C   UNL A   1      30.837  26.429  25.938  1.00  0.00     0.137 C 
BRANCH   7   8
ATOM      8  C   UNL A   1      31.799  25.344  25.566  1.00  0.00    -0.017 A 
ATOM      9  C   UNL A   1      34.022  26.666  25.472  1.00  0.00     0.065 C 
ATOM     10  C   UNL A   1      33.178  25.430  25.417  1.00  0.00     0.024 A 
ATOM     11  N   UNL A   1      33.665  24.162  25.109  1.00  0.00    -0.314 N 
ATOM     12  C   UNL A   1      31.435  24.013  25.239  1.00  0.00     0.033 A 
ATOM     13  C   UNL A   1      32.584  23.285  24.990  1.00  0.00     0.053 A 
BRANCH  11  14
ATOM     14  C   UNL A   1      35.029  23.799  24.954  1.00  0.00     0.046 A 
ATOM     15  C   UNL A   1      35.504  23.397  23.699  1.00  0.00     0.026 A 
ATOM     16  C   UNL A   1      35.872  23.779  26.071  1.00  0.00     0.026 A 
ATOM     17  C   UNL A   1      36.828  22.982  23.563  1.00  0.00     0.002 A 
ATOM     18  C   UNL A   1      37.192  23.348  25.927  1.00  0.00     0.002 A 
ATOM     19  C   UNL A   1      37.668  22.952  24.676  1.00  0.00     0.000 A 
ENDBRANCH  11  14
BRANCH  13  20
ATOM     20  C   UNL A   1      32.681  21.837  24.777  1.00  0.00    -0.001 A 
ATOM     21  C   UNL A   1      33.111  20.988  25.809  1.00  0.00     0.011 A 
ATOM     22  C   UNL A   1      32.321  21.283  23.542  1.00  0.00     0.011 A 
ATOM     23  C   UNL A   1      33.218  19.611  25.601  1.00  0.00     0.021 A 
ATOM     24  C   UNL A   1      32.426  19.906  23.325  1.00  0.00     0.021 A 
ATOM     25  C   UNL A   1      32.887  19.080  24.353  1.00  0.00     0.067 A 
BRANCH  25  26
ATOM     26  S   UNL A   1      33.023  17.330  24.086  1.00  0.00     0.175 S 
ATOM     27  C   UNL A   1      34.701  16.948  24.514  1.00  0.00     0.163 C 
ATOM     28  O   UNL A   1      32.147  16.684  25.056  1.00  0.00    -0.224 OA
ATOM     29  O   UNL A   1      32.867  17.082  22.670  1.00  0.00    -0.224 OA
ENDBRANCH  25  26
ENDBRANCH  13  20
ENDBRANCH   7   8
ENDBRANCH   4   7
ENDBRANCH   2   3
ENDBRANCH   1   2
BRANCH   1  30
ATOM     30  C   UNL A   1      33.920  30.673  27.556  1.00  0.00     0.118 C 
BRANCH  30  31
ATOM     31  N   UNL A   1      34.349  32.012  27.878  1.00  0.00    -0.352 N 
ATOM     32  C   UNL A   1      35.605  32.456  28.251  1.00  0.00     0.251 C 
ATOM     33  H   UNL A   1      33.653  32.705  27.823  1.00  0.00     0.163 HD
ATOM     34  O   UNL A   1      35.660  33.626  28.638  1.00  0.00    -0.269 OA
BRANCH  32  35
ATOM     35  C   UNL A   1      36.832  31.564  28.373  1.00  0.00     0.039 A 
ATOM     36  C   UNL A   1      36.802  30.439  27.589  1.00  0.00     0.014 A 
ATOM     37  C   UNL A   1      37.937  31.622  29.252  1.00  0.00     0.014 A 
ATOM     38  C   UNL A   1      37.863  29.485  27.639  1.00  0.00     0.010 A 
ATOM     39  C   UNL A   1      38.990  30.546  29.354  1.00  0.00     0.010 A 
ATOM     40  C   UNL A   1      39.002  29.395  28.543  1.00  0.00    -0.014 A 
BRANCH  40  41
ATOM     41  C   UNL A   1      39.914  27.926  28.525  1.00  0.00     0.031 A 
ATOM     42  C   UNL A   1      40.806  28.146  29.696  1.00  0.00     0.074 A 
ATOM     43  C   UNL A   1      40.363  26.764  27.825  1.00  0.00     0.049 A 
ATOM     44  N   UNL A   1      41.601  29.167  29.578  1.00  0.00    -0.248 NA
ATOM     45  C   UNL A   1      40.571  27.727  31.079  1.00  0.00     0.031 C 
ATOM     46  C   UNL A   1      40.139  26.380  26.414  1.00  0.00     0.029 A 
ATOM     47  N   UNL A   1      41.223  25.626  28.197  1.00  0.00    -0.354 N 
ATOM     48  C   UNL A   1      42.151  29.431  30.797  1.00  0.00     0.074 A 
ATOM     49  C   UNL A   1      41.380  28.594  31.719  1.00  0.00     0.031 C 
ATOM     50  C   UNL A   1      40.629  25.131  26.108  1.00  0.00     0.029 A 
ATOM     51  C   UNL A   1      41.316  24.496  27.245  1.00  0.00     0.049 A 
ATOM     52  H   UNL A   1      41.719  25.618  29.047  1.00  0.00     0.167 HD
ATOM     53  C   UNL A   1      43.481  29.713  30.740  1.00  0.00     0.034 A 
ATOM     54  C   UNL A   1      41.989  23.241  27.298  1.00  0.00     0.034 A 
ATOM     55  C   UNL A   1      44.219  28.489  30.929  1.00  0.00     0.049 A 
ATOM     56  C   UNL A   1      43.237  23.522  27.996  1.00  0.00     0.074 A 
ATOM     57  C   UNL A   1      44.027  27.412  31.778  1.00  0.00     0.029 A 
ATOM     58  N   UNL A   1      44.898  28.010  29.833  1.00  0.00    -0.354 N 
ATOM     59  N   UNL A   1      44.222  24.142  27.427  1.00  0.00    -0.248 NA
ATOM     60  C   UNL A   1      43.457  23.064  29.359  1.00  0.00     0.031 C 
ATOM     61  C   UNL A   1      44.067  26.292  30.919  1.00  0.00     0.029 A 
ATOM     62  C   UNL A   1      44.747  26.642  29.760  1.00  0.00     0.049 A 
ATOM     63  H   UNL A   1      45.413  28.560  29.200  1.00  0.00     0.167 HD
ATOM     64  C   UNL A   1      44.902  24.630  28.499  1.00  0.00     0.074 A 
ATOM     65  C   UNL A   1      44.575  23.745  29.608  1.00  0.00     0.031 C 
ATOM     66  C   UNL A   1      45.102  25.968  28.530  1.00  0.00     0.034 A 
BRANCH  53  67
ATOM     67  C   UNL A   1      43.808  30.762  29.675  1.00  0.00     0.023 A 
ATOM     68  C   UNL A   1      44.954  30.601  28.888  1.00  0.00     0.031 A 
ATOM     69  C   UNL A   1      43.094  31.981  29.522  1.00  0.00     0.131 A 
ATOM     70  C   UNL A   1      45.394  31.656  28.061  1.00  0.00     0.055 A 
ATOM     71  C   UNL A   1      43.583  33.052  28.776  1.00  0.00     0.041 A 
ATOM     72  F   UNL A   1      41.892  32.157  30.094  1.00  0.00    -0.206 F 
ATOM     73  C   UNL A   1      44.747  32.896  28.043  1.00  0.00     0.022 A 
BRANCH  70  74
ATOM     74  S   UNL A   1      46.803  31.369  26.959  1.00  0.00     0.124 S 
ATOM     75  O   UNL A   1      47.302  30.077  27.418  1.00  0.00    -0.237 OA
ATOM     76  O   UNL A   1      46.170  31.368  25.643  1.00  0.00    -0.237 OA
ATOM     77  O   UNL A   1      47.688  32.505  27.215  1.00  0.00    -0.744 OA
ENDBRANCH  70  74
ENDBRANCH  53  67
BRANCH  54  78
ATOM     78  C   UNL A   1      42.128  21.721  26.753  1.00  0.00     0.023 A 
ATOM     79  C   UNL A   1      43.200  21.246  25.853  1.00  0.00     0.031 A 
ATOM     80  C   UNL A   1      41.525  20.678  27.469  1.00  0.00     0.131 A 
ATOM     81  C   UNL A   1      43.607  19.863  25.754  1.00  0.00     0.055 A 
ATOM     82  C   UNL A   1      41.935  19.316  27.368  1.00  0.00     0.041 A 
ATOM     83  F   UNL A   1      40.586  20.950  28.386  1.00  0.00    -0.206 F 
ATOM     84  C   UNL A   1      42.977  18.907  26.536  1.00  0.00     0.022 A 
BRANCH  81  85
ATOM     85  S   UNL A   1      45.069  19.258  24.758  1.00  0.00     0.124 S 
ATOM     86  O   UNL A   1      45.356  17.956  25.346  1.00  0.00    -0.237 OA
ATOM     87  O   UNL A   1      44.561  19.261  23.390  1.00  0.00    -0.237 OA
ATOM     88  O   UNL A   1      46.103  20.269  25.006  1.00  0.00    -0.744 OA
ENDBRANCH  81  85
ENDBRANCH  54  78
BRANCH  66  89
ATOM     89  C   UNL A   1      45.530  26.669  27.246  1.00  0.00     0.023 A 
ATOM     90  C   UNL A   1      46.809  26.634  26.634  1.00  0.00     0.031 A 
ATOM     91  C   UNL A   1      44.556  27.464  26.615  1.00  0.00     0.131 A 
ATOM     92  C   UNL A   1      47.060  27.367  25.453  1.00  0.00     0.055 A 
ATOM     93  C   UNL A   1      44.788  28.143  25.422  1.00  0.00     0.041 A 
ATOM     94  F   UNL A   1      43.331  27.583  27.154  1.00  0.00    -0.206 F 
ATOM     95  C   UNL A   1      46.046  28.104  24.839  1.00  0.00     0.022 A 
BRANCH  92  96
ATOM     96  S   UNL A   1      48.736  27.431  24.729  1.00  0.00     0.124 S 
ATOM     97  O   UNL A   1      49.417  28.427  25.550  1.00  0.00    -0.237 OA
ATOM     98  O   UNL A   1      49.205  26.056  24.875  1.00  0.00    -0.237 OA
ATOM     99  O   UNL A   1      48.496  27.851  23.347  1.00  0.00    -0.744 OA
ENDBRANCH  92  96
ENDBRANCH  66  89
ENDBRANCH  40  41
ENDBRANCH  32  35
ENDBRANCH  30  31
ENDBRANCH   1  30
TORSDOF 17
ENDMDL
MODEL 2
REMARK VINA RESULT:     -12.8      3.030      5.429
REMARK SMILES Cc1c(CC(=O)NCCCNC(=O)c2ccc(-c3c4nc(c(-c5cc(S(=O)(=O)[O-])ccc5F)c5ccc([nH]5)c(-c5cc(S(=O)(=O)[O-])ccc5F)c5nc(c(-c6cc(S(=O)(=O)[O-])ccc6F)c6ccc3[nH]6)C=C5)C=C4)cc2)cc(-c2ccc(S(C)(=O)=O)cc2)n1-c1ccccc1
REMARK SMILES IDX 9 1 8 2 7 3 5 4 6 5 4 7 3 8 1 9 2 10 89 11 77 12 78 13 90 14
REMARK SMILES IDX 91 15 95 16 92 17 94 18 93 19 79 20 80 21 88 22 81 23 87 24
REMARK SMILES IDX 82 25 83 26 84 27 85 28 86 29 10 30 11 31 12 32 13 34 14 35
REMARK SMILES IDX 15 36 76 37 16 38 75 39 17 40 18 41 19 42 69 43 20 44 74 45
REMARK SMILES IDX 68 46 70 47 21 48 73 49 67 50 66 51 22 53 54 54 34 55 53 56
REMARK SMILES IDX 35 57 38 58 52 59 71 60 36 61 37 62 51 64 72 65 39 66 23 67
REMARK SMILES IDX 24 68 32 69 25 70 31 71 33 72 30 73 26 74 27 75 28 76 29 77
REMARK SMILES IDX 55 78 56 79 64 80 57 81 63 82 65 83 62 84 58 85 59 86 60 87
REMARK SMILES IDX 61 88 40 89 41 90 49 91 42 92 48 93 50 94 47 95 43 96 44 97
REMARK SMILES IDX 45 98 46 99
REMARK H PARENT 7 6 11 33 70 52 38 63
REMARK Flexibility Score: inf
ROOT
ATOM      1  C   UNL A   1      31.088  30.026  25.120  1.00  0.00     0.042 C 
ENDROOT
BRANCH   1   2
ATOM      2  C   UNL A   1      31.366  28.962  24.046  1.00  0.00     0.117 C 
BRANCH   2   3
ATOM      3  N   UNL A   1      30.234  28.095  23.768  1.00  0.00    -0.356 N 
ATOM      4  C   UNL A   1      29.828  26.931  24.347  1.00  0.00     0.224 C 
ATOM      5  O   UNL A   1      28.819  26.386  23.890  1.00  0.00    -0.275 OA
ATOM      6  H   UNL A   1      29.658  28.404  23.031  1.00  0.00     0.163 HD
BRANCH   4   7
ATOM      7  C   UNL A   1      30.534  26.353  25.561  1.00  0.00     0.137 C 
BRANCH   7   8
ATOM      8  C   UNL A   1      31.538  25.286  25.252  1.00  0.00    -0.017 A 
ATOM      9  C   UNL A   1      33.712  26.684  25.097  1.00  0.00     0.065 C 
ATOM     10  C   UNL A   1      32.915  25.416  25.105  1.00  0.00     0.024 A 
ATOM     11  N   UNL A   1      33.451  24.152  24.867  1.00  0.00    -0.314 N 
ATOM     12  C   UNL A   1      31.226  23.927  24.995  1.00  0.00     0.033 A 
ATOM     13  C   UNL A   1      32.403  23.231  24.791  1.00  0.00     0.053 A 
BRANCH  11  14
ATOM     14  C   UNL A   1      34.828  23.833  24.738  1.00  0.00     0.046 A 
ATOM     15  C   UNL A   1      35.338  23.439  23.494  1.00  0.00     0.026 A 
ATOM     16  C   UNL A   1      35.651  23.847  25.870  1.00  0.00     0.026 A 
ATOM     17  C   UNL A   1      36.676  23.066  23.384  1.00  0.00     0.002 A 
ATOM     18  C   UNL A   1      36.986  23.458  25.752  1.00  0.00     0.002 A 
ATOM     19  C   UNL A   1      37.497  23.070  24.512  1.00  0.00     0.000 A 
ENDBRANCH  11  14
BRANCH  13  20
ATOM     20  C   UNL A   1      32.555  21.777  24.655  1.00  0.00    -0.001 A 
ATOM     21  C   UNL A   1      32.918  20.990  25.759  1.00  0.00     0.011 A 
ATOM     22  C   UNL A   1      32.314  21.158  23.423  1.00  0.00     0.011 A 
ATOM     23  C   UNL A   1      33.079  19.609  25.627  1.00  0.00     0.021 A 
ATOM     24  C   UNL A   1      32.473  19.776  23.282  1.00  0.00     0.021 A 
ATOM     25  C   UNL A   1      32.868  19.012  24.383  1.00  0.00     0.067 A 
BRANCH  25  26
ATOM     26  S   UNL A   1      33.070  17.256  24.212  1.00  0.00     0.175 S 
ATOM     27  C   UNL A   1      34.769  16.966  24.632  1.00  0.00     0.163 C 
ATOM     28  O   UNL A   1      32.236  16.631  25.232  1.00  0.00    -0.224 OA
ATOM     29  O   UNL A   1      32.904  16.922  22.816  1.00  0.00    -0.224 OA
ENDBRANCH  25  26
ENDBRANCH  13  20
ENDBRANCH   7   8
ENDBRANCH   4   7
ENDBRANCH   2   3
ENDBRANCH   1   2
BRANCH   1  30
ATOM     30  C   UNL A   1      32.016  30.047  26.353  1.00  0.00     0.118 C 
BRANCH  30  31
ATOM     31  N   UNL A   1      32.432  31.362  26.775  1.00  0.00    -0.352 N 
ATOM     32  C   UNL A   1      33.613  31.747  27.384  1.00  0.00     0.251 C 
ATOM     33  H   UNL A   1      31.787  32.085  26.606  1.00  0.00     0.163 HD
ATOM     34  O   UNL A   1      33.642  32.908  27.797  1.00  0.00    -0.269 OA
BRANCH  32  35
ATOM     35  C   UNL A   1      34.758  30.801  27.714  1.00  0.00     0.039 A 
ATOM     36  C   UNL A   1      35.938  31.421  28.041  1.00  0.00     0.014 A 
ATOM     37  C   UNL A   1      34.859  29.395  27.614  1.00  0.00     0.014 A 
ATOM     38  C   UNL A   1      37.111  30.660  28.325  1.00  0.00     0.010 A 
ATOM     39  C   UNL A   1      36.140  28.625  27.820  1.00  0.00     0.010 A 
ATOM     40  C   UNL A   1      37.357  29.231  28.185  1.00  0.00    -0.014 A 
BRANCH  40  41
ATOM     41  C   UNL A   1      38.996  28.693  28.312  1.00  0.00     0.031 A 
ATOM     42  C   UNL A   1      39.091  28.455  29.777  1.00  0.00     0.074 A 
ATOM     43  C   UNL A   1      40.307  28.596  27.750  1.00  0.00     0.049 A 
ATOM     44  N   UNL A   1      38.912  29.517  30.505  1.00  0.00    -0.248 NA
ATOM     45  C   UNL A   1      38.854  27.196  30.488  1.00  0.00     0.031 C 
ATOM     46  C   UNL A   1      40.826  29.166  26.489  1.00  0.00     0.029 A 
ATOM     47  N   UNL A   1      41.568  27.995  28.221  1.00  0.00    -0.354 N 
ATOM     48  C   UNL A   1      38.741  29.131  31.801  1.00  0.00     0.074 A 
ATOM     49  C   UNL A   1      38.582  27.677  31.716  1.00  0.00     0.031 C 
ATOM     50  C   UNL A   1      42.116  28.777  26.209  1.00  0.00     0.029 A 
ATOM     51  C   UNL A   1      42.696  27.931  27.264  1.00  0.00     0.049 A 
ATOM     52  H   UNL A   1      41.659  27.651  29.138  1.00  0.00     0.167 HD
ATOM     53  C   UNL A   1      39.416  29.910  32.690  1.00  0.00     0.034 A 
ATOM     54  C   UNL A   1      44.008  27.381  27.353  1.00  0.00     0.034 A 
ATOM     55  C   UNL A   1      40.710  29.321  32.927  1.00  0.00     0.049 A 
ATOM     56  C   UNL A   1      44.421  27.638  28.728  1.00  0.00     0.074 A 
ATOM     57  C   UNL A   1      41.116  28.007  33.086  1.00  0.00     0.029 A 
ATOM     58  N   UNL A   1      41.793  30.010  32.434  1.00  0.00    -0.354 N 
ATOM     59  N   UNL A   1      44.775  28.816  29.134  1.00  0.00    -0.248 NA
ATOM     60  C   UNL A   1      44.511  26.561  29.700  1.00  0.00     0.031 C 
ATOM     61  C   UNL A   1      42.176  27.866  32.165  1.00  0.00     0.029 A 
ATOM     62  C   UNL A   1      42.689  29.124  31.877  1.00  0.00     0.049 A 
ATOM     63  H   UNL A   1      41.911  30.987  32.475  1.00  0.00     0.167 HD
ATOM     64  C   UNL A   1      44.570  28.723  30.475  1.00  0.00     0.074 A 
ATOM     65  C   UNL A   1      44.680  27.306  30.792  1.00  0.00     0.031 C 
ATOM     66  C   UNL A   1      43.739  29.639  31.025  1.00  0.00     0.034 A 
BRANCH  53  67
ATOM     67  C   UNL A   1      39.177  31.403  32.453  1.00  0.00     0.023 A 
ATOM     68  C   UNL A   1      38.375  32.116  33.352  1.00  0.00     0.031 A 
ATOM     69  C   UNL A   1      39.602  32.095  31.288  1.00  0.00     0.131 A 
ATOM     70  C   UNL A   1      37.960  33.427  33.038  1.00  0.00     0.055 A 
ATOM     71  C   UNL A   1      39.115  33.354  30.939  1.00  0.00     0.041 A 
ATOM     72  F   UNL A   1      40.513  31.562  30.457  1.00  0.00    -0.206 F 
ATOM     73  C   UNL A   1      38.280  34.028  31.815  1.00  0.00     0.022 A 
BRANCH  70  74
ATOM     74  S   UNL A   1      37.035  34.368  34.279  1.00  0.00     0.124 S 
ATOM     75  O   UNL A   1      36.242  35.277  33.456  1.00  0.00    -0.237 OA
ATOM     76  O   UNL A   1      36.282  33.320  34.963  1.00  0.00    -0.237 OA
ATOM     77  O   UNL A   1      38.076  35.005  35.085  1.00  0.00    -0.744 OA
ENDBRANCH  70  74
ENDBRANCH  53  67
BRANCH  54  78
ATOM     78  C   UNL A   1      45.330  26.826  26.599  1.00  0.00     0.023 A 
ATOM     79  C   UNL A   1      46.697  26.860  27.162  1.00  0.00     0.031 A 
ATOM     80  C   UNL A   1      45.189  25.867  25.586  1.00  0.00     0.131 A 
ATOM     81  C   UNL A   1      47.757  25.973  26.741  1.00  0.00     0.055 A 
ATOM     82  C   UNL A   1      46.240  24.994  25.179  1.00  0.00     0.041 A 
ATOM     83  F   UNL A   1      43.990  25.656  25.026  1.00  0.00    -0.206 F 
ATOM     84  C   UNL A   1      47.508  25.027  25.758  1.00  0.00     0.022 A 
BRANCH  81  85
ATOM     85  S   UNL A   1      49.440  25.876  27.550  1.00  0.00     0.124 S 
ATOM     86  O   UNL A   1      49.184  26.346  28.906  1.00  0.00    -0.237 OA
ATOM     87  O   UNL A   1      49.798  24.469  27.402  1.00  0.00    -0.237 OA
ATOM     88  O   UNL A   1      50.267  26.784  26.747  1.00  0.00    -0.744 OA
ENDBRANCH  81  85
ENDBRANCH  54  78
BRANCH  66  89
ATOM     89  C   UNL A   1      43.873  31.095  30.593  1.00  0.00     0.023 A 
ATOM     90  C   UNL A   1      44.629  32.112  31.229  1.00  0.00     0.031 A 
ATOM     91  C   UNL A   1      43.141  31.477  29.455  1.00  0.00     0.131 A 
ATOM     92  C   UNL A   1      44.629  33.430  30.721  1.00  0.00     0.055 A 
ATOM     93  C   UNL A   1      43.183  32.763  28.923  1.00  0.00     0.041 A 
ATOM     94  F   UNL A   1      42.367  30.582  28.819  1.00  0.00    -0.206 F 
ATOM     95  C   UNL A   1      43.922  33.750  29.560  1.00  0.00     0.022 A 
BRANCH  92  96
ATOM     96  S   UNL A   1      45.495  34.774  31.604  1.00  0.00     0.124 S 
ATOM     97  O   UNL A   1      46.889  34.582  31.221  1.00  0.00    -0.237 OA
ATOM     98  O   UNL A   1      44.850  35.975  31.080  1.00  0.00    -0.237 OA
ATOM     99  O   UNL A   1      45.213  34.495  33.014  1.00  0.00    -0.744 OA
ENDBRANCH  92  96
ENDBRANCH  66  89
ENDBRANCH  40  41
ENDBRANCH  32  35
ENDBRANCH  30  31
ENDBRANCH   1  30
TORSDOF 17
ENDMDL
MODEL 3
REMARK VINA RESULT:     -12.5      2.879      4.693
REMARK SMILES Cc1c(CC(=O)NCCCNC(=O)c2ccc(-c3c4nc(c(-c5cc(S(=O)(=O)[O-])ccc5F)c5ccc([nH]5)c(-c5cc(S(=O)(=O)[O-])ccc5F)c5nc(c(-c6cc(S(=O)(=O)[O-])ccc6F)c6ccc3[nH]6)C=C5)C=C4)cc2)cc(-c2ccc(S(C)(=O)=O)cc2)n1-c1ccccc1
REMARK SMILES IDX 9 1 8 2 7 3 5 4 6 5 4 7 3 8 1 9 2 10 89 11 77 12 78 13 90 14
REMARK SMILES IDX 91 15 95 16 92 17 94 18 93 19 79 20 80 21 88 22 81 23 87 24
REMARK SMILES IDX 82 25 83 26 84 27 85 28 86 29 10 30 11 31 12 32 13 34 14 35
REMARK SMILES IDX 15 36 76 37 16 38 75 39 17 40 18 41 19 42 69 43 20 44 74 45
REMARK SMILES IDX 68 46 70 47 21 48 73 49 67 50 66 51 22 53 54 54 34 55 53 56
REMARK SMILES IDX 35 57 38 58 52 59 71 60 36 61 37 62 51 64 72 65 39 66 23 67
REMARK SMILES IDX 24 68 32 69 25 70 31 71 33 72 30 73 26 74 27 75 28 76 29 77
REMARK SMILES IDX 55 78 56 79 64 80 57 81 63 82 65 83 62 84 58 85 59 86 60 87
REMARK SMILES IDX 61 88 40 89 41 90 49 91 42 92 48 93 50 94 47 95 43 96 44 97
REMARK SMILES IDX 45 98 46 99
REMARK H PARENT 7 6 11 33 70 52 38 63
REMARK Flexibility Score: inf
ROOT
ATOM      1  C   UNL A   1      32.571  29.182  25.714  1.00  0.00     0.042 C 
ENDROOT
BRANCH   1   2
ATOM      2  C   UNL A   1      33.152  27.904  25.087  1.00  0.00     0.117 C 
BRANCH   2   3
ATOM      3  N   UNL A   1      33.631  28.078  23.728  1.00  0.00    -0.356 N 
ATOM      4  C   UNL A   1      33.489  27.303  22.617  1.00  0.00     0.224 C 
ATOM      5  O   UNL A   1      34.026  27.692  21.575  1.00  0.00    -0.275 OA
ATOM      6  H   UNL A   1      34.148  28.904  23.583  1.00  0.00     0.163 HD
BRANCH   4   7
ATOM      7  C   UNL A   1      32.641  26.043  22.624  1.00  0.00     0.137 C 
BRANCH   7   8
ATOM      8  C   UNL A   1      33.255  24.878  23.336  1.00  0.00    -0.017 A 
ATOM      9  C   UNL A   1      31.199  23.330  23.613  1.00  0.00     0.065 C 
ATOM     10  C   UNL A   1      32.650  23.686  23.716  1.00  0.00     0.024 A 
ATOM     11  N   UNL A   1      33.615  22.875  24.310  1.00  0.00    -0.314 N 
ATOM     12  C   UNL A   1      34.592  24.826  23.805  1.00  0.00     0.033 A 
ATOM     13  C   UNL A   1      34.817  23.586  24.372  1.00  0.00     0.053 A 
BRANCH  11  14
ATOM     14  C   UNL A   1      33.431  21.544  24.766  1.00  0.00     0.046 A 
ATOM     15  C   UNL A   1      33.211  20.515  23.841  1.00  0.00     0.026 A 
ATOM     16  C   UNL A   1      33.400  21.281  26.141  1.00  0.00     0.026 A 
ATOM     17  C   UNL A   1      32.967  19.220  24.296  1.00  0.00     0.002 A 
ATOM     18  C   UNL A   1      33.142  19.984  26.585  1.00  0.00     0.002 A 
ATOM     19  C   UNL A   1      32.927  18.956  25.665  1.00  0.00     0.000 A 
ENDBRANCH  11  14
BRANCH  13  20
ATOM     20  C   UNL A   1      36.101  23.047  24.834  1.00  0.00    -0.001 A 
ATOM     21  C   UNL A   1      36.581  21.822  24.346  1.00  0.00     0.011 A 
ATOM     22  C   UNL A   1      36.876  23.767  25.752  1.00  0.00     0.011 A 
ATOM     23  C   UNL A   1      37.796  21.301  24.796  1.00  0.00     0.021 A 
ATOM     24  C   UNL A   1      38.093  23.253  26.209  1.00  0.00     0.021 A 
ATOM     25  C   UNL A   1      38.538  22.016  25.738  1.00  0.00     0.067 A 
BRANCH  25  26
ATOM     26  S   UNL A   1      40.084  21.357  26.312  1.00  0.00     0.175 S 
ATOM     27  C   UNL A   1      40.023  19.641  25.867  1.00  0.00     0.163 C 
ATOM     28  O   UNL A   1      41.135  21.994  25.527  1.00  0.00    -0.224 OA
ATOM     29  O   UNL A   1      40.092  21.433  27.756  1.00  0.00    -0.224 OA
ENDBRANCH  25  26
ENDBRANCH  13  20
ENDBRANCH   7   8
ENDBRANCH   4   7
ENDBRANCH   2   3
ENDBRANCH   1   2
BRANCH   1  30
ATOM     30  C   UNL A   1      33.039  29.550  27.138  1.00  0.00     0.118 C 
BRANCH  30  31
ATOM     31  N   UNL A   1      33.277  30.957  27.352  1.00  0.00    -0.352 N 
ATOM     32  C   UNL A   1      34.362  31.574  27.948  1.00  0.00     0.251 C 
ATOM     33  H   UNL A   1      32.570  31.560  27.029  1.00  0.00     0.163 HD
ATOM     34  O   UNL A   1      34.234  32.782  28.159  1.00  0.00    -0.269 OA
BRANCH  32  35
ATOM     35  C   UNL A   1      35.578  30.838  28.493  1.00  0.00     0.039 A 
ATOM     36  C   UNL A   1      36.671  30.845  27.664  1.00  0.00     0.014 A 
ATOM     37  C   UNL A   1      35.738  30.035  29.644  1.00  0.00     0.014 A 
ATOM     38  C   UNL A   1      37.866  30.152  28.022  1.00  0.00     0.010 A 
ATOM     39  C   UNL A   1      36.977  29.230  29.946  1.00  0.00     0.010 A 
ATOM     40  C   UNL A   1      38.124  29.241  29.130  1.00  0.00    -0.014 A 
BRANCH  40  41
ATOM     41  C   UNL A   1      39.591  28.327  29.078  1.00  0.00     0.031 A 
ATOM     42  C   UNL A   1      39.934  28.281  30.525  1.00  0.00     0.074 A 
ATOM     43  C   UNL A   1      40.701  27.821  28.332  1.00  0.00     0.049 A 
ATOM     44  N   UNL A   1      40.152  29.444  31.061  1.00  0.00    -0.248 NA
ATOM     45  C   UNL A   1      39.575  27.237  31.488  1.00  0.00     0.031 C 
ATOM     46  C   UNL A   1      41.060  28.057  26.917  1.00  0.00     0.029 A 
ATOM     47  N   UNL A   1      41.867  26.991  28.689  1.00  0.00    -0.354 N 
ATOM     48  C   UNL A   1      40.173  29.301  32.416  1.00  0.00     0.074 A 
ATOM     49  C   UNL A   1      39.680  27.939  32.633  1.00  0.00     0.031 C 
ATOM     50  C   UNL A   1      42.143  27.316  26.503  1.00  0.00     0.029 A 
ATOM     51  C   UNL A   1      42.726  26.507  27.585  1.00  0.00     0.049 A 
ATOM     52  H   UNL A   1      42.067  26.767  29.625  1.00  0.00     0.167 HD
ATOM     53  C   UNL A   1      41.175  29.999  33.017  1.00  0.00     0.034 A 
ATOM     54  C   UNL A   1      43.872  25.659  27.553  1.00  0.00     0.034 A 
ATOM     55  C   UNL A   1      42.325  29.139  33.139  1.00  0.00     0.049 A 
ATOM     56  C   UNL A   1      44.609  25.993  28.766  1.00  0.00     0.074 A 
ATOM     57  C   UNL A   1      42.452  27.800  33.471  1.00  0.00     0.029 A 
ATOM     58  N   UNL A   1      43.408  29.453  32.352  1.00  0.00    -0.354 N 
ATOM     59  N   UNL A   1      45.293  27.087  28.880  1.00  0.00    -0.248 NA
ATOM     60  C   UNL A   1      44.656  25.076  29.894  1.00  0.00     0.031 C 
ATOM     61  C   UNL A   1      43.238  27.266  32.427  1.00  0.00     0.029 A 
ATOM     62  C   UNL A   1      43.947  28.299  31.828  1.00  0.00     0.049 A 
ATOM     63  H   UNL A   1      43.746  30.363  32.189  1.00  0.00     0.167 HD
ATOM     64  C   UNL A   1      45.357  27.238  30.229  1.00  0.00     0.074 A 
ATOM     65  C   UNL A   1      45.211  25.899  30.783  1.00  0.00     0.031 C 
ATOM     66  C   UNL A   1      44.884  28.404  30.730  1.00  0.00     0.034 A 
BRANCH  53  67
ATOM     67  C   UNL A   1      41.231  31.455  32.549  1.00  0.00     0.023 A 
ATOM     68  C   UNL A   1      40.084  32.039  31.999  1.00  0.00     0.031 A 
ATOM     69  C   UNL A   1      42.425  32.224  32.504  1.00  0.00     0.131 A 
ATOM     70  C   UNL A   1      40.171  33.294  31.361  1.00  0.00     0.055 A 
ATOM     71  C   UNL A   1      42.525  33.420  31.793  1.00  0.00     0.041 A 
ATOM     72  F   UNL A   1      43.529  31.831  33.160  1.00  0.00    -0.206 F 
ATOM     73  C   UNL A   1      41.392  33.960  31.208  1.00  0.00     0.022 A 
BRANCH  70  74
ATOM     74  S   UNL A   1      38.647  34.080  30.776  1.00  0.00     0.124 S 
ATOM     75  O   UNL A   1      39.147  35.051  29.807  1.00  0.00    -0.237 OA
ATOM     76  O   UNL A   1      37.913  32.950  30.213  1.00  0.00    -0.237 OA
ATOM     77  O   UNL A   1      38.060  34.654  31.987  1.00  0.00    -0.744 OA
ENDBRANCH  70  74
ENDBRANCH  53  67
BRANCH  54  78
ATOM     78  C   UNL A   1      44.850  24.685  26.705  1.00  0.00     0.023 A 
ATOM     79  C   UNL A   1      44.621  23.240  26.495  1.00  0.00     0.031 A 
ATOM     80  C   UNL A   1      45.702  25.241  25.740  1.00  0.00     0.131 A 
ATOM     81  C   UNL A   1      45.183  22.494  25.392  1.00  0.00     0.055 A 
ATOM     82  C   UNL A   1      46.249  24.498  24.653  1.00  0.00     0.041 A 
ATOM     83  F   UNL A   1      45.949  26.559  25.744  1.00  0.00    -0.206 F 
ATOM     84  C   UNL A   1      45.982  23.142  24.463  1.00  0.00     0.022 A 
BRANCH  81  85
ATOM     85  S   UNL A   1      44.774  20.711  25.003  1.00  0.00     0.124 S 
ATOM     86  O   UNL A   1      43.628  20.439  25.861  1.00  0.00    -0.237 OA
ATOM     87  O   UNL A   1      44.526  20.733  23.566  1.00  0.00    -0.237 OA
ATOM     88  O   UNL A   1      45.992  19.984  25.382  1.00  0.00    -0.744 OA
ENDBRANCH  81  85
ENDBRANCH  54  78
BRANCH  66  89
ATOM     89  C   UNL A   1      45.247  29.702  30.018  1.00  0.00     0.023 A 
ATOM     90  C   UNL A   1      44.794  30.138  28.747  1.00  0.00     0.031 A 
ATOM     91  C   UNL A   1      46.156  30.544  30.683  1.00  0.00     0.131 A 
ATOM     92  C   UNL A   1      45.248  31.361  28.205  1.00  0.00     0.055 A 
ATOM     93  C   UNL A   1      46.562  31.775  30.172  1.00  0.00     0.041 A 
ATOM     94  F   UNL A   1      46.664  30.183  31.873  1.00  0.00    -0.206 F 
ATOM     95  C   UNL A   1      46.115  32.186  28.924  1.00  0.00     0.022 A 
BRANCH  92  96
ATOM     96  S   UNL A   1      44.772  31.871  26.516  1.00  0.00     0.124 S 
ATOM     97  O   UNL A   1      43.624  31.020  26.222  1.00  0.00    -0.237 OA
ATOM     98  O   UNL A   1      44.486  33.294  26.676  1.00  0.00    -0.237 OA
ATOM     99  O   UNL A   1      45.964  31.573  25.719  1.00  0.00    -0.744 OA
ENDBRANCH  92  96
ENDBRANCH  66  89
ENDBRANCH  40  41
ENDBRANCH  32  35
ENDBRANCH  30  31
ENDBRANCH   1  30
TORSDOF 17
ENDMDL
