MODEL 1
REMARK VINA RESULT:     -12.2      0.000      0.000
REMARK SMILES CC(C)(C)NS(=O)(=O)c1csc(C(=O)Nc2ccccc2C(=O)NCCCNC(=O)c2ccc(-c3c4nc(c(-c5cc(S(=O)(=O)[O-])ccc5F)c5ccc([nH]5)c(-c5cc(S(=O)(=O)[O-])ccc5F)c5nc(c(-c6cc(S(=O)(=O)[O-])ccc6F)c6ccc3[nH]6)C=C5)C=C4)cc2)c1
REMARK SMILES IDX 25 1 24 2 22 3 23 4 21 6 16 7 17 8 18 9 20 10 19 11 15 12
REMARK SMILES IDX 13 13 14 14 12 16 9 17 10 18 94 19 11 20 6 21 7 22 8 23 5 24
REMARK SMILES IDX 2 26 1 27 3 28 4 29 26 30 27 31 28 32 29 33 30 35 31 36
REMARK SMILES IDX 32 37 93 38 33 39 92 40 34 41 35 42 36 43 86 44 37 45 91 46
REMARK SMILES IDX 85 47 87 48 38 49 90 50 84 51 83 52 39 54 71 55 51 56 70 57
REMARK SMILES IDX 52 58 55 59 69 60 88 61 53 62 54 63 68 65 89 66 56 67 40 68
REMARK SMILES IDX 41 69 49 70 42 71 48 72 50 73 47 74 43 75 44 76 45 77 46 78
REMARK SMILES IDX 72 79 73 80 81 81 74 82 80 83 82 84 79 85 75 86 76 87 77 88
REMARK SMILES IDX 78 89 57 90 58 91 66 92 59 93 65 94 67 95 64 96 60 97 61 98
REMARK SMILES IDX 62 99 63 100
REMARK H PARENT 24 5 15 15 5 25 28 34 87 53 55 64
REMARK Flexibility Score: inf
ROOT
ATOM      1  C   UNL A   1      31.406  27.687  26.212  1.00  0.00     0.118 C 
ENDROOT
BRANCH   1   2
ATOM      2  N   UNL A   1      31.407  26.402  26.891  1.00  0.00    -0.352 N 
ATOM      3  C   UNL A   1      31.760  25.152  26.451  1.00  0.00     0.253 C 
ATOM      4  O   UNL A   1      31.713  24.218  27.257  1.00  0.00    -0.269 OA
ATOM      5  H   UNL A   1      31.103  26.433  27.827  1.00  0.00     0.163 HD
BRANCH   3   6
ATOM      6  C   UNL A   1      32.130  24.869  25.035  1.00  0.00     0.063 A 
ATOM      7  C   UNL A   1      33.420  24.856  24.472  1.00  0.00     0.054 A 
ATOM      8  C   UNL A   1      33.550  24.731  23.075  1.00  0.00     0.027 A 
ATOM      9  C   UNL A   1      32.447  24.462  22.266  1.00  0.00     0.002 A 
ATOM     10  C   UNL A   1      31.028  24.577  24.204  1.00  0.00     0.016 A 
ATOM     11  C   UNL A   1      31.187  24.353  22.836  1.00  0.00     0.001 A 
BRANCH   7  12
ATOM     12  N   UNL A   1      34.657  24.915  25.141  1.00  0.00    -0.321 N 
ATOM     13  C   UNL A   1      35.504  23.955  25.654  1.00  0.00     0.265 C 
ATOM     14  O   UNL A   1      36.423  24.388  26.355  1.00  0.00    -0.268 OA
ATOM     15  H   UNL A   1      34.987  25.833  25.269  1.00  0.00     0.170 HD
BRANCH  13  16
ATOM     16  C   UNL A   1      35.362  22.551  25.311  1.00  0.00     0.094 A 
ATOM     17  C   UNL A   1      34.558  20.385  24.956  1.00  0.00     0.093 A 
ATOM     18  C   UNL A   1      35.906  20.202  24.750  1.00  0.00     0.087 A 
ATOM     19  C   UNL A   1      34.241  21.767  25.117  1.00  0.00     0.047 A 
ATOM     20  S   UNL A   1      36.790  21.641  25.004  1.00  0.00    -0.137 S 
BRANCH  17  21
ATOM     21  S   UNL A   1      33.374  19.119  24.985  1.00  0.00     0.241 S 
ATOM     22  O   UNL A   1      32.860  19.077  23.638  1.00  0.00    -0.207 OA
ATOM     23  O   UNL A   1      32.521  19.472  26.102  1.00  0.00    -0.207 OA
BRANCH  21  24
ATOM     24  N   UNL A   1      34.102  17.663  25.404  1.00  0.00    -0.206 NA
ATOM     25  H   UNL A   1      35.104  17.854  25.395  1.00  0.00     0.141 HD
BRANCH  24  26
ATOM     26  C   UNL A   1      33.950  16.366  24.697  1.00  0.00     0.025 C 
ATOM     27  C   UNL A   1      34.094  16.578  23.185  1.00  0.00     0.028 C 
ATOM     28  C   UNL A   1      32.657  15.621  25.034  1.00  0.00     0.028 C 
ATOM     29  C   UNL A   1      35.124  15.478  25.160  1.00  0.00     0.028 C 
ENDBRANCH  24  26
ENDBRANCH  21  24
ENDBRANCH  17  21
ENDBRANCH  13  16
ENDBRANCH   7  12
ENDBRANCH   3   6
ENDBRANCH   1   2
BRANCH   1  30
ATOM     30  C   UNL A   1      31.960  28.830  27.048  1.00  0.00     0.042 C 
BRANCH  30  31
ATOM     31  C   UNL A   1      32.865  29.799  26.297  1.00  0.00     0.118 C 
BRANCH  31  32
ATOM     32  N   UNL A   1      32.853  31.161  26.817  1.00  0.00    -0.352 N 
ATOM     33  C   UNL A   1      33.755  31.855  27.594  1.00  0.00     0.251 C 
ATOM     34  H   UNL A   1      32.055  31.681  26.568  1.00  0.00     0.163 HD
ATOM     35  O   UNL A   1      33.470  32.992  27.964  1.00  0.00    -0.269 OA
BRANCH  33  36
ATOM     36  C   UNL A   1      35.028  31.239  28.033  1.00  0.00     0.039 A 
ATOM     37  C   UNL A   1      36.183  32.026  28.073  1.00  0.00     0.014 A 
ATOM     38  C   UNL A   1      35.101  29.899  28.409  1.00  0.00     0.014 A 
ATOM     39  C   UNL A   1      37.371  31.499  28.593  1.00  0.00     0.010 A 
ATOM     40  C   UNL A   1      36.241  29.417  29.042  1.00  0.00     0.010 A 
ATOM     41  C   UNL A   1      37.395  30.209  29.142  1.00  0.00    -0.014 A 
BRANCH  41  42
ATOM     42  C   UNL A   1      38.604  29.652  29.812  1.00  0.00     0.031 A 
ATOM     43  C   UNL A   1      39.000  30.149  31.181  1.00  0.00     0.074 A 
ATOM     44  C   UNL A   1      39.401  28.785  29.154  1.00  0.00     0.049 A 
ATOM     45  N   UNL A   1      40.096  29.929  31.861  1.00  0.00    -0.248 NA
ATOM     46  C   UNL A   1      38.057  31.062  31.844  1.00  0.00     0.031 C 
ATOM     47  C   UNL A   1      39.168  28.276  27.800  1.00  0.00     0.029 A 
ATOM     48  N   UNL A   1      40.578  28.188  29.530  1.00  0.00    -0.354 N 
ATOM     49  C   UNL A   1      39.996  30.716  33.005  1.00  0.00     0.074 A 
ATOM     50  C   UNL A   1      38.763  31.464  32.889  1.00  0.00     0.031 C 
ATOM     51  C   UNL A   1      40.151  27.422  27.474  1.00  0.00     0.029 A 
ATOM     52  C   UNL A   1      41.109  27.356  28.571  1.00  0.00     0.049 A 
ATOM     53  H   UNL A   1      41.003  28.340  30.405  1.00  0.00     0.167 HD
ATOM     54  C   UNL A   1      40.838  30.787  34.066  1.00  0.00     0.034 A 
ATOM     55  C   UNL A   1      42.244  26.628  28.571  1.00  0.00     0.034 A 
ATOM     56  C   UNL A   1      42.032  29.987  34.191  1.00  0.00     0.049 A 
ATOM     57  C   UNL A   1      43.132  26.672  29.787  1.00  0.00     0.074 A 
ATOM     58  C   UNL A   1      42.920  29.918  35.252  1.00  0.00     0.029 A 
ATOM     59  N   UNL A   1      42.500  29.104  33.227  1.00  0.00    -0.354 N 
ATOM     60  N   UNL A   1      43.004  27.391  30.878  1.00  0.00    -0.248 NA
ATOM     61  C   UNL A   1      44.311  25.796  29.777  1.00  0.00     0.031 C 
ATOM     62  C   UNL A   1      43.946  29.029  34.909  1.00  0.00     0.029 A 
ATOM     63  C   UNL A   1      43.666  28.496  33.661  1.00  0.00     0.049 A 
ATOM     64  H   UNL A   1      42.065  28.935  32.360  1.00  0.00     0.167 HD
ATOM     65  C   UNL A   1      44.071  27.031  31.696  1.00  0.00     0.074 A 
ATOM     66  C   UNL A   1      44.820  26.020  30.979  1.00  0.00     0.031 C 
ATOM     67  C   UNL A   1      44.402  27.492  32.929  1.00  0.00     0.034 A 
BRANCH  54  68
ATOM     68  C   UNL A   1      40.495  31.772  35.160  1.00  0.00     0.023 A 
ATOM     69  C   UNL A   1      39.561  31.464  36.166  1.00  0.00     0.031 A 
ATOM     70  C   UNL A   1      41.068  33.056  35.171  1.00  0.00     0.131 A 
ATOM     71  C   UNL A   1      39.155  32.453  37.073  1.00  0.00     0.055 A 
ATOM     72  C   UNL A   1      40.728  34.008  36.136  1.00  0.00     0.041 A 
ATOM     73  F   UNL A   1      41.953  33.418  34.229  1.00  0.00    -0.206 F 
ATOM     74  C   UNL A   1      39.751  33.716  37.083  1.00  0.00     0.022 A 
BRANCH  71  75
ATOM     75  S   UNL A   1      37.720  32.116  38.131  1.00  0.00     0.124 S 
ATOM     76  O   UNL A   1      37.409  30.735  37.770  1.00  0.00    -0.237 OA
ATOM     77  O   UNL A   1      38.261  32.319  39.471  1.00  0.00    -0.237 OA
ATOM     78  O   UNL A   1      36.735  33.105  37.698  1.00  0.00    -0.744 OA
ENDBRANCH  71  75
ENDBRANCH  54  68
BRANCH  55  79
ATOM     79  C   UNL A   1      42.606  25.789  27.393  1.00  0.00     0.023 A 
ATOM     80  C   UNL A   1      42.187  24.452  27.307  1.00  0.00     0.031 A 
ATOM     81  C   UNL A   1      43.404  26.300  26.355  1.00  0.00     0.131 A 
ATOM     82  C   UNL A   1      42.608  23.655  26.232  1.00  0.00     0.055 A 
ATOM     83  C   UNL A   1      43.780  25.516  25.262  1.00  0.00     0.041 A 
ATOM     84  F   UNL A   1      43.820  27.576  26.382  1.00  0.00    -0.206 F 
ATOM     85  C   UNL A   1      43.393  24.180  25.203  1.00  0.00     0.022 A 
BRANCH  82  86
ATOM     86  S   UNL A   1      42.176  21.893  26.236  1.00  0.00     0.124 S 
ATOM     87  O   UNL A   1      42.508  21.509  27.603  1.00  0.00    -0.237 OA
ATOM     88  O   UNL A   1      40.755  21.930  25.907  1.00  0.00    -0.237 OA
ATOM     89  O   UNL A   1      43.038  21.329  25.201  1.00  0.00    -0.744 OA
ENDBRANCH  82  86
ENDBRANCH  55  79
BRANCH  67  90
ATOM     90  C   UNL A   1      45.601  26.862  33.590  1.00  0.00     0.023 A 
ATOM     91  C   UNL A   1      45.484  25.716  34.394  1.00  0.00     0.031 A 
ATOM     92  C   UNL A   1      46.876  27.434  33.430  1.00  0.00     0.131 A 
ATOM     93  C   UNL A   1      46.613  25.210  35.056  1.00  0.00     0.055 A 
ATOM     94  C   UNL A   1      48.004  26.893  34.045  1.00  0.00     0.041 A 
ATOM     95  F   UNL A   1      47.043  28.530  32.672  1.00  0.00    -0.206 F 
ATOM     96  C   UNL A   1      47.874  25.783  34.876  1.00  0.00     0.022 A 
BRANCH  93  97
ATOM     97  S   UNL A   1      46.393  23.848  36.234  1.00  0.00     0.124 S 
ATOM     98  O   UNL A   1      45.179  23.209  35.736  1.00  0.00    -0.237 OA
ATOM     99  O   UNL A   1      47.627  23.088  36.065  1.00  0.00    -0.237 OA
ATOM    100  O   UNL A   1      46.254  24.527  37.521  1.00  0.00    -0.744 OA
ENDBRANCH  93  97
ENDBRANCH  67  90
ENDBRANCH  41  42
ENDBRANCH  33  36
ENDBRANCH  31  32
ENDBRANCH  30  31
ENDBRANCH   1  30
TORSDOF 18
ENDMDL
MODEL 2
REMARK VINA RESULT:     -11.9      1.238      7.391
REMARK SMILES CC(C)(C)NS(=O)(=O)c1csc(C(=O)Nc2ccccc2C(=O)NCCCNC(=O)c2ccc(-c3c4nc(c(-c5cc(S(=O)(=O)[O-])ccc5F)c5ccc([nH]5)c(-c5cc(S(=O)(=O)[O-])ccc5F)c5nc(c(-c6cc(S(=O)(=O)[O-])ccc6F)c6ccc3[nH]6)C=C5)C=C4)cc2)c1
REMARK SMILES IDX 25 1 24 2 22 3 23 4 21 6 16 7 17 8 18 9 20 10 19 11 15 12
REMARK SMILES IDX 13 13 14 14 12 16 9 17 10 18 94 19 11 20 6 21 7 22 8 23 5 24
REMARK SMILES IDX 2 26 1 27 3 28 4 29 26 30 27 31 28 32 29 33 30 35 31 36
REMARK SMILES IDX 32 37 93 38 33 39 92 40 34 41 35 42 36 43 86 44 37 45 91 46
REMARK SMILES IDX 85 47 87 48 38 49 90 50 84 51 83 52 39 54 71 55 51 56 70 57
REMARK SMILES IDX 52 58 55 59 69 60 88 61 53 62 54 63 68 65 89 66 56 67 40 68
REMARK SMILES IDX 41 69 49 70 42 71 48 72 50 73 47 74 43 75 44 76 45 77 46 78
REMARK SMILES IDX 72 79 73 80 81 81 74 82 80 83 82 84 79 85 75 86 76 87 77 88
REMARK SMILES IDX 78 89 57 90 58 91 66 92 59 93 65 94 67 95 64 96 60 97 61 98
REMARK SMILES IDX 62 99 63 100
REMARK H PARENT 24 5 15 15 5 25 28 34 87 53 55 64
REMARK Flexibility Score: inf
ROOT
ATOM      1  C   UNL A   1      31.145  27.870  26.193  1.00  0.00     0.118 C 
ENDROOT
BRANCH   1   2
ATOM      2  N   UNL A   1      31.321  26.606  26.890  1.00  0.00    -0.352 N 
ATOM      3  C   UNL A   1      31.668  25.364  26.427  1.00  0.00     0.253 C 
ATOM      4  O   UNL A   1      31.797  24.452  27.251  1.00  0.00    -0.269 OA
ATOM      5  H   UNL A   1      31.163  26.650  27.861  1.00  0.00     0.163 HD
BRANCH   3   6
ATOM      6  C   UNL A   1      31.830  25.058  24.977  1.00  0.00     0.063 A 
ATOM      7  C   UNL A   1      33.030  24.983  24.245  1.00  0.00     0.054 A 
ATOM      8  C   UNL A   1      32.963  24.847  22.845  1.00  0.00     0.027 A 
ATOM      9  C   UNL A   1      31.750  24.627  22.195  1.00  0.00     0.002 A 
ATOM     10  C   UNL A   1      30.612  24.816  24.305  1.00  0.00     0.016 A 
ATOM     11  C   UNL A   1      30.575  24.579  22.930  1.00  0.00     0.001 A 
BRANCH   7  12
ATOM     12  N   UNL A   1      34.347  24.986  24.740  1.00  0.00    -0.321 N 
ATOM     13  C   UNL A   1      35.051  24.137  25.568  1.00  0.00     0.265 C 
ATOM     14  O   UNL A   1      36.145  24.564  25.949  1.00  0.00    -0.268 OA
ATOM     15  H   UNL A   1      34.877  25.755  24.431  1.00  0.00     0.170 HD
BRANCH  13  16
ATOM     16  C   UNL A   1      34.564  22.807  25.888  1.00  0.00     0.094 A 
ATOM     17  C   UNL A   1      33.771  20.610  25.791  1.00  0.00     0.093 A 
ATOM     18  C   UNL A   1      33.612  20.888  27.129  1.00  0.00     0.087 A 
ATOM     19  C   UNL A   1      34.467  21.661  25.122  1.00  0.00     0.047 A 
ATOM     20  S   UNL A   1      34.067  22.490  27.505  1.00  0.00    -0.137 S 
BRANCH  17  21
ATOM     21  S   UNL A   1      33.232  19.163  25.004  1.00  0.00     0.241 S 
ATOM     22  O   UNL A   1      33.057  19.548  23.625  1.00  0.00    -0.207 OA
ATOM     23  O   UNL A   1      32.108  18.731  25.809  1.00  0.00    -0.207 OA
BRANCH  21  24
ATOM     24  N   UNL A   1      34.397  17.960  25.156  1.00  0.00    -0.206 NA
ATOM     25  H   UNL A   1      35.197  18.296  24.620  1.00  0.00     0.141 HD
BRANCH  24  26
ATOM     26  C   UNL A   1      34.247  16.533  24.773  1.00  0.00     0.025 C 
ATOM     27  C   UNL A   1      32.954  15.968  25.373  1.00  0.00     0.028 C 
ATOM     28  C   UNL A   1      35.453  15.663  25.132  1.00  0.00     0.028 C 
ATOM     29  C   UNL A   1      34.103  16.508  23.238  1.00  0.00     0.028 C 
ENDBRANCH  24  26
ENDBRANCH  21  24
ENDBRANCH  17  21
ENDBRANCH  13  16
ENDBRANCH   7  12
ENDBRANCH   3   6
ENDBRANCH   1   2
BRANCH   1  30
ATOM     30  C   UNL A   1      31.786  29.058  26.893  1.00  0.00     0.042 C 
BRANCH  30  31
ATOM     31  C   UNL A   1      32.316  30.145  25.966  1.00  0.00     0.118 C 
BRANCH  31  32
ATOM     32  N   UNL A   1      32.098  31.505  26.445  1.00  0.00    -0.352 N 
ATOM     33  C   UNL A   1      32.854  32.325  27.255  1.00  0.00     0.251 C 
ATOM     34  H   UNL A   1      31.259  31.913  26.132  1.00  0.00     0.163 HD
ATOM     35  O   UNL A   1      32.405  33.423  27.574  1.00  0.00    -0.269 OA
BRANCH  33  36
ATOM     36  C   UNL A   1      34.164  31.886  27.789  1.00  0.00     0.039 A 
ATOM     37  C   UNL A   1      35.188  32.827  27.929  1.00  0.00     0.014 A 
ATOM     38  C   UNL A   1      34.397  30.562  28.155  1.00  0.00     0.014 A 
ATOM     39  C   UNL A   1      36.395  32.463  28.537  1.00  0.00     0.010 A 
ATOM     40  C   UNL A   1      35.542  30.232  28.873  1.00  0.00     0.010 A 
ATOM     41  C   UNL A   1      36.560  31.177  29.073  1.00  0.00    -0.014 A 
BRANCH  41  42
ATOM     42  C   UNL A   1      37.780  30.783  29.833  1.00  0.00     0.031 A 
ATOM     43  C   UNL A   1      38.794  29.863  29.200  1.00  0.00     0.074 A 
ATOM     44  C   UNL A   1      37.925  31.162  31.119  1.00  0.00     0.049 A 
ATOM     45  N   UNL A   1      39.825  29.264  29.739  1.00  0.00    -0.248 NA
ATOM     46  C   UNL A   1      38.581  29.529  27.783  1.00  0.00     0.031 C 
ATOM     47  C   UNL A   1      36.984  31.997  31.871  1.00  0.00     0.029 A 
ATOM     48  N   UNL A   1      38.915  30.884  32.029  1.00  0.00    -0.354 N 
ATOM     49  C   UNL A   1      40.351  28.445  28.743  1.00  0.00     0.074 A 
ATOM     50  C   UNL A   1      39.483  28.579  27.593  1.00  0.00     0.031 C 
ATOM     51  C   UNL A   1      37.457  32.187  33.113  1.00  0.00     0.029 A 
ATOM     52  C   UNL A   1      38.708  31.453  33.265  1.00  0.00     0.049 A 
ATOM     53  H   UNL A   1      39.699  30.329  31.817  1.00  0.00     0.167 HD
ATOM     54  C   UNL A   1      41.469  27.677  28.775  1.00  0.00     0.034 A 
ATOM     55  C   UNL A   1      39.438  31.385  34.396  1.00  0.00     0.034 A 
ATOM     56  C   UNL A   1      42.355  27.605  29.910  1.00  0.00     0.049 A 
ATOM     57  C   UNL A   1      40.711  30.578  34.389  1.00  0.00     0.074 A 
ATOM     58  C   UNL A   1      43.554  26.921  30.030  1.00  0.00     0.029 A 
ATOM     59  N   UNL A   1      42.147  28.252  31.121  1.00  0.00    -0.354 N 
ATOM     60  N   UNL A   1      41.215  29.841  33.427  1.00  0.00    -0.248 NA
ATOM     61  C   UNL A   1      41.517  30.605  35.615  1.00  0.00     0.031 C 
ATOM     62  C   UNL A   1      44.045  27.119  31.327  1.00  0.00     0.029 A 
ATOM     63  C   UNL A   1      43.185  27.975  31.996  1.00  0.00     0.049 A 
ATOM     64  H   UNL A   1      41.372  28.824  31.328  1.00  0.00     0.167 HD
ATOM     65  C   UNL A   1      42.414  29.340  33.924  1.00  0.00     0.074 A 
ATOM     66  C   UNL A   1      42.564  29.873  35.262  1.00  0.00     0.031 C 
ATOM     67  C   UNL A   1      43.314  28.514  33.329  1.00  0.00     0.034 A 
BRANCH  54  68
ATOM     68  C   UNL A   1      41.777  26.850  27.548  1.00  0.00     0.023 A 
ATOM     69  C   UNL A   1      41.441  25.486  27.472  1.00  0.00     0.031 A 
ATOM     70  C   UNL A   1      42.464  27.415  26.459  1.00  0.00     0.131 A 
ATOM     71  C   UNL A   1      41.877  24.715  26.385  1.00  0.00     0.055 A 
ATOM     72  C   UNL A   1      42.813  26.662  25.335  1.00  0.00     0.041 A 
ATOM     73  F   UNL A   1      42.828  28.708  26.476  1.00  0.00    -0.206 F 
ATOM     74  C   UNL A   1      42.538  25.298  25.302  1.00  0.00     0.022 A 
BRANCH  71  75
ATOM     75  S   UNL A   1      41.713  22.911  26.486  1.00  0.00     0.124 S 
ATOM     76  O   UNL A   1      42.402  22.487  25.269  1.00  0.00    -0.237 OA
ATOM     77  O   UNL A   1      42.387  22.603  27.742  1.00  0.00    -0.237 OA
ATOM     78  O   UNL A   1      40.268  22.697  26.482  1.00  0.00    -0.744 OA
ENDBRANCH  71  75
ENDBRANCH  54  68
BRANCH  55  79
ATOM     79  C   UNL A   1      38.999  32.104  35.626  1.00  0.00     0.023 A 
ATOM     80  C   UNL A   1      38.350  31.419  36.665  1.00  0.00     0.031 A 
ATOM     81  C   UNL A   1      39.190  33.489  35.766  1.00  0.00     0.131 A 
ATOM     82  C   UNL A   1      37.870  32.127  37.778  1.00  0.00     0.055 A 
ATOM     83  C   UNL A   1      38.755  34.182  36.897  1.00  0.00     0.041 A 
ATOM     84  F   UNL A   1      39.818  34.189  34.807  1.00  0.00    -0.206 F 
ATOM     85  C   UNL A   1      38.078  33.502  37.906  1.00  0.00     0.022 A 
BRANCH  82  86
ATOM     86  S   UNL A   1      36.901  31.234  39.024  1.00  0.00     0.124 S 
ATOM     87  O   UNL A   1      35.687  32.040  39.090  1.00  0.00    -0.237 OA
ATOM     88  O   UNL A   1      36.763  29.917  38.412  1.00  0.00    -0.237 OA
ATOM     89  O   UNL A   1      37.749  31.281  40.212  1.00  0.00    -0.744 OA
ENDBRANCH  82  86
ENDBRANCH  55  79
BRANCH  67  90
ATOM     90  C   UNL A   1      44.558  28.186  34.114  1.00  0.00     0.023 A 
ATOM     91  C   UNL A   1      44.732  26.937  34.734  1.00  0.00     0.031 A 
ATOM     92  C   UNL A   1      45.572  29.148  34.263  1.00  0.00     0.131 A 
ATOM     93  C   UNL A   1      45.867  26.702  35.523  1.00  0.00     0.055 A 
ATOM     94  C   UNL A   1      46.726  28.888  35.003  1.00  0.00     0.041 A 
ATOM     95  F   UNL A   1      45.455  30.358  33.692  1.00  0.00    -0.206 F 
ATOM     96  C   UNL A   1      46.872  27.665  35.650  1.00  0.00     0.022 A 
BRANCH  93  97
ATOM     97  S   UNL A   1      45.969  25.153  36.461  1.00  0.00     0.124 S 
ATOM     98  O   UNL A   1      44.564  24.865  36.728  1.00  0.00    -0.237 OA
ATOM     99  O   UNL A   1      46.633  24.260  35.515  1.00  0.00    -0.237 OA
ATOM    100  O   UNL A   1      46.763  25.513  37.633  1.00  0.00    -0.744 OA
ENDBRANCH  93  97
ENDBRANCH  67  90
ENDBRANCH  41  42
ENDBRANCH  33  36
ENDBRANCH  31  32
ENDBRANCH  30  31
ENDBRANCH   1  30
TORSDOF 18
ENDMDL
MODEL 3
REMARK VINA RESULT:     -11.5      2.396      8.642
REMARK SMILES CC(C)(C)NS(=O)(=O)c1csc(C(=O)Nc2ccccc2C(=O)NCCCNC(=O)c2ccc(-c3c4nc(c(-c5cc(S(=O)(=O)[O-])ccc5F)c5ccc([nH]5)c(-c5cc(S(=O)(=O)[O-])ccc5F)c5nc(c(-c6cc(S(=O)(=O)[O-])ccc6F)c6ccc3[nH]6)C=C5)C=C4)cc2)c1
REMARK SMILES IDX 25 1 24 2 22 3 23 4 21 6 16 7 17 8 18 9 20 10 19 11 15 12
REMARK SMILES IDX 13 13 14 14 12 16 9 17 10 18 94 19 11 20 6 21 7 22 8 23 5 24
REMARK SMILES IDX 2 26 1 27 3 28 4 29 26 30 27 31 28 32 29 33 30 35 31 36
REMARK SMILES IDX 32 37 93 38 33 39 92 40 34 41 35 42 36 43 86 44 37 45 91 46
REMARK SMILES IDX 85 47 87 48 38 49 90 50 84 51 83 52 39 54 71 55 51 56 70 57
REMARK SMILES IDX 52 58 55 59 69 60 88 61 53 62 54 63 68 65 89 66 56 67 40 68
REMARK SMILES IDX 41 69 49 70 42 71 48 72 50 73 47 74 43 75 44 76 45 77 46 78
REMARK SMILES IDX 72 79 73 80 81 81 74 82 80 83 82 84 79 85 75 86 76 87 77 88
REMARK SMILES IDX 78 89 57 90 58 91 66 92 59 93 65 94 67 95 64 96 60 97 61 98
REMARK SMILES IDX 62 99 63 100
REMARK H PARENT 24 5 15 15 5 25 28 34 87 53 55 64
REMARK Flexibility Score: inf
ROOT
ATOM      1  C   UNL A   1      33.775  26.972  23.548  1.00  0.00     0.118 C 
ENDROOT
BRANCH   1   2
ATOM      2  N   UNL A   1      34.055  26.181  24.735  1.00  0.00    -0.352 N 
ATOM      3  C   UNL A   1      33.883  24.844  24.986  1.00  0.00     0.253 C 
ATOM      4  O   UNL A   1      34.253  24.407  26.081  1.00  0.00    -0.269 OA
ATOM      5  H   UNL A   1      34.433  26.692  25.487  1.00  0.00     0.163 HD
BRANCH   3   6
ATOM      6  C   UNL A   1      33.214  23.921  24.026  1.00  0.00     0.063 A 
ATOM      7  C   UNL A   1      32.146  23.041  24.285  1.00  0.00     0.054 A 
ATOM      8  C   UNL A   1      31.763  22.126  23.285  1.00  0.00     0.027 A 
ATOM      9  C   UNL A   1      32.309  22.182  22.004  1.00  0.00     0.002 A 
ATOM     10  C   UNL A   1      33.743  23.975  22.719  1.00  0.00     0.016 A 
ATOM     11  C   UNL A   1      33.278  23.129  21.711  1.00  0.00     0.001 A 
BRANCH   7  12
ATOM     12  N   UNL A   1      31.343  22.969  25.439  1.00  0.00    -0.321 N 
ATOM     13  C   UNL A   1      30.708  23.918  26.212  1.00  0.00     0.265 C 
ATOM     14  O   UNL A   1      30.246  23.500  27.278  1.00  0.00    -0.268 OA
ATOM     15  H   UNL A   1      31.208  22.050  25.762  1.00  0.00     0.170 HD
BRANCH  13  16
ATOM     16  C   UNL A   1      30.529  25.283  25.751  1.00  0.00     0.094 A 
ATOM     17  C   UNL A   1      30.064  27.198  24.493  1.00  0.00     0.093 A 
ATOM     18  C   UNL A   1      30.680  27.749  25.592  1.00  0.00     0.087 A 
ATOM     19  C   UNL A   1      29.839  25.800  24.671  1.00  0.00     0.047 A 
ATOM     20  S   UNL A   1      31.202  26.555  26.696  1.00  0.00    -0.137 S 
BRANCH  17  21
ATOM     21  S   UNL A   1      29.582  28.074  23.078  1.00  0.00     0.241 S 
ATOM     22  O   UNL A   1      28.202  27.704  22.878  1.00  0.00    -0.207 OA
ATOM     23  O   UNL A   1      30.596  27.734  22.100  1.00  0.00    -0.207 OA
BRANCH  21  24
ATOM     24  N   UNL A   1      29.735  29.726  23.346  1.00  0.00    -0.206 NA
ATOM     25  H   UNL A   1      29.908  29.818  24.346  1.00  0.00     0.141 HD
BRANCH  24  26
ATOM     26  C   UNL A   1      28.724  30.768  23.031  1.00  0.00     0.025 C 
ATOM     27  C   UNL A   1      29.181  32.120  23.591  1.00  0.00     0.028 C 
ATOM     28  C   UNL A   1      27.308  30.422  23.497  1.00  0.00     0.028 C 
ATOM     29  C   UNL A   1      28.685  30.886  21.493  1.00  0.00     0.028 C 
ENDBRANCH  24  26
ENDBRANCH  21  24
ENDBRANCH  17  21
ENDBRANCH  13  16
ENDBRANCH   7  12
ENDBRANCH   3   6
ENDBRANCH   1   2
BRANCH   1  30
ATOM     30  C   UNL A   1      33.649  28.464  23.813  1.00  0.00     0.042 C 
BRANCH  30  31
ATOM     31  C   UNL A   1      33.974  28.896  25.238  1.00  0.00     0.118 C 
BRANCH  31  32
ATOM     32  N   UNL A   1      33.243  30.073  25.693  1.00  0.00    -0.352 N 
ATOM     33  C   UNL A   1      33.456  30.936  26.746  1.00  0.00     0.251 C 
ATOM     34  H   UNL A   1      32.453  30.292  25.148  1.00  0.00     0.163 HD
ATOM     35  O   UNL A   1      32.637  31.826  26.960  1.00  0.00    -0.269 OA
BRANCH  33  36
ATOM     36  C   UNL A   1      34.618  30.776  27.650  1.00  0.00     0.039 A 
ATOM     37  C   UNL A   1      34.760  29.584  28.366  1.00  0.00     0.014 A 
ATOM     38  C   UNL A   1      35.570  31.782  27.802  1.00  0.00     0.014 A 
ATOM     39  C   UNL A   1      35.907  29.363  29.138  1.00  0.00     0.010 A 
ATOM     40  C   UNL A   1      36.764  31.514  28.462  1.00  0.00     0.010 A 
ATOM     41  C   UNL A   1      36.951  30.301  29.142  1.00  0.00    -0.014 A 
BRANCH  41  42
ATOM     42  C   UNL A   1      38.237  30.054  29.852  1.00  0.00     0.031 A 
ATOM     43  C   UNL A   1      39.256  29.114  29.256  1.00  0.00     0.074 A 
ATOM     44  C   UNL A   1      38.446  30.586  31.074  1.00  0.00     0.049 A 
ATOM     45  N   UNL A   1      40.351  28.630  29.785  1.00  0.00    -0.248 NA
ATOM     46  C   UNL A   1      38.970  28.608  27.905  1.00  0.00     0.031 C 
ATOM     47  C   UNL A   1      37.512  31.458  31.792  1.00  0.00     0.029 A 
ATOM     48  N   UNL A   1      39.506  30.461  31.936  1.00  0.00    -0.354 N 
ATOM     49  C   UNL A   1      40.854  27.726  28.853  1.00  0.00     0.074 A 
ATOM     50  C   UNL A   1      39.907  27.685  27.760  1.00  0.00     0.031 C 
ATOM     51  C   UNL A   1      38.054  31.813  32.968  1.00  0.00     0.029 A 
ATOM     52  C   UNL A   1      39.350  31.160  33.113  1.00  0.00     0.049 A 
ATOM     53  H   UNL A   1      40.304  29.922  31.733  1.00  0.00     0.167 HD
ATOM     54  C   UNL A   1      42.011  27.018  28.891  1.00  0.00     0.034 A 
ATOM     55  C   UNL A   1      40.155  31.257  34.189  1.00  0.00     0.034 A 
ATOM     56  C   UNL A   1      42.972  27.119  29.962  1.00  0.00     0.049 A 
ATOM     57  C   UNL A   1      41.466  30.513  34.182  1.00  0.00     0.074 A 
ATOM     58  C   UNL A   1      44.211  26.510  30.073  1.00  0.00     0.029 A 
ATOM     59  N   UNL A   1      42.809  27.892  31.104  1.00  0.00    -0.354 N 
ATOM     60  N   UNL A   1      41.946  29.693  33.277  1.00  0.00    -0.248 NA
ATOM     61  C   UNL A   1      42.348  30.719  35.338  1.00  0.00     0.031 C 
ATOM     62  C   UNL A   1      44.774  26.879  31.301  1.00  0.00     0.029 A 
ATOM     63  C   UNL A   1      43.915  27.767  31.929  1.00  0.00     0.049 A 
ATOM     64  H   UNL A   1      42.020  28.448  31.300  1.00  0.00     0.167 HD
ATOM     65  C   UNL A   1      43.200  29.309  33.740  1.00  0.00     0.074 A 
ATOM     66  C   UNL A   1      43.407  30.000  34.996  1.00  0.00     0.031 C 
ATOM     67  C   UNL A   1      44.101  28.462  33.180  1.00  0.00     0.034 A 
BRANCH  54  68
ATOM     68  C   UNL A   1      42.283  26.070  27.747  1.00  0.00     0.023 A 
ATOM     69  C   UNL A   1      41.782  24.755  27.742  1.00  0.00     0.031 A 
ATOM     70  C   UNL A   1      43.096  26.463  26.670  1.00  0.00     0.131 A 
ATOM     71  C   UNL A   1      42.179  23.856  26.740  1.00  0.00     0.055 A 
ATOM     72  C   UNL A   1      43.412  25.590  25.625  1.00  0.00     0.041 A 
ATOM     73  F   UNL A   1      43.619  27.699  26.623  1.00  0.00    -0.206 F 
ATOM     74  C   UNL A   1      42.969  24.272  25.667  1.00  0.00     0.022 A 
BRANCH  71  75
ATOM     75  S   UNL A   1      41.784  22.099  26.953  1.00  0.00     0.124 S 
ATOM     76  O   UNL A   1      42.236  21.542  25.680  1.00  0.00    -0.237 OA
ATOM     77  O   UNL A   1      42.574  21.736  28.124  1.00  0.00    -0.237 OA
ATOM     78  O   UNL A   1      40.336  22.094  27.149  1.00  0.00    -0.744 OA
ENDBRANCH  71  75
ENDBRANCH  54  68
BRANCH  55  79
ATOM     79  C   UNL A   1      39.760  32.092  35.358  1.00  0.00     0.023 A 
ATOM     80  C   UNL A   1      38.927  31.574  36.363  1.00  0.00     0.031 A 
ATOM     81  C   UNL A   1      40.178  33.429  35.471  1.00  0.00     0.131 A 
ATOM     82  C   UNL A   1      38.498  32.402  37.412  1.00  0.00     0.055 A 
ATOM     83  C   UNL A   1      39.788  34.234  36.544  1.00  0.00     0.041 A 
ATOM     84  F   UNL A   1      40.987  33.969  34.545  1.00  0.00    -0.206 F 
ATOM     85  C   UNL A   1      38.932  33.725  37.515  1.00  0.00     0.022 A 
BRANCH  82  86
ATOM     86  S   UNL A   1      37.299  31.742  38.603  1.00  0.00     0.124 S 
ATOM     87  O   UNL A   1      37.046  30.411  38.064  1.00  0.00    -0.237 OA
ATOM     88  O   UNL A   1      38.054  31.796  39.851  1.00  0.00    -0.237 OA
ATOM     89  O   UNL A   1      36.180  32.677  38.512  1.00  0.00    -0.744 OA
ENDBRANCH  82  86
ENDBRANCH  55  79
BRANCH  67  90
ATOM     90  C   UNL A   1      45.410  28.285  33.907  1.00  0.00     0.023 A 
ATOM     91  C   UNL A   1      45.589  27.277  34.870  1.00  0.00     0.031 A 
ATOM     92  C   UNL A   1      46.484  29.153  33.647  1.00  0.00     0.131 A 
ATOM     93  C   UNL A   1      46.795  27.198  35.582  1.00  0.00     0.055 A 
ATOM     94  C   UNL A   1      47.702  29.034  34.318  1.00  0.00     0.041 A 
ATOM     95  F   UNL A   1      46.366  30.134  32.737  1.00  0.00    -0.206 F 
ATOM     96  C   UNL A   1      47.857  28.062  35.302  1.00  0.00     0.022 A 
BRANCH  93  97
ATOM     97  S   UNL A   1      46.924  26.011  36.947  1.00  0.00     0.124 S 
ATOM     98  O   UNL A   1      45.721  26.305  37.720  1.00  0.00    -0.237 OA
ATOM     99  O   UNL A   1      46.932  24.731  36.246  1.00  0.00    -0.237 OA
ATOM    100  O   UNL A   1      48.183  26.370  37.596  1.00  0.00    -0.744 OA
ENDBRANCH  93  97
ENDBRANCH  67  90
ENDBRANCH  41  42
ENDBRANCH  33  36
ENDBRANCH  31  32
ENDBRANCH  30  31
ENDBRANCH   1  30
TORSDOF 18
ENDMDL
