MODEL 1
REMARK VINA RESULT:     -10.9      0.000      0.000
REMARK SMILES CS(=O)(=O)CC[C@H](NC(=O)Cc1ccn[nH]1)C(=O)NCCCNC(=O)c1ccc(-c2c3nc(c(-c4cc(S(=O)(=O)[O-])ccc4F)c4ccc([nH]4)c(-c4cc(S(=O)(=O)[O-])ccc4F)c4nc(c(-c5cc(S(=O)(=O)[O-])ccc5F)c5ccc2[nH]5)C=C4)C=C3)cc1
REMARK SMILES IDX 21 1 20 2 19 3 17 4 18 5 7 7 6 8 5 9 2 10 1 11 3 12 4 13
REMARK SMILES IDX 8 14 9 15 10 17 11 18 12 19 13 20 16 21 14 22 15 23 22 25
REMARK SMILES IDX 23 26 24 27 25 29 26 30 27 31 88 32 28 33 87 34 29 35 30 36
REMARK SMILES IDX 31 37 81 38 32 39 86 40 80 41 82 42 33 43 85 44 79 45 78 46
REMARK SMILES IDX 34 48 66 49 46 50 65 51 47 52 50 53 64 54 83 55 48 56 49 57
REMARK SMILES IDX 63 59 84 60 51 61 35 62 36 63 44 64 37 65 43 66 45 67 42 68
REMARK SMILES IDX 38 69 39 70 40 71 41 72 67 73 68 74 76 75 69 76 75 77 77 78
REMARK SMILES IDX 74 79 70 80 71 81 72 82 73 83 52 84 53 85 61 86 54 87 60 88
REMARK SMILES IDX 62 89 59 90 55 91 56 92 57 93 58 94
REMARK H PARENT 19 6 8 16 16 24 23 28 82 47 50 58
REMARK Flexibility Score: inf
ROOT
ATOM      1  C   UNL A   1      31.470  31.382  26.273  1.00  0.00     0.042 C 
ENDROOT
BRANCH   1   2
ATOM      2  C   UNL A   1      31.561  29.970  25.718  1.00  0.00     0.117 C 
BRANCH   2   3
ATOM      3  N   UNL A   1      32.331  29.934  24.480  1.00  0.00    -0.354 N 
ATOM      4  C   UNL A   1      32.879  28.885  23.804  1.00  0.00     0.242 C 
ATOM      5  O   UNL A   1      33.409  29.107  22.714  1.00  0.00    -0.273 OA
ATOM      6  H   UNL A   1      32.480  30.814  24.064  1.00  0.00     0.163 HD
BRANCH   4   7
ATOM      7  C   UNL A   1      32.654  27.442  24.282  1.00  0.00     0.172 C 
BRANCH   7   8
ATOM      8  C   UNL A   1      33.779  26.551  23.735  1.00  0.00     0.051 C 
BRANCH   8   9
ATOM      9  C   UNL A   1      33.623  25.034  23.846  1.00  0.00     0.139 C 
BRANCH   9  10
ATOM     10  S   UNL A   1      32.892  24.251  22.418  1.00  0.00     0.147 S 
ATOM     11  C   UNL A   1      32.808  25.517  21.181  1.00  0.00     0.158 C 
ATOM     12  O   UNL A   1      31.524  23.913  22.773  1.00  0.00    -0.229 OA
ATOM     13  O   UNL A   1      33.798  23.227  21.936  1.00  0.00    -0.229 OA
ENDBRANCH   9  10
ENDBRANCH   8   9
ENDBRANCH   7   8
BRANCH   7  14
ATOM     14  N   UNL A   1      31.290  27.046  23.901  1.00  0.00    -0.344 N 
ATOM     15  C   UNL A   1      30.253  26.512  24.603  1.00  0.00     0.226 C 
ATOM     16  H   UNL A   1      31.086  27.196  22.949  1.00  0.00     0.164 HD
ATOM     17  O   UNL A   1      29.177  26.379  24.016  1.00  0.00    -0.275 OA
BRANCH  15  18
ATOM     18  C   UNL A   1      30.417  26.085  26.048  1.00  0.00     0.155 C 
BRANCH  18  19
ATOM     19  C   UNL A   1      30.923  24.685  26.156  1.00  0.00     0.044 A 
ATOM     20  C   UNL A   1      31.934  24.099  26.891  1.00  0.00     0.045 A 
ATOM     21  N   UNL A   1      30.301  23.649  25.506  1.00  0.00    -0.282 N 
ATOM     22  C   UNL A   1      31.745  22.715  26.723  1.00  0.00     0.135 A 
ATOM     23  N   UNL A   1      30.752  22.440  25.878  1.00  0.00    -0.184 NA
ATOM     24  H   UNL A   1      29.593  23.779  24.834  1.00  0.00     0.190 HD
ENDBRANCH  18  19
ENDBRANCH  15  18
ENDBRANCH   7  14
ENDBRANCH   4   7
ENDBRANCH   2   3
ENDBRANCH   1   2
BRANCH   1  25
ATOM     25  C   UNL A   1      32.554  31.696  27.293  1.00  0.00     0.118 C 
BRANCH  25  26
ATOM     26  N   UNL A   1      32.854  33.118  27.369  1.00  0.00    -0.352 N 
ATOM     27  C   UNL A   1      33.931  33.746  27.949  1.00  0.00     0.251 C 
ATOM     28  H   UNL A   1      32.195  33.714  26.946  1.00  0.00     0.163 HD
ATOM     29  O   UNL A   1      33.917  34.965  28.093  1.00  0.00    -0.269 OA
BRANCH  27  30
ATOM     30  C   UNL A   1      35.077  32.940  28.420  1.00  0.00     0.039 A 
ATOM     31  C   UNL A   1      36.369  33.449  28.280  1.00  0.00     0.014 A 
ATOM     32  C   UNL A   1      34.869  31.697  29.025  1.00  0.00     0.014 A 
ATOM     33  C   UNL A   1      37.447  32.741  28.816  1.00  0.00     0.010 A 
ATOM     34  C   UNL A   1      35.930  31.046  29.644  1.00  0.00     0.010 A 
ATOM     35  C   UNL A   1      37.231  31.557  29.541  1.00  0.00    -0.014 A 
BRANCH  35  36
ATOM     36  C   UNL A   1      38.356  30.831  30.186  1.00  0.00     0.031 A 
ATOM     37  C   UNL A   1      38.739  31.150  31.607  1.00  0.00     0.074 A 
ATOM     38  C   UNL A   1      39.067  29.933  29.476  1.00  0.00     0.049 A 
ATOM     39  N   UNL A   1      39.728  30.681  32.323  1.00  0.00    -0.248 NA
ATOM     40  C   UNL A   1      37.920  32.154  32.303  1.00  0.00     0.031 C 
ATOM     41  C   UNL A   1      38.818  29.573  28.077  1.00  0.00     0.029 A 
ATOM     42  N   UNL A   1      40.145  29.160  29.828  1.00  0.00    -0.354 N 
ATOM     43  C   UNL A   1      39.657  31.340  33.546  1.00  0.00     0.074 A 
ATOM     44  C   UNL A   1      38.573  32.292  33.446  1.00  0.00     0.031 C 
ATOM     45  C   UNL A   1      39.695  28.629  27.703  1.00  0.00     0.029 A 
ATOM     46  C   UNL A   1      40.604  28.352  28.811  1.00  0.00     0.049 A 
ATOM     47  H   UNL A   1      40.555  29.182  30.723  1.00  0.00     0.167 HD
ATOM     48  C   UNL A   1      40.409  31.149  34.657  1.00  0.00     0.034 A 
ATOM     49  C   UNL A   1      41.646  27.498  28.771  1.00  0.00     0.034 A 
ATOM     50  C   UNL A   1      41.480  30.185  34.741  1.00  0.00     0.049 A 
ATOM     51  C   UNL A   1      42.488  27.326  30.011  1.00  0.00     0.074 A 
ATOM     52  C   UNL A   1      42.269  29.869  35.832  1.00  0.00     0.029 A 
ATOM     53  N   UNL A   1      41.919  29.389  33.690  1.00  0.00    -0.354 N 
ATOM     54  N   UNL A   1      42.372  27.917  31.179  1.00  0.00    -0.248 NA
ATOM     55  C   UNL A   1      43.595  26.365  29.931  1.00  0.00     0.031 C 
ATOM     56  C   UNL A   1      43.235  28.945  35.421  1.00  0.00     0.029 A 
ATOM     57  C   UNL A   1      42.991  28.612  34.097  1.00  0.00     0.049 A 
ATOM     58  H   UNL A   1      41.525  29.379  32.788  1.00  0.00     0.167 HD
ATOM     59  C   UNL A   1      43.371  27.370  31.981  1.00  0.00     0.074 A 
ATOM     60  C   UNL A   1      44.065  26.393  31.168  1.00  0.00     0.031 C 
ATOM     61  C   UNL A   1      43.683  27.647  33.274  1.00  0.00     0.034 A 
BRANCH  48  62
ATOM     62  C   UNL A   1      40.113  32.018  35.858  1.00  0.00     0.023 A 
ATOM     63  C   UNL A   1      39.052  31.732  36.736  1.00  0.00     0.031 A 
ATOM     64  C   UNL A   1      40.887  33.163  36.117  1.00  0.00     0.131 A 
ATOM     65  C   UNL A   1      38.747  32.618  37.780  1.00  0.00     0.055 A 
ATOM     66  C   UNL A   1      40.634  33.993  37.210  1.00  0.00     0.041 A 
ATOM     67  F   UNL A   1      41.898  33.504  35.301  1.00  0.00    -0.206 F 
ATOM     68  C   UNL A   1      39.548  33.732  38.041  1.00  0.00     0.022 A 
BRANCH  65  69
ATOM     69  S   UNL A   1      37.198  32.379  38.692  1.00  0.00     0.124 S 
ATOM     70  O   UNL A   1      36.246  33.098  37.848  1.00  0.00    -0.237 OA
ATOM     71  O   UNL A   1      37.065  30.928  38.713  1.00  0.00    -0.237 OA
ATOM     72  O   UNL A   1      37.463  33.002  39.988  1.00  0.00    -0.744 OA
ENDBRANCH  65  69
ENDBRANCH  48  62
BRANCH  49  73
ATOM     73  C   UNL A   1      41.965  26.749  27.521  1.00  0.00     0.023 A 
ATOM     74  C   UNL A   1      41.723  25.369  27.421  1.00  0.00     0.031 A 
ATOM     75  C   UNL A   1      42.564  27.392  26.423  1.00  0.00     0.131 A 
ATOM     76  C   UNL A   1      42.126  24.669  26.273  1.00  0.00     0.055 A 
ATOM     77  C   UNL A   1      42.906  26.702  25.258  1.00  0.00     0.041 A 
ATOM     78  F   UNL A   1      42.816  28.710  26.463  1.00  0.00    -0.206 F 
ATOM     79  C   UNL A   1      42.701  25.328  25.185  1.00  0.00     0.022 A 
BRANCH  76  80
ATOM     80  S   UNL A   1      41.981  22.860  26.264  1.00  0.00     0.124 S 
ATOM     81  O   UNL A   1      42.725  22.498  27.464  1.00  0.00    -0.237 OA
ATOM     82  O   UNL A   1      40.535  22.673  26.324  1.00  0.00    -0.237 OA
ATOM     83  O   UNL A   1      42.605  22.475  25.000  1.00  0.00    -0.744 OA
ENDBRANCH  76  80
ENDBRANCH  49  73
BRANCH  61  84
ATOM     84  C   UNL A   1      44.796  26.841  33.900  1.00  0.00     0.023 A 
ATOM     85  C   UNL A   1      44.564  25.587  34.491  1.00  0.00     0.031 A 
ATOM     86  C   UNL A   1      46.109  27.344  33.911  1.00  0.00     0.131 A 
ATOM     87  C   UNL A   1      45.616  24.907  35.122  1.00  0.00     0.055 A 
ATOM     88  C   UNL A   1      47.166  26.630  34.479  1.00  0.00     0.041 A 
ATOM     89  F   UNL A   1      46.390  28.538  33.366  1.00  0.00    -0.206 F 
ATOM     90  C   UNL A   1      46.919  25.411  35.101  1.00  0.00     0.022 A 
BRANCH  87  91
ATOM     91  S   UNL A   1      45.239  23.404  36.065  1.00  0.00     0.124 S 
ATOM     92  O   UNL A   1      45.171  23.912  37.431  1.00  0.00    -0.237 OA
ATOM     93  O   UNL A   1      43.972  22.978  35.479  1.00  0.00    -0.237 OA
ATOM     94  O   UNL A   1      46.376  22.529  35.785  1.00  0.00    -0.744 OA
ENDBRANCH  87  91
ENDBRANCH  61  84
ENDBRANCH  35  36
ENDBRANCH  27  30
ENDBRANCH  25  26
ENDBRANCH   1  25
TORSDOF 19
ENDMDL
MODEL 2
REMARK VINA RESULT:     -10.8      2.481      3.504
REMARK SMILES CS(=O)(=O)CC[C@H](NC(=O)Cc1ccn[nH]1)C(=O)NCCCNC(=O)c1ccc(-c2c3nc(c(-c4cc(S(=O)(=O)[O-])ccc4F)c4ccc([nH]4)c(-c4cc(S(=O)(=O)[O-])ccc4F)c4nc(c(-c5cc(S(=O)(=O)[O-])ccc5F)c5ccc2[nH]5)C=C4)C=C3)cc1
REMARK SMILES IDX 21 1 20 2 19 3 17 4 18 5 7 7 6 8 5 9 2 10 1 11 3 12 4 13
REMARK SMILES IDX 8 14 9 15 10 17 11 18 12 19 13 20 16 21 14 22 15 23 22 25
REMARK SMILES IDX 23 26 24 27 25 29 26 30 27 31 88 32 28 33 87 34 29 35 30 36
REMARK SMILES IDX 31 37 81 38 32 39 86 40 80 41 82 42 33 43 85 44 79 45 78 46
REMARK SMILES IDX 34 48 66 49 46 50 65 51 47 52 50 53 64 54 83 55 48 56 49 57
REMARK SMILES IDX 63 59 84 60 51 61 35 62 36 63 44 64 37 65 43 66 45 67 42 68
REMARK SMILES IDX 38 69 39 70 40 71 41 72 67 73 68 74 76 75 69 76 75 77 77 78
REMARK SMILES IDX 74 79 70 80 71 81 72 82 73 83 52 84 53 85 61 86 54 87 60 88
REMARK SMILES IDX 62 89 59 90 55 91 56 92 57 93 58 94
REMARK H PARENT 19 6 8 16 16 24 23 28 82 47 50 58
REMARK Flexibility Score: inf
ROOT
ATOM      1  C   UNL A   1      33.339  27.674  26.446  1.00  0.00     0.042 C 
ENDROOT
BRANCH   1   2
ATOM      2  C   UNL A   1      31.890  28.133  26.407  1.00  0.00     0.117 C 
BRANCH   2   3
ATOM      3  N   UNL A   1      30.979  27.045  26.739  1.00  0.00    -0.354 N 
ATOM      4  C   UNL A   1      30.240  26.228  25.936  1.00  0.00     0.242 C 
ATOM      5  O   UNL A   1      29.611  25.308  26.462  1.00  0.00    -0.273 OA
ATOM      6  H   UNL A   1      30.881  26.871  27.703  1.00  0.00     0.163 HD
BRANCH   4   7
ATOM      7  C   UNL A   1      30.356  26.319  24.406  1.00  0.00     0.172 C 
BRANCH   7   8
ATOM      8  C   UNL A   1      29.214  27.193  23.866  1.00  0.00     0.051 C 
BRANCH   8   9
ATOM      9  C   UNL A   1      29.570  28.380  22.972  1.00  0.00     0.139 C 
BRANCH   9  10
ATOM     10  S   UNL A   1      28.216  29.494  22.633  1.00  0.00     0.147 S 
ATOM     11  C   UNL A   1      28.616  30.992  23.493  1.00  0.00     0.158 C 
ATOM     12  O   UNL A   1      27.038  28.937  23.274  1.00  0.00    -0.229 OA
ATOM     13  O   UNL A   1      28.206  29.794  21.214  1.00  0.00    -0.229 OA
ENDBRANCH   9  10
ENDBRANCH   8   9
ENDBRANCH   7   8
BRANCH   7  14
ATOM     14  N   UNL A   1      30.410  24.949  23.874  1.00  0.00    -0.344 N 
ATOM     15  C   UNL A   1      31.443  24.143  23.502  1.00  0.00     0.226 C 
ATOM     16  H   UNL A   1      29.525  24.532  23.765  1.00  0.00     0.164 HD
ATOM     17  O   UNL A   1      31.172  22.984  23.181  1.00  0.00    -0.275 OA
BRANCH  15  18
ATOM     18  C   UNL A   1      32.869  24.654  23.468  1.00  0.00     0.155 C 
BRANCH  18  19
ATOM     19  C   UNL A   1      33.738  23.934  24.446  1.00  0.00     0.044 A 
ATOM     20  C   UNL A   1      34.639  24.359  25.401  1.00  0.00     0.045 A 
ATOM     21  N   UNL A   1      33.672  22.571  24.589  1.00  0.00    -0.282 N 
ATOM     22  C   UNL A   1      34.945  23.204  26.144  1.00  0.00     0.135 A 
ATOM     23  N   UNL A   1      34.358  22.115  25.649  1.00  0.00    -0.184 NA
ATOM     24  H   UNL A   1      33.171  21.986  23.976  1.00  0.00     0.190 HD
ENDBRANCH  18  19
ENDBRANCH  15  18
ENDBRANCH   7  14
ENDBRANCH   4   7
ENDBRANCH   2   3
ENDBRANCH   1   2
BRANCH   1  25
ATOM     25  C   UNL A   1      34.327  28.781  26.112  1.00  0.00     0.118 C 
BRANCH  25  26
ATOM     26  N   UNL A   1      33.899  30.081  26.610  1.00  0.00    -0.352 N 
ATOM     27  C   UNL A   1      34.436  30.841  27.622  1.00  0.00     0.251 C 
ATOM     28  H   UNL A   1      33.117  30.471  26.158  1.00  0.00     0.163 HD
ATOM     29  O   UNL A   1      33.822  31.818  28.038  1.00  0.00    -0.269 OA
BRANCH  27  30
ATOM     30  C   UNL A   1      35.731  30.449  28.217  1.00  0.00     0.039 A 
ATOM     31  C   UNL A   1      35.739  29.706  29.398  1.00  0.00     0.014 A 
ATOM     32  C   UNL A   1      36.933  30.791  27.590  1.00  0.00     0.014 A 
ATOM     33  C   UNL A   1      36.953  29.243  29.909  1.00  0.00     0.010 A 
ATOM     34  C   UNL A   1      38.127  30.245  28.044  1.00  0.00     0.010 A 
ATOM     35  C   UNL A   1      38.153  29.471  29.213  1.00  0.00    -0.014 A 
BRANCH  35  36
ATOM     36  C   UNL A   1      39.444  28.919  29.699  1.00  0.00     0.031 A 
ATOM     37  C   UNL A   1      40.176  29.598  30.826  1.00  0.00     0.074 A 
ATOM     38  C   UNL A   1      39.984  27.845  29.087  1.00  0.00     0.049 A 
ATOM     39  N   UNL A   1      41.342  29.315  31.345  1.00  0.00    -0.248 NA
ATOM     40  C   UNL A   1      39.522  30.772  31.425  1.00  0.00     0.031 C 
ATOM     41  C   UNL A   1      39.389  27.129  27.955  1.00  0.00     0.029 A 
ATOM     42  N   UNL A   1      41.154  27.169  29.326  1.00  0.00    -0.354 N 
ATOM     43  C   UNL A   1      41.567  30.280  32.321  1.00  0.00     0.074 A 
ATOM     44  C   UNL A   1      40.449  31.196  32.270  1.00  0.00     0.031 C 
ATOM     45  C   UNL A   1      40.181  26.098  27.623  1.00  0.00     0.029 A 
ATOM     46  C   UNL A   1      41.364  26.107  28.475  1.00  0.00     0.049 A 
ATOM     47  H   UNL A   1      41.786  27.421  30.038  1.00  0.00     0.167 HD
ATOM     48  C   UNL A   1      42.597  30.376  33.197  1.00  0.00     0.034 A 
ATOM     49  C   UNL A   1      42.400  25.249  28.383  1.00  0.00     0.034 A 
ATOM     50  C   UNL A   1      43.698  29.445  33.240  1.00  0.00     0.049 A 
ATOM     51  C   UNL A   1      43.550  25.396  29.348  1.00  0.00     0.074 A 
ATOM     52  C   UNL A   1      44.765  29.415  34.120  1.00  0.00     0.029 A 
ATOM     53  N   UNL A   1      43.880  28.386  32.360  1.00  0.00    -0.354 N 
ATOM     54  N   UNL A   1      43.720  26.281  30.304  1.00  0.00    -0.248 NA
ATOM     55  C   UNL A   1      44.642  24.422  29.230  1.00  0.00     0.031 C 
ATOM     56  C   UNL A   1      45.631  28.392  33.723  1.00  0.00     0.029 A 
ATOM     57  C   UNL A   1      45.060  27.721  32.653  1.00  0.00     0.049 A 
ATOM     58  H   UNL A   1      43.261  28.143  31.634  1.00  0.00     0.167 HD
ATOM     59  C   UNL A   1      44.923  25.947  30.921  1.00  0.00     0.074 A 
ATOM     60  C   UNL A   1      45.423  24.770  30.240  1.00  0.00     0.031 C 
ATOM     61  C   UNL A   1      45.555  26.554  31.960  1.00  0.00     0.034 A 
BRANCH  48  62
ATOM     62  C   UNL A   1      42.589  31.543  34.157  1.00  0.00     0.023 A 
ATOM     63  C   UNL A   1      41.946  31.470  35.407  1.00  0.00     0.031 A 
ATOM     64  C   UNL A   1      43.212  32.755  33.812  1.00  0.00     0.131 A 
ATOM     65  C   UNL A   1      41.874  32.607  36.226  1.00  0.00     0.055 A 
ATOM     66  C   UNL A   1      43.214  33.855  34.671  1.00  0.00     0.041 A 
ATOM     67  F   UNL A   1      43.821  32.896  32.624  1.00  0.00    -0.206 F 
ATOM     68  C   UNL A   1      42.528  33.791  35.880  1.00  0.00     0.022 A 
BRANCH  65  69
ATOM     69  S   UNL A   1      40.782  32.561  37.673  1.00  0.00     0.124 S 
ATOM     70  O   UNL A   1      40.563  33.984  37.922  1.00  0.00    -0.237 OA
ATOM     71  O   UNL A   1      39.632  31.814  37.178  1.00  0.00    -0.237 OA
ATOM     72  O   UNL A   1      41.583  31.875  38.686  1.00  0.00    -0.744 OA
ENDBRANCH  65  69
ENDBRANCH  48  62
BRANCH  49  73
ATOM     73  C   UNL A   1      42.411  24.184  27.339  1.00  0.00     0.023 A 
ATOM     74  C   UNL A   1      41.778  22.949  27.556  1.00  0.00     0.031 A 
ATOM     75  C   UNL A   1      43.098  24.365  26.125  1.00  0.00     0.131 A 
ATOM     76  C   UNL A   1      41.890  21.927  26.600  1.00  0.00     0.055 A 
ATOM     77  C   UNL A   1      43.154  23.367  25.150  1.00  0.00     0.041 A 
ATOM     78  F   UNL A   1      43.720  25.526  25.864  1.00  0.00    -0.206 F 
ATOM     79  C   UNL A   1      42.559  22.132  25.392  1.00  0.00     0.022 A 
BRANCH  76  80
ATOM     80  S   UNL A   1      41.232  20.285  27.004  1.00  0.00     0.124 S 
ATOM     81  O   UNL A   1      40.831  20.461  28.394  1.00  0.00    -0.237 OA
ATOM     82  O   UNL A   1      40.149  20.147  26.036  1.00  0.00    -0.237 OA
ATOM     83  O   UNL A   1      42.374  19.398  26.789  1.00  0.00    -0.744 OA
ENDBRANCH  76  80
ENDBRANCH  49  73
BRANCH  61  84
ATOM     84  C   UNL A   1      46.833  25.919  32.452  1.00  0.00     0.023 A 
ATOM     85  C   UNL A   1      46.840  24.957  33.476  1.00  0.00     0.031 A 
ATOM     86  C   UNL A   1      48.067  26.292  31.889  1.00  0.00     0.131 A 
ATOM     87  C   UNL A   1      48.058  24.446  33.948  1.00  0.00     0.055 A 
ATOM     88  C   UNL A   1      49.271  25.729  32.315  1.00  0.00     0.041 A 
ATOM     89  F   UNL A   1      48.124  27.209  30.911  1.00  0.00    -0.206 F 
ATOM     90  C   UNL A   1      49.272  24.811  33.360  1.00  0.00     0.022 A 
BRANCH  87  91
ATOM     91  S   UNL A   1      48.045  23.380  35.415  1.00  0.00     0.124 S 
ATOM     92  O   UNL A   1      46.720  22.773  35.337  1.00  0.00    -0.237 OA
ATOM     93  O   UNL A   1      49.172  22.487  35.162  1.00  0.00    -0.237 OA
ATOM     94  O   UNL A   1      48.234  24.316  36.522  1.00  0.00    -0.744 OA
ENDBRANCH  87  91
ENDBRANCH  61  84
ENDBRANCH  35  36
ENDBRANCH  27  30
ENDBRANCH  25  26
ENDBRANCH   1  25
TORSDOF 19
ENDMDL
MODEL 3
REMARK VINA RESULT:     -10.8      2.802      3.792
REMARK SMILES CS(=O)(=O)CC[C@H](NC(=O)Cc1ccn[nH]1)C(=O)NCCCNC(=O)c1ccc(-c2c3nc(c(-c4cc(S(=O)(=O)[O-])ccc4F)c4ccc([nH]4)c(-c4cc(S(=O)(=O)[O-])ccc4F)c4nc(c(-c5cc(S(=O)(=O)[O-])ccc5F)c5ccc2[nH]5)C=C4)C=C3)cc1
REMARK SMILES IDX 21 1 20 2 19 3 17 4 18 5 7 7 6 8 5 9 2 10 1 11 3 12 4 13
REMARK SMILES IDX 8 14 9 15 10 17 11 18 12 19 13 20 16 21 14 22 15 23 22 25
REMARK SMILES IDX 23 26 24 27 25 29 26 30 27 31 88 32 28 33 87 34 29 35 30 36
REMARK SMILES IDX 31 37 81 38 32 39 86 40 80 41 82 42 33 43 85 44 79 45 78 46
REMARK SMILES IDX 34 48 66 49 46 50 65 51 47 52 50 53 64 54 83 55 48 56 49 57
REMARK SMILES IDX 63 59 84 60 51 61 35 62 36 63 44 64 37 65 43 66 45 67 42 68
REMARK SMILES IDX 38 69 39 70 40 71 41 72 67 73 68 74 76 75 69 76 75 77 77 78
REMARK SMILES IDX 74 79 70 80 71 81 72 82 73 83 52 84 53 85 61 86 54 87 60 88
REMARK SMILES IDX 62 89 59 90 55 91 56 92 57 93 58 94
REMARK H PARENT 19 6 8 16 16 24 23 28 82 47 50 58
REMARK Flexibility Score: inf
ROOT
ATOM      1  C   UNL A   1      33.262  27.491  25.846  1.00  0.00     0.042 C 
ENDROOT
BRANCH   1   2
ATOM      2  C   UNL A   1      31.849  28.051  25.835  1.00  0.00     0.117 C 
BRANCH   2   3
ATOM      3  N   UNL A   1      30.946  27.198  25.072  1.00  0.00    -0.354 N 
ATOM      4  C   UNL A   1      30.663  27.169  23.739  1.00  0.00     0.242 C 
ATOM      5  O   UNL A   1      29.924  26.276  23.319  1.00  0.00    -0.273 OA
ATOM      6  H   UNL A   1      30.459  26.532  25.610  1.00  0.00     0.163 HD
BRANCH   4   7
ATOM      7  C   UNL A   1      31.411  28.087  22.760  1.00  0.00     0.172 C 
BRANCH   7   8
ATOM      8  C   UNL A   1      30.493  29.253  22.364  1.00  0.00     0.051 C 
BRANCH   8   9
ATOM      9  C   UNL A   1      29.621  29.890  23.445  1.00  0.00     0.139 C 
BRANCH   9  10
ATOM     10  S   UNL A   1      28.386  31.027  22.838  1.00  0.00     0.147 S 
ATOM     11  C   UNL A   1      28.018  30.481  21.191  1.00  0.00     0.158 C 
ATOM     12  O   UNL A   1      29.024  32.326  22.722  1.00  0.00    -0.229 OA
ATOM     13  O   UNL A   1      27.182  30.869  23.630  1.00  0.00    -0.229 OA
ENDBRANCH   9  10
ENDBRANCH   8   9
ENDBRANCH   7   8
BRANCH   7  14
ATOM     14  N   UNL A   1      31.899  27.259  21.646  1.00  0.00    -0.344 N 
ATOM     15  C   UNL A   1      32.791  26.232  21.581  1.00  0.00     0.226 C 
ATOM     16  H   UNL A   1      31.504  27.494  20.776  1.00  0.00     0.164 HD
ATOM     17  O   UNL A   1      32.921  25.660  20.497  1.00  0.00    -0.275 OA
BRANCH  15  18
ATOM     18  C   UNL A   1      33.604  25.816  22.790  1.00  0.00     0.155 C 
BRANCH  18  19
ATOM     19  C   UNL A   1      33.028  24.610  23.455  1.00  0.00     0.044 A 
ATOM     20  C   UNL A   1      33.222  24.029  24.692  1.00  0.00     0.045 A 
ATOM     21  N   UNL A   1      32.031  23.876  22.862  1.00  0.00    -0.282 N 
ATOM     22  C   UNL A   1      32.211  23.057  24.795  1.00  0.00     0.135 A 
ATOM     23  N   UNL A   1      31.486  22.962  23.680  1.00  0.00    -0.184 NA
ATOM     24  H   UNL A   1      31.745  24.008  21.930  1.00  0.00     0.190 HD
ENDBRANCH  18  19
ENDBRANCH  15  18
ENDBRANCH   7  14
ENDBRANCH   4   7
ENDBRANCH   2   3
ENDBRANCH   1   2
BRANCH   1  25
ATOM     25  C   UNL A   1      34.334  28.570  25.797  1.00  0.00     0.118 C 
BRANCH  25  26
ATOM     26  N   UNL A   1      33.861  29.851  26.301  1.00  0.00    -0.352 N 
ATOM     27  C   UNL A   1      34.342  30.602  27.347  1.00  0.00     0.251 C 
ATOM     28  H   UNL A   1      33.088  30.234  25.826  1.00  0.00     0.163 HD
ATOM     29  O   UNL A   1      33.692  31.559  27.756  1.00  0.00    -0.269 OA
BRANCH  27  30
ATOM     30  C   UNL A   1      35.621  30.225  27.985  1.00  0.00     0.039 A 
ATOM     31  C   UNL A   1      35.601  29.622  29.244  1.00  0.00     0.014 A 
ATOM     32  C   UNL A   1      36.834  30.439  27.324  1.00  0.00     0.014 A 
ATOM     33  C   UNL A   1      36.795  29.169  29.806  1.00  0.00     0.010 A 
ATOM     34  C   UNL A   1      38.005  29.897  27.840  1.00  0.00     0.010 A 
ATOM     35  C   UNL A   1      38.001  29.262  29.090  1.00  0.00    -0.014 A 
BRANCH  35  36
ATOM     36  C   UNL A   1      39.269  28.714  29.637  1.00  0.00     0.031 A 
ATOM     37  C   UNL A   1      39.906  29.352  30.843  1.00  0.00     0.074 A 
ATOM     38  C   UNL A   1      39.874  27.682  29.015  1.00  0.00     0.049 A 
ATOM     39  N   UNL A   1      41.040  29.069  31.428  1.00  0.00    -0.248 NA
ATOM     40  C   UNL A   1      39.185  30.483  31.449  1.00  0.00     0.031 C 
ATOM     41  C   UNL A   1      39.375  27.010  27.813  1.00  0.00     0.029 A 
ATOM     42  N   UNL A   1      41.041  27.019  29.303  1.00  0.00    -0.354 N 
ATOM     43  C   UNL A   1      41.175  29.990  32.462  1.00  0.00     0.074 A 
ATOM     44  C   UNL A   1      40.042  30.884  32.376  1.00  0.00     0.031 C 
ATOM     45  C   UNL A   1      40.212  26.012  27.488  1.00  0.00     0.029 A 
ATOM     46  C   UNL A   1      41.334  26.004  28.420  1.00  0.00     0.049 A 
ATOM     47  H   UNL A   1      41.617  27.250  30.068  1.00  0.00     0.167 HD
ATOM     48  C   UNL A   1      42.140  30.064  33.410  1.00  0.00     0.034 A 
ATOM     49  C   UNL A   1      42.394  25.172  28.360  1.00  0.00     0.034 A 
ATOM     50  C   UNL A   1      43.258  29.154  33.486  1.00  0.00     0.049 A 
ATOM     51  C   UNL A   1      43.471  25.296  29.408  1.00  0.00     0.074 A 
ATOM     52  C   UNL A   1      44.262  29.103  34.436  1.00  0.00     0.029 A 
ATOM     53  N   UNL A   1      43.525  28.143  32.572  1.00  0.00    -0.354 N 
ATOM     54  N   UNL A   1      43.555  26.137  30.414  1.00  0.00    -0.248 NA
ATOM     55  C   UNL A   1      44.591  24.351  29.320  1.00  0.00     0.031 C 
ATOM     56  C   UNL A   1      45.178  28.118  34.052  1.00  0.00     0.029 A 
ATOM     57  C   UNL A   1      44.697  27.489  32.915  1.00  0.00     0.049 A 
ATOM     58  H   UNL A   1      42.962  27.923  31.795  1.00  0.00     0.167 HD
ATOM     59  C   UNL A   1      44.720  25.798  31.097  1.00  0.00     0.074 A 
ATOM     60  C   UNL A   1      45.293  24.666  30.398  1.00  0.00     0.031 C 
ATOM     61  C   UNL A   1      45.265  26.367  32.204  1.00  0.00     0.034 A 
BRANCH  48  62
ATOM     62  C   UNL A   1      42.040  31.183  34.421  1.00  0.00     0.023 A 
ATOM     63  C   UNL A   1      41.001  31.234  35.369  1.00  0.00     0.031 A 
ATOM     64  C   UNL A   1      42.982  32.227  34.425  1.00  0.00     0.131 A 
ATOM     65  C   UNL A   1      40.884  32.341  36.223  1.00  0.00     0.055 A 
ATOM     66  C   UNL A   1      42.911  33.281  35.338  1.00  0.00     0.041 A 
ATOM     67  F   UNL A   1      43.982  32.249  33.531  1.00  0.00    -0.206 F 
ATOM     68  C   UNL A   1      41.848  33.351  36.235  1.00  0.00     0.022 A 
BRANCH  65  69
ATOM     69  S   UNL A   1      39.371  32.517  37.207  1.00  0.00     0.124 S 
ATOM     70  O   UNL A   1      38.686  33.600  36.503  1.00  0.00    -0.237 OA
ATOM     71  O   UNL A   1      38.764  31.197  37.092  1.00  0.00    -0.237 OA
ATOM     72  O   UNL A   1      39.866  32.865  38.538  1.00  0.00    -0.744 OA
ENDBRANCH  65  69
ENDBRANCH  48  62
BRANCH  49  73
ATOM     73  C   UNL A   1      42.501  24.159  27.270  1.00  0.00     0.023 A 
ATOM     74  C   UNL A   1      41.880  22.904  27.383  1.00  0.00     0.031 A 
ATOM     75  C   UNL A   1      43.268  24.411  26.118  1.00  0.00     0.131 A 
ATOM     76  C   UNL A   1      42.082  21.932  26.391  1.00  0.00     0.055 A 
ATOM     77  C   UNL A   1      43.413  23.462  25.104  1.00  0.00     0.041 A 
ATOM     78  F   UNL A   1      43.882  25.594  25.957  1.00  0.00    -0.206 F 
ATOM     79  C   UNL A   1      42.830  22.207  25.245  1.00  0.00     0.022 A 
BRANCH  76  80
ATOM     80  S   UNL A   1      41.432  20.261  26.669  1.00  0.00     0.124 S 
ATOM     81  O   UNL A   1      42.237  19.815  27.800  1.00  0.00    -0.237 OA
ATOM     82  O   UNL A   1      40.024  20.526  26.948  1.00  0.00    -0.237 OA
ATOM     83  O   UNL A   1      41.696  19.578  25.404  1.00  0.00    -0.744 OA
ENDBRANCH  76  80
ENDBRANCH  49  73
BRANCH  61  84
ATOM     84  C   UNL A   1      46.522  25.735  32.753  1.00  0.00     0.023 A 
ATOM     85  C   UNL A   1      47.799  26.104  32.298  1.00  0.00     0.031 A 
ATOM     86  C   UNL A   1      46.436  24.741  33.743  1.00  0.00     0.131 A 
ATOM     87  C   UNL A   1      48.934  25.440  32.787  1.00  0.00     0.055 A 
ATOM     88  C   UNL A   1      47.573  24.133  34.278  1.00  0.00     0.041 A 
ATOM     89  F   UNL A   1      45.242  24.344  34.213  1.00  0.00    -0.206 F 
ATOM     90  C   UNL A   1      48.830  24.472  33.789  1.00  0.00     0.022 A 
BRANCH  87  91
ATOM     91  S   UNL A   1      50.541  25.783  32.020  1.00  0.00     0.124 S 
ATOM     92  O   UNL A   1      50.171  26.674  30.925  1.00  0.00    -0.237 OA
ATOM     93  O   UNL A   1      51.286  26.394  33.116  1.00  0.00    -0.237 OA
ATOM     94  O   UNL A   1      51.015  24.462  31.611  1.00  0.00    -0.744 OA
ENDBRANCH  87  91
ENDBRANCH  61  84
ENDBRANCH  35  36
ENDBRANCH  27  30
ENDBRANCH  25  26
ENDBRANCH   1  25
TORSDOF 19
ENDMDL
