MODEL 1
REMARK VINA RESULT:     -12.5      0.000      0.000
REMARK SMILES COC(=O)c1ccc(C)c(NC(=O)[C@H]2CC=CC[C@H]2C(=O)NCCCNC(=O)c2ccc(-c3c4nc(c(-c5cc(S(=O)(=O)[O-])ccc5F)c5ccc([nH]5)c(-c5cc(S(=O)(=O)[O-])ccc5F)c5nc(c(-c6cc(S(=O)(=O)[O-])ccc6F)c6ccc3[nH]6)C=C5)C=C4)cc2)c1
REMARK SMILES IDX 23 1 22 2 20 3 21 4 19 6 14 7 15 8 16 9 18 10 17 11 12 12
REMARK SMILES IDX 11 13 13 15 10 16 5 17 6 18 92 19 7 20 8 21 9 22 3 23 4 24
REMARK SMILES IDX 2 25 1 26 24 27 25 28 26 29 27 30 28 32 29 33 30 34 91 35
REMARK SMILES IDX 31 36 90 37 32 38 33 39 34 40 84 41 35 42 89 43 83 44 85 45
REMARK SMILES IDX 36 46 88 47 82 48 81 49 37 51 69 52 49 53 68 54 50 55 53 56
REMARK SMILES IDX 67 57 86 58 51 59 52 60 66 62 87 63 54 64 38 65 39 66 47 67
REMARK SMILES IDX 40 68 46 69 48 70 45 71 41 72 42 73 43 74 44 75 70 76 71 77
REMARK SMILES IDX 79 78 72 79 78 80 80 81 77 82 73 83 74 84 75 85 76 86 55 87
REMARK SMILES IDX 56 88 64 89 57 90 63 91 65 92 62 93 58 94 59 95 60 96 61 97
REMARK H PARENT 22 5 11 14 26 31 85 50 53 61
REMARK Flexibility Score: inf
ROOT
ATOM      1  C   UNL A   1      37.474  21.619  25.672  1.00  0.00     0.117 C 
ENDROOT
BRANCH   1   2
ATOM      2  N   UNL A   1      36.857  22.864  26.089  1.00  0.00    -0.356 N 
ATOM      3  C   UNL A   1      35.672  23.448  25.796  1.00  0.00     0.224 C 
ATOM      4  O   UNL A   1      35.442  24.556  26.294  1.00  0.00    -0.275 OA
ATOM      5  H   UNL A   1      37.411  23.390  26.709  1.00  0.00     0.163 HD
BRANCH   3   6
ATOM      6  C   UNL A   1      34.612  22.812  24.906  1.00  0.00     0.095 C 
ATOM      7  C   UNL A   1      33.167  22.788  25.465  1.00  0.00     0.095 C 
ATOM      8  C   UNL A   1      32.132  22.142  24.531  1.00  0.00     0.041 C 
ATOM      9  C   UNL A   1      32.507  22.084  23.071  1.00  0.00    -0.030 C 
ATOM     10  C   UNL A   1      34.790  23.071  23.405  1.00  0.00     0.041 C 
ATOM     11  C   UNL A   1      33.674  22.514  22.570  1.00  0.00    -0.030 C 
BRANCH   7  12
ATOM     12  C   UNL A   1      32.708  23.835  26.499  1.00  0.00     0.228 C 
ATOM     13  N   UNL A   1      32.592  25.178  26.519  1.00  0.00    -0.326 N 
ATOM     14  H   UNL A   1      32.261  25.411  27.418  1.00  0.00     0.169 HD
ATOM     15  O   UNL A   1      32.345  23.367  27.602  1.00  0.00    -0.274 OA
BRANCH  13  16
ATOM     16  C   UNL A   1      32.736  26.402  25.823  1.00  0.00     0.044 A 
ATOM     17  C   UNL A   1      33.470  27.386  23.668  1.00  0.00     0.062 A 
ATOM     18  C   UNL A   1      33.233  28.663  24.152  1.00  0.00     0.016 A 
ATOM     19  C   UNL A   1      33.277  26.275  24.514  1.00  0.00     0.042 A 
ATOM     20  C   UNL A   1      32.702  28.809  25.421  1.00  0.00     0.006 A 
ATOM     21  C   UNL A   1      32.381  27.690  26.220  1.00  0.00    -0.027 A 
ATOM     22  C   UNL A   1      31.622  28.012  27.445  1.00  0.00     0.046 C 
BRANCH  17  23
ATOM     23  C   UNL A   1      33.834  27.293  22.224  1.00  0.00     0.337 C 
ATOM     24  O   UNL A   1      34.092  28.247  21.522  1.00  0.00    -0.246 OA
BRANCH  23  25
ATOM     25  O   UNL A   1      33.737  26.020  21.775  1.00  0.00    -0.465 OA
ATOM     26  C   UNL A   1      32.638  25.884  20.878  1.00  0.00     0.282 C 
ENDBRANCH  23  25
ENDBRANCH  17  23
ENDBRANCH  13  16
ENDBRANCH   7  12
ENDBRANCH   3   6
ENDBRANCH   1   2
BRANCH   1  27
ATOM     27  C   UNL A   1      38.982  21.740  25.559  1.00  0.00     0.042 C 
BRANCH  27  28
ATOM     28  C   UNL A   1      39.729  21.679  26.880  1.00  0.00     0.118 C 
BRANCH  28  29
ATOM     29  N   UNL A   1      41.000  22.406  26.774  1.00  0.00    -0.352 N 
ATOM     30  C   UNL A   1      41.333  23.729  26.588  1.00  0.00     0.251 C 
ATOM     31  H   UNL A   1      41.785  21.819  26.854  1.00  0.00     0.163 HD
ATOM     32  O   UNL A   1      42.497  24.091  26.430  1.00  0.00    -0.269 OA
BRANCH  30  33
ATOM     33  C   UNL A   1      40.290  24.768  26.703  1.00  0.00     0.039 A 
ATOM     34  C   UNL A   1      40.680  25.993  26.151  1.00  0.00     0.014 A 
ATOM     35  C   UNL A   1      39.367  24.695  27.738  1.00  0.00     0.014 A 
ATOM     36  C   UNL A   1      40.539  27.121  26.929  1.00  0.00     0.010 A 
ATOM     37  C   UNL A   1      39.302  25.790  28.559  1.00  0.00     0.010 A 
ATOM     38  C   UNL A   1      39.991  26.949  28.193  1.00  0.00    -0.014 A 
BRANCH  38  39
ATOM     39  C   UNL A   1      40.075  27.944  29.228  1.00  0.00     0.031 A 
ATOM     40  C   UNL A   1      39.137  29.054  29.106  1.00  0.00     0.074 A 
ATOM     41  C   UNL A   1      40.938  27.780  30.252  1.00  0.00     0.049 A 
ATOM     42  N   UNL A   1      39.378  30.246  29.503  1.00  0.00    -0.248 NA
ATOM     43  C   UNL A   1      37.864  28.925  28.400  1.00  0.00     0.031 C 
ATOM     44  C   UNL A   1      41.040  28.556  31.480  1.00  0.00     0.029 A 
ATOM     45  N   UNL A   1      42.077  26.970  30.258  1.00  0.00    -0.354 N 
ATOM     46  C   UNL A   1      38.183  30.924  29.453  1.00  0.00     0.074 A 
ATOM     47  C   UNL A   1      37.333  30.129  28.607  1.00  0.00     0.031 C 
ATOM     48  C   UNL A   1      42.280  28.411  31.982  1.00  0.00     0.029 A 
ATOM     49  C   UNL A   1      43.051  27.649  31.014  1.00  0.00     0.049 A 
ATOM     50  H   UNL A   1      42.177  26.095  29.819  1.00  0.00     0.167 HD
ATOM     51  C   UNL A   1      38.013  31.968  30.304  1.00  0.00     0.034 A 
ATOM     52  C   UNL A   1      44.197  28.077  30.407  1.00  0.00     0.034 A 
ATOM     53  C   UNL A   1      39.254  32.208  31.050  1.00  0.00     0.049 A 
ATOM     54  C   UNL A   1      44.293  29.587  30.362  1.00  0.00     0.074 A 
ATOM     55  C   UNL A   1      39.677  31.864  32.325  1.00  0.00     0.029 A 
ATOM     56  N   UNL A   1      40.398  32.549  30.344  1.00  0.00    -0.354 N 
ATOM     57  N   UNL A   1      43.280  30.400  30.516  1.00  0.00    -0.248 NA
ATOM     58  C   UNL A   1      45.549  30.296  30.170  1.00  0.00     0.031 C 
ATOM     59  C   UNL A   1      41.096  31.978  32.358  1.00  0.00     0.029 A 
ATOM     60  C   UNL A   1      41.529  32.422  31.119  1.00  0.00     0.049 A 
ATOM     61  H   UNL A   1      40.400  32.847  29.405  1.00  0.00     0.167 HD
ATOM     62  C   UNL A   1      43.709  31.706  30.446  1.00  0.00     0.074 A 
ATOM     63  C   UNL A   1      45.143  31.576  30.235  1.00  0.00     0.031 C 
ATOM     64  C   UNL A   1      42.835  32.763  30.563  1.00  0.00     0.034 A 
BRANCH  51  65
ATOM     65  C   UNL A   1      36.686  32.567  30.699  1.00  0.00     0.023 A 
ATOM     66  C   UNL A   1      35.915  33.169  29.686  1.00  0.00     0.031 A 
ATOM     67  C   UNL A   1      36.133  32.637  31.993  1.00  0.00     0.131 A 
ATOM     68  C   UNL A   1      34.723  33.854  29.972  1.00  0.00     0.055 A 
ATOM     69  C   UNL A   1      34.958  33.345  32.286  1.00  0.00     0.041 A 
ATOM     70  F   UNL A   1      36.662  31.994  33.039  1.00  0.00    -0.206 F 
ATOM     71  C   UNL A   1      34.247  33.964  31.273  1.00  0.00     0.022 A 
BRANCH  68  72
ATOM     72  S   UNL A   1      33.806  34.599  28.601  1.00  0.00     0.124 S 
ATOM     73  O   UNL A   1      32.631  35.140  29.276  1.00  0.00    -0.237 OA
ATOM     74  O   UNL A   1      34.761  35.570  28.082  1.00  0.00    -0.237 OA
ATOM     75  O   UNL A   1      33.542  33.463  27.717  1.00  0.00    -0.744 OA
ENDBRANCH  68  72
ENDBRANCH  51  65
BRANCH  52  76
ATOM     76  C   UNL A   1      44.674  27.112  29.365  1.00  0.00     0.023 A 
ATOM     77  C   UNL A   1      44.424  27.468  28.019  1.00  0.00     0.031 A 
ATOM     78  C   UNL A   1      45.713  26.206  29.615  1.00  0.00     0.131 A 
ATOM     79  C   UNL A   1      45.326  27.103  27.006  1.00  0.00     0.055 A 
ATOM     80  C   UNL A   1      46.558  25.771  28.583  1.00  0.00     0.041 A 
ATOM     81  F   UNL A   1      46.018  25.842  30.869  1.00  0.00    -0.206 F 
ATOM     82  C   UNL A   1      46.404  26.265  27.284  1.00  0.00     0.022 A 
BRANCH  79  83
ATOM     83  S   UNL A   1      45.245  28.003  25.424  1.00  0.00     0.124 S 
ATOM     84  O   UNL A   1      43.826  28.305  25.303  1.00  0.00    -0.237 OA
ATOM     85  O   UNL A   1      46.126  29.146  25.664  1.00  0.00    -0.237 OA
ATOM     86  O   UNL A   1      45.774  27.056  24.442  1.00  0.00    -0.744 OA
ENDBRANCH  79  83
ENDBRANCH  52  76
BRANCH  64  87
ATOM     87  C   UNL A   1      43.110  34.228  30.222  1.00  0.00     0.023 A 
ATOM     88  C   UNL A   1      42.955  34.766  28.942  1.00  0.00     0.031 A 
ATOM     89  C   UNL A   1      43.524  35.172  31.205  1.00  0.00     0.131 A 
ATOM     90  C   UNL A   1      43.224  36.119  28.662  1.00  0.00     0.055 A 
ATOM     91  C   UNL A   1      43.752  36.526  30.939  1.00  0.00     0.041 A 
ATOM     92  F   UNL A   1      43.713  34.847  32.489  1.00  0.00    -0.206 F 
ATOM     93  C   UNL A   1      43.612  37.010  29.653  1.00  0.00     0.022 A 
BRANCH  90  94
ATOM     94  S   UNL A   1      43.091  36.661  26.941  1.00  0.00     0.124 S 
ATOM     95  O   UNL A   1      44.456  37.093  26.654  1.00  0.00    -0.237 OA
ATOM     96  O   UNL A   1      42.662  35.440  26.267  1.00  0.00    -0.237 OA
ATOM     97  O   UNL A   1      42.097  37.729  26.991  1.00  0.00    -0.744 OA
ENDBRANCH  90  94
ENDBRANCH  64  87
ENDBRANCH  38  39
ENDBRANCH  30  33
ENDBRANCH  28  29
ENDBRANCH  27  28
ENDBRANCH   1  27
TORSDOF 17
ENDMDL
MODEL 2
REMARK VINA RESULT:     -12.4      1.254      2.136
REMARK SMILES COC(=O)c1ccc(C)c(NC(=O)[C@H]2CC=CC[C@H]2C(=O)NCCCNC(=O)c2ccc(-c3c4nc(c(-c5cc(S(=O)(=O)[O-])ccc5F)c5ccc([nH]5)c(-c5cc(S(=O)(=O)[O-])ccc5F)c5nc(c(-c6cc(S(=O)(=O)[O-])ccc6F)c6ccc3[nH]6)C=C5)C=C4)cc2)c1
REMARK SMILES IDX 23 1 22 2 20 3 21 4 19 6 14 7 15 8 16 9 18 10 17 11 12 12
REMARK SMILES IDX 11 13 13 15 10 16 5 17 6 18 92 19 7 20 8 21 9 22 3 23 4 24
REMARK SMILES IDX 2 25 1 26 24 27 25 28 26 29 27 30 28 32 29 33 30 34 91 35
REMARK SMILES IDX 31 36 90 37 32 38 33 39 34 40 84 41 35 42 89 43 83 44 85 45
REMARK SMILES IDX 36 46 88 47 82 48 81 49 37 51 69 52 49 53 68 54 50 55 53 56
REMARK SMILES IDX 67 57 86 58 51 59 52 60 66 62 87 63 54 64 38 65 39 66 47 67
REMARK SMILES IDX 40 68 46 69 48 70 45 71 41 72 42 73 43 74 44 75 70 76 71 77
REMARK SMILES IDX 79 78 72 79 78 80 80 81 77 82 73 83 74 84 75 85 76 86 55 87
REMARK SMILES IDX 56 88 64 89 57 90 63 91 65 92 62 93 58 94 59 95 60 96 61 97
REMARK H PARENT 22 5 11 14 26 31 85 50 53 61
REMARK Flexibility Score: inf
ROOT
ATOM      1  C   UNL A   1      37.442  21.411  25.002  1.00  0.00     0.117 C 
ENDROOT
BRANCH   1   2
ATOM      2  N   UNL A   1      36.636  22.115  25.981  1.00  0.00    -0.356 N 
ATOM      3  C   UNL A   1      35.304  22.169  26.208  1.00  0.00     0.224 C 
ATOM      4  O   UNL A   1      34.909  22.905  27.120  1.00  0.00    -0.275 OA
ATOM      5  H   UNL A   1      37.164  22.663  26.604  1.00  0.00     0.163 HD
BRANCH   3   6
ATOM      6  C   UNL A   1      34.276  21.367  25.419  1.00  0.00     0.095 C 
ATOM      7  C   UNL A   1      33.496  22.137  24.324  1.00  0.00     0.095 C 
ATOM      8  C   UNL A   1      32.476  21.286  23.551  1.00  0.00     0.041 C 
ATOM      9  C   UNL A   1      32.702  19.796  23.581  1.00  0.00    -0.030 C 
ATOM     10  C   UNL A   1      34.680  19.918  25.120  1.00  0.00     0.041 C 
ATOM     11  C   UNL A   1      33.689  19.192  24.257  1.00  0.00    -0.030 C 
BRANCH   7  12
ATOM     12  C   UNL A   1      34.106  23.385  23.656  1.00  0.00     0.228 C 
ATOM     13  N   UNL A   1      33.763  24.685  23.557  1.00  0.00    -0.326 N 
ATOM     14  H   UNL A   1      34.465  25.113  23.012  1.00  0.00     0.169 HD
ATOM     15  O   UNL A   1      35.182  23.188  23.047  1.00  0.00    -0.274 OA
BRANCH  13  16
ATOM     16  C   UNL A   1      32.843  25.709  23.887  1.00  0.00     0.044 A 
ATOM     17  C   UNL A   1      32.134  27.227  25.715  1.00  0.00     0.062 A 
ATOM     18  C   UNL A   1      31.107  27.722  24.926  1.00  0.00     0.016 A 
ATOM     19  C   UNL A   1      32.954  26.193  25.219  1.00  0.00     0.042 A 
ATOM     20  C   UNL A   1      30.985  27.269  23.625  1.00  0.00     0.006 A 
ATOM     21  C   UNL A   1      31.889  26.331  23.083  1.00  0.00    -0.027 A 
ATOM     22  C   UNL A   1      31.754  26.124  21.627  1.00  0.00     0.046 C 
BRANCH  17  23
ATOM     23  C   UNL A   1      32.340  27.914  27.023  1.00  0.00     0.337 C 
ATOM     24  O   UNL A   1      31.533  27.919  27.926  1.00  0.00    -0.246 OA
BRANCH  23  25
ATOM     25  O   UNL A   1      33.499  28.614  27.031  1.00  0.00    -0.465 OA
ATOM     26  C   UNL A   1      33.265  29.968  27.412  1.00  0.00     0.282 C 
ENDBRANCH  23  25
ENDBRANCH  17  23
ENDBRANCH  13  16
ENDBRANCH   7  12
ENDBRANCH   3   6
ENDBRANCH   1   2
BRANCH   1  27
ATOM     27  C   UNL A   1      38.912  21.396  25.378  1.00  0.00     0.042 C 
BRANCH  27  28
ATOM     28  C   UNL A   1      39.244  22.092  26.686  1.00  0.00     0.118 C 
BRANCH  28  29
ATOM     29  N   UNL A   1      40.611  22.625  26.640  1.00  0.00    -0.352 N 
ATOM     30  C   UNL A   1      41.145  23.874  26.416  1.00  0.00     0.251 C 
ATOM     31  H   UNL A   1      41.296  21.938  26.806  1.00  0.00     0.163 HD
ATOM     32  O   UNL A   1      42.356  24.058  26.329  1.00  0.00    -0.269 OA
BRANCH  30  33
ATOM     33  C   UNL A   1      40.258  25.056  26.404  1.00  0.00     0.039 A 
ATOM     34  C   UNL A   1      40.901  26.213  25.952  1.00  0.00     0.014 A 
ATOM     35  C   UNL A   1      39.189  25.114  27.288  1.00  0.00     0.014 A 
ATOM     36  C   UNL A   1      40.810  27.344  26.732  1.00  0.00     0.010 A 
ATOM     37  C   UNL A   1      39.159  26.201  28.121  1.00  0.00     0.010 A 
ATOM     38  C   UNL A   1      40.057  27.248  27.895  1.00  0.00    -0.014 A 
BRANCH  38  39
ATOM     39  C   UNL A   1      40.127  28.213  28.958  1.00  0.00     0.031 A 
ATOM     40  C   UNL A   1      39.182  29.320  28.861  1.00  0.00     0.074 A 
ATOM     41  C   UNL A   1      40.985  28.026  29.983  1.00  0.00     0.049 A 
ATOM     42  N   UNL A   1      39.412  30.501  29.294  1.00  0.00    -0.248 NA
ATOM     43  C   UNL A   1      37.915  29.202  28.143  1.00  0.00     0.031 C 
ATOM     44  C   UNL A   1      41.073  28.767  31.234  1.00  0.00     0.029 A 
ATOM     45  N   UNL A   1      42.129  27.224  29.973  1.00  0.00    -0.354 N 
ATOM     46  C   UNL A   1      38.212  31.172  29.256  1.00  0.00     0.074 A 
ATOM     47  C   UNL A   1      37.374  30.396  28.382  1.00  0.00     0.031 C 
ATOM     48  C   UNL A   1      42.311  28.616  31.739  1.00  0.00     0.029 A 
ATOM     49  C   UNL A   1      43.093  27.888  30.755  1.00  0.00     0.049 A 
ATOM     50  H   UNL A   1      42.238  26.362  29.510  1.00  0.00     0.167 HD
ATOM     51  C   UNL A   1      38.029  32.190  30.135  1.00  0.00     0.034 A 
ATOM     52  C   UNL A   1      44.240  28.341  30.169  1.00  0.00     0.034 A 
ATOM     53  C   UNL A   1      39.263  32.417  30.896  1.00  0.00     0.049 A 
ATOM     54  C   UNL A   1      44.325  29.853  30.167  1.00  0.00     0.074 A 
ATOM     55  C   UNL A   1      39.680  32.040  32.163  1.00  0.00     0.029 A 
ATOM     56  N   UNL A   1      40.410  32.787  30.207  1.00  0.00    -0.354 N 
ATOM     57  N   UNL A   1      43.306  30.653  30.337  1.00  0.00    -0.248 NA
ATOM     58  C   UNL A   1      45.578  30.576  30.004  1.00  0.00     0.031 C 
ATOM     59  C   UNL A   1      41.099  32.163  32.209  1.00  0.00     0.029 A 
ATOM     60  C   UNL A   1      41.536  32.645  30.987  1.00  0.00     0.049 A 
ATOM     61  H   UNL A   1      40.416  33.111  29.278  1.00  0.00     0.167 HD
ATOM     62  C   UNL A   1      43.726  31.964  30.308  1.00  0.00     0.074 A 
ATOM     63  C   UNL A   1      45.162  31.850  30.103  1.00  0.00     0.031 C 
ATOM     64  C   UNL A   1      42.844  33.011  30.449  1.00  0.00     0.034 A 
BRANCH  51  65
ATOM     65  C   UNL A   1      36.695  32.768  30.538  1.00  0.00     0.023 A 
ATOM     66  C   UNL A   1      35.952  33.443  29.551  1.00  0.00     0.031 A 
ATOM     67  C   UNL A   1      36.111  32.753  31.820  1.00  0.00     0.131 A 
ATOM     68  C   UNL A   1      34.755  34.113  29.854  1.00  0.00     0.055 A 
ATOM     69  C   UNL A   1      34.933  33.445  32.133  1.00  0.00     0.041 A 
ATOM     70  F   UNL A   1      36.611  32.036  32.832  1.00  0.00    -0.206 F 
ATOM     71  C   UNL A   1      34.248  34.136  31.148  1.00  0.00     0.022 A 
BRANCH  68  72
ATOM     72  S   UNL A   1      33.876  34.955  28.515  1.00  0.00     0.124 S 
ATOM     73  O   UNL A   1      34.757  34.721  27.376  1.00  0.00    -0.237 OA
ATOM     74  O   UNL A   1      32.596  34.257  28.499  1.00  0.00    -0.237 OA
ATOM     75  O   UNL A   1      33.814  36.343  28.974  1.00  0.00    -0.744 OA
ENDBRANCH  68  72
ENDBRANCH  51  65
BRANCH  52  76
ATOM     76  C   UNL A   1      44.731  27.410  29.103  1.00  0.00     0.023 A 
ATOM     77  C   UNL A   1      44.891  27.964  27.810  1.00  0.00     0.031 A 
ATOM     78  C   UNL A   1      45.460  26.253  29.408  1.00  0.00     0.131 A 
ATOM     79  C   UNL A   1      45.908  27.502  26.958  1.00  0.00     0.055 A 
ATOM     80  C   UNL A   1      46.411  25.740  28.513  1.00  0.00     0.041 A 
ATOM     81  F   UNL A   1      45.372  25.688  30.621  1.00  0.00    -0.206 F 
ATOM     82  C   UNL A   1      46.681  26.397  27.310  1.00  0.00     0.022 A 
BRANCH  79  83
ATOM     83  S   UNL A   1      46.401  28.564  25.563  1.00  0.00     0.124 S 
ATOM     84  O   UNL A   1      47.855  28.504  25.617  1.00  0.00    -0.237 OA
ATOM     85  O   UNL A   1      45.773  27.899  24.421  1.00  0.00    -0.237 OA
ATOM     86  O   UNL A   1      45.812  29.867  25.874  1.00  0.00    -0.744 OA
ENDBRANCH  79  83
ENDBRANCH  52  76
BRANCH  64  87
ATOM     87  C   UNL A   1      43.110  34.487  30.152  1.00  0.00     0.023 A 
ATOM     88  C   UNL A   1      42.971  35.058  28.885  1.00  0.00     0.031 A 
ATOM     89  C   UNL A   1      43.498  35.408  31.167  1.00  0.00     0.131 A 
ATOM     90  C   UNL A   1      43.231  36.420  28.645  1.00  0.00     0.055 A 
ATOM     91  C   UNL A   1      43.718  36.771  30.941  1.00  0.00     0.041 A 
ATOM     92  F   UNL A   1      43.669  35.050  32.445  1.00  0.00    -0.206 F 
ATOM     93  C   UNL A   1      43.595  37.288  29.667  1.00  0.00     0.022 A 
BRANCH  90  94
ATOM     94  S   UNL A   1      43.122  37.008  26.938  1.00  0.00     0.124 S 
ATOM     95  O   UNL A   1      42.091  38.037  27.037  1.00  0.00    -0.237 OA
ATOM     96  O   UNL A   1      44.476  37.494  26.694  1.00  0.00    -0.237 OA
ATOM     97  O   UNL A   1      42.742  35.815  26.186  1.00  0.00    -0.744 OA
ENDBRANCH  90  94
ENDBRANCH  64  87
ENDBRANCH  38  39
ENDBRANCH  30  33
ENDBRANCH  28  29
ENDBRANCH  27  28
ENDBRANCH   1  27
TORSDOF 17
ENDMDL
MODEL 3
REMARK VINA RESULT:     -12.3      4.080      9.440
REMARK SMILES COC(=O)c1ccc(C)c(NC(=O)[C@H]2CC=CC[C@H]2C(=O)NCCCNC(=O)c2ccc(-c3c4nc(c(-c5cc(S(=O)(=O)[O-])ccc5F)c5ccc([nH]5)c(-c5cc(S(=O)(=O)[O-])ccc5F)c5nc(c(-c6cc(S(=O)(=O)[O-])ccc6F)c6ccc3[nH]6)C=C5)C=C4)cc2)c1
REMARK SMILES IDX 23 1 22 2 20 3 21 4 19 6 14 7 15 8 16 9 18 10 17 11 12 12
REMARK SMILES IDX 11 13 13 15 10 16 5 17 6 18 92 19 7 20 8 21 9 22 3 23 4 24
REMARK SMILES IDX 2 25 1 26 24 27 25 28 26 29 27 30 28 32 29 33 30 34 91 35
REMARK SMILES IDX 31 36 90 37 32 38 33 39 34 40 84 41 35 42 89 43 83 44 85 45
REMARK SMILES IDX 36 46 88 47 82 48 81 49 37 51 69 52 49 53 68 54 50 55 53 56
REMARK SMILES IDX 67 57 86 58 51 59 52 60 66 62 87 63 54 64 38 65 39 66 47 67
REMARK SMILES IDX 40 68 46 69 48 70 45 71 41 72 42 73 43 74 44 75 70 76 71 77
REMARK SMILES IDX 79 78 72 79 78 80 80 81 77 82 73 83 74 84 75 85 76 86 55 87
REMARK SMILES IDX 56 88 64 89 57 90 63 91 65 92 62 93 58 94 59 95 60 96 61 97
REMARK H PARENT 22 5 11 14 26 31 85 50 53 61
REMARK Flexibility Score: inf
ROOT
ATOM      1  C   UNL A   1      32.323  30.541  26.563  1.00  0.00     0.117 C 
ENDROOT
BRANCH   1   2
ATOM      2  N   UNL A   1      33.260  29.734  25.805  1.00  0.00    -0.356 N 
ATOM      3  C   UNL A   1      33.102  28.828  24.814  1.00  0.00     0.224 C 
ATOM      4  O   UNL A   1      34.117  28.267  24.384  1.00  0.00    -0.275 OA
ATOM      5  H   UNL A   1      34.199  29.873  26.065  1.00  0.00     0.163 HD
BRANCH   3   6
ATOM      6  C   UNL A   1      31.755  28.475  24.195  1.00  0.00     0.095 C 
ATOM      7  C   UNL A   1      31.074  27.185  24.716  1.00  0.00     0.095 C 
ATOM      8  C   UNL A   1      29.716  26.874  24.067  1.00  0.00     0.041 C 
ATOM      9  C   UNL A   1      29.007  28.042  23.429  1.00  0.00    -0.030 C 
ATOM     10  C   UNL A   1      30.857  29.677  23.879  1.00  0.00     0.041 C 
ATOM     11  C   UNL A   1      29.501  29.286  23.364  1.00  0.00    -0.030 C 
BRANCH   7  12
ATOM     12  C   UNL A   1      31.380  26.652  26.130  1.00  0.00     0.228 C 
ATOM     13  N   UNL A   1      31.813  25.483  26.641  1.00  0.00    -0.326 N 
ATOM     14  H   UNL A   1      31.848  25.607  27.619  1.00  0.00     0.169 HD
ATOM     15  O   UNL A   1      31.196  27.473  27.057  1.00  0.00    -0.274 OA
BRANCH  13  16
ATOM     16  C   UNL A   1      32.238  24.154  26.399  1.00  0.00     0.044 A 
ATOM     17  C   UNL A   1      34.237  22.764  25.929  1.00  0.00     0.062 A 
ATOM     18  C   UNL A   1      33.442  21.635  25.806  1.00  0.00     0.016 A 
ATOM     19  C   UNL A   1      33.634  24.016  26.166  1.00  0.00     0.042 A 
ATOM     20  C   UNL A   1      32.083  21.746  26.035  1.00  0.00     0.006 A 
ATOM     21  C   UNL A   1      31.495  22.975  26.405  1.00  0.00    -0.027 A 
ATOM     22  C   UNL A   1      30.083  22.874  26.826  1.00  0.00     0.046 C 
BRANCH  17  23
ATOM     23  C   UNL A   1      35.710  22.533  25.886  1.00  0.00     0.337 C 
ATOM     24  O   UNL A   1      36.228  21.439  25.815  1.00  0.00    -0.246 OA
BRANCH  23  25
ATOM     25  O   UNL A   1      36.393  23.692  26.040  1.00  0.00    -0.465 OA
ATOM     26  C   UNL A   1      37.797  23.464  25.948  1.00  0.00     0.282 C 
ENDBRANCH  23  25
ENDBRANCH  17  23
ENDBRANCH  13  16
ENDBRANCH   7  12
ENDBRANCH   3   6
ENDBRANCH   1   2
BRANCH   1  27
ATOM     27  C   UNL A   1      33.025  31.450  27.555  1.00  0.00     0.042 C 
BRANCH  27  28
ATOM     28  C   UNL A   1      34.538  31.493  27.422  1.00  0.00     0.118 C 
BRANCH  28  29
ATOM     29  N   UNL A   1      35.144  31.891  28.698  1.00  0.00    -0.352 N 
ATOM     30  C   UNL A   1      35.833  31.218  29.682  1.00  0.00     0.251 C 
ATOM     31  H   UNL A   1      35.033  32.849  28.894  1.00  0.00     0.163 HD
ATOM     32  O   UNL A   1      36.165  31.761  30.733  1.00  0.00    -0.269 OA
BRANCH  30  33
ATOM     33  C   UNL A   1      36.304  29.840  29.431  1.00  0.00     0.039 A 
ATOM     34  C   UNL A   1      36.826  29.228  30.576  1.00  0.00     0.014 A 
ATOM     35  C   UNL A   1      36.728  29.487  28.157  1.00  0.00     0.014 A 
ATOM     36  C   UNL A   1      38.072  28.649  30.482  1.00  0.00     0.010 A 
ATOM     37  C   UNL A   1      38.004  28.996  28.066  1.00  0.00     0.010 A 
ATOM     38  C   UNL A   1      38.697  28.697  29.242  1.00  0.00    -0.014 A 
BRANCH  38  39
ATOM     39  C   UNL A   1      40.099  28.436  29.059  1.00  0.00     0.031 A 
ATOM     40  C   UNL A   1      40.444  27.051  28.758  1.00  0.00     0.074 A 
ATOM     41  C   UNL A   1      40.986  29.452  29.111  1.00  0.00     0.049 A 
ATOM     42  N   UNL A   1      41.539  26.491  29.109  1.00  0.00    -0.248 NA
ATOM     43  C   UNL A   1      39.501  26.134  28.122  1.00  0.00     0.031 C 
ATOM     44  C   UNL A   1      42.400  29.435  28.764  1.00  0.00     0.029 A 
ATOM     45  N   UNL A   1      40.794  30.692  29.726  1.00  0.00    -0.354 N 
ATOM     46  C   UNL A   1      41.601  25.296  28.431  1.00  0.00     0.074 A 
ATOM     47  C   UNL A   1      40.257  25.046  27.984  1.00  0.00     0.031 C 
ATOM     48  C   UNL A   1      43.013  30.451  29.400  1.00  0.00     0.029 A 
ATOM     49  C   UNL A   1      42.033  31.063  30.281  1.00  0.00     0.049 A 
ATOM     50  H   UNL A   1      39.955  31.206  29.764  1.00  0.00     0.167 HD
ATOM     51  C   UNL A   1      42.830  24.782  28.169  1.00  0.00     0.034 A 
ATOM     52  C   UNL A   1      42.157  31.179  31.636  1.00  0.00     0.034 A 
ATOM     53  C   UNL A   1      43.862  25.618  28.794  1.00  0.00     0.049 A 
ATOM     54  C   UNL A   1      43.083  30.133  32.220  1.00  0.00     0.074 A 
ATOM     55  C   UNL A   1      44.704  26.607  28.310  1.00  0.00     0.029 A 
ATOM     56  N   UNL A   1      43.858  25.756  30.174  1.00  0.00    -0.354 N 
ATOM     57  N   UNL A   1      43.428  29.027  31.615  1.00  0.00    -0.248 NA
ATOM     58  C   UNL A   1      43.717  30.274  33.522  1.00  0.00     0.031 C 
ATOM     59  C   UNL A   1      45.179  27.357  29.425  1.00  0.00     0.029 A 
ATOM     60  C   UNL A   1      44.655  26.803  30.581  1.00  0.00     0.049 A 
ATOM     61  H   UNL A   1      43.349  25.176  30.787  1.00  0.00     0.167 HD
ATOM     62  C   UNL A   1      44.300  28.310  32.403  1.00  0.00     0.074 A 
ATOM     63  C   UNL A   1      44.447  29.147  33.584  1.00  0.00     0.031 C 
ATOM     64  C   UNL A   1      44.805  27.094  32.004  1.00  0.00     0.034 A 
BRANCH  51  65
ATOM     65  C   UNL A   1      43.137  23.742  27.120  1.00  0.00     0.023 A 
ATOM     66  C   UNL A   1      42.433  22.524  27.184  1.00  0.00     0.031 A 
ATOM     67  C   UNL A   1      44.093  23.827  26.088  1.00  0.00     0.131 A 
ATOM     68  C   UNL A   1      42.729  21.452  26.326  1.00  0.00     0.055 A 
ATOM     69  C   UNL A   1      44.410  22.750  25.249  1.00  0.00     0.041 A 
ATOM     70  F   UNL A   1      44.741  24.959  25.797  1.00  0.00    -0.206 F 
ATOM     71  C   UNL A   1      43.731  21.550  25.368  1.00  0.00     0.022 A 
BRANCH  68  72
ATOM     72  S   UNL A   1      41.772  19.926  26.491  1.00  0.00     0.124 S 
ATOM     73  O   UNL A   1      40.401  20.425  26.518  1.00  0.00    -0.237 OA
ATOM     74  O   UNL A   1      42.167  19.182  25.302  1.00  0.00    -0.237 OA
ATOM     75  O   UNL A   1      42.249  19.365  27.756  1.00  0.00    -0.744 OA
ENDBRANCH  68  72
ENDBRANCH  51  65
BRANCH  52  76
ATOM     76  C   UNL A   1      40.918  31.738  32.267  1.00  0.00     0.023 A 
ATOM     77  C   UNL A   1      40.361  30.988  33.329  1.00  0.00     0.031 A 
ATOM     78  C   UNL A   1      40.604  33.102  32.200  1.00  0.00     0.131 A 
ATOM     79  C   UNL A   1      39.712  31.635  34.394  1.00  0.00     0.055 A 
ATOM     80  C   UNL A   1      39.874  33.727  33.222  1.00  0.00     0.041 A 
ATOM     81  F   UNL A   1      41.115  33.876  31.231  1.00  0.00    -0.206 F 
ATOM     82  C   UNL A   1      39.476  33.008  34.353  1.00  0.00     0.022 A 
BRANCH  79  83
ATOM     83  S   UNL A   1      39.485  30.709  35.946  1.00  0.00     0.124 S 
ATOM     84  O   UNL A   1      40.001  31.634  36.945  1.00  0.00    -0.237 OA
ATOM     85  O   UNL A   1      38.041  30.477  35.970  1.00  0.00    -0.237 OA
ATOM     86  O   UNL A   1      40.268  29.487  35.756  1.00  0.00    -0.744 OA
ENDBRANCH  79  83
ENDBRANCH  52  76
BRANCH  64  87
ATOM     87  C   UNL A   1      45.533  26.067  32.873  1.00  0.00     0.023 A 
ATOM     88  C   UNL A   1      44.884  25.211  33.765  1.00  0.00     0.031 A 
ATOM     89  C   UNL A   1      46.945  25.889  32.815  1.00  0.00     0.131 A 
ATOM     90  C   UNL A   1      45.586  24.282  34.556  1.00  0.00     0.055 A 
ATOM     91  C   UNL A   1      47.642  24.938  33.569  1.00  0.00     0.041 A 
ATOM     92  F   UNL A   1      47.735  26.607  32.010  1.00  0.00    -0.206 F 
ATOM     93  C   UNL A   1      46.963  24.130  34.460  1.00  0.00     0.022 A 
BRANCH  90  94
ATOM     94  S   UNL A   1      44.637  23.312  35.752  1.00  0.00     0.124 S 
ATOM     95  O   UNL A   1      43.441  22.974  34.986  1.00  0.00    -0.237 OA
ATOM     96  O   UNL A   1      45.541  22.201  36.031  1.00  0.00    -0.237 OA
ATOM     97  O   UNL A   1      44.427  24.239  36.861  1.00  0.00    -0.744 OA
ENDBRANCH  90  94
ENDBRANCH  64  87
ENDBRANCH  38  39
ENDBRANCH  30  33
ENDBRANCH  28  29
ENDBRANCH  27  28
ENDBRANCH   1  27
TORSDOF 17
ENDMDL
