MODEL 1
REMARK VINA RESULT:     -10.2      0.000      0.000
REMARK SMILES Cc1c(C[NH2+]CC(=O)NCCCNC(=O)c2ccc(-c3c4nc(c(-c5cc(S(=O)(=O)[O-])ccc5F)c5ccc([nH]5)c(-c5cc(S(=O)(=O)[O-])ccc5F)c5nc(c(-c6cc(S(=O)(=O)[O-])ccc6F)c6ccc3[nH]6)C=C5)C=C4)cc2)cnn1C
REMARK SMILES IDX 11 1 10 2 9 3 7 4 8 5 6 7 5 8 4 11 3 12 1 13 2 14 81 15
REMARK SMILES IDX 79 16 80 17 82 18 12 19 13 20 14 21 15 23 16 24 17 25 78 26
REMARK SMILES IDX 18 27 77 28 19 29 20 30 21 31 71 32 22 33 76 34 70 35 72 36
REMARK SMILES IDX 23 37 75 38 69 39 68 40 24 42 56 43 36 44 55 45 37 46 40 47
REMARK SMILES IDX 54 48 73 49 38 50 39 51 53 53 74 54 41 55 25 56 26 57 34 58
REMARK SMILES IDX 27 59 33 60 35 61 32 62 28 63 29 64 30 65 31 66 57 67 58 68
REMARK SMILES IDX 66 69 59 70 65 71 67 72 64 73 60 74 61 75 62 76 63 77 42 78
REMARK SMILES IDX 43 79 51 80 44 81 50 82 52 83 49 84 45 85 46 86 47 87 48 88
REMARK H PARENT 9 6 5 9 5 10 13 22 72 41 40 52
REMARK Flexibility Score: inf
ROOT
ATOM      1  C   UNL A   1      34.222  34.876  28.532  1.00  0.00     0.042 C 
ENDROOT
BRANCH   1   2
ATOM      2  C   UNL A   1      32.961  35.416  29.218  1.00  0.00     0.118 C 
BRANCH   2   3
ATOM      3  N   UNL A   1      33.204  36.606  30.029  1.00  0.00    -0.351 N 
ATOM      4  C   UNL A   1      32.955  36.868  31.348  1.00  0.00     0.275 C 
ATOM      5  O   UNL A   1      33.252  37.985  31.780  1.00  0.00    -0.269 OA
ATOM      6  H   UNL A   1      33.622  37.351  29.539  1.00  0.00     0.163 HD
BRANCH   4   7
ATOM      7  C   UNL A   1      32.279  35.829  32.260  1.00  0.00     0.362 C 
BRANCH   7   8
ATOM      8  N   UNL A   1      33.196  34.734  32.665  1.00  0.00    -0.335 N 
ATOM      9  H   UNL A   1      32.918  34.378  33.580  1.00  0.00     0.347 HD
ATOM     10  H   UNL A   1      33.149  33.980  31.979  1.00  0.00     0.347 HD
BRANCH   8  11
ATOM     11  C   UNL A   1      34.558  35.242  32.735  1.00  0.00     0.301 C 
BRANCH  11  12
ATOM     12  C   UNL A   1      35.480  34.428  33.558  1.00  0.00     0.047 A 
ATOM     13  C   UNL A   1      36.946  33.125  31.846  1.00  0.00     0.067 C 
ATOM     14  C   UNL A   1      36.433  33.492  33.188  1.00  0.00     0.044 A 
ATOM     15  N   UNL A   1      36.800  32.863  34.354  1.00  0.00    -0.272 N 
ATOM     16  C   UNL A   1      35.416  34.322  34.967  1.00  0.00     0.145 A 
ATOM     17  N   UNL A   1      36.233  33.393  35.449  1.00  0.00    -0.181 NA
ATOM     18  C   UNL A   1      37.622  31.685  34.507  1.00  0.00     0.174 C 
ENDBRANCH  11  12
ENDBRANCH   8  11
ENDBRANCH   7   8
ENDBRANCH   4   7
ENDBRANCH   2   3
ENDBRANCH   1   2
BRANCH   1  19
ATOM     19  C   UNL A   1      34.706  33.525  29.048  1.00  0.00     0.118 C 
BRANCH  19  20
ATOM     20  N   UNL A   1      34.013  32.429  28.396  1.00  0.00    -0.352 N 
ATOM     21  C   UNL A   1      34.481  31.195  28.006  1.00  0.00     0.251 C 
ATOM     22  H   UNL A   1      33.063  32.593  28.202  1.00  0.00     0.163 HD
ATOM     23  O   UNL A   1      33.803  30.540  27.217  1.00  0.00    -0.269 OA
BRANCH  21  24
ATOM     24  C   UNL A   1      35.774  30.651  28.501  1.00  0.00     0.039 A 
ATOM     25  C   UNL A   1      36.940  30.945  27.784  1.00  0.00     0.014 A 
ATOM     26  C   UNL A   1      35.851  29.792  29.601  1.00  0.00     0.014 A 
ATOM     27  C   UNL A   1      38.172  30.418  28.189  1.00  0.00     0.010 A 
ATOM     28  C   UNL A   1      37.091  29.325  30.048  1.00  0.00     0.010 A 
ATOM     29  C   UNL A   1      38.266  29.619  29.340  1.00  0.00    -0.014 A 
BRANCH  29  30
ATOM     30  C   UNL A   1      39.575  29.064  29.789  1.00  0.00     0.031 A 
ATOM     31  C   UNL A   1      40.345  29.730  30.902  1.00  0.00     0.074 A 
ATOM     32  C   UNL A   1      40.096  27.983  29.172  1.00  0.00     0.049 A 
ATOM     33  N   UNL A   1      41.525  29.435  31.389  1.00  0.00    -0.248 NA
ATOM     34  C   UNL A   1      39.712  30.897  31.532  1.00  0.00     0.031 C 
ATOM     35  C   UNL A   1      39.473  27.265  28.060  1.00  0.00     0.029 A 
ATOM     36  N   UNL A   1      41.272  27.306  29.385  1.00  0.00    -0.354 N 
ATOM     37  C   UNL A   1      41.784  30.390  32.368  1.00  0.00     0.074 A 
ATOM     38  C   UNL A   1      40.659  31.302  32.364  1.00  0.00     0.031 C 
ATOM     39  C   UNL A   1      40.261  26.238  27.702  1.00  0.00     0.029 A 
ATOM     40  C   UNL A   1      41.465  26.247  28.528  1.00  0.00     0.049 A 
ATOM     41  H   UNL A   1      41.917  27.555  30.087  1.00  0.00     0.167 HD
ATOM     42  C   UNL A   1      42.847  30.487  33.205  1.00  0.00     0.034 A 
ATOM     43  C   UNL A   1      42.499  25.389  28.407  1.00  0.00     0.034 A 
ATOM     44  C   UNL A   1      43.955  29.560  33.212  1.00  0.00     0.049 A 
ATOM     45  C   UNL A   1      43.678  25.526  29.336  1.00  0.00     0.074 A 
ATOM     46  C   UNL A   1      45.052  29.534  34.057  1.00  0.00     0.029 A 
ATOM     47  N   UNL A   1      44.114  28.501  32.328  1.00  0.00    -0.354 N 
ATOM     48  N   UNL A   1      43.885  26.408  30.286  1.00  0.00    -0.248 NA
ATOM     49  C   UNL A   1      44.759  24.543  29.182  1.00  0.00     0.031 C 
ATOM     50  C   UNL A   1      45.901  28.499  33.646  1.00  0.00     0.029 A 
ATOM     51  C   UNL A   1      45.303  27.834  32.590  1.00  0.00     0.049 A 
ATOM     52  H   UNL A   1      43.475  28.258  31.619  1.00  0.00     0.167 HD
ATOM     53  C   UNL A   1      45.108  26.068  30.859  1.00  0.00     0.074 A 
ATOM     54  C   UNL A   1      45.582  24.893  30.159  1.00  0.00     0.031 C 
ATOM     55  C   UNL A   1      45.774  26.671  31.875  1.00  0.00     0.034 A 
BRANCH  42  56
ATOM     56  C   UNL A   1      42.873  31.655  34.165  1.00  0.00     0.023 A 
ATOM     57  C   UNL A   1      42.362  31.549  35.471  1.00  0.00     0.031 A 
ATOM     58  C   UNL A   1      43.393  32.898  33.761  1.00  0.00     0.131 A 
ATOM     59  C   UNL A   1      42.309  32.683  36.297  1.00  0.00     0.055 A 
ATOM     60  C   UNL A   1      43.411  34.001  34.617  1.00  0.00     0.041 A 
ATOM     61  F   UNL A   1      43.879  33.066  32.522  1.00  0.00    -0.206 F 
ATOM     62  C   UNL A   1      42.852  33.902  35.888  1.00  0.00     0.022 A 
BRANCH  59  63
ATOM     63  S   UNL A   1      41.389  32.575  37.857  1.00  0.00     0.124 S 
ATOM     64  O   UNL A   1      42.158  31.565  38.582  1.00  0.00    -0.237 OA
ATOM     65  O   UNL A   1      41.475  33.936  38.370  1.00  0.00    -0.237 OA
ATOM     66  O   UNL A   1      40.055  32.146  37.439  1.00  0.00    -0.744 OA
ENDBRANCH  59  63
ENDBRANCH  42  56
BRANCH  43  67
ATOM     67  C   UNL A   1      42.481  24.332  27.356  1.00  0.00     0.023 A 
ATOM     68  C   UNL A   1      41.828  23.108  27.570  1.00  0.00     0.031 A 
ATOM     69  C   UNL A   1      43.154  24.517  26.135  1.00  0.00     0.131 A 
ATOM     70  C   UNL A   1      41.896  22.100  26.596  1.00  0.00     0.055 A 
ATOM     71  C   UNL A   1      43.177  23.530  25.149  1.00  0.00     0.041 A 
ATOM     72  F   UNL A   1      43.792  25.671  25.880  1.00  0.00    -0.206 F 
ATOM     73  C   UNL A   1      42.555  22.307  25.382  1.00  0.00     0.022 A 
BRANCH  70  74
ATOM     74  S   UNL A   1      41.171  20.479  26.969  1.00  0.00     0.124 S 
ATOM     75  O   UNL A   1      40.826  20.625  28.378  1.00  0.00    -0.237 OA
ATOM     76  O   UNL A   1      40.049  20.428  26.036  1.00  0.00    -0.237 OA
ATOM     77  O   UNL A   1      42.258  19.546  26.684  1.00  0.00    -0.744 OA
ENDBRANCH  70  74
ENDBRANCH  43  67
BRANCH  55  78
ATOM     78  C   UNL A   1      47.071  26.037  32.314  1.00  0.00     0.023 A 
ATOM     79  C   UNL A   1      47.120  25.096  33.359  1.00  0.00     0.031 A 
ATOM     80  C   UNL A   1      48.279  26.394  31.688  1.00  0.00     0.131 A 
ATOM     81  C   UNL A   1      48.357  24.585  33.781  1.00  0.00     0.055 A 
ATOM     82  C   UNL A   1      49.500  25.839  32.075  1.00  0.00     0.041 A 
ATOM     83  F   UNL A   1      48.291  27.289  30.687  1.00  0.00    -0.206 F 
ATOM     84  C   UNL A   1      49.545  24.939  33.137  1.00  0.00     0.022 A 
BRANCH  81  85
ATOM     85  S   UNL A   1      48.404  23.514  35.244  1.00  0.00     0.124 S 
ATOM     86  O   UNL A   1      48.197  22.192  34.661  1.00  0.00    -0.237 OA
ATOM     87  O   UNL A   1      49.737  23.773  35.779  1.00  0.00    -0.237 OA
ATOM     88  O   UNL A   1      47.301  24.008  36.067  1.00  0.00    -0.744 OA
ENDBRANCH  81  85
ENDBRANCH  55  78
ENDBRANCH  29  30
ENDBRANCH  21  24
ENDBRANCH  19  20
ENDBRANCH   1  19
TORSDOF 16
ENDMDL
MODEL 2
REMARK VINA RESULT:     -10.0      4.216     10.218
REMARK SMILES Cc1c(C[NH2+]CC(=O)NCCCNC(=O)c2ccc(-c3c4nc(c(-c5cc(S(=O)(=O)[O-])ccc5F)c5ccc([nH]5)c(-c5cc(S(=O)(=O)[O-])ccc5F)c5nc(c(-c6cc(S(=O)(=O)[O-])ccc6F)c6ccc3[nH]6)C=C5)C=C4)cc2)cnn1C
REMARK SMILES IDX 11 1 10 2 9 3 7 4 8 5 6 7 5 8 4 11 3 12 1 13 2 14 81 15
REMARK SMILES IDX 79 16 80 17 82 18 12 19 13 20 14 21 15 23 16 24 17 25 78 26
REMARK SMILES IDX 18 27 77 28 19 29 20 30 21 31 71 32 22 33 76 34 70 35 72 36
REMARK SMILES IDX 23 37 75 38 69 39 68 40 24 42 56 43 36 44 55 45 37 46 40 47
REMARK SMILES IDX 54 48 73 49 38 50 39 51 53 53 74 54 41 55 25 56 26 57 34 58
REMARK SMILES IDX 27 59 33 60 35 61 32 62 28 63 29 64 30 65 31 66 57 67 58 68
REMARK SMILES IDX 66 69 59 70 65 71 67 72 64 73 60 74 61 75 62 76 63 77 42 78
REMARK SMILES IDX 43 79 51 80 44 81 50 82 52 83 49 84 45 85 46 86 47 87 48 88
REMARK H PARENT 9 6 5 9 5 10 13 22 72 41 40 52
REMARK Flexibility Score: inf
ROOT
ATOM      1  C   UNL A   1      31.430  32.301  26.511  1.00  0.00     0.042 C 
ENDROOT
BRANCH   1   2
ATOM      2  C   UNL A   1      31.281  30.786  26.322  1.00  0.00     0.118 C 
BRANCH   2   3
ATOM      3  N   UNL A   1      32.475  30.149  25.774  1.00  0.00    -0.351 N 
ATOM      4  C   UNL A   1      32.728  28.850  25.425  1.00  0.00     0.275 C 
ATOM      5  O   UNL A   1      33.851  28.578  24.994  1.00  0.00    -0.269 OA
ATOM      6  H   UNL A   1      33.232  30.762  25.631  1.00  0.00     0.163 HD
BRANCH   4   7
ATOM      7  C   UNL A   1      31.669  27.748  25.608  1.00  0.00     0.362 C 
BRANCH   7   8
ATOM      8  N   UNL A   1      31.423  26.974  24.366  1.00  0.00    -0.335 N 
ATOM      9  H   UNL A   1      32.033  27.318  23.624  1.00  0.00     0.347 HD
ATOM     10  H   UNL A   1      31.619  25.987  24.536  1.00  0.00     0.347 HD
BRANCH   8  11
ATOM     11  C   UNL A   1      30.033  27.130  23.963  1.00  0.00     0.301 C 
BRANCH  11  12
ATOM     12  C   UNL A   1      29.755  28.341  23.160  1.00  0.00     0.047 A 
ATOM     13  C   UNL A   1      27.176  28.673  23.306  1.00  0.00     0.067 C 
ATOM     14  C   UNL A   1      28.553  28.949  22.829  1.00  0.00     0.044 A 
ATOM     15  N   UNL A   1      28.864  29.871  21.858  1.00  0.00    -0.272 N 
ATOM     16  C   UNL A   1      30.718  29.029  22.386  1.00  0.00     0.145 A 
ATOM     17  N   UNL A   1      30.181  29.971  21.618  1.00  0.00    -0.181 NA
ATOM     18  C   UNL A   1      27.956  30.640  21.040  1.00  0.00     0.174 C 
ENDBRANCH  11  12
ENDBRANCH   8  11
ENDBRANCH   7   8
ENDBRANCH   4   7
ENDBRANCH   2   3
ENDBRANCH   1   2
BRANCH   1  19
ATOM     19  C   UNL A   1      32.692  32.735  27.249  1.00  0.00     0.118 C 
BRANCH  19  20
ATOM     20  N   UNL A   1      32.611  34.121  27.670  1.00  0.00    -0.352 N 
ATOM     21  C   UNL A   1      33.214  34.760  28.728  1.00  0.00     0.251 C 
ATOM     22  H   UNL A   1      32.035  34.692  27.114  1.00  0.00     0.163 HD
ATOM     23  O   UNL A   1      32.781  35.859  29.067  1.00  0.00    -0.269 OA
BRANCH  21  24
ATOM     24  C   UNL A   1      34.354  34.155  29.468  1.00  0.00     0.039 A 
ATOM     25  C   UNL A   1      35.655  34.421  29.025  1.00  0.00     0.014 A 
ATOM     26  C   UNL A   1      34.167  33.267  30.532  1.00  0.00     0.014 A 
ATOM     27  C   UNL A   1      36.755  33.837  29.665  1.00  0.00     0.010 A 
ATOM     28  C   UNL A   1      35.266  32.742  31.217  1.00  0.00     0.010 A 
ATOM     29  C   UNL A   1      36.575  33.008  30.784  1.00  0.00    -0.014 A 
BRANCH  29  30
ATOM     30  C   UNL A   1      37.738  32.391  31.483  1.00  0.00     0.031 A 
ATOM     31  C   UNL A   1      38.513  31.272  30.834  1.00  0.00     0.074 A 
ATOM     32  C   UNL A   1      38.078  32.806  32.721  1.00  0.00     0.049 A 
ATOM     33  N   UNL A   1      39.511  30.568  31.308  1.00  0.00    -0.248 NA
ATOM     34  C   UNL A   1      38.091  30.877  29.483  1.00  0.00     0.031 C 
ATOM     35  C   UNL A   1      37.391  33.854  33.478  1.00  0.00     0.029 A 
ATOM     36  N   UNL A   1      39.079  32.392  33.566  1.00  0.00    -0.354 N 
ATOM     37  C   UNL A   1      39.824  29.636  30.322  1.00  0.00     0.074 A 
ATOM     38  C   UNL A   1      38.872  29.834  29.249  1.00  0.00     0.031 C 
ATOM     39  C   UNL A   1      38.002  34.014  34.663  1.00  0.00     0.029 A 
ATOM     40  C   UNL A   1      39.096  33.053  34.772  1.00  0.00     0.049 A 
ATOM     41  H   UNL A   1      39.725  31.686  33.330  1.00  0.00     0.167 HD
ATOM     42  C   UNL A   1      40.822  28.717  30.303  1.00  0.00     0.034 A 
ATOM     43  C   UNL A   1      39.890  32.897  35.851  1.00  0.00     0.034 A 
ATOM     44  C   UNL A   1      41.777  28.541  31.371  1.00  0.00     0.049 A 
ATOM     45  C   UNL A   1      40.981  31.858  35.814  1.00  0.00     0.074 A 
ATOM     46  C   UNL A   1      42.861  27.681  31.426  1.00  0.00     0.029 A 
ATOM     47  N   UNL A   1      41.761  29.231  32.576  1.00  0.00    -0.354 N 
ATOM     48  N   UNL A   1      41.290  31.016  34.855  1.00  0.00    -0.248 NA
ATOM     49  C   UNL A   1      41.838  31.755  37.004  1.00  0.00     0.031 C 
ATOM     50  C   UNL A   1      43.461  27.807  32.684  1.00  0.00     0.029 A 
ATOM     51  C   UNL A   1      42.797  28.795  33.390  1.00  0.00     0.049 A 
ATOM     52  H   UNL A   1      41.109  29.928  32.818  1.00  0.00     0.167 HD
ATOM     53  C   UNL A   1      42.394  30.304  35.318  1.00  0.00     0.074 A 
ATOM     54  C   UNL A   1      42.704  30.825  36.632  1.00  0.00     0.031 C 
ATOM     55  C   UNL A   1      43.089  29.312  34.707  1.00  0.00     0.034 A 
BRANCH  42  56
ATOM     56  C   UNL A   1      40.910  27.812  29.094  1.00  0.00     0.023 A 
ATOM     57  C   UNL A   1      41.876  28.010  28.092  1.00  0.00     0.031 A 
ATOM     58  C   UNL A   1      40.001  26.751  28.930  1.00  0.00     0.131 A 
ATOM     59  C   UNL A   1      41.861  27.214  26.936  1.00  0.00     0.055 A 
ATOM     60  C   UNL A   1      40.044  25.911  27.816  1.00  0.00     0.041 A 
ATOM     61  F   UNL A   1      39.046  26.522  29.844  1.00  0.00    -0.206 F 
ATOM     62  C   UNL A   1      40.967  26.150  26.802  1.00  0.00     0.022 A 
BRANCH  59  63
ATOM     63  S   UNL A   1      42.932  27.682  25.549  1.00  0.00     0.124 S 
ATOM     64  O   UNL A   1      43.990  28.424  26.231  1.00  0.00    -0.237 OA
ATOM     65  O   UNL A   1      43.314  26.389  24.994  1.00  0.00    -0.237 OA
ATOM     66  O   UNL A   1      42.060  28.495  24.701  1.00  0.00    -0.744 OA
ENDBRANCH  59  63
ENDBRANCH  42  56
BRANCH  43  67
ATOM     67  C   UNL A   1      39.677  33.730  37.069  1.00  0.00     0.023 A 
ATOM     68  C   UNL A   1      38.990  33.223  38.183  1.00  0.00     0.031 A 
ATOM     69  C   UNL A   1      40.126  35.062  37.120  1.00  0.00     0.131 A 
ATOM     70  C   UNL A   1      38.733  34.054  39.284  1.00  0.00     0.055 A 
ATOM     71  C   UNL A   1      39.912  35.869  38.238  1.00  0.00     0.041 A 
ATOM     72  F   UNL A   1      40.791  35.593  36.083  1.00  0.00    -0.206 F 
ATOM     73  C   UNL A   1      39.200  35.370  39.324  1.00  0.00     0.022 A 
BRANCH  70  74
ATOM     74  S   UNL A   1      37.711  33.413  40.639  1.00  0.00     0.124 S 
ATOM     75  O   UNL A   1      37.516  34.606  41.455  1.00  0.00    -0.237 OA
ATOM     76  O   UNL A   1      36.535  32.924  39.926  1.00  0.00    -0.237 OA
ATOM     77  O   UNL A   1      38.549  32.377  41.237  1.00  0.00    -0.744 OA
ENDBRANCH  70  74
ENDBRANCH  43  67
BRANCH  55  78
ATOM     78  C   UNL A   1      44.283  28.758  35.446  1.00  0.00     0.023 A 
ATOM     79  C   UNL A   1      44.152  27.745  36.412  1.00  0.00     0.031 A 
ATOM     80  C   UNL A   1      45.570  29.268  35.192  1.00  0.00     0.131 A 
ATOM     81  C   UNL A   1      45.279  27.309  37.126  1.00  0.00     0.055 A 
ATOM     82  C   UNL A   1      46.695  28.792  35.865  1.00  0.00     0.041 A 
ATOM     83  F   UNL A   1      45.752  30.238  34.282  1.00  0.00    -0.206 F 
ATOM     84  C   UNL A   1      46.552  27.816  36.848  1.00  0.00     0.022 A 
BRANCH  81  85
ATOM     85  S   UNL A   1      45.050  26.133  38.486  1.00  0.00     0.124 S 
ATOM     86  O   UNL A   1      46.165  26.464  39.367  1.00  0.00    -0.237 OA
ATOM     87  O   UNL A   1      43.722  26.480  38.981  1.00  0.00    -0.237 OA
ATOM     88  O   UNL A   1      45.144  24.829  37.832  1.00  0.00    -0.744 OA
ENDBRANCH  81  85
ENDBRANCH  55  78
ENDBRANCH  29  30
ENDBRANCH  21  24
ENDBRANCH  19  20
ENDBRANCH   1  19
TORSDOF 16
ENDMDL
MODEL 3
REMARK VINA RESULT:      -9.9      3.681      6.295
REMARK SMILES Cc1c(C[NH2+]CC(=O)NCCCNC(=O)c2ccc(-c3c4nc(c(-c5cc(S(=O)(=O)[O-])ccc5F)c5ccc([nH]5)c(-c5cc(S(=O)(=O)[O-])ccc5F)c5nc(c(-c6cc(S(=O)(=O)[O-])ccc6F)c6ccc3[nH]6)C=C5)C=C4)cc2)cnn1C
REMARK SMILES IDX 11 1 10 2 9 3 7 4 8 5 6 7 5 8 4 11 3 12 1 13 2 14 81 15
REMARK SMILES IDX 79 16 80 17 82 18 12 19 13 20 14 21 15 23 16 24 17 25 78 26
REMARK SMILES IDX 18 27 77 28 19 29 20 30 21 31 71 32 22 33 76 34 70 35 72 36
REMARK SMILES IDX 23 37 75 38 69 39 68 40 24 42 56 43 36 44 55 45 37 46 40 47
REMARK SMILES IDX 54 48 73 49 38 50 39 51 53 53 74 54 41 55 25 56 26 57 34 58
REMARK SMILES IDX 27 59 33 60 35 61 32 62 28 63 29 64 30 65 31 66 57 67 58 68
REMARK SMILES IDX 66 69 59 70 65 71 67 72 64 73 60 74 61 75 62 76 63 77 42 78
REMARK SMILES IDX 43 79 51 80 44 81 50 82 52 83 49 84 45 85 46 86 47 87 48 88
REMARK H PARENT 9 6 5 9 5 10 13 22 72 41 40 52
REMARK Flexibility Score: inf
ROOT
ATOM      1  C   UNL A   1      32.261  28.318  27.163  1.00  0.00     0.042 C 
ENDROOT
BRANCH   1   2
ATOM      2  C   UNL A   1      31.492  27.443  26.166  1.00  0.00     0.118 C 
BRANCH   2   3
ATOM      3  N   UNL A   1      31.078  26.157  26.720  1.00  0.00    -0.351 N 
ATOM      4  C   UNL A   1      31.641  24.913  26.636  1.00  0.00     0.275 C 
ATOM      5  O   UNL A   1      31.061  23.980  27.198  1.00  0.00    -0.269 OA
ATOM      6  H   UNL A   1      30.247  26.192  27.246  1.00  0.00     0.163 HD
BRANCH   4   7
ATOM      7  C   UNL A   1      32.927  24.665  25.829  1.00  0.00     0.362 C 
BRANCH   7   8
ATOM      8  N   UNL A   1      32.726  23.727  24.698  1.00  0.00    -0.335 N 
ATOM      9  H   UNL A   1      31.890  23.167  24.864  1.00  0.00     0.347 HD
ATOM     10  H   UNL A   1      32.614  24.256  23.833  1.00  0.00     0.347 HD
BRANCH   8  11
ATOM     11  C   UNL A   1      33.882  22.849  24.583  1.00  0.00     0.301 C 
BRANCH  11  12
ATOM     12  C   UNL A   1      33.585  21.411  24.763  1.00  0.00     0.047 A 
ATOM     13  C   UNL A   1      35.912  20.258  24.956  1.00  0.00     0.067 C 
ATOM     14  C   UNL A   1      34.434  20.318  24.851  1.00  0.00     0.044 A 
ATOM     15  N   UNL A   1      33.622  19.214  24.746  1.00  0.00    -0.272 N 
ATOM     16  C   UNL A   1      32.292  20.842  24.685  1.00  0.00     0.145 A 
ATOM     17  N   UNL A   1      32.314  19.514  24.700  1.00  0.00    -0.181 NA
ATOM     18  C   UNL A   1      34.016  17.832  24.590  1.00  0.00     0.174 C 
ENDBRANCH  11  12
ENDBRANCH   8  11
ENDBRANCH   7   8
ENDBRANCH   4   7
ENDBRANCH   2   3
ENDBRANCH   1   2
BRANCH   1  19
ATOM     19  C   UNL A   1      33.479  29.031  26.586  1.00  0.00     0.118 C 
BRANCH  19  20
ATOM     20  N   UNL A   1      33.463  30.448  26.899  1.00  0.00    -0.352 N 
ATOM     21  C   UNL A   1      34.250  31.171  27.765  1.00  0.00     0.251 C 
ATOM     22  H   UNL A   1      32.785  30.972  26.417  1.00  0.00     0.163 HD
ATOM     23  O   UNL A   1      33.876  32.296  28.088  1.00  0.00    -0.269 OA
BRANCH  21  24
ATOM     24  C   UNL A   1      35.517  30.624  28.321  1.00  0.00     0.039 A 
ATOM     25  C   UNL A   1      36.711  30.872  27.633  1.00  0.00     0.014 A 
ATOM     26  C   UNL A   1      35.544  29.807  29.455  1.00  0.00     0.014 A 
ATOM     27  C   UNL A   1      37.920  30.340  28.097  1.00  0.00     0.010 A 
ATOM     28  C   UNL A   1      36.760  29.337  29.959  1.00  0.00     0.010 A 
ATOM     29  C   UNL A   1      37.963  29.585  29.279  1.00  0.00    -0.014 A 
BRANCH  29  30
ATOM     30  C   UNL A   1      39.246  29.025  29.792  1.00  0.00     0.031 A 
ATOM     31  C   UNL A   1      39.929  29.650  30.983  1.00  0.00     0.074 A 
ATOM     32  C   UNL A   1      39.825  27.981  29.164  1.00  0.00     0.049 A 
ATOM     33  N   UNL A   1      41.077  29.348  31.536  1.00  0.00    -0.248 NA
ATOM     34  C   UNL A   1      39.237  30.779  31.620  1.00  0.00     0.031 C 
ATOM     35  C   UNL A   1      39.289  27.306  27.981  1.00  0.00     0.029 A 
ATOM     36  N   UNL A   1      40.993  27.309  29.426  1.00  0.00    -0.354 N 
ATOM     37  C   UNL A   1      41.255  30.260  32.572  1.00  0.00     0.074 A 
ATOM     38  C   UNL A   1      40.119  31.157  32.532  1.00  0.00     0.031 C 
ATOM     39  C   UNL A   1      40.116  26.307  27.632  1.00  0.00     0.029 A 
ATOM     40  C   UNL A   1      41.261  26.293  28.538  1.00  0.00     0.049 A 
ATOM     41  H   UNL A   1      41.586  27.533  30.181  1.00  0.00     0.167 HD
ATOM     42  C   UNL A   1      42.258  30.332  33.483  1.00  0.00     0.034 A 
ATOM     43  C   UNL A   1      42.313  25.454  28.449  1.00  0.00     0.034 A 
ATOM     44  C   UNL A   1      43.377  29.419  33.524  1.00  0.00     0.049 A 
ATOM     45  C   UNL A   1      43.425  25.563  29.462  1.00  0.00     0.074 A 
ATOM     46  C   UNL A   1      44.414  29.368  34.441  1.00  0.00     0.029 A 
ATOM     47  N   UNL A   1      43.611  28.404  32.607  1.00  0.00    -0.354 N 
ATOM     48  N   UNL A   1      43.553  26.403  30.462  1.00  0.00    -0.248 NA
ATOM     49  C   UNL A   1      44.529  24.601  29.338  1.00  0.00     0.031 C 
ATOM     50  C   UNL A   1      45.305  28.364  34.043  1.00  0.00     0.029 A 
ATOM     51  C   UNL A   1      44.790  27.740  32.919  1.00  0.00     0.049 A 
ATOM     52  H   UNL A   1      43.026  28.186  31.845  1.00  0.00     0.167 HD
ATOM     53  C   UNL A   1      44.739  26.053  31.102  1.00  0.00     0.074 A 
ATOM     54  C   UNL A   1      45.279  24.916  30.384  1.00  0.00     0.031 C 
ATOM     55  C   UNL A   1      45.326  26.617  32.187  1.00  0.00     0.034 A 
BRANCH  42  56
ATOM     56  C   UNL A   1      42.200  31.455  34.494  1.00  0.00     0.023 A 
ATOM     57  C   UNL A   1      41.257  31.463  35.536  1.00  0.00     0.031 A 
ATOM     58  C   UNL A   1      43.086  32.544  34.400  1.00  0.00     0.131 A 
ATOM     59  C   UNL A   1      41.166  32.572  36.392  1.00  0.00     0.055 A 
ATOM     60  C   UNL A   1      43.044  33.606  35.306  1.00  0.00     0.041 A 
ATOM     61  F   UNL A   1      43.998  32.601  33.418  1.00  0.00    -0.206 F 
ATOM     62  C   UNL A   1      42.070  33.633  36.299  1.00  0.00     0.022 A 
BRANCH  59  63
ATOM     63  S   UNL A   1      39.760  32.673  37.533  1.00  0.00     0.124 S 
ATOM     64  O   UNL A   1      38.973  31.508  37.133  1.00  0.00    -0.237 OA
ATOM     65  O   UNL A   1      40.405  32.592  38.838  1.00  0.00    -0.237 OA
ATOM     66  O   UNL A   1      39.152  33.964  37.215  1.00  0.00    -0.744 OA
ENDBRANCH  59  63
ENDBRANCH  42  56
BRANCH  43  67
ATOM     67  C   UNL A   1      42.383  24.446  27.353  1.00  0.00     0.023 A 
ATOM     68  C   UNL A   1      41.615  23.272  27.399  1.00  0.00     0.031 A 
ATOM     69  C   UNL A   1      43.252  24.625  26.262  1.00  0.00     0.131 A 
ATOM     70  C   UNL A   1      41.761  22.302  26.395  1.00  0.00     0.055 A 
ATOM     71  C   UNL A   1      43.356  23.681  25.240  1.00  0.00     0.041 A 
ATOM     72  F   UNL A   1      44.005  25.732  26.170  1.00  0.00    -0.206 F 
ATOM     73  C   UNL A   1      42.616  22.504  25.309  1.00  0.00     0.022 A 
BRANCH  70  74
ATOM     74  S   UNL A   1      40.867  20.732  26.565  1.00  0.00     0.124 S 
ATOM     75  O   UNL A   1      39.559  21.073  26.018  1.00  0.00    -0.237 OA
ATOM     76  O   UNL A   1      41.685  19.830  25.760  1.00  0.00    -0.237 OA
ATOM     77  O   UNL A   1      40.897  20.478  28.004  1.00  0.00    -0.744 OA
ENDBRANCH  70  74
ENDBRANCH  43  67
BRANCH  55  78
ATOM     78  C   UNL A   1      46.600  25.979  32.685  1.00  0.00     0.023 A 
ATOM     79  C   UNL A   1      46.585  24.894  33.580  1.00  0.00     0.031 A 
ATOM     80  C   UNL A   1      47.849  26.477  32.270  1.00  0.00     0.131 A 
ATOM     81  C   UNL A   1      47.794  24.378  34.072  1.00  0.00     0.055 A 
ATOM     82  C   UNL A   1      49.048  25.923  32.719  1.00  0.00     0.041 A 
ATOM     83  F   UNL A   1      47.921  27.513  31.418  1.00  0.00    -0.206 F 
ATOM     84  C   UNL A   1      49.025  24.876  33.636  1.00  0.00     0.022 A 
BRANCH  81  85
ATOM     85  S   UNL A   1      47.738  23.102  35.359  1.00  0.00     0.124 S 
ATOM     86  O   UNL A   1      48.837  23.502  36.233  1.00  0.00    -0.237 OA
ATOM     87  O   UNL A   1      46.396  23.267  35.906  1.00  0.00    -0.237 OA
ATOM     88  O   UNL A   1      47.956  21.859  34.621  1.00  0.00    -0.744 OA
ENDBRANCH  81  85
ENDBRANCH  55  78
ENDBRANCH  29  30
ENDBRANCH  21  24
ENDBRANCH  19  20
ENDBRANCH   1  19
TORSDOF 16
ENDMDL
