MODEL 1
REMARK VINA RESULT:     -11.1      0.000      0.000
REMARK SMILES O=C(NCCCNC(=O)[C@]1(Cl)C=CC=C(c2ccccc2)C1)c1ccc(-c2c3nc(c(-c4cc(S(=O)(=O)[O-])ccc4F)c4ccc([nH]4)c(-c4cc(S(=O)(=O)[O-])ccc4F)c4nc(c(-c5cc(S(=O)(=O)[O-])ccc5F)c5ccc2[nH]5)C=C4)C=C3)cc1
REMARK SMILES IDX 4 1 3 2 1 3 2 4 23 6 24 7 85 8 25 9 84 10 26 11 27 12 28 13
REMARK SMILES IDX 78 14 29 15 83 16 77 17 79 18 30 19 82 20 76 21 75 22 31 24
REMARK SMILES IDX 63 25 43 26 62 27 44 28 47 29 61 30 80 31 45 32 46 33 60 35
REMARK SMILES IDX 81 36 48 37 32 38 33 39 41 40 34 41 40 42 42 43 39 44 35 45
REMARK SMILES IDX 36 46 37 47 38 48 64 49 65 50 73 51 66 52 72 53 74 54 71 55
REMARK SMILES IDX 67 56 68 57 69 58 70 59 49 60 50 61 58 62 51 63 57 64 59 65
REMARK SMILES IDX 56 66 52 67 53 68 54 69 55 70 5 71 6 72 7 73 8 74 9 76 10 77
REMARK SMILES IDX 12 78 22 79 11 80 13 81 15 82 14 83 16 84 17 85 21 86 18 87
REMARK SMILES IDX 20 88 19 89
REMARK H PARENT 3 5 79 23 47 34 7 75
REMARK Flexibility Score: inf
ROOT
ATOM      1  C   UNL A   1      41.244  20.476  27.413  1.00  0.00     0.118 C 
ENDROOT
BRANCH   1   2
ATOM      2  N   UNL A   1      40.034  20.667  26.621  1.00  0.00    -0.352 N 
ATOM      3  O   UNL A   1      38.192  21.712  25.857  1.00  0.00    -0.269 OA
ATOM      4  C   UNL A   1      39.287  21.801  26.408  1.00  0.00     0.251 C 
ATOM      5  H   UNL A   1      39.702  19.859  26.167  1.00  0.00     0.163 HD
BRANCH   4   6
ATOM      6  C   UNL A   1      39.791  23.118  26.852  1.00  0.00     0.039 A 
ATOM      7  C   UNL A   1      39.432  24.280  26.169  1.00  0.00     0.014 A 
ATOM      8  C   UNL A   1      40.619  23.197  27.977  1.00  0.00     0.014 A 
ATOM      9  C   UNL A   1      40.030  25.488  26.499  1.00  0.00     0.010 A 
ATOM     10  C   UNL A   1      41.133  24.436  28.376  1.00  0.00     0.010 A 
ATOM     11  C   UNL A   1      40.867  25.588  27.621  1.00  0.00    -0.014 A 
BRANCH  11  12
ATOM     12  C   UNL A   1      41.390  26.925  28.008  1.00  0.00     0.031 A 
ATOM     13  C   UNL A   1      42.790  27.346  27.660  1.00  0.00     0.074 A 
ATOM     14  C   UNL A   1      40.557  27.781  28.635  1.00  0.00     0.049 A 
ATOM     15  N   UNL A   1      43.392  28.485  27.901  1.00  0.00    -0.248 NA
ATOM     16  C   UNL A   1      43.628  26.363  26.959  1.00  0.00     0.031 C 
ATOM     17  C   UNL A   1      39.177  27.473  29.024  1.00  0.00     0.029 A 
ATOM     18  N   UNL A   1      40.727  29.082  29.031  1.00  0.00    -0.354 N 
ATOM     19  C   UNL A   1      44.678  28.355  27.387  1.00  0.00     0.074 A 
ATOM     20  C   UNL A   1      44.781  27.010  26.860  1.00  0.00     0.031 C 
ATOM     21  C   UNL A   1      38.611  28.570  29.548  1.00  0.00     0.029 A 
ATOM     22  C   UNL A   1      39.607  29.633  29.609  1.00  0.00     0.049 A 
ATOM     23  H   UNL A   1      41.571  29.575  28.912  1.00  0.00     0.167 HD
ATOM     24  C   UNL A   1      45.673  29.279  27.350  1.00  0.00     0.034 A 
ATOM     25  C   UNL A   1      39.406  30.848  30.151  1.00  0.00     0.034 A 
ATOM     26  C   UNL A   1      45.551  30.613  27.890  1.00  0.00     0.049 A 
ATOM     27  C   UNL A   1      40.541  31.835  30.137  1.00  0.00     0.074 A 
ATOM     28  C   UNL A   1      46.495  31.626  27.913  1.00  0.00     0.029 A 
ATOM     29  N   UNL A   1      44.414  31.123  28.507  1.00  0.00    -0.354 N 
ATOM     30  N   UNL A   1      41.752  31.693  29.649  1.00  0.00    -0.248 NA
ATOM     31  C   UNL A   1      40.282  33.146  30.743  1.00  0.00     0.031 C 
ATOM     32  C   UNL A   1      45.951  32.722  28.594  1.00  0.00     0.029 A 
ATOM     33  C   UNL A   1      44.641  32.423  28.933  1.00  0.00     0.049 A 
ATOM     34  H   UNL A   1      43.569  30.631  28.626  1.00  0.00     0.167 HD
ATOM     35  C   UNL A   1      42.393  32.906  29.874  1.00  0.00     0.074 A 
ATOM     36  C   UNL A   1      41.425  33.774  30.512  1.00  0.00     0.031 C 
ATOM     37  C   UNL A   1      43.669  33.270  29.584  1.00  0.00     0.034 A 
BRANCH  24  38
ATOM     38  C   UNL A   1      46.988  28.860  26.736  1.00  0.00     0.023 A 
ATOM     39  C   UNL A   1      47.109  28.592  25.360  1.00  0.00     0.031 A 
ATOM     40  C   UNL A   1      48.134  28.709  27.538  1.00  0.00     0.131 A 
ATOM     41  C   UNL A   1      48.329  28.129  24.840  1.00  0.00     0.055 A 
ATOM     42  C   UNL A   1      49.364  28.321  27.000  1.00  0.00     0.041 A 
ATOM     43  F   UNL A   1      48.077  28.930  28.861  1.00  0.00    -0.206 F 
ATOM     44  C   UNL A   1      49.463  28.016  25.646  1.00  0.00     0.022 A 
BRANCH  41  45
ATOM     45  S   UNL A   1      48.375  27.553  23.121  1.00  0.00     0.124 S 
ATOM     46  O   UNL A   1      48.280  26.104  23.292  1.00  0.00    -0.237 OA
ATOM     47  O   UNL A   1      47.208  28.203  22.538  1.00  0.00    -0.237 OA
ATOM     48  O   UNL A   1      49.666  28.032  22.633  1.00  0.00    -0.744 OA
ENDBRANCH  41  45
ENDBRANCH  24  38
BRANCH  25  49
ATOM     49  C   UNL A   1      38.100  31.182  30.787  1.00  0.00     0.023 A 
ATOM     50  C   UNL A   1      37.095  31.856  30.078  1.00  0.00     0.031 A 
ATOM     51  C   UNL A   1      37.854  30.864  32.137  1.00  0.00     0.131 A 
ATOM     52  C   UNL A   1      35.911  32.232  30.731  1.00  0.00     0.055 A 
ATOM     53  C   UNL A   1      36.651  31.185  32.764  1.00  0.00     0.041 A 
ATOM     54  F   UNL A   1      38.780  30.217  32.863  1.00  0.00    -0.206 F 
ATOM     55  C   UNL A   1      35.676  31.888  32.065  1.00  0.00     0.022 A 
BRANCH  52  56
ATOM     56  S   UNL A   1      34.722  33.271  29.839  1.00  0.00     0.124 S 
ATOM     57  O   UNL A   1      34.036  32.290  29.006  1.00  0.00    -0.237 OA
ATOM     58  O   UNL A   1      33.942  33.843  30.931  1.00  0.00    -0.237 OA
ATOM     59  O   UNL A   1      35.572  34.217  29.119  1.00  0.00    -0.744 OA
ENDBRANCH  52  56
ENDBRANCH  25  49
BRANCH  37  60
ATOM     60  C   UNL A   1      44.060  34.684  29.932  1.00  0.00     0.023 A 
ATOM     61  C   UNL A   1      43.843  35.749  29.040  1.00  0.00     0.031 A 
ATOM     62  C   UNL A   1      44.694  34.963  31.154  1.00  0.00     0.131 A 
ATOM     63  C   UNL A   1      44.320  37.030  29.353  1.00  0.00     0.055 A 
ATOM     64  C   UNL A   1      45.110  36.251  31.488  1.00  0.00     0.041 A 
ATOM     65  F   UNL A   1      44.928  33.983  32.042  1.00  0.00    -0.206 F 
ATOM     66  C   UNL A   1      44.939  37.291  30.579  1.00  0.00     0.022 A 
BRANCH  63  67
ATOM     67  S   UNL A   1      44.216  38.330  28.092  1.00  0.00     0.124 S 
ATOM     68  O   UNL A   1      44.849  39.458  28.765  1.00  0.00    -0.237 OA
ATOM     69  O   UNL A   1      44.964  37.747  26.982  1.00  0.00    -0.237 OA
ATOM     70  O   UNL A   1      42.778  38.470  27.863  1.00  0.00    -0.744 OA
ENDBRANCH  63  67
ENDBRANCH  37  60
ENDBRANCH  11  12
ENDBRANCH   4   6
ENDBRANCH   1   2
BRANCH   1  71
ATOM     71  C   UNL A   1      42.222  19.502  26.772  1.00  0.00     0.042 C 
BRANCH  71  72
ATOM     72  C   UNL A   1      42.799  19.985  25.450  1.00  0.00     0.117 C 
BRANCH  72  73
ATOM     73  N   UNL A   1      44.253  19.953  25.441  1.00  0.00    -0.354 N 
ATOM     74  C   UNL A   1      45.196  20.943  25.428  1.00  0.00     0.245 C 
ATOM     75  H   UNL A   1      44.631  19.044  25.445  1.00  0.00     0.163 HD
ATOM     76  O   UNL A   1      46.367  20.541  25.372  1.00  0.00    -0.273 OA
BRANCH  74  77
ATOM     77  C   UNL A   1      44.844  22.461  25.443  1.00  0.00     0.145 C 
ATOM     78  C   UNL A   1      46.037  23.259  24.957  1.00  0.00     0.006 C 
ATOM     79  C   UNL A   1      44.366  22.881  26.866  1.00  0.00     0.073 C 
ATOM     80  Cl  UNL A   1      43.433  22.731  24.341  1.00  0.00    -0.104 Cl
ATOM     81  C   UNL A   1      46.798  24.009  25.768  1.00  0.00    -0.002 C 
ATOM     82  C   UNL A   1      45.383  23.625  27.702  1.00  0.00    -0.038 C 
ATOM     83  C   UNL A   1      46.512  24.128  27.176  1.00  0.00     0.004 C 
BRANCH  82  84
ATOM     84  C   UNL A   1      45.044  23.822  29.117  1.00  0.00    -0.022 A 
ATOM     85  C   UNL A   1      45.554  24.925  29.814  1.00  0.00     0.008 A 
ATOM     86  C   UNL A   1      44.159  22.952  29.763  1.00  0.00     0.008 A 
ATOM     87  C   UNL A   1      45.168  25.164  31.134  1.00  0.00     0.001 A 
ATOM     88  C   UNL A   1      43.778  23.189  31.086  1.00  0.00     0.001 A 
ATOM     89  C   UNL A   1      44.279  24.297  31.768  1.00  0.00     0.000 A 
ENDBRANCH  82  84
ENDBRANCH  74  77
ENDBRANCH  72  73
ENDBRANCH  71  72
ENDBRANCH   1  71
TORSDOF 14
ENDMDL
MODEL 2
REMARK VINA RESULT:     -11.0      5.119     12.154
REMARK SMILES O=C(NCCCNC(=O)[C@]1(Cl)C=CC=C(c2ccccc2)C1)c1ccc(-c2c3nc(c(-c4cc(S(=O)(=O)[O-])ccc4F)c4ccc([nH]4)c(-c4cc(S(=O)(=O)[O-])ccc4F)c4nc(c(-c5cc(S(=O)(=O)[O-])ccc5F)c5ccc2[nH]5)C=C4)C=C3)cc1
REMARK SMILES IDX 4 1 3 2 1 3 2 4 23 6 24 7 85 8 25 9 84 10 26 11 27 12 28 13
REMARK SMILES IDX 78 14 29 15 83 16 77 17 79 18 30 19 82 20 76 21 75 22 31 24
REMARK SMILES IDX 63 25 43 26 62 27 44 28 47 29 61 30 80 31 45 32 46 33 60 35
REMARK SMILES IDX 81 36 48 37 32 38 33 39 41 40 34 41 40 42 42 43 39 44 35 45
REMARK SMILES IDX 36 46 37 47 38 48 64 49 65 50 73 51 66 52 72 53 74 54 71 55
REMARK SMILES IDX 67 56 68 57 69 58 70 59 49 60 50 61 58 62 51 63 57 64 59 65
REMARK SMILES IDX 56 66 52 67 53 68 54 69 55 70 5 71 6 72 7 73 8 74 9 76 10 77
REMARK SMILES IDX 12 78 22 79 11 80 13 81 15 82 14 83 16 84 17 85 21 86 18 87
REMARK SMILES IDX 20 88 19 89
REMARK H PARENT 3 5 79 23 47 34 7 75
REMARK Flexibility Score: inf
ROOT
ATOM      1  C   UNL A   1      35.100  34.092  28.343  1.00  0.00     0.118 C 
ENDROOT
BRANCH   1   2
ATOM      2  N   UNL A   1      34.218  33.001  27.945  1.00  0.00    -0.352 N 
ATOM      3  O   UNL A   1      33.635  30.910  27.348  1.00  0.00    -0.269 OA
ATOM      4  C   UNL A   1      34.455  31.648  27.891  1.00  0.00     0.251 C 
ATOM      5  H   UNL A   1      33.313  33.277  27.673  1.00  0.00     0.163 HD
BRANCH   4   6
ATOM      6  C   UNL A   1      35.692  31.085  28.473  1.00  0.00     0.039 A 
ATOM      7  C   UNL A   1      36.910  31.748  28.322  1.00  0.00     0.014 A 
ATOM      8  C   UNL A   1      35.632  29.888  29.194  1.00  0.00     0.014 A 
ATOM      9  C   UNL A   1      38.085  31.137  28.739  1.00  0.00     0.010 A 
ATOM     10  C   UNL A   1      36.807  29.329  29.711  1.00  0.00     0.010 A 
ATOM     11  C   UNL A   1      38.047  29.934  29.460  1.00  0.00    -0.014 A 
BRANCH  11  12
ATOM     12  C   UNL A   1      39.320  29.377  29.990  1.00  0.00     0.031 A 
ATOM     13  C   UNL A   1      39.937  29.905  31.255  1.00  0.00     0.074 A 
ATOM     14  C   UNL A   1      39.885  28.341  29.338  1.00  0.00     0.049 A 
ATOM     15  N   UNL A   1      41.027  29.514  31.866  1.00  0.00    -0.248 NA
ATOM     16  C   UNL A   1      39.247  31.022  31.918  1.00  0.00     0.031 C 
ATOM     17  C   UNL A   1      39.372  27.751  28.097  1.00  0.00     0.029 A 
ATOM     18  N   UNL A   1      40.990  27.583  29.629  1.00  0.00    -0.354 N 
ATOM     19  C   UNL A   1      41.160  30.336  32.979  1.00  0.00     0.074 A 
ATOM     20  C   UNL A   1      40.059  31.277  32.935  1.00  0.00     0.031 C 
ATOM     21  C   UNL A   1      40.125  26.691  27.768  1.00  0.00     0.029 A 
ATOM     22  C   UNL A   1      41.219  26.573  28.723  1.00  0.00     0.049 A 
ATOM     23  H   UNL A   1      41.563  27.745  30.412  1.00  0.00     0.167 HD
ATOM     24  C   UNL A   1      42.106  30.299  33.953  1.00  0.00     0.034 A 
ATOM     25  C   UNL A   1      42.212  25.667  28.651  1.00  0.00     0.034 A 
ATOM     26  C   UNL A   1      43.201  29.357  33.973  1.00  0.00     0.049 A 
ATOM     27  C   UNL A   1      43.272  25.680  29.717  1.00  0.00     0.074 A 
ATOM     28  C   UNL A   1      44.219  29.234  34.905  1.00  0.00     0.029 A 
ATOM     29  N   UNL A   1      43.427  28.375  33.015  1.00  0.00    -0.354 N 
ATOM     30  N   UNL A   1      43.382  26.468  30.762  1.00  0.00    -0.248 NA
ATOM     31  C   UNL A   1      44.339  24.680  29.599  1.00  0.00     0.031 C 
ATOM     32  C   UNL A   1      45.087  28.222  34.480  1.00  0.00     0.029 A 
ATOM     33  C   UNL A   1      44.575  27.661  33.322  1.00  0.00     0.049 A 
ATOM     34  H   UNL A   1      42.853  28.211  32.232  1.00  0.00     0.167 HD
ATOM     35  C   UNL A   1      44.523  26.045  31.435  1.00  0.00     0.074 A 
ATOM     36  C   UNL A   1      45.045  24.915  30.695  1.00  0.00     0.031 C 
ATOM     37  C   UNL A   1      45.091  26.547  32.561  1.00  0.00     0.034 A 
BRANCH  24  38
ATOM     38  C   UNL A   1      42.014  31.332  35.052  1.00  0.00     0.023 A 
ATOM     39  C   UNL A   1      40.930  31.361  35.948  1.00  0.00     0.031 A 
ATOM     40  C   UNL A   1      43.013  32.311  35.198  1.00  0.00     0.131 A 
ATOM     41  C   UNL A   1      40.839  32.384  36.907  1.00  0.00     0.055 A 
ATOM     42  C   UNL A   1      42.955  33.279  36.203  1.00  0.00     0.041 A 
ATOM     43  F   UNL A   1      44.062  32.347  34.361  1.00  0.00    -0.206 F 
ATOM     44  C   UNL A   1      41.857  33.328  37.056  1.00  0.00     0.022 A 
BRANCH  41  45
ATOM     45  S   UNL A   1      39.309  32.538  37.868  1.00  0.00     0.124 S 
ATOM     46  O   UNL A   1      38.492  31.469  37.299  1.00  0.00    -0.237 OA
ATOM     47  O   UNL A   1      39.771  32.328  39.235  1.00  0.00    -0.237 OA
ATOM     48  O   UNL A   1      38.849  33.892  37.566  1.00  0.00    -0.744 OA
ENDBRANCH  41  45
ENDBRANCH  24  38
BRANCH  25  49
ATOM     49  C   UNL A   1      42.274  24.708  27.511  1.00  0.00     0.023 A 
ATOM     50  C   UNL A   1      41.496  23.541  27.498  1.00  0.00     0.031 A 
ATOM     51  C   UNL A   1      43.151  24.928  26.431  1.00  0.00     0.131 A 
ATOM     52  C   UNL A   1      41.642  22.616  26.453  1.00  0.00     0.055 A 
ATOM     53  C   UNL A   1      43.247  24.035  25.364  1.00  0.00     0.041 A 
ATOM     54  F   UNL A   1      43.918  26.029  26.392  1.00  0.00    -0.206 F 
ATOM     55  C   UNL A   1      42.500  22.863  25.379  1.00  0.00     0.022 A 
BRANCH  52  56
ATOM     56  S   UNL A   1      40.766  21.032  26.569  1.00  0.00     0.124 S 
ATOM     57  O   UNL A   1      39.462  21.372  26.013  1.00  0.00    -0.237 OA
ATOM     58  O   UNL A   1      41.606  20.163  25.753  1.00  0.00    -0.237 OA
ATOM     59  O   UNL A   1      40.778  20.742  28.002  1.00  0.00    -0.744 OA
ENDBRANCH  52  56
ENDBRANCH  25  49
BRANCH  37  60
ATOM     60  C   UNL A   1      46.325  25.839  33.064  1.00  0.00     0.023 A 
ATOM     61  C   UNL A   1      46.240  24.742  33.939  1.00  0.00     0.031 A 
ATOM     62  C   UNL A   1      47.602  26.295  32.695  1.00  0.00     0.131 A 
ATOM     63  C   UNL A   1      47.410  24.181  34.471  1.00  0.00     0.055 A 
ATOM     64  C   UNL A   1      48.764  25.693  33.178  1.00  0.00     0.041 A 
ATOM     65  F   UNL A   1      47.741  27.340  31.865  1.00  0.00    -0.206 F 
ATOM     66  C   UNL A   1      48.672  24.639  34.084  1.00  0.00     0.022 A 
BRANCH  63  67
ATOM     67  S   UNL A   1      47.258  22.911  35.758  1.00  0.00     0.124 S 
ATOM     68  O   UNL A   1      47.200  21.685  34.970  1.00  0.00    -0.237 OA
ATOM     69  O   UNL A   1      48.476  23.110  36.537  1.00  0.00    -0.237 OA
ATOM     70  O   UNL A   1      46.018  23.268  36.446  1.00  0.00    -0.744 OA
ENDBRANCH  63  67
ENDBRANCH  37  60
ENDBRANCH  11  12
ENDBRANCH   4   6
ENDBRANCH   1   2
BRANCH   1  71
ATOM     71  C   UNL A   1      34.349  35.267  28.952  1.00  0.00     0.042 C 
BRANCH  71  72
ATOM     72  C   UNL A   1      33.550  34.913  30.197  1.00  0.00     0.117 C 
BRANCH  72  73
ATOM     73  N   UNL A   1      33.917  35.738  31.338  1.00  0.00    -0.354 N 
ATOM     74  C   UNL A   1      34.720  35.508  32.421  1.00  0.00     0.245 C 
ATOM     75  H   UNL A   1      33.509  36.633  31.329  1.00  0.00     0.163 HD
ATOM     76  O   UNL A   1      34.764  36.438  33.238  1.00  0.00    -0.273 OA
BRANCH  74  77
ATOM     77  C   UNL A   1      35.493  34.173  32.645  1.00  0.00     0.145 C 
ATOM     78  C   UNL A   1      35.888  34.060  34.103  1.00  0.00     0.006 C 
ATOM     79  C   UNL A   1      36.709  34.095  31.673  1.00  0.00     0.073 C 
ATOM     80  Cl  UNL A   1      34.403  32.799  32.195  1.00  0.00    -0.104 Cl
ATOM     81  C   UNL A   1      37.151  34.203  34.534  1.00  0.00    -0.002 C 
ATOM     82  C   UNL A   1      38.057  34.392  32.291  1.00  0.00    -0.038 C 
ATOM     83  C   UNL A   1      38.238  34.452  33.620  1.00  0.00     0.004 C 
BRANCH  82  84
ATOM     84  C   UNL A   1      39.179  34.556  31.358  1.00  0.00    -0.022 A 
ATOM     85  C   UNL A   1      40.497  34.506  31.829  1.00  0.00     0.008 A 
ATOM     86  C   UNL A   1      38.946  34.696  29.985  1.00  0.00     0.008 A 
ATOM     87  C   UNL A   1      41.568  34.577  30.936  1.00  0.00     0.001 A 
ATOM     88  C   UNL A   1      40.019  34.772  29.093  1.00  0.00     0.001 A 
ATOM     89  C   UNL A   1      41.328  34.708  29.569  1.00  0.00     0.000 A 
ENDBRANCH  82  84
ENDBRANCH  74  77
ENDBRANCH  72  73
ENDBRANCH  71  72
ENDBRANCH   1  71
TORSDOF 14
ENDMDL
MODEL 3
REMARK VINA RESULT:     -11.0      6.255     10.311
REMARK SMILES O=C(NCCCNC(=O)[C@]1(Cl)C=CC=C(c2ccccc2)C1)c1ccc(-c2c3nc(c(-c4cc(S(=O)(=O)[O-])ccc4F)c4ccc([nH]4)c(-c4cc(S(=O)(=O)[O-])ccc4F)c4nc(c(-c5cc(S(=O)(=O)[O-])ccc5F)c5ccc2[nH]5)C=C4)C=C3)cc1
REMARK SMILES IDX 4 1 3 2 1 3 2 4 23 6 24 7 85 8 25 9 84 10 26 11 27 12 28 13
REMARK SMILES IDX 78 14 29 15 83 16 77 17 79 18 30 19 82 20 76 21 75 22 31 24
REMARK SMILES IDX 63 25 43 26 62 27 44 28 47 29 61 30 80 31 45 32 46 33 60 35
REMARK SMILES IDX 81 36 48 37 32 38 33 39 41 40 34 41 40 42 42 43 39 44 35 45
REMARK SMILES IDX 36 46 37 47 38 48 64 49 65 50 73 51 66 52 72 53 74 54 71 55
REMARK SMILES IDX 67 56 68 57 69 58 70 59 49 60 50 61 58 62 51 63 57 64 59 65
REMARK SMILES IDX 56 66 52 67 53 68 54 69 55 70 5 71 6 72 7 73 8 74 9 76 10 77
REMARK SMILES IDX 12 78 22 79 11 80 13 81 15 82 14 83 16 84 17 85 21 86 18 87
REMARK SMILES IDX 20 88 19 89
REMARK H PARENT 3 5 79 23 47 34 7 75
REMARK Flexibility Score: inf
ROOT
ATOM      1  C   UNL A   1      32.672  32.664  27.237  1.00  0.00     0.118 C 
ENDROOT
BRANCH   1   2
ATOM      2  N   UNL A   1      32.574  34.063  27.640  1.00  0.00    -0.352 N 
ATOM      3  O   UNL A   1      32.846  35.874  28.948  1.00  0.00    -0.269 OA
ATOM      4  C   UNL A   1      33.209  34.737  28.655  1.00  0.00     0.251 C 
ATOM      5  H   UNL A   1      31.956  34.608  27.100  1.00  0.00     0.163 HD
BRANCH   4   6
ATOM      6  C   UNL A   1      34.313  34.094  29.398  1.00  0.00     0.039 A 
ATOM      7  C   UNL A   1      35.640  34.339  29.047  1.00  0.00     0.014 A 
ATOM      8  C   UNL A   1      34.020  33.248  30.474  1.00  0.00     0.014 A 
ATOM      9  C   UNL A   1      36.660  33.615  29.650  1.00  0.00     0.010 A 
ATOM     10  C   UNL A   1      35.059  32.603  31.154  1.00  0.00     0.010 A 
ATOM     11  C   UNL A   1      36.387  32.758  30.727  1.00  0.00    -0.014 A 
BRANCH  11  12
ATOM     12  C   UNL A   1      37.522  32.095  31.421  1.00  0.00     0.031 A 
ATOM     13  C   UNL A   1      38.288  30.977  30.771  1.00  0.00     0.074 A 
ATOM     14  C   UNL A   1      37.891  32.558  32.632  1.00  0.00     0.049 A 
ATOM     15  N   UNL A   1      39.318  30.309  31.227  1.00  0.00    -0.248 NA
ATOM     16  C   UNL A   1      37.836  30.544  29.440  1.00  0.00     0.031 C 
ATOM     17  C   UNL A   1      37.214  33.639  33.358  1.00  0.00     0.029 A 
ATOM     18  N   UNL A   1      38.928  32.210  33.457  1.00  0.00    -0.354 N 
ATOM     19  C   UNL A   1      39.637  29.376  30.247  1.00  0.00     0.074 A 
ATOM     20  C   UNL A   1      38.660  29.536  29.189  1.00  0.00     0.031 C 
ATOM     21  C   UNL A   1      37.887  33.901  34.487  1.00  0.00     0.029 A 
ATOM     22  C   UNL A   1      38.992  32.959  34.609  1.00  0.00     0.049 A 
ATOM     23  H   UNL A   1      39.568  31.492  33.244  1.00  0.00     0.167 HD
ATOM     24  C   UNL A   1      40.656  28.479  30.229  1.00  0.00     0.034 A 
ATOM     25  C   UNL A   1      39.828  32.882  35.661  1.00  0.00     0.034 A 
ATOM     26  C   UNL A   1      41.614  28.330  31.300  1.00  0.00     0.049 A 
ATOM     27  C   UNL A   1      40.920  31.848  35.634  1.00  0.00     0.074 A 
ATOM     28  C   UNL A   1      42.680  27.451  31.391  1.00  0.00     0.029 A 
ATOM     29  N   UNL A   1      41.622  29.078  32.473  1.00  0.00    -0.354 N 
ATOM     30  N   UNL A   1      41.203  30.971  34.698  1.00  0.00    -0.248 NA
ATOM     31  C   UNL A   1      41.806  31.794  36.802  1.00  0.00     0.031 C 
ATOM     32  C   UNL A   1      43.293  27.626  32.637  1.00  0.00     0.029 A 
ATOM     33  C   UNL A   1      42.657  28.665  33.297  1.00  0.00     0.049 A 
ATOM     34  H   UNL A   1      40.983  29.796  32.686  1.00  0.00     0.167 HD
ATOM     35  C   UNL A   1      42.314  30.273  35.160  1.00  0.00     0.074 A 
ATOM     36  C   UNL A   1      42.665  30.853  36.440  1.00  0.00     0.031 C 
ATOM     37  C   UNL A   1      42.982  29.243  34.581  1.00  0.00     0.034 A 
BRANCH  24  38
ATOM     38  C   UNL A   1      40.759  27.567  29.028  1.00  0.00     0.023 A 
ATOM     39  C   UNL A   1      41.709  27.787  28.014  1.00  0.00     0.031 A 
ATOM     40  C   UNL A   1      39.888  26.472  28.886  1.00  0.00     0.131 A 
ATOM     41  C   UNL A   1      41.722  26.966  26.875  1.00  0.00     0.055 A 
ATOM     42  C   UNL A   1      39.957  25.613  27.787  1.00  0.00     0.041 A 
ATOM     43  F   UNL A   1      38.947  26.222  29.810  1.00  0.00    -0.206 F 
ATOM     44  C   UNL A   1      40.870  25.865  26.767  1.00  0.00     0.022 A 
BRANCH  41  45
ATOM     45  S   UNL A   1      42.783  27.434  25.480  1.00  0.00     0.124 S 
ATOM     46  O   UNL A   1      44.018  27.816  26.162  1.00  0.00    -0.237 OA
ATOM     47  O   UNL A   1      42.840  26.204  24.699  1.00  0.00    -0.237 OA
ATOM     48  O   UNL A   1      42.058  28.538  24.854  1.00  0.00    -0.744 OA
ENDBRANCH  41  45
ENDBRANCH  24  38
BRANCH  25  49
ATOM     49  C   UNL A   1      39.641  33.777  36.838  1.00  0.00     0.023 A 
ATOM     50  C   UNL A   1      39.084  33.301  38.034  1.00  0.00     0.031 A 
ATOM     51  C   UNL A   1      39.984  35.142  36.767  1.00  0.00     0.131 A 
ATOM     52  C   UNL A   1      38.841  34.189  39.093  1.00  0.00     0.055 A 
ATOM     53  C   UNL A   1      39.797  36.007  37.845  1.00  0.00     0.041 A 
ATOM     54  F   UNL A   1      40.522  35.650  35.647  1.00  0.00    -0.206 F 
ATOM     55  C   UNL A   1      39.208  35.535  39.012  1.00  0.00     0.022 A 
BRANCH  52  56
ATOM     56  S   UNL A   1      37.941  33.580  40.546  1.00  0.00     0.124 S 
ATOM     57  O   UNL A   1      38.880  32.605  41.089  1.00  0.00    -0.237 OA
ATOM     58  O   UNL A   1      37.761  34.801  41.323  1.00  0.00    -0.237 OA
ATOM     59  O   UNL A   1      36.718  33.019  39.976  1.00  0.00    -0.744 OA
ENDBRANCH  52  56
ENDBRANCH  25  49
BRANCH  37  60
ATOM     60  C   UNL A   1      44.181  28.714  35.329  1.00  0.00     0.023 A 
ATOM     61  C   UNL A   1      44.066  27.663  36.255  1.00  0.00     0.031 A 
ATOM     62  C   UNL A   1      45.445  29.298  35.142  1.00  0.00     0.131 A 
ATOM     63  C   UNL A   1      45.182  27.273  37.010  1.00  0.00     0.055 A 
ATOM     64  C   UNL A   1      46.565  28.864  35.851  1.00  0.00     0.041 A 
ATOM     65  F   UNL A   1      45.611  30.307  34.272  1.00  0.00    -0.206 F 
ATOM     66  C   UNL A   1      46.434  27.857  36.803  1.00  0.00     0.022 A 
BRANCH  63  67
ATOM     67  S   UNL A   1      44.950  26.066  38.344  1.00  0.00     0.124 S 
ATOM     68  O   UNL A   1      46.292  25.514  38.491  1.00  0.00    -0.237 OA
ATOM     69  O   UNL A   1      44.481  26.902  39.444  1.00  0.00    -0.237 OA
ATOM     70  O   UNL A   1      43.954  25.142  37.800  1.00  0.00    -0.744 OA
ENDBRANCH  63  67
ENDBRANCH  37  60
ENDBRANCH  11  12
ENDBRANCH   4   6
ENDBRANCH   1   2
BRANCH   1  71
ATOM     71  C   UNL A   1      31.413  32.158  26.548  1.00  0.00     0.042 C 
BRANCH  71  72
ATOM     72  C   UNL A   1      31.502  30.713  26.080  1.00  0.00     0.117 C 
BRANCH  72  73
ATOM     73  N   UNL A   1      32.822  30.144  26.305  1.00  0.00    -0.354 N 
ATOM     74  C   UNL A   1      33.397  28.967  25.912  1.00  0.00     0.245 C 
ATOM     75  H   UNL A   1      33.414  30.715  26.845  1.00  0.00     0.163 HD
ATOM     76  O   UNL A   1      34.546  28.786  26.338  1.00  0.00    -0.273 OA
BRANCH  74  77
ATOM     77  C   UNL A   1      32.666  27.910  25.031  1.00  0.00     0.145 C 
ATOM     78  C   UNL A   1      31.552  27.269  25.835  1.00  0.00     0.006 C 
ATOM     79  C   UNL A   1      33.694  26.877  24.478  1.00  0.00     0.073 C 
ATOM     80  Cl  UNL A   1      31.974  28.751  23.585  1.00  0.00    -0.104 Cl
ATOM     81  C   UNL A   1      31.611  26.010  26.295  1.00  0.00    -0.002 C 
ATOM     82  C   UNL A   1      33.714  25.538  25.180  1.00  0.00    -0.038 C 
ATOM     83  C   UNL A   1      32.746  25.161  26.030  1.00  0.00     0.004 C 
BRANCH  82  84
ATOM     84  C   UNL A   1      34.824  24.640  24.837  1.00  0.00    -0.022 A 
ATOM     85  C   UNL A   1      35.858  24.420  25.757  1.00  0.00     0.008 A 
ATOM     86  C   UNL A   1      34.828  23.946  23.622  1.00  0.00     0.008 A 
ATOM     87  C   UNL A   1      36.872  23.504  25.470  1.00  0.00     0.001 A 
ATOM     88  C   UNL A   1      35.845  23.033  23.336  1.00  0.00     0.001 A 
ATOM     89  C   UNL A   1      36.864  22.810  24.262  1.00  0.00     0.000 A 
ENDBRANCH  82  84
ENDBRANCH  74  77
ENDBRANCH  72  73
ENDBRANCH  71  72
ENDBRANCH   1  71
TORSDOF 14
ENDMDL
