MODEL 1
REMARK VINA RESULT:     -11.7      0.000      0.000
REMARK SMILES CSCC[C@@H](NC1=[NH+]S(=O)(=O)c2ccccc21)C(=O)NCCCNC(=O)c1ccc(-c2c3nc(c(-c4cc(S(=O)(=O)[O-])ccc4F)c4ccc([nH]4)c(-c4cc(S(=O)(=O)[O-])ccc4F)c4nc(c(-c5cc(S(=O)(=O)[O-])ccc5F)c5ccc2[nH]5)C=C4)C=C3)cc1
REMARK SMILES IDX 22 1 21 2 20 3 18 4 19 5 5 7 4 8 3 9 2 10 1 11 6 12 7 13
REMARK SMILES IDX 8 15 17 16 9 17 12 19 16 20 10 21 11 22 13 23 15 24 14 25
REMARK SMILES IDX 23 26 24 27 25 28 26 30 27 31 28 32 89 33 29 34 88 35 30 36
REMARK SMILES IDX 31 37 32 38 82 39 33 40 87 41 81 42 83 43 34 44 86 45 80 46
REMARK SMILES IDX 79 47 35 49 67 50 47 51 66 52 48 53 51 54 65 55 84 56 49 57
REMARK SMILES IDX 50 58 64 60 85 61 52 62 36 63 37 64 45 65 38 66 44 67 46 68
REMARK SMILES IDX 43 69 39 70 40 71 41 72 42 73 68 74 69 75 77 76 70 77 76 78
REMARK SMILES IDX 78 79 75 80 71 81 72 82 73 83 74 84 53 85 54 86 62 87 55 88
REMARK SMILES IDX 61 89 63 90 60 91 56 92 57 93 58 94 59 95
REMARK H PARENT 20 6 6 14 8 18 24 29 83 48 51 59
REMARK Flexibility Score: inf
ROOT
ATOM      1  C   UNL A   1      37.650  19.985  24.899  1.00  0.00     0.042 C 
ENDROOT
BRANCH   1   2
ATOM      2  C   UNL A   1      36.480  20.948  24.827  1.00  0.00     0.118 C 
BRANCH   2   3
ATOM      3  N   UNL A   1      35.799  21.107  26.100  1.00  0.00    -0.352 N 
ATOM      4  C   UNL A   1      34.550  21.580  26.386  1.00  0.00     0.264 C 
ATOM      5  O   UNL A   1      34.199  21.588  27.572  1.00  0.00    -0.270 OA
ATOM      6  H   UNL A   1      36.325  20.828  26.885  1.00  0.00     0.163 HD
BRANCH   4   7
ATOM      7  C   UNL A   1      33.640  22.194  25.296  1.00  0.00     0.262 C 
BRANCH   7   8
ATOM      8  C   UNL A   1      32.433  21.254  25.121  1.00  0.00     0.071 C 
BRANCH   8   9
ATOM      9  C   UNL A   1      32.649  20.002  24.274  1.00  0.00     0.074 C 
BRANCH   9  10
ATOM     10  S   UNL A   1      32.905  18.465  25.214  1.00  0.00    -0.165 SA
ATOM     11  C   UNL A   1      34.213  17.686  24.238  1.00  0.00     0.085 C 
ENDBRANCH   9  10
ENDBRANCH   8   9
ENDBRANCH   7   8
BRANCH   7  12
ATOM     12  N   UNL A   1      33.212  23.576  25.585  1.00  0.00    -0.261 N 
ATOM     13  C   UNL A   1      32.974  24.530  24.624  1.00  0.00     0.292 C 
ATOM     14  H   UNL A   1      33.088  23.831  26.527  1.00  0.00     0.306 HD
ATOM     15  N   UNL A   1      32.683  24.274  23.383  1.00  0.00    -0.162 N 
ATOM     16  C   UNL A   1      33.170  25.963  24.949  1.00  0.00     0.087 A 
ATOM     17  S   UNL A   1      32.686  25.646  22.478  1.00  0.00     0.329 S 
ATOM     18  H   UNL A   1      32.486  23.376  23.032  1.00  0.00     0.327 HD
ATOM     19  C   UNL A   1      33.089  26.714  23.792  1.00  0.00     0.124 A 
ATOM     20  C   UNL A   1      33.538  26.554  26.146  1.00  0.00     0.018 A 
ATOM     21  O   UNL A   1      31.350  25.979  22.055  1.00  0.00    -0.179 OA
ATOM     22  O   UNL A   1      33.824  25.642  21.583  1.00  0.00    -0.179 OA
ATOM     23  C   UNL A   1      33.394  28.059  23.742  1.00  0.00     0.025 A 
ATOM     24  C   UNL A   1      33.832  27.922  26.135  1.00  0.00     0.001 A 
ATOM     25  C   UNL A   1      33.769  28.666  24.942  1.00  0.00     0.002 A 
ENDBRANCH   7  12
ENDBRANCH   4   7
ENDBRANCH   2   3
ENDBRANCH   1   2
BRANCH   1  26
ATOM     26  C   UNL A   1      38.798  20.470  25.770  1.00  0.00     0.118 C 
BRANCH  26  27
ATOM     27  N   UNL A   1      39.827  19.458  25.961  1.00  0.00    -0.352 N 
ATOM     28  C   UNL A   1      41.176  19.600  26.179  1.00  0.00     0.251 C 
ATOM     29  H   UNL A   1      39.506  18.528  25.931  1.00  0.00     0.163 HD
ATOM     30  O   UNL A   1      41.905  18.613  26.107  1.00  0.00    -0.269 OA
BRANCH  28  31
ATOM     31  C   UNL A   1      41.755  20.933  26.464  1.00  0.00     0.039 A 
ATOM     32  C   UNL A   1      42.018  21.797  25.399  1.00  0.00     0.014 A 
ATOM     33  C   UNL A   1      42.050  21.331  27.772  1.00  0.00     0.014 A 
ATOM     34  C   UNL A   1      42.503  23.082  25.651  1.00  0.00     0.010 A 
ATOM     35  C   UNL A   1      42.441  22.641  28.028  1.00  0.00     0.010 A 
ATOM     36  C   UNL A   1      42.679  23.529  26.971  1.00  0.00    -0.014 A 
BRANCH  36  37
ATOM     37  C   UNL A   1      43.108  24.921  27.255  1.00  0.00     0.031 A 
ATOM     38  C   UNL A   1      42.163  25.891  27.913  1.00  0.00     0.074 A 
ATOM     39  C   UNL A   1      44.323  25.333  26.847  1.00  0.00     0.049 A 
ATOM     40  N   UNL A   1      42.346  27.153  28.211  1.00  0.00    -0.248 NA
ATOM     41  C   UNL A   1      40.823  25.386  28.237  1.00  0.00     0.031 C 
ATOM     42  C   UNL A   1      45.290  24.513  26.111  1.00  0.00     0.029 A 
ATOM     43  N   UNL A   1      44.950  26.545  26.977  1.00  0.00    -0.354 N 
ATOM     44  C   UNL A   1      41.136  27.597  28.735  1.00  0.00     0.074 A 
ATOM     45  C   UNL A   1      40.213  26.486  28.650  1.00  0.00     0.031 C 
ATOM     46  C   UNL A   1      46.394  25.240  25.874  1.00  0.00     0.029 A 
ATOM     47  C   UNL A   1      46.205  26.581  26.415  1.00  0.00     0.049 A 
ATOM     48  H   UNL A   1      44.541  27.317  27.431  1.00  0.00     0.167 HD
ATOM     49  C   UNL A   1      40.832  28.810  29.262  1.00  0.00     0.034 A 
ATOM     50  C   UNL A   1      47.102  27.582  26.343  1.00  0.00     0.034 A 
ATOM     51  C   UNL A   1      41.777  29.898  29.358  1.00  0.00     0.049 A 
ATOM     52  C   UNL A   1      46.773  28.899  26.989  1.00  0.00     0.074 A 
ATOM     53  C   UNL A   1      41.615  31.134  29.961  1.00  0.00     0.029 A 
ATOM     54  N   UNL A   1      43.061  29.884  28.826  1.00  0.00    -0.354 N 
ATOM     55  N   UNL A   1      45.660  29.276  27.574  1.00  0.00    -0.248 NA
ATOM     56  C   UNL A   1      47.831  29.915  26.987  1.00  0.00     0.031 C 
ATOM     57  C   UNL A   1      42.776  31.885  29.741  1.00  0.00     0.029 A 
ATOM     58  C   UNL A   1      43.690  31.099  29.057  1.00  0.00     0.049 A 
ATOM     59  H   UNL A   1      43.466  29.122  28.351  1.00  0.00     0.167 HD
ATOM     60  C   UNL A   1      45.885  30.576  28.016  1.00  0.00     0.074 A 
ATOM     61  C   UNL A   1      47.253  30.901  27.658  1.00  0.00     0.031 C 
ATOM     62  C   UNL A   1      45.040  31.423  28.658  1.00  0.00     0.034 A 
BRANCH  49  63
ATOM     63  C   UNL A   1      39.414  29.017  29.745  1.00  0.00     0.023 A 
ATOM     64  C   UNL A   1      38.477  29.752  28.996  1.00  0.00     0.031 A 
ATOM     65  C   UNL A   1      39.008  28.524  30.998  1.00  0.00     0.131 A 
ATOM     66  C   UNL A   1      37.223  30.058  29.545  1.00  0.00     0.055 A 
ATOM     67  C   UNL A   1      37.726  28.756  31.501  1.00  0.00     0.041 A 
ATOM     68  F   UNL A   1      39.859  27.829  31.767  1.00  0.00    -0.206 F 
ATOM     69  C   UNL A   1      36.832  29.546  30.783  1.00  0.00     0.022 A 
BRANCH  66  70
ATOM     70  S   UNL A   1      36.183  31.278  28.695  1.00  0.00     0.124 S 
ATOM     71  O   UNL A   1      37.140  32.349  28.431  1.00  0.00    -0.237 OA
ATOM     72  O   UNL A   1      35.717  30.536  27.531  1.00  0.00    -0.237 OA
ATOM     73  O   UNL A   1      35.156  31.602  29.684  1.00  0.00    -0.744 OA
ENDBRANCH  66  70
ENDBRANCH  49  63
BRANCH  50  74
ATOM     74  C   UNL A   1      48.394  27.372  25.636  1.00  0.00     0.023 A 
ATOM     75  C   UNL A   1      48.492  27.508  24.243  1.00  0.00     0.031 A 
ATOM     76  C   UNL A   1      49.555  27.037  26.354  1.00  0.00     0.131 A 
ATOM     77  C   UNL A   1      49.721  27.279  23.605  1.00  0.00     0.055 A 
ATOM     78  C   UNL A   1      50.784  26.846  25.719  1.00  0.00     0.041 A 
ATOM     79  F   UNL A   1      49.515  26.916  27.690  1.00  0.00    -0.206 F 
ATOM     80  C   UNL A   1      50.869  26.959  24.335  1.00  0.00     0.022 A 
BRANCH  77  81
ATOM     81  S   UNL A   1      49.793  27.376  21.795  1.00  0.00     0.124 S 
ATOM     82  O   UNL A   1      48.801  26.383  21.403  1.00  0.00    -0.237 OA
ATOM     83  O   UNL A   1      49.438  28.771  21.552  1.00  0.00    -0.237 OA
ATOM     84  O   UNL A   1      51.180  27.030  21.491  1.00  0.00    -0.744 OA
ENDBRANCH  77  81
ENDBRANCH  50  74
BRANCH  62  85
ATOM     85  C   UNL A   1      45.591  32.782  29.010  1.00  0.00     0.023 A 
ATOM     86  C   UNL A   1      45.479  33.870  28.125  1.00  0.00     0.031 A 
ATOM     87  C   UNL A   1      46.275  32.984  30.221  1.00  0.00     0.131 A 
ATOM     88  C   UNL A   1      46.100  35.089  28.433  1.00  0.00     0.055 A 
ATOM     89  C   UNL A   1      46.838  34.217  30.550  1.00  0.00     0.041 A 
ATOM     90  F   UNL A   1      46.415  31.979  31.102  1.00  0.00    -0.206 F 
ATOM     91  C   UNL A   1      46.767  35.274  29.647  1.00  0.00     0.022 A 
BRANCH  88  92
ATOM     92  S   UNL A   1      46.126  36.393  27.173  1.00  0.00     0.124 S 
ATOM     93  O   UNL A   1      47.138  37.304  27.698  1.00  0.00    -0.237 OA
ATOM     94  O   UNL A   1      46.494  35.656  25.969  1.00  0.00    -0.237 OA
ATOM     95  O   UNL A   1      44.759  36.911  27.189  1.00  0.00    -0.744 OA
ENDBRANCH  88  92
ENDBRANCH  62  85
ENDBRANCH  36  37
ENDBRANCH  28  31
ENDBRANCH  26  27
ENDBRANCH   1  26
TORSDOF 17
ENDMDL
MODEL 2
REMARK VINA RESULT:     -11.7      5.457      9.030
REMARK SMILES CSCC[C@@H](NC1=[NH+]S(=O)(=O)c2ccccc21)C(=O)NCCCNC(=O)c1ccc(-c2c3nc(c(-c4cc(S(=O)(=O)[O-])ccc4F)c4ccc([nH]4)c(-c4cc(S(=O)(=O)[O-])ccc4F)c4nc(c(-c5cc(S(=O)(=O)[O-])ccc5F)c5ccc2[nH]5)C=C4)C=C3)cc1
REMARK SMILES IDX 22 1 21 2 20 3 18 4 19 5 5 7 4 8 3 9 2 10 1 11 6 12 7 13
REMARK SMILES IDX 8 15 17 16 9 17 12 19 16 20 10 21 11 22 13 23 15 24 14 25
REMARK SMILES IDX 23 26 24 27 25 28 26 30 27 31 28 32 89 33 29 34 88 35 30 36
REMARK SMILES IDX 31 37 32 38 82 39 33 40 87 41 81 42 83 43 34 44 86 45 80 46
REMARK SMILES IDX 79 47 35 49 67 50 47 51 66 52 48 53 51 54 65 55 84 56 49 57
REMARK SMILES IDX 50 58 64 60 85 61 52 62 36 63 37 64 45 65 38 66 44 67 46 68
REMARK SMILES IDX 43 69 39 70 40 71 41 72 42 73 68 74 69 75 77 76 70 77 76 78
REMARK SMILES IDX 78 79 75 80 71 81 72 82 73 83 74 84 53 85 54 86 62 87 55 88
REMARK SMILES IDX 61 89 63 90 60 91 56 92 57 93 58 94 59 95
REMARK H PARENT 20 6 6 14 8 18 24 29 83 48 51 59
REMARK Flexibility Score: inf
ROOT
ATOM      1  C   UNL A   1      32.486  29.229  27.178  1.00  0.00     0.042 C 
ENDROOT
BRANCH   1   2
ATOM      2  C   UNL A   1      32.390  27.911  26.433  1.00  0.00     0.118 C 
BRANCH   2   3
ATOM      3  N   UNL A   1      32.735  28.030  25.028  1.00  0.00    -0.352 N 
ATOM      4  C   UNL A   1      32.002  27.762  23.908  1.00  0.00     0.264 C 
ATOM      5  O   UNL A   1      32.533  27.974  22.812  1.00  0.00    -0.270 OA
ATOM      6  H   UNL A   1      33.649  28.356  24.855  1.00  0.00     0.163 HD
BRANCH   4   7
ATOM      7  C   UNL A   1      30.601  27.108  23.985  1.00  0.00     0.262 C 
BRANCH   7   8
ATOM      8  C   UNL A   1      29.662  27.922  23.076  1.00  0.00     0.071 C 
BRANCH   8   9
ATOM      9  C   UNL A   1      29.482  29.400  23.414  1.00  0.00     0.074 C 
BRANCH   9  10
ATOM     10  S   UNL A   1      27.902  30.130  22.881  1.00  0.00    -0.165 SA
ATOM     11  C   UNL A   1      28.358  30.775  21.255  1.00  0.00     0.085 C 
ENDBRANCH   9  10
ENDBRANCH   8   9
ENDBRANCH   7   8
BRANCH   7  12
ATOM     12  N   UNL A   1      30.590  25.676  23.631  1.00  0.00    -0.261 N 
ATOM     13  C   UNL A   1      30.612  24.651  24.546  1.00  0.00     0.292 C 
ATOM     14  H   UNL A   1      30.565  25.440  22.676  1.00  0.00     0.306 HD
ATOM     15  N   UNL A   1      30.233  24.758  25.785  1.00  0.00    -0.162 N 
ATOM     16  C   UNL A   1      31.215  23.349  24.176  1.00  0.00     0.087 A 
ATOM     17  S   UNL A   1      30.607  23.404  26.639  1.00  0.00     0.329 S 
ATOM     18  H   UNL A   1      29.781  25.547  26.163  1.00  0.00     0.327 HD
ATOM     19  C   UNL A   1      31.326  22.554  25.300  1.00  0.00     0.124 A 
ATOM     20  C   UNL A   1      31.763  22.941  22.971  1.00  0.00     0.018 A 
ATOM     21  O   UNL A   1      29.411  22.687  27.003  1.00  0.00    -0.179 OA
ATOM     22  O   UNL A   1      31.676  23.689  27.572  1.00  0.00    -0.179 OA
ATOM     23  C   UNL A   1      32.000  21.350  25.311  1.00  0.00     0.025 A 
ATOM     24  C   UNL A   1      32.434  21.714  22.941  1.00  0.00     0.001 A 
ATOM     25  C   UNL A   1      32.559  20.929  24.103  1.00  0.00     0.002 A 
ENDBRANCH   7  12
ENDBRANCH   4   7
ENDBRANCH   2   3
ENDBRANCH   1   2
BRANCH   1  26
ATOM     26  C   UNL A   1      33.675  30.085  26.771  1.00  0.00     0.118 C 
BRANCH  26  27
ATOM     27  N   UNL A   1      33.680  31.390  27.418  1.00  0.00    -0.352 N 
ATOM     28  C   UNL A   1      34.516  31.893  28.385  1.00  0.00     0.251 C 
ATOM     29  H   UNL A   1      32.975  32.006  27.114  1.00  0.00     0.163 HD
ATOM     30  O   UNL A   1      34.221  32.946  28.946  1.00  0.00    -0.269 OA
BRANCH  28  31
ATOM     31  C   UNL A   1      35.744  31.162  28.772  1.00  0.00     0.039 A 
ATOM     32  C   UNL A   1      36.979  31.632  28.321  1.00  0.00     0.014 A 
ATOM     33  C   UNL A   1      35.684  30.013  29.567  1.00  0.00     0.014 A 
ATOM     34  C   UNL A   1      38.154  30.995  28.727  1.00  0.00     0.010 A 
ATOM     35  C   UNL A   1      36.856  29.439  30.047  1.00  0.00     0.010 A 
ATOM     36  C   UNL A   1      38.104  29.918  29.628  1.00  0.00    -0.014 A 
BRANCH  36  37
ATOM     37  C   UNL A   1      39.348  29.290  30.139  1.00  0.00     0.031 A 
ATOM     38  C   UNL A   1      40.040  29.846  31.355  1.00  0.00     0.074 A 
ATOM     39  C   UNL A   1      39.898  28.267  29.457  1.00  0.00     0.049 A 
ATOM     40  N   UNL A   1      41.149  29.454  31.928  1.00  0.00    -0.248 NA
ATOM     41  C   UNL A   1      39.424  31.024  31.980  1.00  0.00     0.031 C 
ATOM     42  C   UNL A   1      39.373  27.705  28.209  1.00  0.00     0.029 A 
ATOM     43  N   UNL A   1      41.024  27.526  29.705  1.00  0.00    -0.354 N 
ATOM     44  C   UNL A   1      41.377  30.352  32.966  1.00  0.00     0.074 A 
ATOM     45  C   UNL A   1      40.325  31.343  32.897  1.00  0.00     0.031 C 
ATOM     46  C   UNL A   1      40.166  26.696  27.813  1.00  0.00     0.029 A 
ATOM     47  C   UNL A   1      41.265  26.556  28.761  1.00  0.00     0.049 A 
ATOM     48  H   UNL A   1      41.605  27.674  30.486  1.00  0.00     0.167 HD
ATOM     49  C   UNL A   1      42.357  30.336  33.905  1.00  0.00     0.034 A 
ATOM     50  C   UNL A   1      42.262  25.655  28.668  1.00  0.00     0.034 A 
ATOM     51  C   UNL A   1      43.384  29.324  33.969  1.00  0.00     0.049 A 
ATOM     52  C   UNL A   1      43.302  25.610  29.753  1.00  0.00     0.074 A 
ATOM     53  C   UNL A   1      44.365  29.146  34.930  1.00  0.00     0.029 A 
ATOM     54  N   UNL A   1      43.569  28.319  33.026  1.00  0.00    -0.354 N 
ATOM     55  N   UNL A   1      43.449  26.403  30.789  1.00  0.00    -0.248 NA
ATOM     56  C   UNL A   1      44.295  24.533  29.667  1.00  0.00     0.031 C 
ATOM     57  C   UNL A   1      45.177  28.075  34.536  1.00  0.00     0.029 A 
ATOM     58  C   UNL A   1      44.667  27.540  33.363  1.00  0.00     0.049 A 
ATOM     59  H   UNL A   1      43.004  28.181  32.231  1.00  0.00     0.167 HD
ATOM     60  C   UNL A   1      44.551  25.917  31.485  1.00  0.00     0.074 A 
ATOM     61  C   UNL A   1      45.007  24.743  30.766  1.00  0.00     0.031 C 
ATOM     62  C   UNL A   1      45.134  26.396  32.614  1.00  0.00     0.034 A 
BRANCH  49  63
ATOM     63  C   UNL A   1      42.366  31.464  34.912  1.00  0.00     0.023 A 
ATOM     64  C   UNL A   1      41.413  31.542  35.944  1.00  0.00     0.031 A 
ATOM     65  C   UNL A   1      43.303  32.507  34.806  1.00  0.00     0.131 A 
ATOM     66  C   UNL A   1      41.354  32.682  36.761  1.00  0.00     0.055 A 
ATOM     67  C   UNL A   1      43.294  33.597  35.680  1.00  0.00     0.041 A 
ATOM     68  F   UNL A   1      44.228  32.499  33.834  1.00  0.00    -0.206 F 
ATOM     69  C   UNL A   1      42.303  33.699  36.651  1.00  0.00     0.022 A 
BRANCH  66  70
ATOM     70  S   UNL A   1      39.916  32.891  37.847  1.00  0.00     0.124 S 
ATOM     71  O   UNL A   1      40.503  32.650  39.163  1.00  0.00    -0.237 OA
ATOM     72  O   UNL A   1      39.510  34.263  37.571  1.00  0.00    -0.237 OA
ATOM     73  O   UNL A   1      38.988  31.859  37.391  1.00  0.00    -0.744 OA
ENDBRANCH  66  70
ENDBRANCH  49  63
BRANCH  50  74
ATOM     74  C   UNL A   1      42.316  24.724  27.509  1.00  0.00     0.023 A 
ATOM     75  C   UNL A   1      41.609  23.512  27.517  1.00  0.00     0.031 A 
ATOM     76  C   UNL A   1      43.075  25.043  26.370  1.00  0.00     0.131 A 
ATOM     77  C   UNL A   1      41.701  22.645  26.417  1.00  0.00     0.055 A 
ATOM     78  C   UNL A   1      43.135  24.195  25.264  1.00  0.00     0.041 A 
ATOM     79  F   UNL A   1      43.751  26.201  26.309  1.00  0.00    -0.206 F 
ATOM     80  C   UNL A   1      42.451  22.983  25.286  1.00  0.00     0.022 A 
BRANCH  77  81
ATOM     81  S   UNL A   1      40.848  21.046  26.495  1.00  0.00     0.124 S 
ATOM     82  O   UNL A   1      40.807  20.799  27.931  1.00  0.00    -0.237 OA
ATOM     83  O   UNL A   1      39.571  21.354  25.858  1.00  0.00    -0.237 OA
ATOM     84  O   UNL A   1      41.720  20.157  25.730  1.00  0.00    -0.744 OA
ENDBRANCH  77  81
ENDBRANCH  50  74
BRANCH  62  85
ATOM     85  C   UNL A   1      46.329  25.634  33.129  1.00  0.00     0.023 A 
ATOM     86  C   UNL A   1      46.186  24.588  34.059  1.00  0.00     0.031 A 
ATOM     87  C   UNL A   1      47.628  25.983  32.723  1.00  0.00     0.131 A 
ATOM     88  C   UNL A   1      47.324  23.976  34.603  1.00  0.00     0.055 A 
ATOM     89  C   UNL A   1      48.754  25.328  33.221  1.00  0.00     0.041 A 
ATOM     90  F   UNL A   1      47.823  26.976  31.840  1.00  0.00    -0.206 F 
ATOM     91  C   UNL A   1      48.607  24.329  34.179  1.00  0.00     0.022 A 
BRANCH  88  92
ATOM     92  S   UNL A   1      47.107  22.791  35.960  1.00  0.00     0.124 S 
ATOM     93  O   UNL A   1      47.116  21.514  35.253  1.00  0.00    -0.237 OA
ATOM     94  O   UNL A   1      48.269  23.063  36.800  1.00  0.00    -0.237 OA
ATOM     95  O   UNL A   1      45.820  23.168  36.542  1.00  0.00    -0.744 OA
ENDBRANCH  88  92
ENDBRANCH  62  85
ENDBRANCH  36  37
ENDBRANCH  28  31
ENDBRANCH  26  27
ENDBRANCH   1  26
TORSDOF 17
ENDMDL
MODEL 3
REMARK VINA RESULT:     -11.6      6.224     11.437
REMARK SMILES CSCC[C@@H](NC1=[NH+]S(=O)(=O)c2ccccc21)C(=O)NCCCNC(=O)c1ccc(-c2c3nc(c(-c4cc(S(=O)(=O)[O-])ccc4F)c4ccc([nH]4)c(-c4cc(S(=O)(=O)[O-])ccc4F)c4nc(c(-c5cc(S(=O)(=O)[O-])ccc5F)c5ccc2[nH]5)C=C4)C=C3)cc1
REMARK SMILES IDX 22 1 21 2 20 3 18 4 19 5 5 7 4 8 3 9 2 10 1 11 6 12 7 13
REMARK SMILES IDX 8 15 17 16 9 17 12 19 16 20 10 21 11 22 13 23 15 24 14 25
REMARK SMILES IDX 23 26 24 27 25 28 26 30 27 31 28 32 89 33 29 34 88 35 30 36
REMARK SMILES IDX 31 37 32 38 82 39 33 40 87 41 81 42 83 43 34 44 86 45 80 46
REMARK SMILES IDX 79 47 35 49 67 50 47 51 66 52 48 53 51 54 65 55 84 56 49 57
REMARK SMILES IDX 50 58 64 60 85 61 52 62 36 63 37 64 45 65 38 66 44 67 46 68
REMARK SMILES IDX 43 69 39 70 40 71 41 72 42 73 68 74 69 75 77 76 70 77 76 78
REMARK SMILES IDX 78 79 75 80 71 81 72 82 73 83 74 84 53 85 54 86 62 87 55 88
REMARK SMILES IDX 61 89 63 90 60 91 56 92 57 93 58 94 59 95
REMARK H PARENT 20 6 6 14 8 18 24 29 83 48 51 59
REMARK Flexibility Score: inf
ROOT
ATOM      1  C   UNL A   1      31.800  31.391  26.640  1.00  0.00     0.042 C 
ENDROOT
BRANCH   1   2
ATOM      2  C   UNL A   1      32.094  29.981  26.162  1.00  0.00     0.118 C 
BRANCH   2   3
ATOM      3  N   UNL A   1      32.975  29.948  25.009  1.00  0.00    -0.352 N 
ATOM      4  C   UNL A   1      33.049  29.060  23.973  1.00  0.00     0.264 C 
ATOM      5  O   UNL A   1      33.887  29.278  23.091  1.00  0.00    -0.270 OA
ATOM      6  H   UNL A   1      33.626  30.686  24.966  1.00  0.00     0.163 HD
BRANCH   4   7
ATOM      7  C   UNL A   1      32.204  27.763  23.947  1.00  0.00     0.262 C 
BRANCH   7   8
ATOM      8  C   UNL A   1      31.319  27.816  22.688  1.00  0.00     0.071 C 
BRANCH   8   9
ATOM      9  C   UNL A   1      30.081  28.708  22.749  1.00  0.00     0.074 C 
BRANCH   9  10
ATOM     10  S   UNL A   1      28.551  27.875  23.275  1.00  0.00    -0.165 SA
ATOM     11  C   UNL A   1      27.331  29.167  22.944  1.00  0.00     0.085 C 
ENDBRANCH   9  10
ENDBRANCH   8   9
ENDBRANCH   7   8
BRANCH   7  12
ATOM     12  N   UNL A   1      33.007  26.527  23.993  1.00  0.00    -0.261 N 
ATOM     13  C   UNL A   1      32.634  25.386  24.662  1.00  0.00     0.292 C 
ATOM     14  H   UNL A   1      33.865  26.519  23.513  1.00  0.00     0.306 HD
ATOM     15  N   UNL A   1      31.410  25.078  24.974  1.00  0.00    -0.162 N 
ATOM     16  C   UNL A   1      33.674  24.472  25.190  1.00  0.00     0.087 A 
ATOM     17  S   UNL A   1      31.362  23.763  25.960  1.00  0.00     0.329 S 
ATOM     18  H   UNL A   1      30.616  25.568  24.662  1.00  0.00     0.327 HD
ATOM     19  C   UNL A   1      33.086  23.522  26.004  1.00  0.00     0.124 A 
ATOM     20  C   UNL A   1      35.053  24.550  25.086  1.00  0.00     0.018 A 
ATOM     21  O   UNL A   1      30.794  22.633  25.271  1.00  0.00    -0.179 OA
ATOM     22  O   UNL A   1      30.965  24.161  27.293  1.00  0.00    -0.179 OA
ATOM     23  C   UNL A   1      33.809  22.635  26.774  1.00  0.00     0.025 A 
ATOM     24  C   UNL A   1      35.816  23.650  25.838  1.00  0.00     0.001 A 
ATOM     25  C   UNL A   1      35.200  22.706  26.680  1.00  0.00     0.002 A 
ENDBRANCH   7  12
ENDBRANCH   4   7
ENDBRANCH   2   3
ENDBRANCH   1   2
BRANCH   1  26
ATOM     26  C   UNL A   1      33.039  32.185  27.024  1.00  0.00     0.118 C 
BRANCH  26  27
ATOM     27  N   UNL A   1      32.731  33.550  27.429  1.00  0.00    -0.352 N 
ATOM     28  C   UNL A   1      33.222  34.293  28.474  1.00  0.00     0.251 C 
ATOM     29  H   UNL A   1      32.068  34.011  26.865  1.00  0.00     0.163 HD
ATOM     30  O   UNL A   1      32.677  35.355  28.766  1.00  0.00    -0.269 OA
BRANCH  28  31
ATOM     31  C   UNL A   1      34.376  33.807  29.265  1.00  0.00     0.039 A 
ATOM     32  C   UNL A   1      34.138  32.990  30.373  1.00  0.00     0.014 A 
ATOM     33  C   UNL A   1      35.687  34.159  28.928  1.00  0.00     0.014 A 
ATOM     34  C   UNL A   1      35.215  32.469  31.094  1.00  0.00     0.010 A 
ATOM     35  C   UNL A   1      36.757  33.563  29.586  1.00  0.00     0.010 A 
ATOM     36  C   UNL A   1      36.535  32.717  30.681  1.00  0.00    -0.014 A 
BRANCH  36  37
ATOM     37  C   UNL A   1      37.685  32.096  31.383  1.00  0.00     0.031 A 
ATOM     38  C   UNL A   1      38.456  30.974  30.741  1.00  0.00     0.074 A 
ATOM     39  C   UNL A   1      37.985  32.491  32.635  1.00  0.00     0.049 A 
ATOM     40  N   UNL A   1      39.466  30.287  31.211  1.00  0.00    -0.248 NA
ATOM     41  C   UNL A   1      38.000  30.539  29.413  1.00  0.00     0.031 C 
ATOM     42  C   UNL A   1      37.248  33.502  33.401  1.00  0.00     0.029 A 
ATOM     43  N   UNL A   1      38.975  32.085  33.491  1.00  0.00    -0.354 N 
ATOM     44  C   UNL A   1      39.751  29.324  30.248  1.00  0.00     0.074 A 
ATOM     45  C   UNL A   1      38.763  29.478  29.201  1.00  0.00     0.031 C 
ATOM     46  C   UNL A   1      37.825  33.649  34.604  1.00  0.00     0.029 A 
ATOM     47  C   UNL A   1      38.953  32.729  34.706  1.00  0.00     0.049 A 
ATOM     48  H   UNL A   1      39.640  31.398  33.258  1.00  0.00     0.167 HD
ATOM     49  C   UNL A   1      40.758  28.415  30.226  1.00  0.00     0.034 A 
ATOM     50  C   UNL A   1      39.750  32.592  35.782  1.00  0.00     0.034 A 
ATOM     51  C   UNL A   1      41.747  28.295  31.271  1.00  0.00     0.049 A 
ATOM     52  C   UNL A   1      40.900  31.626  35.715  1.00  0.00     0.074 A 
ATOM     53  C   UNL A   1      42.868  27.484  31.311  1.00  0.00     0.029 A 
ATOM     54  N   UNL A   1      41.728  29.001  32.468  1.00  0.00    -0.354 N 
ATOM     55  N   UNL A   1      41.221  30.791  34.755  1.00  0.00    -0.248 NA
ATOM     56  C   UNL A   1      41.808  31.605  36.867  1.00  0.00     0.031 C 
ATOM     57  C   UNL A   1      43.491  27.656  32.555  1.00  0.00     0.029 A 
ATOM     58  C   UNL A   1      42.797  28.622  33.267  1.00  0.00     0.049 A 
ATOM     59  H   UNL A   1      41.052  29.674  32.714  1.00  0.00     0.167 HD
ATOM     60  C   UNL A   1      42.376  30.145  35.185  1.00  0.00     0.074 A 
ATOM     61  C   UNL A   1      42.709  30.714  36.477  1.00  0.00     0.031 C 
ATOM     62  C   UNL A   1      43.094  29.170  34.570  1.00  0.00     0.034 A 
BRANCH  49  63
ATOM     63  C   UNL A   1      40.811  27.472  29.045  1.00  0.00     0.023 A 
ATOM     64  C   UNL A   1      41.772  27.614  28.027  1.00  0.00     0.031 A 
ATOM     65  C   UNL A   1      39.854  26.451  28.904  1.00  0.00     0.131 A 
ATOM     66  C   UNL A   1      41.692  26.823  26.871  1.00  0.00     0.055 A 
ATOM     67  C   UNL A   1      39.835  25.608  27.791  1.00  0.00     0.041 A 
ATOM     68  F   UNL A   1      38.902  26.274  29.832  1.00  0.00    -0.206 F 
ATOM     69  C   UNL A   1      40.745  25.805  26.756  1.00  0.00     0.022 A 
BRANCH  66  70
ATOM     70  S   UNL A   1      42.733  27.262  25.451  1.00  0.00     0.124 S 
ATOM     71  O   UNL A   1      42.684  26.036  24.659  1.00  0.00    -0.237 OA
ATOM     72  O   UNL A   1      42.035  28.412  24.893  1.00  0.00    -0.237 OA
ATOM     73  O   UNL A   1      44.033  27.551  26.055  1.00  0.00    -0.744 OA
ENDBRANCH  66  70
ENDBRANCH  49  63
BRANCH  50  74
ATOM     74  C   UNL A   1      39.487  33.394  37.008  1.00  0.00     0.023 A 
ATOM     75  C   UNL A   1      38.763  32.861  38.085  1.00  0.00     0.031 A 
ATOM     76  C   UNL A   1      39.968  34.711  37.117  1.00  0.00     0.131 A 
ATOM     77  C   UNL A   1      38.513  33.653  39.216  1.00  0.00     0.055 A 
ATOM     78  C   UNL A   1      39.749  35.482  38.259  1.00  0.00     0.041 A 
ATOM     79  F   UNL A   1      40.684  35.256  36.121  1.00  0.00    -0.206 F 
ATOM     80  C   UNL A   1      39.009  34.956  39.315  1.00  0.00     0.022 A 
BRANCH  77  81
ATOM     81  S   UNL A   1      37.499  32.965  40.553  1.00  0.00     0.124 S 
ATOM     82  O   UNL A   1      38.229  31.748  40.886  1.00  0.00    -0.237 OA
ATOM     83  O   UNL A   1      37.542  34.034  41.546  1.00  0.00    -0.237 OA
ATOM     84  O   UNL A   1      36.196  32.761  39.922  1.00  0.00    -0.744 OA
ENDBRANCH  77  81
ENDBRANCH  50  74
BRANCH  62  85
ATOM     85  C   UNL A   1      44.314  28.670  35.303  1.00  0.00     0.023 A 
ATOM     86  C   UNL A   1      44.224  27.644  36.260  1.00  0.00     0.031 A 
ATOM     87  C   UNL A   1      45.572  29.256  35.078  1.00  0.00     0.131 A 
ATOM     88  C   UNL A   1      45.356  27.281  37.005  1.00  0.00     0.055 A 
ATOM     89  C   UNL A   1      46.707  28.848  35.778  1.00  0.00     0.041 A 
ATOM     90  F   UNL A   1      45.714  30.243  34.178  1.00  0.00    -0.206 F 
ATOM     91  C   UNL A   1      46.600  27.866  36.759  1.00  0.00     0.022 A 
BRANCH  88  92
ATOM     92  S   UNL A   1      45.154  26.116  38.380  1.00  0.00     0.124 S 
ATOM     93  O   UNL A   1      44.838  24.873  37.683  1.00  0.00    -0.237 OA
ATOM     94  O   UNL A   1      46.459  26.169  39.029  1.00  0.00    -0.237 OA
ATOM     95  O   UNL A   1      44.053  26.687  39.154  1.00  0.00    -0.744 OA
ENDBRANCH  88  92
ENDBRANCH  62  85
ENDBRANCH  36  37
ENDBRANCH  28  31
ENDBRANCH  26  27
ENDBRANCH   1  26
TORSDOF 17
ENDMDL
