MODEL 1
REMARK VINA RESULT:     -12.1      0.000      0.000
REMARK SMILES O=C(CC1(NC(=O)c2ccncc2Cl)CCCCC1)NCCCNC(=O)c1ccc(-c2c3nc(c(-c4cc(S(=O)(=O)[O-])ccc4F)c4ccc([nH]4)c(-c4cc(S(=O)(=O)[O-])ccc4F)c4nc(c(-c5cc(S(=O)(=O)[O-])ccc5F)c5ccc2[nH]5)C=C4)C=C3)cc1
REMARK SMILES IDX 22 1 21 2 20 3 1 4 2 5 3 7 4 8 15 9 19 10 16 11 18 12 17 13
REMARK SMILES IDX 5 14 6 15 7 17 8 18 9 19 13 20 10 21 12 22 14 23 11 24 23 25
REMARK SMILES IDX 24 26 25 27 26 29 27 30 28 31 89 32 29 33 88 34 30 35 31 36
REMARK SMILES IDX 32 37 82 38 33 39 87 40 81 41 83 42 34 43 86 44 80 45 79 46
REMARK SMILES IDX 35 48 67 49 47 50 66 51 48 52 51 53 65 54 84 55 49 56 50 57
REMARK SMILES IDX 64 59 85 60 52 61 36 62 37 63 45 64 38 65 44 66 46 67 43 68
REMARK SMILES IDX 39 69 40 70 41 71 42 72 68 73 69 74 77 75 70 76 76 77 78 78
REMARK SMILES IDX 75 79 71 80 72 81 73 82 74 83 53 84 54 85 62 86 55 87 61 88
REMARK SMILES IDX 63 89 60 90 56 91 57 92 58 93 59 94
REMARK H PARENT 20 6 5 16 24 28 83 47 51 58
REMARK Flexibility Score: inf
ROOT
ATOM      1  C   UNL A   1      31.777  29.453  26.832  1.00  0.00     0.042 C 
ENDROOT
BRANCH   1   2
ATOM      2  C   UNL A   1      31.913  28.160  27.613  1.00  0.00     0.117 C 
BRANCH   2   3
ATOM      3  N   UNL A   1      31.501  26.993  26.861  1.00  0.00    -0.356 N 
ATOM      4  O   UNL A   1      33.571  26.464  26.114  1.00  0.00    -0.275 OA
ATOM      5  C   UNL A   1      32.391  26.148  26.264  1.00  0.00     0.222 C 
ATOM      6  H   UNL A   1      30.539  26.800  26.777  1.00  0.00     0.163 HD
BRANCH   5   7
ATOM      7  C   UNL A   1      31.867  24.843  25.688  1.00  0.00     0.128 C 
BRANCH   7   8
ATOM      8  C   UNL A   1      32.634  24.029  24.600  1.00  0.00     0.049 C 
ATOM      9  C   UNL A   1      33.630  23.035  25.264  1.00  0.00     0.029 C 
ATOM     10  C   UNL A   1      31.527  23.218  23.845  1.00  0.00     0.029 C 
ATOM     11  C   UNL A   1      34.090  21.865  24.398  1.00  0.00     0.002 C 
ATOM     12  C   UNL A   1      32.041  22.055  22.995  1.00  0.00     0.002 C 
ATOM     13  C   UNL A   1      32.910  21.112  23.813  1.00  0.00     0.000 C 
BRANCH   8  14
ATOM     14  N   UNL A   1      33.396  24.794  23.569  1.00  0.00    -0.346 N 
ATOM     15  C   UNL A   1      33.121  25.785  22.667  1.00  0.00     0.253 C 
ATOM     16  H   UNL A   1      34.339  24.514  23.530  1.00  0.00     0.164 HD
ATOM     17  O   UNL A   1      33.770  25.849  21.624  1.00  0.00    -0.269 OA
BRANCH  15  18
ATOM     18  C   UNL A   1      32.128  26.828  22.914  1.00  0.00     0.061 A 
ATOM     19  C   UNL A   1      30.781  26.533  22.688  1.00  0.00     0.035 A 
ATOM     20  C   UNL A   1      32.520  28.135  23.182  1.00  0.00     0.072 A 
ATOM     21  C   UNL A   1      29.862  27.555  22.846  1.00  0.00     0.112 A 
ATOM     22  C   UNL A   1      31.516  29.071  23.377  1.00  0.00     0.132 A 
ATOM     23  Cl  UNL A   1      34.169  28.636  23.202  1.00  0.00    -0.082 Cl
ATOM     24  N   UNL A   1      30.194  28.810  23.211  1.00  0.00    -0.263 NA
ENDBRANCH  15  18
ENDBRANCH   8  14
ENDBRANCH   7   8
ENDBRANCH   5   7
ENDBRANCH   2   3
ENDBRANCH   1   2
BRANCH   1  25
ATOM     25  C   UNL A   1      33.088  30.193  26.618  1.00  0.00     0.118 C 
BRANCH  25  26
ATOM     26  N   UNL A   1      33.036  31.598  26.995  1.00  0.00    -0.352 N 
ATOM     27  C   UNL A   1      33.921  32.328  27.760  1.00  0.00     0.251 C 
ATOM     28  H   UNL A   1      32.258  32.097  26.657  1.00  0.00     0.163 HD
ATOM     29  O   UNL A   1      33.652  33.476  28.067  1.00  0.00    -0.269 OA
BRANCH  27  30
ATOM     30  C   UNL A   1      35.169  31.687  28.232  1.00  0.00     0.039 A 
ATOM     31  C   UNL A   1      36.347  32.436  28.240  1.00  0.00     0.014 A 
ATOM     32  C   UNL A   1      35.168  30.372  28.699  1.00  0.00     0.014 A 
ATOM     33  C   UNL A   1      37.510  31.884  28.782  1.00  0.00     0.010 A 
ATOM     34  C   UNL A   1      36.297  29.861  29.329  1.00  0.00     0.010 A 
ATOM     35  C   UNL A   1      37.485  30.604  29.365  1.00  0.00    -0.014 A 
BRANCH  35  36
ATOM     36  C   UNL A   1      38.704  30.018  29.981  1.00  0.00     0.031 A 
ATOM     37  C   UNL A   1      39.135  30.465  31.353  1.00  0.00     0.074 A 
ATOM     38  C   UNL A   1      39.442  29.126  29.292  1.00  0.00     0.049 A 
ATOM     39  N   UNL A   1      40.183  30.108  32.049  1.00  0.00    -0.248 NA
ATOM     40  C   UNL A   1      38.294  31.474  32.013  1.00  0.00     0.031 C 
ATOM     41  C   UNL A   1      39.154  28.660  27.932  1.00  0.00     0.029 A 
ATOM     42  N   UNL A   1      40.585  28.448  29.636  1.00  0.00    -0.354 N 
ATOM     43  C   UNL A   1      40.132  30.858  33.221  1.00  0.00     0.074 A 
ATOM     44  C   UNL A   1      38.997  31.744  33.101  1.00  0.00     0.031 C 
ATOM     45  C   UNL A   1      40.071  27.746  27.576  1.00  0.00     0.029 A 
ATOM     46  C   UNL A   1      41.036  27.590  28.660  1.00  0.00     0.049 A 
ATOM     47  H   UNL A   1      41.038  28.566  30.502  1.00  0.00     0.167 HD
ATOM     48  C   UNL A   1      40.939  30.791  34.309  1.00  0.00     0.034 A 
ATOM     49  C   UNL A   1      42.106  26.770  28.643  1.00  0.00     0.034 A 
ATOM     50  C   UNL A   1      42.059  29.887  34.414  1.00  0.00     0.049 A 
ATOM     51  C   UNL A   1      42.990  26.712  29.865  1.00  0.00     0.074 A 
ATOM     52  C   UNL A   1      42.918  29.698  35.483  1.00  0.00     0.029 A 
ATOM     53  N   UNL A   1      42.479  29.021  33.412  1.00  0.00    -0.354 N 
ATOM     54  N   UNL A   1      42.897  27.388  30.988  1.00  0.00    -0.248 NA
ATOM     55  C   UNL A   1      44.110  25.766  29.823  1.00  0.00     0.031 C 
ATOM     56  C   UNL A   1      43.894  28.770  35.103  1.00  0.00     0.029 A 
ATOM     57  C   UNL A   1      43.597  28.315  33.827  1.00  0.00     0.049 A 
ATOM     58  H   UNL A   1      42.045  28.924  32.533  1.00  0.00     0.167 HD
ATOM     59  C   UNL A   1      43.927  26.919  31.798  1.00  0.00     0.074 A 
ATOM     60  C   UNL A   1      44.612  25.891  31.042  1.00  0.00     0.031 C 
ATOM     61  C   UNL A   1      44.275  27.299  33.056  1.00  0.00     0.034 A 
BRANCH  48  62
ATOM     62  C   UNL A   1      40.642  31.734  35.452  1.00  0.00     0.023 A 
ATOM     63  C   UNL A   1      39.533  31.544  36.298  1.00  0.00     0.031 A 
ATOM     64  C   UNL A   1      41.451  32.861  35.678  1.00  0.00     0.131 A 
ATOM     65  C   UNL A   1      39.215  32.509  37.267  1.00  0.00     0.055 A 
ATOM     66  C   UNL A   1      41.181  33.770  36.704  1.00  0.00     0.041 A 
ATOM     67  F   UNL A   1      42.509  33.111  34.891  1.00  0.00    -0.206 F 
ATOM     68  C   UNL A   1      40.047  33.606  37.494  1.00  0.00     0.022 A 
BRANCH  65  69
ATOM     69  S   UNL A   1      37.615  32.391  38.113  1.00  0.00     0.124 S 
ATOM     70  O   UNL A   1      37.352  30.955  38.047  1.00  0.00    -0.237 OA
ATOM     71  O   UNL A   1      37.916  32.926  39.435  1.00  0.00    -0.237 OA
ATOM     72  O   UNL A   1      36.730  33.216  37.292  1.00  0.00    -0.744 OA
ENDBRANCH  65  69
ENDBRANCH  48  62
BRANCH  49  73
ATOM     73  C   UNL A   1      42.404  25.932  27.445  1.00  0.00     0.023 A 
ATOM     74  C   UNL A   1      41.977  24.596  27.372  1.00  0.00     0.031 A 
ATOM     75  C   UNL A   1      43.159  26.441  26.374  1.00  0.00     0.131 A 
ATOM     76  C   UNL A   1      42.354  23.799  26.279  1.00  0.00     0.055 A 
ATOM     77  C   UNL A   1      43.482  25.660  25.262  1.00  0.00     0.041 A 
ATOM     78  F   UNL A   1      43.587  27.714  26.388  1.00  0.00    -0.206 F 
ATOM     79  C   UNL A   1      43.092  24.326  25.218  1.00  0.00     0.022 A 
BRANCH  76  80
ATOM     80  S   UNL A   1      41.942  22.032  26.311  1.00  0.00     0.124 S 
ATOM     81  O   UNL A   1      40.508  22.056  26.048  1.00  0.00    -0.237 OA
ATOM     82  O   UNL A   1      42.782  21.506  25.240  1.00  0.00    -0.237 OA
ATOM     83  O   UNL A   1      42.323  21.619  27.660  1.00  0.00    -0.744 OA
ENDBRANCH  76  80
ENDBRANCH  49  73
BRANCH  61  84
ATOM     84  C   UNL A   1      45.421  26.556  33.701  1.00  0.00     0.023 A 
ATOM     85  C   UNL A   1      45.221  25.370  34.428  1.00  0.00     0.031 A 
ATOM     86  C   UNL A   1      46.730  27.063  33.613  1.00  0.00     0.131 A 
ATOM     87  C   UNL A   1      46.296  24.775  35.104  1.00  0.00     0.055 A 
ATOM     88  C   UNL A   1      47.808  26.425  34.226  1.00  0.00     0.041 A 
ATOM     89  F   UNL A   1      46.982  28.193  32.932  1.00  0.00    -0.206 F 
ATOM     90  C   UNL A   1      47.593  25.284  34.992  1.00  0.00     0.022 A 
BRANCH  87  91
ATOM     91  S   UNL A   1      45.956  23.397  36.235  1.00  0.00     0.124 S 
ATOM     92  O   UNL A   1      44.867  22.707  35.551  1.00  0.00    -0.237 OA
ATOM     93  O   UNL A   1      47.236  22.696  36.265  1.00  0.00    -0.237 OA
ATOM     94  O   UNL A   1      45.584  24.063  37.482  1.00  0.00    -0.744 OA
ENDBRANCH  87  91
ENDBRANCH  61  84
ENDBRANCH  35  36
ENDBRANCH  27  30
ENDBRANCH  25  26
ENDBRANCH   1  25
TORSDOF 16
ENDMDL
MODEL 2
REMARK VINA RESULT:     -11.9      4.819     10.130
REMARK SMILES O=C(CC1(NC(=O)c2ccncc2Cl)CCCCC1)NCCCNC(=O)c1ccc(-c2c3nc(c(-c4cc(S(=O)(=O)[O-])ccc4F)c4ccc([nH]4)c(-c4cc(S(=O)(=O)[O-])ccc4F)c4nc(c(-c5cc(S(=O)(=O)[O-])ccc5F)c5ccc2[nH]5)C=C4)C=C3)cc1
REMARK SMILES IDX 22 1 21 2 20 3 1 4 2 5 3 7 4 8 15 9 19 10 16 11 18 12 17 13
REMARK SMILES IDX 5 14 6 15 7 17 8 18 9 19 13 20 10 21 12 22 14 23 11 24 23 25
REMARK SMILES IDX 24 26 25 27 26 29 27 30 28 31 89 32 29 33 88 34 30 35 31 36
REMARK SMILES IDX 32 37 82 38 33 39 87 40 81 41 83 42 34 43 86 44 80 45 79 46
REMARK SMILES IDX 35 48 67 49 47 50 66 51 48 52 51 53 65 54 84 55 49 56 50 57
REMARK SMILES IDX 64 59 85 60 52 61 36 62 37 63 45 64 38 65 44 66 46 67 43 68
REMARK SMILES IDX 39 69 40 70 41 71 42 72 68 73 69 74 77 75 70 76 76 77 78 78
REMARK SMILES IDX 75 79 71 80 72 81 73 82 74 83 53 84 54 85 62 86 55 87 61 88
REMARK SMILES IDX 63 89 60 90 56 91 57 92 58 93 59 94
REMARK H PARENT 20 6 5 16 24 28 83 47 51 58
REMARK Flexibility Score: inf
ROOT
ATOM      1  C   UNL A   1      36.769  22.100  23.920  1.00  0.00     0.042 C 
ENDROOT
BRANCH   1   2
ATOM      2  C   UNL A   1      35.740  23.142  23.527  1.00  0.00     0.117 C 
BRANCH   2   3
ATOM      3  N   UNL A   1      35.426  24.067  24.596  1.00  0.00    -0.356 N 
ATOM      4  O   UNL A   1      33.897  25.256  23.425  1.00  0.00    -0.275 OA
ATOM      5  C   UNL A   1      34.423  24.988  24.505  1.00  0.00     0.222 C 
ATOM      6  H   UNL A   1      35.959  24.031  25.424  1.00  0.00     0.163 HD
BRANCH   5   7
ATOM      7  C   UNL A   1      34.039  25.758  25.758  1.00  0.00     0.128 C 
BRANCH   7   8
ATOM      8  C   UNL A   1      32.662  26.470  25.925  1.00  0.00     0.049 C 
ATOM      9  C   UNL A   1      32.835  27.826  26.668  1.00  0.00     0.029 C 
ATOM     10  C   UNL A   1      32.168  26.746  24.464  1.00  0.00     0.029 C 
ATOM     11  C   UNL A   1      31.705  28.839  26.491  1.00  0.00     0.002 C 
ATOM     12  C   UNL A   1      31.039  27.771  24.343  1.00  0.00     0.002 C 
ATOM     13  C   UNL A   1      31.403  29.080  25.025  1.00  0.00     0.000 C 
BRANCH   8  14
ATOM     14  N   UNL A   1      31.573  25.722  26.621  1.00  0.00    -0.346 N 
ATOM     15  C   UNL A   1      30.978  24.496  26.497  1.00  0.00     0.253 C 
ATOM     16  H   UNL A   1      31.184  26.245  27.359  1.00  0.00     0.164 HD
ATOM     17  O   UNL A   1      29.805  24.357  26.838  1.00  0.00    -0.269 OA
BRANCH  15  18
ATOM     18  C   UNL A   1      31.697  23.310  26.038  1.00  0.00     0.061 A 
ATOM     19  C   UNL A   1      32.641  22.731  26.888  1.00  0.00     0.035 A 
ATOM     20  C   UNL A   1      31.587  22.877  24.720  1.00  0.00     0.072 A 
ATOM     21  C   UNL A   1      33.372  21.659  26.407  1.00  0.00     0.112 A 
ATOM     22  C   UNL A   1      32.323  21.760  24.356  1.00  0.00     0.132 A 
ATOM     23  Cl  UNL A   1      30.654  23.708  23.533  1.00  0.00    -0.082 Cl
ATOM     24  N   UNL A   1      33.217  21.143  25.170  1.00  0.00    -0.263 NA
ENDBRANCH  15  18
ENDBRANCH   8  14
ENDBRANCH   7   8
ENDBRANCH   5   7
ENDBRANCH   2   3
ENDBRANCH   1   2
BRANCH   1  25
ATOM     25  C   UNL A   1      37.251  22.211  25.358  1.00  0.00     0.118 C 
BRANCH  25  26
ATOM     26  N   UNL A   1      38.243  21.208  25.722  1.00  0.00    -0.352 N 
ATOM     27  C   UNL A   1      39.464  21.376  26.339  1.00  0.00     0.251 C 
ATOM     28  H   UNL A   1      38.007  20.280  25.494  1.00  0.00     0.163 HD
ATOM     29  O   UNL A   1      40.215  20.423  26.463  1.00  0.00    -0.269 OA
BRANCH  27  30
ATOM     30  C   UNL A   1      39.861  22.723  26.805  1.00  0.00     0.039 A 
ATOM     31  C   UNL A   1      40.786  22.829  27.845  1.00  0.00     0.014 A 
ATOM     32  C   UNL A   1      39.355  23.872  26.194  1.00  0.00     0.014 A 
ATOM     33  C   UNL A   1      41.253  24.089  28.225  1.00  0.00     0.010 A 
ATOM     34  C   UNL A   1      39.896  25.114  26.503  1.00  0.00     0.010 A 
ATOM     35  C   UNL A   1      40.839  25.240  27.532  1.00  0.00    -0.014 A 
BRANCH  35  36
ATOM     36  C   UNL A   1      41.357  26.584  27.898  1.00  0.00     0.031 A 
ATOM     37  C   UNL A   1      42.769  26.965  27.535  1.00  0.00     0.074 A 
ATOM     38  C   UNL A   1      40.579  27.438  28.593  1.00  0.00     0.049 A 
ATOM     39  N   UNL A   1      43.423  28.067  27.795  1.00  0.00    -0.248 NA
ATOM     40  C   UNL A   1      43.560  25.955  26.816  1.00  0.00     0.031 C 
ATOM     41  C   UNL A   1      39.215  27.158  29.050  1.00  0.00     0.029 A 
ATOM     42  N   UNL A   1      40.819  28.713  29.037  1.00  0.00    -0.354 N 
ATOM     43  C   UNL A   1      44.703  27.877  27.282  1.00  0.00     0.074 A 
ATOM     44  C   UNL A   1      44.753  26.525  26.772  1.00  0.00     0.031 C 
ATOM     45  C   UNL A   1      38.728  28.243  29.672  1.00  0.00     0.029 A 
ATOM     46  C   UNL A   1      39.754  29.280  29.698  1.00  0.00     0.049 A 
ATOM     47  H   UNL A   1      41.675  29.180  28.894  1.00  0.00     0.167 HD
ATOM     48  C   UNL A   1      45.731  28.758  27.214  1.00  0.00     0.034 A 
ATOM     49  C   UNL A   1      39.622  30.498  30.262  1.00  0.00     0.034 A 
ATOM     50  C   UNL A   1      45.655  30.109  27.717  1.00  0.00     0.049 A 
ATOM     51  C   UNL A   1      40.779  31.463  30.175  1.00  0.00     0.074 A 
ATOM     52  C   UNL A   1      46.614  31.105  27.664  1.00  0.00     0.029 A 
ATOM     53  N   UNL A   1      44.555  30.654  28.369  1.00  0.00    -0.354 N 
ATOM     54  N   UNL A   1      41.966  31.287  29.637  1.00  0.00    -0.248 NA
ATOM     55  C   UNL A   1      40.571  32.795  30.752  1.00  0.00     0.031 C 
ATOM     56  C   UNL A   1      46.122  32.226  28.340  1.00  0.00     0.029 A 
ATOM     57  C   UNL A   1      44.822  31.962  28.744  1.00  0.00     0.049 A 
ATOM     58  H   UNL A   1      43.710  30.179  28.541  1.00  0.00     0.167 HD
ATOM     59  C   UNL A   1      42.630  32.502  29.782  1.00  0.00     0.074 A 
ATOM     60  C   UNL A   1      41.704  33.403  30.436  1.00  0.00     0.031 C 
ATOM     61  C   UNL A   1      43.890  32.845  29.406  1.00  0.00     0.034 A 
BRANCH  48  62
ATOM     62  C   UNL A   1      47.021  28.274  26.593  1.00  0.00     0.023 A 
ATOM     63  C   UNL A   1      47.217  28.276  25.200  1.00  0.00     0.031 A 
ATOM     64  C   UNL A   1      48.054  27.763  27.398  1.00  0.00     0.131 A 
ATOM     65  C   UNL A   1      48.374  27.701  24.652  1.00  0.00     0.055 A 
ATOM     66  C   UNL A   1      49.243  27.275  26.850  1.00  0.00     0.041 A 
ATOM     67  F   UNL A   1      47.919  27.711  28.732  1.00  0.00    -0.206 F 
ATOM     68  C   UNL A   1      49.401  27.226  25.469  1.00  0.00     0.022 A 
BRANCH  65  69
ATOM     69  S   UNL A   1      48.444  27.437  22.858  1.00  0.00     0.124 S 
ATOM     70  O   UNL A   1      49.758  27.988  22.531  1.00  0.00    -0.237 OA
ATOM     71  O   UNL A   1      48.312  25.989  22.746  1.00  0.00    -0.237 OA
ATOM     72  O   UNL A   1      47.310  28.209  22.353  1.00  0.00    -0.744 OA
ENDBRANCH  65  69
ENDBRANCH  48  62
BRANCH  49  73
ATOM     73  C   UNL A   1      38.355  30.885  30.947  1.00  0.00     0.023 A 
ATOM     74  C   UNL A   1      37.315  31.516  30.244  1.00  0.00     0.031 A 
ATOM     75  C   UNL A   1      38.182  30.673  32.326  1.00  0.00     0.131 A 
ATOM     76  C   UNL A   1      36.174  31.960  30.931  1.00  0.00     0.055 A 
ATOM     77  C   UNL A   1      37.020  31.066  32.994  1.00  0.00     0.041 A 
ATOM     78  F   UNL A   1      39.142  30.069  33.046  1.00  0.00    -0.206 F 
ATOM     79  C   UNL A   1      36.015  31.727  32.298  1.00  0.00     0.022 A 
BRANCH  76  80
ATOM     80  S   UNL A   1      34.938  32.932  30.024  1.00  0.00     0.124 S 
ATOM     81  O   UNL A   1      34.034  33.336  31.094  1.00  0.00    -0.237 OA
ATOM     82  O   UNL A   1      35.756  33.990  29.440  1.00  0.00    -0.237 OA
ATOM     83  O   UNL A   1      34.387  31.973  29.069  1.00  0.00    -0.744 OA
ENDBRANCH  76  80
ENDBRANCH  49  73
BRANCH  61  84
ATOM     84  C   UNL A   1      44.310  34.275  29.653  1.00  0.00     0.023 A 
ATOM     85  C   UNL A   1      44.011  35.304  28.745  1.00  0.00     0.031 A 
ATOM     86  C   UNL A   1      45.053  34.603  30.802  1.00  0.00     0.131 A 
ATOM     87  C   UNL A   1      44.518  36.595  28.959  1.00  0.00     0.055 A 
ATOM     88  C   UNL A   1      45.490  35.904  31.047  1.00  0.00     0.041 A 
ATOM     89  F   UNL A   1      45.370  33.661  31.705  1.00  0.00    -0.206 F 
ATOM     90  C   UNL A   1      45.240  36.906  30.115  1.00  0.00     0.022 A 
BRANCH  87  91
ATOM     91  S   UNL A   1      44.327  37.832  27.646  1.00  0.00     0.124 S 
ATOM     92  O   UNL A   1      43.210  37.290  26.880  1.00  0.00    -0.237 OA
ATOM     93  O   UNL A   1      44.051  39.049  28.403  1.00  0.00    -0.237 OA
ATOM     94  O   UNL A   1      45.619  37.807  26.962  1.00  0.00    -0.744 OA
ENDBRANCH  87  91
ENDBRANCH  61  84
ENDBRANCH  35  36
ENDBRANCH  27  30
ENDBRANCH  25  26
ENDBRANCH   1  25
TORSDOF 16
ENDMDL
MODEL 3
REMARK VINA RESULT:     -11.7      2.602      8.480
REMARK SMILES O=C(CC1(NC(=O)c2ccncc2Cl)CCCCC1)NCCCNC(=O)c1ccc(-c2c3nc(c(-c4cc(S(=O)(=O)[O-])ccc4F)c4ccc([nH]4)c(-c4cc(S(=O)(=O)[O-])ccc4F)c4nc(c(-c5cc(S(=O)(=O)[O-])ccc5F)c5ccc2[nH]5)C=C4)C=C3)cc1
REMARK SMILES IDX 22 1 21 2 20 3 1 4 2 5 3 7 4 8 15 9 19 10 16 11 18 12 17 13
REMARK SMILES IDX 5 14 6 15 7 17 8 18 9 19 13 20 10 21 12 22 14 23 11 24 23 25
REMARK SMILES IDX 24 26 25 27 26 29 27 30 28 31 89 32 29 33 88 34 30 35 31 36
REMARK SMILES IDX 32 37 82 38 33 39 87 40 81 41 83 42 34 43 86 44 80 45 79 46
REMARK SMILES IDX 35 48 67 49 47 50 66 51 48 52 51 53 65 54 84 55 49 56 50 57
REMARK SMILES IDX 64 59 85 60 52 61 36 62 37 63 45 64 38 65 44 66 46 67 43 68
REMARK SMILES IDX 39 69 40 70 41 71 42 72 68 73 69 74 77 75 70 76 76 77 78 78
REMARK SMILES IDX 75 79 71 80 72 81 73 82 74 83 53 84 54 85 62 86 55 87 61 88
REMARK SMILES IDX 63 89 60 90 56 91 57 92 58 93 59 94
REMARK H PARENT 20 6 5 16 24 28 83 47 51 58
REMARK Flexibility Score: inf
ROOT
ATOM      1  C   UNL A   1      31.908  32.043  26.893  1.00  0.00     0.042 C 
ENDROOT
BRANCH   1   2
ATOM      2  C   UNL A   1      32.138  30.544  26.897  1.00  0.00     0.117 C 
BRANCH   2   3
ATOM      3  N   UNL A   1      32.447  30.011  25.586  1.00  0.00    -0.356 N 
ATOM      4  O   UNL A   1      33.464  28.134  26.340  1.00  0.00    -0.275 OA
ATOM      5  C   UNL A   1      32.981  28.769  25.402  1.00  0.00     0.222 C 
ATOM      6  H   UNL A   1      32.264  30.567  24.794  1.00  0.00     0.163 HD
BRANCH   5   7
ATOM      7  C   UNL A   1      33.064  28.225  23.985  1.00  0.00     0.128 C 
BRANCH   7   8
ATOM      8  C   UNL A   1      31.803  27.825  23.157  1.00  0.00     0.049 C 
ATOM      9  C   UNL A   1      30.683  27.290  24.094  1.00  0.00     0.029 C 
ATOM     10  C   UNL A   1      31.320  29.156  22.487  1.00  0.00     0.029 C 
ATOM     11  C   UNL A   1      29.265  27.312  23.527  1.00  0.00     0.002 C 
ATOM     12  C   UNL A   1      29.892  29.125  21.939  1.00  0.00     0.002 C 
ATOM     13  C   UNL A   1      28.899  28.688  23.005  1.00  0.00     0.000 C 
BRANCH   8  14
ATOM     14  N   UNL A   1      31.980  26.823  22.064  1.00  0.00    -0.346 N 
ATOM     15  C   UNL A   1      32.718  25.688  21.871  1.00  0.00     0.253 C 
ATOM     16  H   UNL A   1      31.419  27.033  21.282  1.00  0.00     0.164 HD
ATOM     17  O   UNL A   1      33.058  25.375  20.731  1.00  0.00    -0.269 OA
BRANCH  15  18
ATOM     18  C   UNL A   1      33.070  24.777  22.958  1.00  0.00     0.061 A 
ATOM     19  C   UNL A   1      34.420  24.591  23.261  1.00  0.00     0.035 A 
ATOM     20  C   UNL A   1      32.104  23.971  23.552  1.00  0.00     0.072 A 
ATOM     21  C   UNL A   1      34.741  23.663  24.236  1.00  0.00     0.112 A 
ATOM     22  C   UNL A   1      32.525  23.114  24.557  1.00  0.00     0.132 A 
ATOM     23  Cl  UNL A   1      30.459  23.943  23.039  1.00  0.00    -0.082 Cl
ATOM     24  N   UNL A   1      33.823  22.939  24.910  1.00  0.00    -0.263 NA
ENDBRANCH  15  18
ENDBRANCH   8  14
ENDBRANCH   7   8
ENDBRANCH   5   7
ENDBRANCH   2   3
ENDBRANCH   1   2
BRANCH   1  25
ATOM     25  C   UNL A   1      33.079  32.855  27.423  1.00  0.00     0.118 C 
BRANCH  25  26
ATOM     26  N   UNL A   1      32.718  34.206  27.831  1.00  0.00    -0.352 N 
ATOM     27  C   UNL A   1      33.228  34.970  28.859  1.00  0.00     0.251 C 
ATOM     28  H   UNL A   1      32.009  34.632  27.298  1.00  0.00     0.163 HD
ATOM     29  O   UNL A   1      32.719  36.046  29.123  1.00  0.00    -0.269 OA
BRANCH  27  30
ATOM     30  C   UNL A   1      34.363  34.450  29.653  1.00  0.00     0.039 A 
ATOM     31  C   UNL A   1      34.093  33.694  30.796  1.00  0.00     0.014 A 
ATOM     32  C   UNL A   1      35.682  34.672  29.252  1.00  0.00     0.014 A 
ATOM     33  C   UNL A   1      35.148  33.105  31.496  1.00  0.00     0.010 A 
ATOM     34  C   UNL A   1      36.720  34.004  29.889  1.00  0.00     0.010 A 
ATOM     35  C   UNL A   1      36.469  33.225  31.028  1.00  0.00    -0.014 A 
BRANCH  35  36
ATOM     36  C   UNL A   1      37.598  32.572  31.739  1.00  0.00     0.031 A 
ATOM     37  C   UNL A   1      38.332  31.431  31.086  1.00  0.00     0.074 A 
ATOM     38  C   UNL A   1      37.930  32.972  32.983  1.00  0.00     0.049 A 
ATOM     39  N   UNL A   1      39.315  30.703  31.550  1.00  0.00    -0.248 NA
ATOM     40  C   UNL A   1      37.874  31.033  29.746  1.00  0.00     0.031 C 
ATOM     41  C   UNL A   1      37.253  34.029  33.740  1.00  0.00     0.029 A 
ATOM     42  N   UNL A   1      38.917  32.541  33.832  1.00  0.00    -0.354 N 
ATOM     43  C   UNL A   1      39.582  29.757  30.566  1.00  0.00     0.074 A 
ATOM     44  C   UNL A   1      38.605  29.953  29.519  1.00  0.00     0.031 C 
ATOM     45  C   UNL A   1      37.872  34.190  34.921  1.00  0.00     0.029 A 
ATOM     46  C   UNL A   1      38.959  33.222  35.027  1.00  0.00     0.049 A 
ATOM     47  H   UNL A   1      39.540  31.812  33.605  1.00  0.00     0.167 HD
ATOM     48  C   UNL A   1      40.571  28.830  30.524  1.00  0.00     0.034 A 
ATOM     49  C   UNL A   1      39.780  33.080  36.086  1.00  0.00     0.034 A 
ATOM     50  C   UNL A   1      41.547  28.660  31.574  1.00  0.00     0.049 A 
ATOM     51  C   UNL A   1      40.874  32.043  36.018  1.00  0.00     0.074 A 
ATOM     52  C   UNL A   1      42.619  27.787  31.622  1.00  0.00     0.029 A 
ATOM     53  N   UNL A   1      41.567  29.377  32.764  1.00  0.00    -0.354 N 
ATOM     54  N   UNL A   1      41.149  31.191  35.056  1.00  0.00    -0.248 NA
ATOM     55  C   UNL A   1      41.778  31.962  37.170  1.00  0.00     0.031 C 
ATOM     56  C   UNL A   1      43.245  27.929  32.865  1.00  0.00     0.029 A 
ATOM     57  C   UNL A   1      42.617  28.949  33.562  1.00  0.00     0.049 A 
ATOM     58  H   UNL A   1      40.927  30.085  33.006  1.00  0.00     0.167 HD
ATOM     59  C   UNL A   1      42.282  30.499  35.475  1.00  0.00     0.074 A 
ATOM     60  C   UNL A   1      42.647  31.050  36.764  1.00  0.00     0.031 C 
ATOM     61  C   UNL A   1      42.962  29.502  34.851  1.00  0.00     0.034 A 
BRANCH  48  62
ATOM     62  C   UNL A   1      40.625  27.926  29.314  1.00  0.00     0.023 A 
ATOM     63  C   UNL A   1      41.562  28.123  28.284  1.00  0.00     0.031 A 
ATOM     64  C   UNL A   1      39.701  26.876  29.165  1.00  0.00     0.131 A 
ATOM     65  C   UNL A   1      41.499  27.346  27.117  1.00  0.00     0.055 A 
ATOM     66  C   UNL A   1      39.703  26.046  28.041  1.00  0.00     0.041 A 
ATOM     67  F   UNL A   1      38.766  26.650  30.101  1.00  0.00    -0.206 F 
ATOM     68  C   UNL A   1      40.595  26.290  27.001  1.00  0.00     0.022 A 
BRANCH  65  69
ATOM     69  S   UNL A   1      42.509  27.839  25.693  1.00  0.00     0.124 S 
ATOM     70  O   UNL A   1      43.773  28.191  26.336  1.00  0.00    -0.237 OA
ATOM     71  O   UNL A   1      42.522  26.628  24.881  1.00  0.00    -0.237 OA
ATOM     72  O   UNL A   1      41.774  28.966  25.123  1.00  0.00    -0.744 OA
ENDBRANCH  65  69
ENDBRANCH  48  62
BRANCH  49  73
ATOM     73  C   UNL A   1      39.617  33.940  37.295  1.00  0.00     0.023 A 
ATOM     74  C   UNL A   1      38.962  33.460  38.441  1.00  0.00     0.031 A 
ATOM     75  C   UNL A   1      40.073  35.269  37.306  1.00  0.00     0.131 A 
ATOM     76  C   UNL A   1      38.734  34.319  39.528  1.00  0.00     0.055 A 
ATOM     77  C   UNL A   1      39.894  36.102  38.413  1.00  0.00     0.041 A 
ATOM     78  F   UNL A   1      40.712  35.778  36.239  1.00  0.00    -0.206 F 
ATOM     79  C   UNL A   1      39.207  35.632  39.526  1.00  0.00     0.022 A 
BRANCH  76  80
ATOM     80  S   UNL A   1      37.724  33.718  40.911  1.00  0.00     0.124 S 
ATOM     81  O   UNL A   1      36.637  33.041  40.214  1.00  0.00    -0.237 OA
ATOM     82  O   UNL A   1      38.665  32.860  41.622  1.00  0.00    -0.237 OA
ATOM     83  O   UNL A   1      37.347  34.943  41.613  1.00  0.00    -0.744 OA
ENDBRANCH  76  80
ENDBRANCH  49  73
BRANCH  61  84
ATOM     84  C   UNL A   1      44.201  28.985  35.544  1.00  0.00     0.023 A 
ATOM     85  C   UNL A   1      44.153  27.909  36.446  1.00  0.00     0.031 A 
ATOM     86  C   UNL A   1      45.445  29.604  35.321  1.00  0.00     0.131 A 
ATOM     87  C   UNL A   1      45.307  27.535  37.151  1.00  0.00     0.055 A 
ATOM     88  C   UNL A   1      46.604  29.180  35.970  1.00  0.00     0.041 A 
ATOM     89  F   UNL A   1      45.552  30.638  34.470  1.00  0.00    -0.206 F 
ATOM     90  C   UNL A   1      46.536  28.152  36.905  1.00  0.00     0.022 A 
BRANCH  87  91
ATOM     91  S   UNL A   1      45.153  26.317  38.487  1.00  0.00     0.124 S 
ATOM     92  O   UNL A   1      44.930  25.081  37.744  1.00  0.00    -0.237 OA
ATOM     93  O   UNL A   1      46.441  26.432  39.162  1.00  0.00    -0.237 OA
ATOM     94  O   UNL A   1      44.005  26.795  39.255  1.00  0.00    -0.744 OA
ENDBRANCH  87  91
ENDBRANCH  61  84
ENDBRANCH  35  36
ENDBRANCH  27  30
ENDBRANCH  25  26
ENDBRANCH   1  25
TORSDOF 16
ENDMDL
