MODEL 1
REMARK VINA RESULT:     -12.2      0.000      0.000
REMARK SMILES O=C(NCCCNC(=O)c1cc(NC(=O)c2cccs2)ccc1N1CCC[C@H](C[NH+]2CCCC2)C1)c1ccc(-c2c3nc(c(-c4cc(S(=O)(=O)[O-])ccc4F)c4ccc([nH]4)c(-c4cc(S(=O)(=O)[O-])ccc4F)c4nc(c(-c5cc(S(=O)(=O)[O-])ccc5F)c5ccc2[nH]5)C=C4)C=C3)cc1
REMARK SMILES IDX 5 1 4 2 3 3 1 4 2 5 36 7 37 8 98 9 38 10 97 11 39 12 40 13
REMARK SMILES IDX 41 14 91 15 42 16 96 17 90 18 92 19 43 20 95 21 89 22 88 23
REMARK SMILES IDX 44 25 76 26 56 27 75 28 57 29 60 30 74 31 93 32 58 33 59 34
REMARK SMILES IDX 73 36 94 37 61 38 45 39 46 40 54 41 47 42 53 43 55 44 52 45
REMARK SMILES IDX 48 46 49 47 50 48 51 49 77 50 78 51 86 52 79 53 85 54 87 55
REMARK SMILES IDX 84 56 80 57 81 58 82 59 83 60 62 61 63 62 71 63 64 64 70 65
REMARK SMILES IDX 72 66 69 67 65 68 66 69 67 70 68 71 6 72 7 73 8 74 9 76
REMARK SMILES IDX 10 77 11 78 23 79 12 80 22 81 21 82 24 83 25 84 35 85 26 86
REMARK SMILES IDX 28 87 27 88 29 89 30 90 31 91 34 92 32 94 33 95 13 96 14 97
REMARK SMILES IDX 15 99 16 100 17 101 20 102 18 103 19 104
REMARK H PARENT 3 6 92 24 60 35 7 75 30 93 13 98
REMARK Flexibility Score: inf
ROOT
ATOM      1  C   UNL A   1      36.681  22.962  23.953  1.00  0.00     0.042 C 
ENDROOT
BRANCH   1   2
ATOM      2  C   UNL A   1      36.775  22.510  25.405  1.00  0.00     0.118 C 
BRANCH   2   3
ATOM      3  N   UNL A   1      37.727  21.427  25.634  1.00  0.00    -0.352 N 
ATOM      4  O   UNL A   1      39.671  20.402  26.103  1.00  0.00    -0.269 OA
ATOM      5  C   UNL A   1      39.021  21.440  26.106  1.00  0.00     0.251 C 
ATOM      6  H   UNL A   1      37.384  20.532  25.411  1.00  0.00     0.163 HD
BRANCH   5   7
ATOM      7  C   UNL A   1      39.638  22.701  26.579  1.00  0.00     0.039 A 
ATOM      8  C   UNL A   1      39.224  23.935  26.082  1.00  0.00     0.014 A 
ATOM      9  C   UNL A   1      40.652  22.644  27.539  1.00  0.00     0.014 A 
ATOM     10  C   UNL A   1      39.956  25.080  26.372  1.00  0.00     0.010 A 
ATOM     11  C   UNL A   1      41.310  23.817  27.924  1.00  0.00     0.010 A 
ATOM     12  C   UNL A   1      41.001  25.038  27.305  1.00  0.00    -0.014 A 
BRANCH  12  13
ATOM     13  C   UNL A   1      41.738  26.284  27.644  1.00  0.00     0.031 A 
ATOM     14  C   UNL A   1      41.085  27.366  28.458  1.00  0.00     0.074 A 
ATOM     15  C   UNL A   1      43.007  26.432  27.214  1.00  0.00     0.049 A 
ATOM     16  N   UNL A   1      41.539  28.553  28.773  1.00  0.00    -0.248 NA
ATOM     17  C   UNL A   1      39.738  27.083  28.972  1.00  0.00     0.031 C 
ATOM     18  C   UNL A   1      43.747  25.444  26.424  1.00  0.00     0.029 A 
ATOM     19  N   UNL A   1      43.896  27.462  27.374  1.00  0.00    -0.354 N 
ATOM     20  C   UNL A   1      40.522  29.172  29.494  1.00  0.00     0.074 A 
ATOM     21  C   UNL A   1      39.418  28.236  29.540  1.00  0.00     0.031 C 
ATOM     22  C   UNL A   1      44.981  25.906  26.187  1.00  0.00     0.029 A 
ATOM     23  C   UNL A   1      45.092  27.255  26.729  1.00  0.00     0.049 A 
ATOM     24  H   UNL A   1      43.698  28.271  27.899  1.00  0.00     0.167 HD
ATOM     25  C   UNL A   1      40.517  30.404  30.066  1.00  0.00     0.034 A 
ATOM     26  C   UNL A   1      46.146  28.071  26.545  1.00  0.00     0.034 A 
ATOM     27  C   UNL A   1      41.637  31.315  30.009  1.00  0.00     0.049 A 
ATOM     28  C   UNL A   1      46.104  29.450  27.139  1.00  0.00     0.074 A 
ATOM     29  C   UNL A   1      41.762  32.567  30.584  1.00  0.00     0.029 A 
ATOM     30  N   UNL A   1      42.824  31.075  29.325  1.00  0.00    -0.354 N 
ATOM     31  N   UNL A   1      45.140  30.021  27.822  1.00  0.00    -0.248 NA
ATOM     32  C   UNL A   1      47.289  30.293  26.941  1.00  0.00     0.031 C 
ATOM     33  C   UNL A   1      42.990  33.113  30.190  1.00  0.00     0.029 A 
ATOM     34  C   UNL A   1      43.669  32.171  29.434  1.00  0.00     0.049 A 
ATOM     35  H   UNL A   1      43.035  30.249  28.835  1.00  0.00     0.167 HD
ATOM     36  C   UNL A   1      45.608  31.287  28.152  1.00  0.00     0.074 A 
ATOM     37  C   UNL A   1      46.943  31.393  27.595  1.00  0.00     0.031 C 
ATOM     38  C   UNL A   1      44.991  32.268  28.859  1.00  0.00     0.034 A 
BRANCH  25  39
ATOM     39  C   UNL A   1      39.239  30.851  30.741  1.00  0.00     0.023 A 
ATOM     40  C   UNL A   1      38.189  31.449  30.024  1.00  0.00     0.031 A 
ATOM     41  C   UNL A   1      39.092  30.726  32.134  1.00  0.00     0.131 A 
ATOM     42  C   UNL A   1      37.086  31.987  30.709  1.00  0.00     0.055 A 
ATOM     43  C   UNL A   1      37.951  31.180  32.800  1.00  0.00     0.041 A 
ATOM     44  F   UNL A   1      40.067  30.180  32.879  1.00  0.00    -0.206 F 
ATOM     45  C   UNL A   1      36.949  31.834  32.091  1.00  0.00     0.022 A 
BRANCH  42  46
ATOM     46  S   UNL A   1      35.931  33.047  29.795  1.00  0.00     0.124 S 
ATOM     47  O   UNL A   1      36.758  33.487  28.671  1.00  0.00    -0.237 OA
ATOM     48  O   UNL A   1      34.851  32.125  29.468  1.00  0.00    -0.237 OA
ATOM     49  O   UNL A   1      35.594  34.095  30.755  1.00  0.00    -0.744 OA
ENDBRANCH  42  46
ENDBRANCH  25  39
BRANCH  26  50
ATOM     50  C   UNL A   1      47.285  27.611  25.706  1.00  0.00     0.023 A 
ATOM     51  C   UNL A   1      47.330  27.868  24.329  1.00  0.00     0.031 A 
ATOM     52  C   UNL A   1      48.377  26.945  26.295  1.00  0.00     0.131 A 
ATOM     53  C   UNL A   1      48.443  27.451  23.583  1.00  0.00     0.055 A 
ATOM     54  C   UNL A   1      49.499  26.571  25.556  1.00  0.00     0.041 A 
ATOM     55  F   UNL A   1      48.385  26.691  27.614  1.00  0.00    -0.206 F 
ATOM     56  C   UNL A   1      49.534  26.819  24.188  1.00  0.00     0.022 A 
BRANCH  53  57
ATOM     57  S   UNL A   1      48.438  27.723  21.790  1.00  0.00     0.124 S 
ATOM     58  O   UNL A   1      47.115  28.299  21.580  1.00  0.00    -0.237 OA
ATOM     59  O   UNL A   1      49.569  28.629  21.617  1.00  0.00    -0.237 OA
ATOM     60  O   UNL A   1      48.630  26.382  21.241  1.00  0.00    -0.744 OA
ENDBRANCH  53  57
ENDBRANCH  26  50
BRANCH  38  61
ATOM     61  C   UNL A   1      45.780  33.526  29.112  1.00  0.00     0.023 A 
ATOM     62  C   UNL A   1      45.708  34.633  28.251  1.00  0.00     0.031 A 
ATOM     63  C   UNL A   1      46.606  33.617  30.247  1.00  0.00     0.131 A 
ATOM     64  C   UNL A   1      46.476  35.775  28.521  1.00  0.00     0.055 A 
ATOM     65  C   UNL A   1      47.331  34.773  30.536  1.00  0.00     0.041 A 
ATOM     66  F   UNL A   1      46.712  32.584  31.099  1.00  0.00    -0.206 F 
ATOM     67  C   UNL A   1      47.275  35.858  29.666  1.00  0.00     0.022 A 
BRANCH  64  68
ATOM     68  S   UNL A   1      46.463  37.142  27.328  1.00  0.00     0.124 S 
ATOM     69  O   UNL A   1      47.338  38.115  27.974  1.00  0.00    -0.237 OA
ATOM     70  O   UNL A   1      46.990  36.512  26.121  1.00  0.00    -0.237 OA
ATOM     71  O   UNL A   1      45.054  37.524  27.260  1.00  0.00    -0.744 OA
ENDBRANCH  64  68
ENDBRANCH  38  61
ENDBRANCH  12  13
ENDBRANCH   5   7
ENDBRANCH   2   3
ENDBRANCH   1   2
BRANCH   1  72
ATOM     72  C   UNL A   1      35.341  23.560  23.570  1.00  0.00     0.118 C 
BRANCH  72  73
ATOM     73  N   UNL A   1      34.454  22.665  22.856  1.00  0.00    -0.352 N 
ATOM     74  C   UNL A   1      33.108  22.819  22.626  1.00  0.00     0.253 C 
ATOM     75  H   UNL A   1      34.864  21.848  22.491  1.00  0.00     0.163 HD
ATOM     76  O   UNL A   1      32.536  22.046  21.861  1.00  0.00    -0.269 OA
BRANCH  74  77
ATOM     77  C   UNL A   1      32.318  23.831  23.372  1.00  0.00     0.065 A 
ATOM     78  C   UNL A   1      31.945  24.929  22.575  1.00  0.00     0.042 A 
ATOM     79  C   UNL A   1      31.935  23.751  24.724  1.00  0.00     0.050 A 
ATOM     80  C   UNL A   1      31.079  25.910  23.039  1.00  0.00     0.042 A 
ATOM     81  C   UNL A   1      31.088  24.775  25.187  1.00  0.00     0.029 A 
ATOM     82  C   UNL A   1      30.662  25.830  24.365  1.00  0.00     0.028 A 
BRANCH  79  83
ATOM     83  N   UNL A   1      32.395  22.810  25.641  1.00  0.00    -0.370 N 
ATOM     84  C   UNL A   1      33.265  23.237  26.747  1.00  0.00     0.116 C 
ATOM     85  C   UNL A   1      31.722  21.512  25.732  1.00  0.00     0.126 C 
ATOM     86  C   UNL A   1      34.198  22.115  27.193  1.00  0.00     0.022 C 
ATOM     87  C   UNL A   1      32.735  20.400  26.033  1.00  0.00     0.064 C 
ATOM     88  C   UNL A   1      33.469  20.780  27.325  1.00  0.00     0.013 C 
BRANCH  87  89
ATOM     89  C   UNL A   1      33.623  20.170  24.780  1.00  0.00     0.267 C 
BRANCH  89  90
ATOM     90  N   UNL A   1      33.576  18.887  24.072  1.00  0.00    -0.335 N 
ATOM     91  C   UNL A   1      32.351  18.119  24.272  1.00  0.00     0.262 C 
ATOM     92  C   UNL A   1      34.708  17.992  24.292  1.00  0.00     0.262 C 
ATOM     93  H   UNL A   1      33.617  19.218  23.108  1.00  0.00     0.348 HD
ATOM     94  C   UNL A   1      32.709  17.046  25.279  1.00  0.00     0.067 C 
ATOM     95  C   UNL A   1      34.168  16.749  24.989  1.00  0.00     0.067 C 
ENDBRANCH  89  90
ENDBRANCH  87  89
ENDBRANCH  79  83
BRANCH  80  96
ATOM     96  N   UNL A   1      30.629  27.003  22.274  1.00  0.00    -0.321 N 
ATOM     97  C   UNL A   1      30.745  28.372  22.450  1.00  0.00     0.265 C 
ATOM     98  H   UNL A   1      30.139  26.745  21.460  1.00  0.00     0.170 HD
ATOM     99  O   UNL A   1      30.030  29.091  21.749  1.00  0.00    -0.268 OA
BRANCH  97 100
ATOM    100  C   UNL A   1      31.721  28.899  23.381  1.00  0.00     0.092 A 
ATOM    101  C   UNL A   1      33.102  28.889  23.294  1.00  0.00     0.025 A 
ATOM    102  S   UNL A   1      31.187  29.643  24.828  1.00  0.00    -0.139 S 
ATOM    103  C   UNL A   1      33.718  29.356  24.493  1.00  0.00     0.012 A 
ATOM    104  C   UNL A   1      32.789  29.768  25.421  1.00  0.00     0.065 A 
ENDBRANCH  97 100
ENDBRANCH  80  96
ENDBRANCH  74  77
ENDBRANCH  72  73
ENDBRANCH   1  72
TORSDOF 18
ENDMDL
MODEL 2
REMARK VINA RESULT:     -12.1      2.008      7.340
REMARK SMILES O=C(NCCCNC(=O)c1cc(NC(=O)c2cccs2)ccc1N1CCC[C@H](C[NH+]2CCCC2)C1)c1ccc(-c2c3nc(c(-c4cc(S(=O)(=O)[O-])ccc4F)c4ccc([nH]4)c(-c4cc(S(=O)(=O)[O-])ccc4F)c4nc(c(-c5cc(S(=O)(=O)[O-])ccc5F)c5ccc2[nH]5)C=C4)C=C3)cc1
REMARK SMILES IDX 5 1 4 2 3 3 1 4 2 5 36 7 37 8 98 9 38 10 97 11 39 12 40 13
REMARK SMILES IDX 41 14 91 15 42 16 96 17 90 18 92 19 43 20 95 21 89 22 88 23
REMARK SMILES IDX 44 25 76 26 56 27 75 28 57 29 60 30 74 31 93 32 58 33 59 34
REMARK SMILES IDX 73 36 94 37 61 38 45 39 46 40 54 41 47 42 53 43 55 44 52 45
REMARK SMILES IDX 48 46 49 47 50 48 51 49 77 50 78 51 86 52 79 53 85 54 87 55
REMARK SMILES IDX 84 56 80 57 81 58 82 59 83 60 62 61 63 62 71 63 64 64 70 65
REMARK SMILES IDX 72 66 69 67 65 68 66 69 67 70 68 71 6 72 7 73 8 74 9 76
REMARK SMILES IDX 10 77 11 78 23 79 12 80 22 81 21 82 24 83 25 84 35 85 26 86
REMARK SMILES IDX 28 87 27 88 29 89 30 90 31 91 34 92 32 94 33 95 13 96 14 97
REMARK SMILES IDX 15 99 16 100 17 101 20 102 18 103 19 104
REMARK H PARENT 3 6 92 24 60 35 7 75 30 93 13 98
REMARK Flexibility Score: inf
ROOT
ATOM      1  C   UNL A   1      36.463  23.867  25.511  1.00  0.00     0.042 C 
ENDROOT
BRANCH   1   2
ATOM      2  C   UNL A   1      37.537  23.106  24.745  1.00  0.00     0.118 C 
BRANCH   2   3
ATOM      3  N   UNL A   1      38.356  22.228  25.575  1.00  0.00    -0.352 N 
ATOM      4  O   UNL A   1      39.968  21.589  27.005  1.00  0.00    -0.269 OA
ATOM      5  C   UNL A   1      39.326  22.508  26.513  1.00  0.00     0.251 C 
ATOM      6  H   UNL A   1      38.187  21.268  25.440  1.00  0.00     0.163 HD
BRANCH   5   7
ATOM      7  C   UNL A   1      39.618  23.908  26.899  1.00  0.00     0.039 A 
ATOM      8  C   UNL A   1      40.171  24.806  25.987  1.00  0.00     0.014 A 
ATOM      9  C   UNL A   1      39.333  24.329  28.201  1.00  0.00     0.014 A 
ATOM     10  C   UNL A   1      40.636  26.040  26.424  1.00  0.00     0.010 A 
ATOM     11  C   UNL A   1      39.691  25.618  28.608  1.00  0.00     0.010 A 
ATOM     12  C   UNL A   1      40.392  26.467  27.737  1.00  0.00    -0.014 A 
BRANCH  12  13
ATOM     13  C   UNL A   1      40.850  27.812  28.172  1.00  0.00     0.031 A 
ATOM     14  C   UNL A   1      42.313  28.154  28.202  1.00  0.00     0.074 A 
ATOM     15  C   UNL A   1      39.933  28.730  28.537  1.00  0.00     0.049 A 
ATOM     16  N   UNL A   1      42.902  29.241  28.635  1.00  0.00    -0.248 NA
ATOM     17  C   UNL A   1      43.239  27.134  27.692  1.00  0.00     0.031 C 
ATOM     18  C   UNL A   1      38.483  28.514  28.540  1.00  0.00     0.029 A 
ATOM     19  N   UNL A   1      40.076  30.020  28.978  1.00  0.00    -0.354 N 
ATOM     20  C   UNL A   1      44.268  29.023  28.482  1.00  0.00     0.074 A 
ATOM     21  C   UNL A   1      44.416  27.687  27.944  1.00  0.00     0.031 C 
ATOM     22  C   UNL A   1      37.872  29.636  28.941  1.00  0.00     0.029 A 
ATOM     23  C   UNL A   1      38.885  30.619  29.307  1.00  0.00     0.049 A 
ATOM     24  H   UNL A   1      40.948  30.472  29.052  1.00  0.00     0.167 HD
ATOM     25  C   UNL A   1      45.296  29.865  28.761  1.00  0.00     0.034 A 
ATOM     26  C   UNL A   1      38.627  31.806  29.887  1.00  0.00     0.034 A 
ATOM     27  C   UNL A   1      45.117  31.197  29.291  1.00  0.00     0.049 A 
ATOM     28  C   UNL A   1      39.778  32.704  30.238  1.00  0.00     0.074 A 
ATOM     29  C   UNL A   1      46.078  32.152  29.573  1.00  0.00     0.029 A 
ATOM     30  N   UNL A   1      43.892  31.759  29.633  1.00  0.00    -0.354 N 
ATOM     31  N   UNL A   1      41.064  32.489  30.084  1.00  0.00    -0.248 NA
ATOM     32  C   UNL A   1      39.448  34.002  30.838  1.00  0.00     0.031 C 
ATOM     33  C   UNL A   1      45.445  33.259  30.150  1.00  0.00     0.029 A 
ATOM     34  C   UNL A   1      44.078  33.031  30.156  1.00  0.00     0.049 A 
ATOM     35  H   UNL A   1      43.019  31.320  29.520  1.00  0.00     0.167 HD
ATOM     36  C   UNL A   1      41.698  33.634  30.552  1.00  0.00     0.074 A 
ATOM     37  C   UNL A   1      40.651  34.537  30.990  1.00  0.00     0.031 C 
ATOM     38  C   UNL A   1      43.024  33.914  30.604  1.00  0.00     0.034 A 
BRANCH  25  39
ATOM     39  C   UNL A   1      46.699  29.338  28.555  1.00  0.00     0.023 A 
ATOM     40  C   UNL A   1      47.224  29.101  27.272  1.00  0.00     0.031 A 
ATOM     41  C   UNL A   1      47.506  29.016  29.661  1.00  0.00     0.131 A 
ATOM     42  C   UNL A   1      48.471  28.470  27.129  1.00  0.00     0.055 A 
ATOM     43  C   UNL A   1      48.784  28.473  29.510  1.00  0.00     0.041 A 
ATOM     44  F   UNL A   1      47.056  29.202  30.912  1.00  0.00    -0.206 F 
ATOM     45  C   UNL A   1      49.265  28.177  28.239  1.00  0.00     0.022 A 
BRANCH  42  46
ATOM     46  S   UNL A   1      48.954  27.870  25.485  1.00  0.00     0.124 S 
ATOM     47  O   UNL A   1      47.795  28.251  24.678  1.00  0.00    -0.237 OA
ATOM     48  O   UNL A   1      50.181  28.614  25.228  1.00  0.00    -0.237 OA
ATOM     49  O   UNL A   1      49.120  26.432  25.679  1.00  0.00    -0.744 OA
ENDBRANCH  42  46
ENDBRANCH  25  39
BRANCH  26  50
ATOM     50  C   UNL A   1      37.222  32.162  30.223  1.00  0.00     0.023 A 
ATOM     51  C   UNL A   1      36.336  32.644  29.250  1.00  0.00     0.031 A 
ATOM     52  C   UNL A   1      36.735  31.971  31.531  1.00  0.00     0.131 A 
ATOM     53  C   UNL A   1      35.008  32.930  29.602  1.00  0.00     0.055 A 
ATOM     54  C   UNL A   1      35.403  32.216  31.864  1.00  0.00     0.041 A 
ATOM     55  F   UNL A   1      37.543  31.497  32.492  1.00  0.00    -0.206 F 
ATOM     56  C   UNL A   1      34.531  32.704  30.898  1.00  0.00     0.022 A 
BRANCH  53  57
ATOM     57  S   UNL A   1      33.906  33.630  28.344  1.00  0.00     0.124 S 
ATOM     58  O   UNL A   1      34.828  34.444  27.561  1.00  0.00    -0.237 OA
ATOM     59  O   UNL A   1      33.392  32.431  27.690  1.00  0.00    -0.237 OA
ATOM     60  O   UNL A   1      32.924  34.376  29.128  1.00  0.00    -0.744 OA
ENDBRANCH  53  57
ENDBRANCH  26  50
BRANCH  38  61
ATOM     61  C   UNL A   1      43.415  35.278  31.112  1.00  0.00     0.023 A 
ATOM     62  C   UNL A   1      43.534  36.383  30.253  1.00  0.00     0.031 A 
ATOM     63  C   UNL A   1      43.656  35.470  32.484  1.00  0.00     0.131 A 
ATOM     64  C   UNL A   1      43.919  37.628  30.773  1.00  0.00     0.055 A 
ATOM     65  C   UNL A   1      43.991  36.721  33.002  1.00  0.00     0.041 A 
ATOM     66  F   UNL A   1      43.558  34.444  33.345  1.00  0.00    -0.206 F 
ATOM     67  C   UNL A   1      44.132  37.807  32.143  1.00  0.00     0.022 A 
BRANCH  64  68
ATOM     68  S   UNL A   1      44.189  39.008  29.627  1.00  0.00     0.124 S 
ATOM     69  O   UNL A   1      45.340  38.542  28.859  1.00  0.00    -0.237 OA
ATOM     70  O   UNL A   1      42.922  39.071  28.905  1.00  0.00    -0.237 OA
ATOM     71  O   UNL A   1      44.452  40.141  30.512  1.00  0.00    -0.744 OA
ENDBRANCH  64  68
ENDBRANCH  38  61
ENDBRANCH  12  13
ENDBRANCH   5   7
ENDBRANCH   2   3
ENDBRANCH   1   2
BRANCH   1  72
ATOM     72  C   UNL A   1      35.347  24.418  24.645  1.00  0.00     0.118 C 
BRANCH  72  73
ATOM     73  N   UNL A   1      35.003  23.602  23.499  1.00  0.00    -0.352 N 
ATOM     74  C   UNL A   1      33.810  23.565  22.818  1.00  0.00     0.253 C 
ATOM     75  H   UNL A   1      35.708  23.001  23.168  1.00  0.00     0.163 HD
ATOM     76  O   UNL A   1      33.737  22.934  21.766  1.00  0.00    -0.269 OA
BRANCH  74  77
ATOM     77  C   UNL A   1      32.586  24.180  23.392  1.00  0.00     0.065 A 
ATOM     78  C   UNL A   1      32.185  25.341  22.706  1.00  0.00     0.042 A 
ATOM     79  C   UNL A   1      31.850  23.692  24.489  1.00  0.00     0.050 A 
ATOM     80  C   UNL A   1      30.985  25.980  22.989  1.00  0.00     0.042 A 
ATOM     81  C   UNL A   1      30.656  24.376  24.783  1.00  0.00     0.029 A 
ATOM     82  C   UNL A   1      30.226  25.493  24.049  1.00  0.00     0.028 A 
BRANCH  79  83
ATOM     83  N   UNL A   1      32.252  22.668  25.341  1.00  0.00    -0.370 N 
ATOM     84  C   UNL A   1      33.052  22.985  26.533  1.00  0.00     0.116 C 
ATOM     85  C   UNL A   1      31.571  21.372  25.272  1.00  0.00     0.126 C 
ATOM     86  C   UNL A   1      33.954  21.820  26.930  1.00  0.00     0.022 C 
ATOM     87  C   UNL A   1      32.562  20.230  25.530  1.00  0.00     0.064 C 
ATOM     88  C   UNL A   1      33.217  20.484  26.895  1.00  0.00     0.013 C 
BRANCH  87  89
ATOM     89  C   UNL A   1      33.525  20.109  24.319  1.00  0.00     0.267 C 
BRANCH  89  90
ATOM     90  N   UNL A   1      33.835  18.791  23.755  1.00  0.00    -0.335 N 
ATOM     91  C   UNL A   1      32.675  17.937  23.516  1.00  0.00     0.262 C 
ATOM     92  C   UNL A   1      34.831  18.004  24.474  1.00  0.00     0.262 C 
ATOM     93  H   UNL A   1      34.239  19.074  22.862  1.00  0.00     0.348 HD
ATOM     94  C   UNL A   1      32.658  16.951  24.665  1.00  0.00     0.067 C 
ATOM     95  C   UNL A   1      34.126  16.759  24.999  1.00  0.00     0.067 C 
ENDBRANCH  89  90
ENDBRANCH  87  89
ENDBRANCH  79  83
BRANCH  80  96
ATOM     96  N   UNL A   1      30.505  27.113  22.304  1.00  0.00    -0.321 N 
ATOM     97  C   UNL A   1      30.667  28.471  22.525  1.00  0.00     0.265 C 
ATOM     98  H   UNL A   1      29.950  26.900  21.520  1.00  0.00     0.170 HD
ATOM     99  O   UNL A   1      29.919  29.234  21.909  1.00  0.00    -0.268 OA
BRANCH  97 100
ATOM    100  C   UNL A   1      31.723  28.939  23.399  1.00  0.00     0.092 A 
ATOM    101  C   UNL A   1      33.092  28.932  23.194  1.00  0.00     0.025 A 
ATOM    102  S   UNL A   1      31.319  29.591  24.930  1.00  0.00    -0.139 S 
ATOM    103  C   UNL A   1      33.811  29.323  24.361  1.00  0.00     0.012 A 
ATOM    104  C   UNL A   1      32.967  29.678  25.390  1.00  0.00     0.065 A 
ENDBRANCH  97 100
ENDBRANCH  80  96
ENDBRANCH  74  77
ENDBRANCH  72  73
ENDBRANCH   1  72
TORSDOF 18
ENDMDL
MODEL 3
REMARK VINA RESULT:     -12.0      1.589      2.261
REMARK SMILES O=C(NCCCNC(=O)c1cc(NC(=O)c2cccs2)ccc1N1CCC[C@H](C[NH+]2CCCC2)C1)c1ccc(-c2c3nc(c(-c4cc(S(=O)(=O)[O-])ccc4F)c4ccc([nH]4)c(-c4cc(S(=O)(=O)[O-])ccc4F)c4nc(c(-c5cc(S(=O)(=O)[O-])ccc5F)c5ccc2[nH]5)C=C4)C=C3)cc1
REMARK SMILES IDX 5 1 4 2 3 3 1 4 2 5 36 7 37 8 98 9 38 10 97 11 39 12 40 13
REMARK SMILES IDX 41 14 91 15 42 16 96 17 90 18 92 19 43 20 95 21 89 22 88 23
REMARK SMILES IDX 44 25 76 26 56 27 75 28 57 29 60 30 74 31 93 32 58 33 59 34
REMARK SMILES IDX 73 36 94 37 61 38 45 39 46 40 54 41 47 42 53 43 55 44 52 45
REMARK SMILES IDX 48 46 49 47 50 48 51 49 77 50 78 51 86 52 79 53 85 54 87 55
REMARK SMILES IDX 84 56 80 57 81 58 82 59 83 60 62 61 63 62 71 63 64 64 70 65
REMARK SMILES IDX 72 66 69 67 65 68 66 69 67 70 68 71 6 72 7 73 8 74 9 76
REMARK SMILES IDX 10 77 11 78 23 79 12 80 22 81 21 82 24 83 25 84 35 85 26 86
REMARK SMILES IDX 28 87 27 88 29 89 30 90 31 91 34 92 32 94 33 95 13 96 14 97
REMARK SMILES IDX 15 99 16 100 17 101 20 102 18 103 19 104
REMARK H PARENT 3 6 92 24 60 35 7 75 30 93 13 98
REMARK Flexibility Score: inf
ROOT
ATOM      1  C   UNL A   1      36.917  21.956  26.014  1.00  0.00     0.042 C 
ENDROOT
BRANCH   1   2
ATOM      2  C   UNL A   1      38.090  21.554  25.129  1.00  0.00     0.118 C 
BRANCH   2   3
ATOM      3  N   UNL A   1      38.884  20.447  25.654  1.00  0.00    -0.352 N 
ATOM      4  O   UNL A   1      40.631  19.350  26.545  1.00  0.00    -0.269 OA
ATOM      5  C   UNL A   1      40.102  20.426  26.297  1.00  0.00     0.251 C 
ATOM      6  H   UNL A   1      38.477  19.560  25.527  1.00  0.00     0.163 HD
BRANCH   5   7
ATOM      7  C   UNL A   1      40.787  21.690  26.652  1.00  0.00     0.039 A 
ATOM      8  C   UNL A   1      41.000  22.045  27.983  1.00  0.00     0.014 A 
ATOM      9  C   UNL A   1      41.224  22.538  25.631  1.00  0.00     0.014 A 
ATOM     10  C   UNL A   1      41.443  23.324  28.298  1.00  0.00     0.010 A 
ATOM     11  C   UNL A   1      41.785  23.779  25.950  1.00  0.00     0.010 A 
ATOM     12  C   UNL A   1      41.852  24.203  27.286  1.00  0.00    -0.014 A 
BRANCH  12  13
ATOM     13  C   UNL A   1      42.375  25.547  27.644  1.00  0.00     0.031 A 
ATOM     14  C   UNL A   1      41.492  26.562  28.316  1.00  0.00     0.074 A 
ATOM     15  C   UNL A   1      43.658  25.848  27.362  1.00  0.00     0.049 A 
ATOM     16  N   UNL A   1      41.746  27.810  28.620  1.00  0.00    -0.248 NA
ATOM     17  C   UNL A   1      40.139  26.120  28.679  1.00  0.00     0.031 C 
ATOM     18  C   UNL A   1      44.612  24.940  26.720  1.00  0.00     0.029 A 
ATOM     19  N   UNL A   1      44.381  26.993  27.574  1.00  0.00    -0.354 N 
ATOM     20  C   UNL A   1      40.576  28.313  29.180  1.00  0.00     0.074 A 
ATOM     21  C   UNL A   1      39.604  27.240  29.142  1.00  0.00     0.031 C 
ATOM     22  C   UNL A   1      45.797  25.554  26.608  1.00  0.00     0.029 A 
ATOM     23  C   UNL A   1      45.665  26.924  27.089  1.00  0.00     0.049 A 
ATOM     24  H   UNL A   1      44.017  27.787  28.028  1.00  0.00     0.167 HD
ATOM     25  C   UNL A   1      40.341  29.553  29.682  1.00  0.00     0.034 A 
ATOM     26  C   UNL A   1      46.620  27.867  26.989  1.00  0.00     0.034 A 
ATOM     27  C   UNL A   1      41.334  30.603  29.712  1.00  0.00     0.049 A 
ATOM     28  C   UNL A   1      46.328  29.249  27.500  1.00  0.00     0.074 A 
ATOM     29  C   UNL A   1      41.224  31.881  30.231  1.00  0.00     0.029 A 
ATOM     30  N   UNL A   1      42.618  30.499  29.188  1.00  0.00    -0.354 N 
ATOM     31  N   UNL A   1      45.220  29.710  28.031  1.00  0.00    -0.248 NA
ATOM     32  C   UNL A   1      47.410  30.235  27.401  1.00  0.00     0.031 C 
ATOM     33  C   UNL A   1      42.411  32.571  29.958  1.00  0.00     0.029 A 
ATOM     34  C   UNL A   1      43.295  31.701  29.340  1.00  0.00     0.049 A 
ATOM     35  H   UNL A   1      42.993  29.691  28.771  1.00  0.00     0.167 HD
ATOM     36  C   UNL A   1      45.477  31.039  28.348  1.00  0.00     0.074 A 
ATOM     37  C   UNL A   1      46.847  31.302  27.951  1.00  0.00     0.031 C 
ATOM     38  C   UNL A   1      44.656  31.953  28.923  1.00  0.00     0.034 A 
BRANCH  25  39
ATOM     39  C   UNL A   1      38.942  29.849  30.174  1.00  0.00     0.023 A 
ATOM     40  C   UNL A   1      37.975  30.452  29.350  1.00  0.00     0.031 A 
ATOM     41  C   UNL A   1      38.587  29.575  31.507  1.00  0.00     0.131 A 
ATOM     42  C   UNL A   1      36.740  30.847  29.890  1.00  0.00     0.055 A 
ATOM     43  C   UNL A   1      37.323  29.889  32.014  1.00  0.00     0.041 A 
ATOM     44  F   UNL A   1      39.470  29.018  32.350  1.00  0.00    -0.206 F 
ATOM     45  C   UNL A   1      36.399  30.548  31.211  1.00  0.00     0.022 A 
BRANCH  42  46
ATOM     46  S   UNL A   1      35.666  31.922  28.897  1.00  0.00     0.124 S 
ATOM     47  O   UNL A   1      35.284  31.030  27.803  1.00  0.00    -0.237 OA
ATOM     48  O   UNL A   1      34.607  32.264  29.839  1.00  0.00    -0.237 OA
ATOM     49  O   UNL A   1      36.544  33.024  28.512  1.00  0.00    -0.744 OA
ENDBRANCH  42  46
ENDBRANCH  25  39
BRANCH  26  50
ATOM     50  C   UNL A   1      47.905  27.533  26.318  1.00  0.00     0.023 A 
ATOM     51  C   UNL A   1      48.027  27.546  24.922  1.00  0.00     0.031 A 
ATOM     52  C   UNL A   1      49.052  27.243  27.084  1.00  0.00     0.131 A 
ATOM     53  C   UNL A   1      49.269  27.263  24.332  1.00  0.00     0.055 A 
ATOM     54  C   UNL A   1      50.292  27.005  26.493  1.00  0.00     0.041 A 
ATOM     55  F   UNL A   1      48.987  27.233  28.424  1.00  0.00    -0.206 F 
ATOM     56  C   UNL A   1      50.405  27.009  25.107  1.00  0.00     0.022 A 
BRANCH  53  57
ATOM     57  S   UNL A   1      49.378  27.207  22.523  1.00  0.00     0.124 S 
ATOM     58  O   UNL A   1      48.613  26.004  22.216  1.00  0.00    -0.237 OA
ATOM     59  O   UNL A   1      48.764  28.475  22.142  1.00  0.00    -0.237 OA
ATOM     60  O   UNL A   1      50.815  27.114  22.271  1.00  0.00    -0.744 OA
ENDBRANCH  53  57
ENDBRANCH  26  50
BRANCH  38  61
ATOM     61  C   UNL A   1      45.239  33.314  29.202  1.00  0.00     0.023 A 
ATOM     62  C   UNL A   1      45.233  34.336  28.238  1.00  0.00     0.031 A 
ATOM     63  C   UNL A   1      45.795  33.591  30.464  1.00  0.00     0.131 A 
ATOM     64  C   UNL A   1      45.805  35.580  28.541  1.00  0.00     0.055 A 
ATOM     65  C   UNL A   1      46.319  34.846  30.776  1.00  0.00     0.041 A 
ATOM     66  F   UNL A   1      45.827  32.646  31.418  1.00  0.00    -0.206 F 
ATOM     67  C   UNL A   1      46.333  35.847  29.809  1.00  0.00     0.022 A 
BRANCH  64  68
ATOM     68  S   UNL A   1      45.899  36.841  27.240  1.00  0.00     0.124 S 
ATOM     69  O   UNL A   1      44.566  37.433  27.298  1.00  0.00    -0.237 OA
ATOM     70  O   UNL A   1      46.995  37.688  27.700  1.00  0.00    -0.237 OA
ATOM     71  O   UNL A   1      46.181  36.067  26.033  1.00  0.00    -0.744 OA
ENDBRANCH  64  68
ENDBRANCH  38  61
ENDBRANCH  12  13
ENDBRANCH   5   7
ENDBRANCH   2   3
ENDBRANCH   1   2
BRANCH   1  72
ATOM     72  C   UNL A   1      36.230  23.242  25.596  1.00  0.00     0.118 C 
BRANCH  72  73
ATOM     73  N   UNL A   1      35.839  23.302  24.203  1.00  0.00    -0.352 N 
ATOM     74  C   UNL A   1      34.572  23.433  23.687  1.00  0.00     0.253 C 
ATOM     75  H   UNL A   1      36.569  23.241  23.545  1.00  0.00     0.163 HD
ATOM     76  O   UNL A   1      34.430  23.632  22.483  1.00  0.00    -0.269 OA
BRANCH  74  77
ATOM     77  C   UNL A   1      33.377  23.227  24.543  1.00  0.00     0.065 A 
ATOM     78  C   UNL A   1      33.079  24.345  25.344  1.00  0.00     0.042 A 
ATOM     79  C   UNL A   1      32.575  22.070  24.582  1.00  0.00     0.050 A 
ATOM     80  C   UNL A   1      31.918  24.413  26.103  1.00  0.00     0.042 A 
ATOM     81  C   UNL A   1      31.422  22.146  25.386  1.00  0.00     0.029 A 
ATOM     82  C   UNL A   1      31.094  23.292  26.127  1.00  0.00     0.028 A 
BRANCH  79  83
ATOM     83  N   UNL A   1      32.878  20.856  23.974  1.00  0.00    -0.370 N 
ATOM     84  C   UNL A   1      32.236  20.500  22.699  1.00  0.00     0.116 C 
ATOM     85  C   UNL A   1      34.085  20.133  24.383  1.00  0.00     0.126 C 
ATOM     86  C   UNL A   1      32.105  18.988  22.540  1.00  0.00     0.022 C 
ATOM     87  C   UNL A   1      33.843  18.618  24.348  1.00  0.00     0.064 C 
ATOM     88  C   UNL A   1      33.387  18.256  22.928  1.00  0.00     0.013 C 
BRANCH  87  89
ATOM     89  C   UNL A   1      32.878  18.231  25.500  1.00  0.00     0.267 C 
BRANCH  89  90
ATOM     90  N   UNL A   1      33.064  16.968  26.221  1.00  0.00    -0.335 N 
ATOM     91  C   UNL A   1      34.325  16.285  25.948  1.00  0.00     0.262 C 
ATOM     92  C   UNL A   1      31.987  15.991  26.091  1.00  0.00     0.262 C 
ATOM     93  H   UNL A   1      33.064  17.313  27.181  1.00  0.00     0.348 HD
ATOM     94  C   UNL A   1      33.979  15.171  24.983  1.00  0.00     0.067 C 
ATOM     95  C   UNL A   1      32.567  14.776  25.376  1.00  0.00     0.067 C 
ENDBRANCH  89  90
ENDBRANCH  87  89
ENDBRANCH  79  83
BRANCH  80  96
ATOM     96  N   UNL A   1      31.539  25.524  26.882  1.00  0.00    -0.321 N 
ATOM     97  C   UNL A   1      31.279  26.844  26.554  1.00  0.00     0.265 C 
ATOM     98  H   UNL A   1      31.440  25.324  27.840  1.00  0.00     0.170 HD
ATOM     99  O   UNL A   1      31.215  27.652  27.483  1.00  0.00    -0.268 OA
BRANCH  97 100
ATOM    100  C   UNL A   1      31.034  27.210  25.174  1.00  0.00     0.092 A 
ATOM    101  C   UNL A   1      29.993  26.832  24.344  1.00  0.00     0.025 A 
ATOM    102  S   UNL A   1      32.143  28.235  24.367  1.00  0.00    -0.139 S 
ATOM    103  C   UNL A   1      30.194  27.266  23.000  1.00  0.00     0.012 A 
ATOM    104  C   UNL A   1      31.343  28.014  22.868  1.00  0.00     0.065 A 
ENDBRANCH  97 100
ENDBRANCH  80  96
ENDBRANCH  74  77
ENDBRANCH  72  73
ENDBRANCH   1  72
TORSDOF 18
ENDMDL
