MODEL 1
REMARK VINA RESULT:     -11.0      0.000      0.000
REMARK SMILES C#CC[N@H+](CC(=O)NCCCNC(=O)c1ccc(-c2c3nc(c(-c4cc(S(=O)(=O)[O-])ccc4F)c4ccc([nH]4)c(-c4cc(S(=O)(=O)[O-])ccc4F)c4nc(c(-c5cc(S(=O)(=O)[O-])ccc5F)c5ccc2[nH]5)C=C4)C=C3)cc1)[C@H](C)c1ccccc1[N+](=O)[O-]
REMARK SMILES IDX 9 1 8 2 6 3 7 4 5 6 4 7 3 9 2 10 1 11 78 12 79 13 80 14
REMARK SMILES IDX 81 15 85 16 82 17 84 18 83 19 86 20 87 21 88 22 10 23 11 24
REMARK SMILES IDX 12 25 13 26 14 28 15 29 16 30 77 31 17 32 76 33 18 34 19 35
REMARK SMILES IDX 20 36 70 37 21 38 75 39 69 40 71 41 22 42 74 43 68 44 67 45
REMARK SMILES IDX 23 47 55 48 35 49 54 50 36 51 39 52 53 53 72 54 37 55 38 56
REMARK SMILES IDX 52 58 73 59 40 60 24 61 25 62 33 63 26 64 32 65 34 66 31 67
REMARK SMILES IDX 27 68 28 69 29 70 30 71 56 72 57 73 65 74 58 75 64 76 66 77
REMARK SMILES IDX 63 78 59 79 60 80 61 81 62 82 41 83 42 84 50 85 43 86 49 87
REMARK SMILES IDX 51 88 48 89 44 90 45 91 46 92 47 93
REMARK H PARENT 8 5 4 8 12 27 71 46 39 57
REMARK Flexibility Score: inf
ROOT
ATOM      1  C   UNL A   1      31.345  30.862  25.806  1.00  0.00     0.118 C 
ENDROOT
BRANCH   1   2
ATOM      2  N   UNL A   1      32.087  29.841  26.546  1.00  0.00    -0.351 N 
ATOM      3  C   UNL A   1      32.054  28.466  26.500  1.00  0.00     0.275 C 
ATOM      4  O   UNL A   1      32.795  27.851  27.270  1.00  0.00    -0.269 OA
ATOM      5  H   UNL A   1      32.729  30.206  27.199  1.00  0.00     0.163 HD
BRANCH   3   6
ATOM      6  C   UNL A   1      31.149  27.728  25.489  1.00  0.00     0.364 C 
BRANCH   6   7
ATOM      7  N   UNL A   1      31.698  27.573  24.086  1.00  0.00    -0.311 N 
ATOM      8  H   UNL A   1      31.385  26.721  23.621  1.00  0.00     0.349 HD
BRANCH   7   9
ATOM      9  C   UNL A   1      31.178  28.667  23.270  1.00  0.00     0.354 C 
BRANCH   9  10
ATOM     10  C   UNL A   1      29.758  28.813  22.949  1.00  0.00    -0.047 C 
ATOM     11  C   UNL A   1      28.686  29.158  22.518  1.00  0.00     0.010 C 
ENDBRANCH   9  10
ENDBRANCH   7   9
BRANCH   7  12
ATOM     12  C   UNL A   1      33.194  27.423  24.152  1.00  0.00     0.220 C 
ATOM     13  C   UNL A   1      34.019  28.210  23.109  1.00  0.00     0.081 C 
BRANCH  12  14
ATOM     14  C   UNL A   1      33.702  25.976  24.210  1.00  0.00     0.087 A 
ATOM     15  C   UNL A   1      34.301  25.502  25.398  1.00  0.00     0.017 A 
ATOM     16  C   UNL A   1      33.676  25.078  23.122  1.00  0.00     0.278 A 
ATOM     17  C   UNL A   1      35.029  24.309  25.430  1.00  0.00     0.001 A 
ATOM     18  C   UNL A   1      34.415  23.879  23.149  1.00  0.00     0.086 A 
ATOM     19  C   UNL A   1      35.130  23.524  24.290  1.00  0.00     0.007 A 
BRANCH  16  20
ATOM     20  N   UNL A   1      32.764  25.258  21.987  1.00  0.00     0.063 N 
ATOM     21  O   UNL A   1      31.548  25.294  22.224  1.00  0.00    -0.258 OA
ATOM     22  O   UNL A   1      33.266  25.470  20.872  1.00  0.00    -0.258 OA
ENDBRANCH  16  20
ENDBRANCH  12  14
ENDBRANCH   7  12
ENDBRANCH   6   7
ENDBRANCH   3   6
ENDBRANCH   1   2
BRANCH   1  23
ATOM     23  C   UNL A   1      31.309  32.229  26.503  1.00  0.00     0.042 C 
BRANCH  23  24
ATOM     24  C   UNL A   1      32.536  32.555  27.333  1.00  0.00     0.118 C 
BRANCH  24  25
ATOM     25  N   UNL A   1      32.581  33.966  27.653  1.00  0.00    -0.352 N 
ATOM     26  C   UNL A   1      33.240  34.603  28.677  1.00  0.00     0.251 C 
ATOM     27  H   UNL A   1      32.068  34.553  27.050  1.00  0.00     0.163 HD
ATOM     28  O   UNL A   1      32.873  35.731  28.997  1.00  0.00    -0.269 OA
BRANCH  26  29
ATOM     29  C   UNL A   1      34.357  33.946  29.404  1.00  0.00     0.039 A 
ATOM     30  C   UNL A   1      35.668  34.325  29.099  1.00  0.00     0.014 A 
ATOM     31  C   UNL A   1      34.138  32.923  30.332  1.00  0.00     0.014 A 
ATOM     32  C   UNL A   1      36.743  33.706  29.744  1.00  0.00     0.010 A 
ATOM     33  C   UNL A   1      35.204  32.383  31.052  1.00  0.00     0.010 A 
ATOM     34  C   UNL A   1      36.523  32.749  30.747  1.00  0.00    -0.014 A 
BRANCH  34  35
ATOM     35  C   UNL A   1      37.664  32.108  31.458  1.00  0.00     0.031 A 
ATOM     36  C   UNL A   1      38.457  31.012  30.795  1.00  0.00     0.074 A 
ATOM     37  C   UNL A   1      37.971  32.496  32.711  1.00  0.00     0.049 A 
ATOM     38  N   UNL A   1      39.473  30.327  31.259  1.00  0.00    -0.248 NA
ATOM     39  C   UNL A   1      38.035  30.613  29.446  1.00  0.00     0.031 C 
ATOM     40  C   UNL A   1      37.253  33.519  33.474  1.00  0.00     0.029 A 
ATOM     41  N   UNL A   1      38.963  32.084  33.565  1.00  0.00    -0.354 N 
ATOM     42  C   UNL A   1      39.800  29.411  30.265  1.00  0.00     0.074 A 
ATOM     43  C   UNL A   1      38.830  29.581  29.207  1.00  0.00     0.031 C 
ATOM     44  C   UNL A   1      37.850  33.682  34.663  1.00  0.00     0.029 A 
ATOM     45  C   UNL A   1      38.955  32.733  34.777  1.00  0.00     0.049 A 
ATOM     46  H   UNL A   1      39.619  31.388  33.332  1.00  0.00     0.167 HD
ATOM     47  C   UNL A   1      40.827  28.524  30.230  1.00  0.00     0.034 A 
ATOM     48  C   UNL A   1      39.731  32.575  35.868  1.00  0.00     0.034 A 
ATOM     49  C   UNL A   1      41.782  28.367  31.302  1.00  0.00     0.049 A 
ATOM     50  C   UNL A   1      40.840  31.556  35.827  1.00  0.00     0.074 A 
ATOM     51  C   UNL A   1      42.895  27.547  31.349  1.00  0.00     0.029 A 
ATOM     52  N   UNL A   1      41.724  29.025  32.526  1.00  0.00    -0.354 N 
ATOM     53  N   UNL A   1      41.178  30.742  34.854  1.00  0.00    -0.248 NA
ATOM     54  C   UNL A   1      41.678  31.444  37.026  1.00  0.00     0.031 C 
ATOM     55  C   UNL A   1      43.446  27.628  32.632  1.00  0.00     0.029 A 
ATOM     56  C   UNL A   1      42.749  28.585  33.352  1.00  0.00     0.049 A 
ATOM     57  H   UNL A   1      41.054  29.702  32.770  1.00  0.00     0.167 HD
ATOM     58  C   UNL A   1      42.286  30.037  35.315  1.00  0.00     0.074 A 
ATOM     59  C   UNL A   1      42.567  30.536  36.646  1.00  0.00     0.031 C 
ATOM     60  C   UNL A   1      43.009  29.070  34.691  1.00  0.00     0.034 A 
BRANCH  47  61
ATOM     61  C   UNL A   1      40.932  27.626  29.016  1.00  0.00     0.023 A 
ATOM     62  C   UNL A   1      41.889  27.845  28.008  1.00  0.00     0.031 A 
ATOM     63  C   UNL A   1      40.028  26.562  28.837  1.00  0.00     0.131 A 
ATOM     64  C   UNL A   1      41.853  27.085  26.829  1.00  0.00     0.055 A 
ATOM     65  C   UNL A   1      40.066  25.743  27.707  1.00  0.00     0.041 A 
ATOM     66  F   UNL A   1      39.076  26.313  29.749  1.00  0.00    -0.206 F 
ATOM     67  C   UNL A   1      40.967  26.015  26.683  1.00  0.00     0.022 A 
BRANCH  64  68
ATOM     68  S   UNL A   1      42.840  27.644  25.412  1.00  0.00     0.124 S 
ATOM     69  O   UNL A   1      43.041  26.394  24.682  1.00  0.00    -0.237 OA
ATOM     70  O   UNL A   1      41.962  28.620  24.780  1.00  0.00    -0.237 OA
ATOM     71  O   UNL A   1      44.046  28.193  26.031  1.00  0.00    -0.744 OA
ENDBRANCH  64  68
ENDBRANCH  47  61
BRANCH  48  72
ATOM     72  C   UNL A   1      39.464  33.382  37.093  1.00  0.00     0.023 A 
ATOM     73  C   UNL A   1      40.118  34.601  37.328  1.00  0.00     0.031 A 
ATOM     74  C   UNL A   1      38.542  32.932  38.058  1.00  0.00     0.131 A 
ATOM     75  C   UNL A   1      39.862  35.314  38.511  1.00  0.00     0.055 A 
ATOM     76  C   UNL A   1      38.248  33.673  39.203  1.00  0.00     0.041 A 
ATOM     77  F   UNL A   1      37.890  31.771  37.884  1.00  0.00    -0.206 F 
ATOM     78  C   UNL A   1      38.917  34.869  39.438  1.00  0.00     0.022 A 
BRANCH  75  79
ATOM     79  S   UNL A   1      40.835  36.806  38.860  1.00  0.00     0.124 S 
ATOM     80  O   UNL A   1      41.556  36.413  40.065  1.00  0.00    -0.237 OA
ATOM     81  O   UNL A   1      41.635  36.937  37.646  1.00  0.00    -0.237 OA
ATOM     82  O   UNL A   1      39.818  37.838  39.047  1.00  0.00    -0.744 OA
ENDBRANCH  75  79
ENDBRANCH  48  72
BRANCH  60  83
ATOM     83  C   UNL A   1      44.204  28.515  35.432  1.00  0.00     0.023 A 
ATOM     84  C   UNL A   1      44.085  27.460  36.353  1.00  0.00     0.031 A 
ATOM     85  C   UNL A   1      45.484  29.060  35.217  1.00  0.00     0.131 A 
ATOM     86  C   UNL A   1      45.210  27.032  37.074  1.00  0.00     0.055 A 
ATOM     87  C   UNL A   1      46.613  28.574  35.878  1.00  0.00     0.041 A 
ATOM     88  F   UNL A   1      45.660  30.075  34.356  1.00  0.00    -0.206 F 
ATOM     89  C   UNL A   1      46.478  27.564  36.825  1.00  0.00     0.022 A 
BRANCH  86  90
ATOM     90  S   UNL A   1      44.973  25.858  38.437  1.00  0.00     0.124 S 
ATOM     91  O   UNL A   1      44.298  24.751  37.766  1.00  0.00    -0.237 OA
ATOM     92  O   UNL A   1      46.342  25.602  38.871  1.00  0.00    -0.237 OA
ATOM     93  O   UNL A   1      44.149  26.600  39.389  1.00  0.00    -0.744 OA
ENDBRANCH  86  90
ENDBRANCH  60  83
ENDBRANCH  34  35
ENDBRANCH  26  29
ENDBRANCH  24  25
ENDBRANCH  23  24
ENDBRANCH   1  23
TORSDOF 19
ENDMDL
MODEL 2
REMARK VINA RESULT:     -10.9      3.433      8.742
REMARK SMILES C#CC[N@H+](CC(=O)NCCCNC(=O)c1ccc(-c2c3nc(c(-c4cc(S(=O)(=O)[O-])ccc4F)c4ccc([nH]4)c(-c4cc(S(=O)(=O)[O-])ccc4F)c4nc(c(-c5cc(S(=O)(=O)[O-])ccc5F)c5ccc2[nH]5)C=C4)C=C3)cc1)[C@H](C)c1ccccc1[N+](=O)[O-]
REMARK SMILES IDX 9 1 8 2 6 3 7 4 5 6 4 7 3 9 2 10 1 11 78 12 79 13 80 14
REMARK SMILES IDX 81 15 85 16 82 17 84 18 83 19 86 20 87 21 88 22 10 23 11 24
REMARK SMILES IDX 12 25 13 26 14 28 15 29 16 30 77 31 17 32 76 33 18 34 19 35
REMARK SMILES IDX 20 36 70 37 21 38 75 39 69 40 71 41 22 42 74 43 68 44 67 45
REMARK SMILES IDX 23 47 55 48 35 49 54 50 36 51 39 52 53 53 72 54 37 55 38 56
REMARK SMILES IDX 52 58 73 59 40 60 24 61 25 62 33 63 26 64 32 65 34 66 31 67
REMARK SMILES IDX 27 68 28 69 29 70 30 71 56 72 57 73 65 74 58 75 64 76 66 77
REMARK SMILES IDX 63 78 59 79 60 80 61 81 62 82 41 83 42 84 50 85 43 86 49 87
REMARK SMILES IDX 51 88 48 89 44 90 45 91 46 92 47 93
REMARK H PARENT 8 5 4 8 12 27 71 46 39 57
REMARK Flexibility Score: inf
ROOT
ATOM      1  C   UNL A   1      31.719  29.691  25.057  1.00  0.00     0.118 C 
ENDROOT
BRANCH   1   2
ATOM      2  N   UNL A   1      32.754  29.359  24.076  1.00  0.00    -0.351 N 
ATOM      3  C   UNL A   1      32.800  28.419  23.072  1.00  0.00     0.275 C 
ATOM      4  O   UNL A   1      33.831  28.353  22.400  1.00  0.00    -0.269 OA
ATOM      5  H   UNL A   1      33.567  29.911  24.148  1.00  0.00     0.163 HD
BRANCH   3   6
ATOM      6  C   UNL A   1      31.585  27.511  22.780  1.00  0.00     0.364 C 
BRANCH   6   7
ATOM      7  N   UNL A   1      31.164  26.576  23.894  1.00  0.00    -0.311 N 
ATOM      8  H   UNL A   1      31.542  26.835  24.805  1.00  0.00     0.349 HD
BRANCH   7   9
ATOM      9  C   UNL A   1      29.714  26.668  24.042  1.00  0.00     0.354 C 
BRANCH   9  10
ATOM     10  C   UNL A   1      28.905  27.658  23.331  1.00  0.00    -0.047 C 
ATOM     11  C   UNL A   1      28.311  28.645  22.977  1.00  0.00     0.010 C 
ENDBRANCH   9  10
ENDBRANCH   7   9
BRANCH   7  12
ATOM     12  C   UNL A   1      31.738  25.208  23.639  1.00  0.00     0.220 C 
ATOM     13  C   UNL A   1      30.735  24.036  23.561  1.00  0.00     0.081 C 
BRANCH  12  14
ATOM     14  C   UNL A   1      32.908  24.812  24.550  1.00  0.00     0.087 A 
ATOM     15  C   UNL A   1      34.218  24.796  24.022  1.00  0.00     0.017 A 
ATOM     16  C   UNL A   1      32.768  24.389  25.888  1.00  0.00     0.278 A 
ATOM     17  C   UNL A   1      35.277  24.183  24.699  1.00  0.00     0.001 A 
ATOM     18  C   UNL A   1      33.831  23.766  26.570  1.00  0.00     0.086 A 
ATOM     19  C   UNL A   1      35.070  23.621  25.951  1.00  0.00     0.007 A 
BRANCH  16  20
ATOM     20  N   UNL A   1      31.583  24.718  26.687  1.00  0.00     0.063 N 
ATOM     21  O   UNL A   1      31.301  25.916  26.836  1.00  0.00    -0.258 OA
ATOM     22  O   UNL A   1      30.872  23.779  27.078  1.00  0.00    -0.258 OA
ENDBRANCH  16  20
ENDBRANCH  12  14
ENDBRANCH   7  12
ENDBRANCH   6   7
ENDBRANCH   3   6
ENDBRANCH   1   2
BRANCH   1  23
ATOM     23  C   UNL A   1      32.039  29.210  26.479  1.00  0.00     0.042 C 
BRANCH  23  24
ATOM     24  C   UNL A   1      33.426  29.569  26.979  1.00  0.00     0.118 C 
BRANCH  24  25
ATOM     25  N   UNL A   1      33.553  30.999  27.164  1.00  0.00    -0.352 N 
ATOM     26  C   UNL A   1      34.421  31.695  27.972  1.00  0.00     0.251 C 
ATOM     27  H   UNL A   1      32.932  31.550  26.636  1.00  0.00     0.163 HD
ATOM     28  O   UNL A   1      34.142  32.855  28.267  1.00  0.00    -0.269 OA
BRANCH  26  29
ATOM     29  C   UNL A   1      35.659  31.065  28.500  1.00  0.00     0.039 A 
ATOM     30  C   UNL A   1      36.886  31.683  28.241  1.00  0.00     0.014 A 
ATOM     31  C   UNL A   1      35.636  29.850  29.190  1.00  0.00     0.014 A 
ATOM     32  C   UNL A   1      38.072  31.101  28.699  1.00  0.00     0.010 A 
ATOM     33  C   UNL A   1      36.807  29.328  29.739  1.00  0.00     0.010 A 
ATOM     34  C   UNL A   1      38.044  29.933  29.477  1.00  0.00    -0.014 A 
BRANCH  34  35
ATOM     35  C   UNL A   1      39.303  29.326  29.992  1.00  0.00     0.031 A 
ATOM     36  C   UNL A   1      39.982  29.897  31.210  1.00  0.00     0.074 A 
ATOM     37  C   UNL A   1      39.849  28.277  29.348  1.00  0.00     0.049 A 
ATOM     38  N   UNL A   1      41.089  29.514  31.797  1.00  0.00    -0.248 NA
ATOM     39  C   UNL A   1      39.352  31.069  31.832  1.00  0.00     0.031 C 
ATOM     40  C   UNL A   1      39.307  27.660  28.135  1.00  0.00     0.029 A 
ATOM     41  N   UNL A   1      40.975  27.540  29.618  1.00  0.00    -0.354 N 
ATOM     42  C   UNL A   1      41.292  30.405  32.846  1.00  0.00     0.074 A 
ATOM     43  C   UNL A   1      40.232  31.387  32.768  1.00  0.00     0.031 C 
ATOM     44  C   UNL A   1      40.076  26.618  27.790  1.00  0.00     0.029 A 
ATOM     45  C   UNL A   1      41.201  26.526  28.716  1.00  0.00     0.049 A 
ATOM     46  H   UNL A   1      41.565  27.720  30.385  1.00  0.00     0.167 HD
ATOM     47  C   UNL A   1      42.259  30.394  33.798  1.00  0.00     0.034 A 
ATOM     48  C   UNL A   1      42.208  25.635  28.627  1.00  0.00     0.034 A 
ATOM     49  C   UNL A   1      43.311  29.406  33.853  1.00  0.00     0.049 A 
ATOM     50  C   UNL A   1      43.296  25.662  29.668  1.00  0.00     0.074 A 
ATOM     51  C   UNL A   1      44.305  29.260  34.805  1.00  0.00     0.029 A 
ATOM     52  N   UNL A   1      43.522  28.410  32.906  1.00  0.00    -0.354 N 
ATOM     53  N   UNL A   1      43.439  26.471  30.693  1.00  0.00    -0.248 NA
ATOM     54  C   UNL A   1      44.353  24.651  29.547  1.00  0.00     0.031 C 
ATOM     55  C   UNL A   1      45.174  28.251  34.380  1.00  0.00     0.029 A 
ATOM     56  C   UNL A   1      44.663  27.684  33.223  1.00  0.00     0.049 A 
ATOM     57  H   UNL A   1      42.948  28.244  32.125  1.00  0.00     0.167 HD
ATOM     58  C   UNL A   1      44.588  26.049  31.354  1.00  0.00     0.074 A 
ATOM     59  C   UNL A   1      45.089  24.904  30.620  1.00  0.00     0.031 C 
ATOM     60  C   UNL A   1      45.171  26.558  32.471  1.00  0.00     0.034 A 
BRANCH  47  61
ATOM     61  C   UNL A   1      42.247  31.512  34.818  1.00  0.00     0.023 A 
ATOM     62  C   UNL A   1      41.327  31.539  35.882  1.00  0.00     0.031 A 
ATOM     63  C   UNL A   1      43.138  32.594  34.699  1.00  0.00     0.131 A 
ATOM     64  C   UNL A   1      41.248  32.667  36.713  1.00  0.00     0.055 A 
ATOM     65  C   UNL A   1      43.123  33.665  35.595  1.00  0.00     0.041 A 
ATOM     66  F   UNL A   1      44.026  32.642  33.693  1.00  0.00    -0.206 F 
ATOM     67  C   UNL A   1      42.160  33.718  36.597  1.00  0.00     0.022 A 
BRANCH  64  68
ATOM     68  S   UNL A   1      39.814  32.829  37.814  1.00  0.00     0.124 S 
ATOM     69  O   UNL A   1      39.381  34.197  37.532  1.00  0.00    -0.237 OA
ATOM     70  O   UNL A   1      38.932  31.770  37.341  1.00  0.00    -0.237 OA
ATOM     71  O   UNL A   1      40.379  32.626  39.147  1.00  0.00    -0.744 OA
ENDBRANCH  64  68
ENDBRANCH  47  61
BRANCH  48  72
ATOM     72  C   UNL A   1      42.243  24.664  27.495  1.00  0.00     0.023 A 
ATOM     73  C   UNL A   1      41.549  23.446  27.549  1.00  0.00     0.031 A 
ATOM     74  C   UNL A   1      42.985  24.948  26.333  1.00  0.00     0.131 A 
ATOM     75  C   UNL A   1      41.633  22.545  26.474  1.00  0.00     0.055 A 
ATOM     76  C   UNL A   1      43.019  24.076  25.244  1.00  0.00     0.041 A 
ATOM     77  F   UNL A   1      43.669  26.099  26.229  1.00  0.00    -0.206 F 
ATOM     78  C   UNL A   1      42.347  22.861  25.316  1.00  0.00     0.022 A 
BRANCH  75  79
ATOM     79  S   UNL A   1      40.854  20.914  26.637  1.00  0.00     0.124 S 
ATOM     80  O   UNL A   1      40.741  20.784  28.085  1.00  0.00    -0.237 OA
ATOM     81  O   UNL A   1      39.604  21.101  25.909  1.00  0.00    -0.237 OA
ATOM     82  O   UNL A   1      41.815  20.015  26.002  1.00  0.00    -0.744 OA
ENDBRANCH  75  79
ENDBRANCH  48  72
BRANCH  60  83
ATOM     83  C   UNL A   1      46.402  25.850  32.991  1.00  0.00     0.023 A 
ATOM     84  C   UNL A   1      47.670  26.040  32.415  1.00  0.00     0.031 A 
ATOM     85  C   UNL A   1      46.300  24.961  34.078  1.00  0.00     0.131 A 
ATOM     86  C   UNL A   1      48.767  25.301  32.882  1.00  0.00     0.055 A 
ATOM     87  C   UNL A   1      47.411  24.291  34.590  1.00  0.00     0.041 A 
ATOM     88  F   UNL A   1      45.114  24.731  34.664  1.00  0.00    -0.206 F 
ATOM     89  C   UNL A   1      48.652  24.447  33.981  1.00  0.00     0.022 A 
BRANCH  86  90
ATOM     90  S   UNL A   1      50.323  25.373  31.950  1.00  0.00     0.124 S 
ATOM     91  O   UNL A   1      50.678  23.962  31.848  1.00  0.00    -0.237 OA
ATOM     92  O   UNL A   1      49.914  26.021  30.708  1.00  0.00    -0.237 OA
ATOM     93  O   UNL A   1      51.198  26.171  32.807  1.00  0.00    -0.744 OA
ENDBRANCH  86  90
ENDBRANCH  60  83
ENDBRANCH  34  35
ENDBRANCH  26  29
ENDBRANCH  24  25
ENDBRANCH  23  24
ENDBRANCH   1  23
TORSDOF 19
ENDMDL
MODEL 3
REMARK VINA RESULT:     -10.9      1.643      1.990
REMARK SMILES C#CC[N@H+](CC(=O)NCCCNC(=O)c1ccc(-c2c3nc(c(-c4cc(S(=O)(=O)[O-])ccc4F)c4ccc([nH]4)c(-c4cc(S(=O)(=O)[O-])ccc4F)c4nc(c(-c5cc(S(=O)(=O)[O-])ccc5F)c5ccc2[nH]5)C=C4)C=C3)cc1)[C@H](C)c1ccccc1[N+](=O)[O-]
REMARK SMILES IDX 9 1 8 2 6 3 7 4 5 6 4 7 3 9 2 10 1 11 78 12 79 13 80 14
REMARK SMILES IDX 81 15 85 16 82 17 84 18 83 19 86 20 87 21 88 22 10 23 11 24
REMARK SMILES IDX 12 25 13 26 14 28 15 29 16 30 77 31 17 32 76 33 18 34 19 35
REMARK SMILES IDX 20 36 70 37 21 38 75 39 69 40 71 41 22 42 74 43 68 44 67 45
REMARK SMILES IDX 23 47 55 48 35 49 54 50 36 51 39 52 53 53 72 54 37 55 38 56
REMARK SMILES IDX 52 58 73 59 40 60 24 61 25 62 33 63 26 64 32 65 34 66 31 67
REMARK SMILES IDX 27 68 28 69 29 70 30 71 56 72 57 73 65 74 58 75 64 76 66 77
REMARK SMILES IDX 63 78 59 79 60 80 61 81 62 82 41 83 42 84 50 85 43 86 49 87
REMARK SMILES IDX 51 88 48 89 44 90 45 91 46 92 47 93
REMARK H PARENT 8 5 4 8 12 27 71 46 39 57
REMARK Flexibility Score: inf
ROOT
ATOM      1  C   UNL A   1      31.419  30.922  25.916  1.00  0.00     0.118 C 
ENDROOT
BRANCH   1   2
ATOM      2  N   UNL A   1      32.546  30.074  26.306  1.00  0.00    -0.351 N 
ATOM      3  C   UNL A   1      33.267  29.129  25.613  1.00  0.00     0.275 C 
ATOM      4  O   UNL A   1      34.171  28.546  26.215  1.00  0.00    -0.269 OA
ATOM      5  H   UNL A   1      32.844  30.205  27.236  1.00  0.00     0.163 HD
BRANCH   3   6
ATOM      6  C   UNL A   1      32.974  28.843  24.123  1.00  0.00     0.364 C 
BRANCH   6   7
ATOM      7  N   UNL A   1      31.713  28.059  23.827  1.00  0.00    -0.311 N 
ATOM      8  H   UNL A   1      31.104  27.950  24.638  1.00  0.00     0.349 HD
BRANCH   7   9
ATOM      9  C   UNL A   1      30.926  28.814  22.856  1.00  0.00     0.354 C 
BRANCH   9  10
ATOM     10  C   UNL A   1      29.642  29.435  23.185  1.00  0.00    -0.047 C 
ATOM     11  C   UNL A   1      28.507  29.838  23.191  1.00  0.00     0.010 C 
ENDBRANCH   9  10
ENDBRANCH   7   9
BRANCH   7  12
ATOM     12  C   UNL A   1      32.081  26.647  23.457  1.00  0.00     0.220 C 
ATOM     13  C   UNL A   1      30.967  25.781  22.826  1.00  0.00     0.081 C 
BRANCH  12  14
ATOM     14  C   UNL A   1      32.781  25.844  24.561  1.00  0.00     0.087 A 
ATOM     15  C   UNL A   1      34.128  25.457  24.384  1.00  0.00     0.017 A 
ATOM     16  C   UNL A   1      32.151  25.396  25.741  1.00  0.00     0.278 A 
ATOM     17  C   UNL A   1      34.731  24.500  25.205  1.00  0.00     0.001 A 
ATOM     18  C   UNL A   1      32.754  24.427  26.566  1.00  0.00     0.086 A 
ATOM     19  C   UNL A   1      34.026  23.946  26.265  1.00  0.00     0.007 A 
BRANCH  16  20
ATOM     20  N   UNL A   1      30.929  26.022  26.256  1.00  0.00     0.063 N 
ATOM     21  O   UNL A   1      29.881  25.360  26.220  1.00  0.00    -0.258 OA
ATOM     22  O   UNL A   1      31.034  27.135  26.795  1.00  0.00    -0.258 OA
ENDBRANCH  16  20
ENDBRANCH  12  14
ENDBRANCH   7  12
ENDBRANCH   6   7
ENDBRANCH   3   6
ENDBRANCH   1   2
BRANCH   1  23
ATOM     23  C   UNL A   1      31.368  32.263  26.660  1.00  0.00     0.042 C 
BRANCH  23  24
ATOM     24  C   UNL A   1      32.693  32.727  27.234  1.00  0.00     0.118 C 
BRANCH  24  25
ATOM     25  N   UNL A   1      32.613  34.106  27.668  1.00  0.00    -0.352 N 
ATOM     26  C   UNL A   1      33.177  34.704  28.769  1.00  0.00     0.251 C 
ATOM     27  H   UNL A   1      32.079  34.700  27.091  1.00  0.00     0.163 HD
ATOM     28  O   UNL A   1      32.708  35.770  29.161  1.00  0.00    -0.269 OA
BRANCH  26  29
ATOM     29  C   UNL A   1      34.313  34.075  29.492  1.00  0.00     0.039 A 
ATOM     30  C   UNL A   1      35.616  34.416  29.116  1.00  0.00     0.014 A 
ATOM     31  C   UNL A   1      34.117  33.114  30.488  1.00  0.00     0.014 A 
ATOM     32  C   UNL A   1      36.707  33.821  29.756  1.00  0.00     0.010 A 
ATOM     33  C   UNL A   1      35.203  32.603  31.199  1.00  0.00     0.010 A 
ATOM     34  C   UNL A   1      36.514  32.930  30.823  1.00  0.00    -0.014 A 
BRANCH  34  35
ATOM     35  C   UNL A   1      37.674  32.317  31.528  1.00  0.00     0.031 A 
ATOM     36  C   UNL A   1      38.453  31.199  30.886  1.00  0.00     0.074 A 
ATOM     37  C   UNL A   1      38.010  32.750  32.759  1.00  0.00     0.049 A 
ATOM     38  N   UNL A   1      39.481  30.533  31.349  1.00  0.00    -0.248 NA
ATOM     39  C   UNL A   1      37.999  30.752  29.562  1.00  0.00     0.031 C 
ATOM     40  C   UNL A   1      37.308  33.798  33.502  1.00  0.00     0.029 A 
ATOM     41  N   UNL A   1      39.023  32.369  33.602  1.00  0.00    -0.354 N 
ATOM     42  C   UNL A   1      39.787  29.582  30.380  1.00  0.00     0.074 A 
ATOM     43  C   UNL A   1      38.790  29.713  29.340  1.00  0.00     0.031 C 
ATOM     44  C   UNL A   1      37.933  34.003  34.670  1.00  0.00     0.029 A 
ATOM     45  C   UNL A   1      39.043  33.061  34.791  1.00  0.00     0.049 A 
ATOM     46  H   UNL A   1      39.675  31.666  33.378  1.00  0.00     0.167 HD
ATOM     47  C   UNL A   1      40.814  28.696  30.352  1.00  0.00     0.034 A 
ATOM     48  C   UNL A   1      39.845  32.943  35.867  1.00  0.00     0.034 A 
ATOM     49  C   UNL A   1      41.795  28.579  31.404  1.00  0.00     0.049 A 
ATOM     50  C   UNL A   1      40.956  31.925  35.835  1.00  0.00     0.074 A 
ATOM     51  C   UNL A   1      42.911  27.762  31.454  1.00  0.00     0.029 A 
ATOM     52  N   UNL A   1      41.766  29.279  32.606  1.00  0.00    -0.354 N 
ATOM     53  N   UNL A   1      41.272  31.077  34.884  1.00  0.00    -0.248 NA
ATOM     54  C   UNL A   1      41.823  31.857  37.017  1.00  0.00     0.031 C 
ATOM     55  C   UNL A   1      43.493  27.890  32.719  1.00  0.00     0.029 A 
ATOM     56  C   UNL A   1      42.812  28.871  33.422  1.00  0.00     0.049 A 
ATOM     57  H   UNL A   1      41.100  29.964  32.842  1.00  0.00     0.167 HD
ATOM     58  C   UNL A   1      42.393  30.391  35.343  1.00  0.00     0.074 A 
ATOM     59  C   UNL A   1      42.704  30.938  36.648  1.00  0.00     0.031 C 
ATOM     60  C   UNL A   1      43.103  29.404  34.736  1.00  0.00     0.034 A 
BRANCH  47  61
ATOM     61  C   UNL A   1      40.892  27.756  29.168  1.00  0.00     0.023 A 
ATOM     62  C   UNL A   1      41.824  27.940  28.131  1.00  0.00     0.031 A 
ATOM     63  C   UNL A   1      39.987  26.686  29.049  1.00  0.00     0.131 A 
ATOM     64  C   UNL A   1      41.762  27.139  26.980  1.00  0.00     0.055 A 
ATOM     65  C   UNL A   1      39.998  25.827  27.948  1.00  0.00     0.041 A 
ATOM     66  F   UNL A   1      39.056  26.468  29.991  1.00  0.00    -0.206 F 
ATOM     67  C   UNL A   1      40.875  26.064  26.894  1.00  0.00     0.022 A 
BRANCH  64  68
ATOM     68  S   UNL A   1      42.714  27.648  25.521  1.00  0.00     0.124 S 
ATOM     69  O   UNL A   1      42.636  26.451  24.686  1.00  0.00    -0.237 OA
ATOM     70  O   UNL A   1      41.969  28.807  25.047  1.00  0.00    -0.237 OA
ATOM     71  O   UNL A   1      44.042  27.934  26.062  1.00  0.00    -0.744 OA
ENDBRANCH  64  68
ENDBRANCH  47  61
BRANCH  48  72
ATOM     72  C   UNL A   1      39.607  33.792  37.070  1.00  0.00     0.023 A 
ATOM     73  C   UNL A   1      38.974  33.284  38.214  1.00  0.00     0.031 A 
ATOM     74  C   UNL A   1      40.011  35.141  37.084  1.00  0.00     0.131 A 
ATOM     75  C   UNL A   1      38.739  34.126  39.314  1.00  0.00     0.055 A 
ATOM     76  C   UNL A   1      39.827  35.957  38.200  1.00  0.00     0.041 A 
ATOM     77  F   UNL A   1      40.620  35.677  36.014  1.00  0.00    -0.206 F 
ATOM     78  C   UNL A   1      39.179  35.451  39.322  1.00  0.00     0.022 A 
BRANCH  75  79
ATOM     79  S   UNL A   1      37.781  33.486  40.717  1.00  0.00     0.124 S 
ATOM     80  O   UNL A   1      38.646  32.416  41.200  1.00  0.00    -0.237 OA
ATOM     81  O   UNL A   1      37.674  34.662  41.573  1.00  0.00    -0.237 OA
ATOM     82  O   UNL A   1      36.530  33.049  40.101  1.00  0.00    -0.744 OA
ENDBRANCH  75  79
ENDBRANCH  48  72
BRANCH  60  83
ATOM     83  C   UNL A   1      44.317  28.877  35.466  1.00  0.00     0.023 A 
ATOM     84  C   UNL A   1      44.226  27.842  36.413  1.00  0.00     0.031 A 
ATOM     85  C   UNL A   1      45.587  29.430  35.217  1.00  0.00     0.131 A 
ATOM     86  C   UNL A   1      45.368  27.441  37.122  1.00  0.00     0.055 A 
ATOM     87  C   UNL A   1      46.733  28.970  35.867  1.00  0.00     0.041 A 
ATOM     88  F   UNL A   1      45.736  30.428  34.331  1.00  0.00    -0.206 F 
ATOM     89  C   UNL A   1      46.625  27.980  36.838  1.00  0.00     0.022 A 
BRANCH  86  90
ATOM     90  S   UNL A   1      45.168  26.294  38.514  1.00  0.00     0.124 S 
ATOM     91  O   UNL A   1      46.127  26.823  39.479  1.00  0.00    -0.237 OA
ATOM     92  O   UNL A   1      43.760  26.460  38.856  1.00  0.00    -0.237 OA
ATOM     93  O   UNL A   1      45.519  24.996  37.940  1.00  0.00    -0.744 OA
ENDBRANCH  86  90
ENDBRANCH  60  83
ENDBRANCH  34  35
ENDBRANCH  26  29
ENDBRANCH  24  25
ENDBRANCH  23  24
ENDBRANCH   1  23
TORSDOF 19
ENDMDL
