MODEL 1
REMARK VINA RESULT:     -12.1      0.000      0.000
REMARK SMILES CN(c1ccccc1)c1nc(OCC(=O)NCCCNC(=O)c2ccc(-c3c4nc(c(-c5cc(S(=O)(=O)[O-])ccc5F)c5ccc([nH]5)c(-c5cc(S(=O)(=O)[O-])ccc5F)c5nc(c(-c6cc(S(=O)(=O)[O-])ccc6F)c6ccc3[nH]6)C=C5)C=C4)cc2)cc(-c2ccncc2)n1
REMARK SMILES IDX 17 1 16 2 14 3 15 4 13 6 12 7 11 8 9 9 10 10 94 11 87 12
REMARK SMILES IDX 86 13 2 14 1 15 3 16 4 17 8 18 5 19 7 20 6 21 88 22 89 23
REMARK SMILES IDX 93 24 90 25 92 26 91 27 18 28 19 29 20 30 21 31 22 33 23 34
REMARK SMILES IDX 24 35 85 36 25 37 84 38 26 39 27 40 28 41 78 42 29 43 83 44
REMARK SMILES IDX 77 45 79 46 30 47 82 48 76 49 75 50 31 52 63 53 43 54 62 55
REMARK SMILES IDX 44 56 47 57 61 58 80 59 45 60 46 61 60 63 81 64 48 65 32 66
REMARK SMILES IDX 33 67 41 68 34 69 40 70 42 71 39 72 35 73 36 74 37 75 38 76
REMARK SMILES IDX 64 77 65 78 73 79 66 80 72 81 74 82 71 83 67 84 68 85 69 86
REMARK SMILES IDX 70 87 49 88 50 89 58 90 51 91 57 92 59 93 56 94 52 95 53 96
REMARK SMILES IDX 54 97 55 98
REMARK H PARENT 16 5 20 32 79 51 47 62
REMARK Flexibility Score: inf
ROOT
ATOM      1  C   UNL A   1      32.981  26.633  25.578  1.00  0.00     0.117 C 
ENDROOT
BRANCH   1   2
ATOM      2  N   UNL A   1      31.597  26.300  25.865  1.00  0.00    -0.353 N 
ATOM      3  C   UNL A   1      31.082  25.119  26.309  1.00  0.00     0.258 C 
ATOM      4  O   UNL A   1      29.867  25.037  26.504  1.00  0.00    -0.271 OA
ATOM      5  H   UNL A   1      30.945  27.022  25.719  1.00  0.00     0.163 HD
BRANCH   3   6
ATOM      6  C   UNL A   1      32.013  23.928  26.573  1.00  0.00     0.331 C 
BRANCH   6   7
ATOM      7  O   UNL A   1      31.635  22.678  26.028  1.00  0.00    -0.467 OA
BRANCH   7   8
ATOM      8  C   UNL A   1      32.622  21.833  25.609  1.00  0.00     0.219 A 
ATOM      9  C   UNL A   1      34.747  21.779  24.703  1.00  0.00     0.233 A 
ATOM     10  N   UNL A   1      33.725  22.485  25.222  1.00  0.00    -0.177 NA
ATOM     11  N   UNL A   1      34.704  20.442  24.562  1.00  0.00    -0.212 NA
ATOM     12  C   UNL A   1      33.607  19.807  25.015  1.00  0.00     0.080 A 
ATOM     13  C   UNL A   1      32.534  20.470  25.567  1.00  0.00     0.097 A 
BRANCH   9  14
ATOM     14  N   UNL A   1      35.902  22.475  24.320  1.00  0.00    -0.314 N 
ATOM     15  C   UNL A   1      35.845  23.071  22.992  1.00  0.00     0.153 C 
BRANCH  14  16
ATOM     16  C   UNL A   1      37.045  22.656  25.112  1.00  0.00     0.043 A 
ATOM     17  C   UNL A   1      37.271  23.894  25.741  1.00  0.00     0.026 A 
ATOM     18  C   UNL A   1      37.988  21.641  25.324  1.00  0.00     0.026 A 
ATOM     19  C   UNL A   1      38.377  24.106  26.566  1.00  0.00     0.002 A 
ATOM     20  C   UNL A   1      39.109  21.854  26.135  1.00  0.00     0.002 A 
ATOM     21  C   UNL A   1      39.299  23.083  26.763  1.00  0.00     0.000 A 
ENDBRANCH  14  16
ENDBRANCH   9  14
BRANCH  12  22
ATOM     22  C   UNL A   1      33.608  18.345  24.940  1.00  0.00     0.004 A 
ATOM     23  C   UNL A   1      32.564  17.595  25.493  1.00  0.00     0.030 A 
ATOM     24  C   UNL A   1      34.694  17.658  24.389  1.00  0.00     0.030 A 
ATOM     25  C   UNL A   1      32.662  16.213  25.494  1.00  0.00     0.111 A 
ATOM     26  C   UNL A   1      34.705  16.274  24.448  1.00  0.00     0.111 A 
ATOM     27  N   UNL A   1      33.717  15.536  24.996  1.00  0.00    -0.265 NA
ENDBRANCH  12  22
ENDBRANCH   7   8
ENDBRANCH   6   7
ENDBRANCH   3   6
ENDBRANCH   1   2
BRANCH   1  28
ATOM     28  C   UNL A   1      33.124  27.557  24.375  1.00  0.00     0.042 C 
BRANCH  28  29
ATOM     29  C   UNL A   1      33.831  28.879  24.669  1.00  0.00     0.118 C 
BRANCH  29  30
ATOM     30  N   UNL A   1      32.937  29.904  25.192  1.00  0.00    -0.352 N 
ATOM     31  C   UNL A   1      32.963  30.587  26.383  1.00  0.00     0.251 C 
ATOM     32  H   UNL A   1      32.193  30.147  24.594  1.00  0.00     0.163 HD
ATOM     33  O   UNL A   1      32.000  31.288  26.690  1.00  0.00    -0.269 OA
BRANCH  31  34
ATOM     34  C   UNL A   1      34.115  30.462  27.304  1.00  0.00     0.039 A 
ATOM     35  C   UNL A   1      34.350  29.233  27.928  1.00  0.00     0.014 A 
ATOM     36  C   UNL A   1      34.955  31.547  27.566  1.00  0.00     0.014 A 
ATOM     37  C   UNL A   1      35.475  29.070  28.741  1.00  0.00     0.010 A 
ATOM     38  C   UNL A   1      36.117  31.362  28.311  1.00  0.00     0.010 A 
ATOM     39  C   UNL A   1      36.396  30.118  28.899  1.00  0.00    -0.014 A 
BRANCH  39  40
ATOM     40  C   UNL A   1      37.664  29.927  29.653  1.00  0.00     0.031 A 
ATOM     41  C   UNL A   1      38.777  29.098  29.075  1.00  0.00     0.074 A 
ATOM     42  C   UNL A   1      37.787  30.446  30.891  1.00  0.00     0.049 A 
ATOM     43  N   UNL A   1      39.918  28.749  29.613  1.00  0.00    -0.248 NA
ATOM     44  C   UNL A   1      38.562  28.569  27.721  1.00  0.00     0.031 C 
ATOM     45  C   UNL A   1      36.772  31.251  31.573  1.00  0.00     0.029 A 
ATOM     46  N   UNL A   1      38.814  30.373  31.798  1.00  0.00    -0.354 N 
ATOM     47  C   UNL A   1      40.559  27.957  28.665  1.00  0.00     0.074 A 
ATOM     48  C   UNL A   1      39.640  27.819  27.553  1.00  0.00     0.031 C 
ATOM     49  C   UNL A   1      37.242  31.629  32.772  1.00  0.00     0.029 A 
ATOM     50  C   UNL A   1      38.564  31.045  32.973  1.00  0.00     0.049 A 
ATOM     51  H   UNL A   1      39.653  29.886  31.625  1.00  0.00     0.167 HD
ATOM     52  C   UNL A   1      41.805  27.421  28.706  1.00  0.00     0.034 A 
ATOM     53  C   UNL A   1      39.307  31.165  34.090  1.00  0.00     0.034 A 
ATOM     54  C   UNL A   1      42.702  27.559  29.829  1.00  0.00     0.049 A 
ATOM     55  C   UNL A   1      40.651  30.484  34.151  1.00  0.00     0.074 A 
ATOM     56  C   UNL A   1      43.997  27.087  29.963  1.00  0.00     0.029 A 
ATOM     57  N   UNL A   1      42.393  28.203  31.021  1.00  0.00    -0.354 N 
ATOM     58  N   UNL A   1      41.261  29.773  33.230  1.00  0.00    -0.248 NA
ATOM     59  C   UNL A   1      41.405  30.620  35.405  1.00  0.00     0.031 C 
ATOM     60  C   UNL A   1      44.438  27.372  31.260  1.00  0.00     0.029 A 
ATOM     61  C   UNL A   1      43.454  28.099  31.911  1.00  0.00     0.049 A 
ATOM     62  H   UNL A   1      41.545  28.665  31.209  1.00  0.00     0.167 HD
ATOM     63  C   UNL A   1      42.484  29.405  33.784  1.00  0.00     0.074 A 
ATOM     64  C   UNL A   1      42.529  29.985  35.112  1.00  0.00     0.031 C 
ATOM     65  C   UNL A   1      43.482  28.661  33.242  1.00  0.00     0.034 A 
BRANCH  52  66
ATOM     66  C   UNL A   1      42.244  26.609  27.508  1.00  0.00     0.023 A 
ATOM     67  C   UNL A   1      42.258  25.203  27.540  1.00  0.00     0.031 A 
ATOM     68  C   UNL A   1      42.706  27.240  26.340  1.00  0.00     0.131 A 
ATOM     69  C   UNL A   1      42.823  24.482  26.478  1.00  0.00     0.055 A 
ATOM     70  C   UNL A   1      43.174  26.512  25.243  1.00  0.00     0.041 A 
ATOM     71  F   UNL A   1      42.736  28.580  26.251  1.00  0.00    -0.206 F 
ATOM     72  C   UNL A   1      43.256  25.125  25.317  1.00  0.00     0.022 A 
BRANCH  69  73
ATOM     73  S   UNL A   1      43.163  22.716  26.722  1.00  0.00     0.124 S 
ATOM     74  O   UNL A   1      42.535  22.129  25.540  1.00  0.00    -0.237 OA
ATOM     75  O   UNL A   1      44.620  22.678  26.757  1.00  0.00    -0.237 OA
ATOM     76  O   UNL A   1      42.498  22.411  27.986  1.00  0.00    -0.744 OA
ENDBRANCH  69  73
ENDBRANCH  52  66
BRANCH  53  77
ATOM     77  C   UNL A   1      38.805  31.958  35.249  1.00  0.00     0.023 A 
ATOM     78  C   UNL A   1      38.311  31.316  36.395  1.00  0.00     0.031 A 
ATOM     79  C   UNL A   1      38.775  33.364  35.216  1.00  0.00     0.131 A 
ATOM     80  C   UNL A   1      37.772  32.074  37.444  1.00  0.00     0.055 A 
ATOM     81  C   UNL A   1      38.290  34.116  36.287  1.00  0.00     0.041 A 
ATOM     82  F   UNL A   1      39.235  34.028  34.143  1.00  0.00    -0.206 F 
ATOM     83  C   UNL A   1      37.772  33.470  37.406  1.00  0.00     0.022 A 
BRANCH  80  84
ATOM     84  S   UNL A   1      36.992  31.204  38.831  1.00  0.00     0.124 S 
ATOM     85  O   UNL A   1      37.983  31.378  39.886  1.00  0.00    -0.237 OA
ATOM     86  O   UNL A   1      35.745  31.946  38.992  1.00  0.00    -0.237 OA
ATOM     87  O   UNL A   1      36.841  29.838  38.334  1.00  0.00    -0.744 OA
ENDBRANCH  80  84
ENDBRANCH  53  77
BRANCH  65  88
ATOM     88  C   UNL A   1      44.725  28.461  34.078  1.00  0.00     0.023 A 
ATOM     89  C   UNL A   1      44.875  27.349  34.926  1.00  0.00     0.031 A 
ATOM     90  C   UNL A   1      45.770  29.401  34.032  1.00  0.00     0.131 A 
ATOM     91  C   UNL A   1      46.019  27.232  35.731  1.00  0.00     0.055 A 
ATOM     92  C   UNL A   1      46.935  29.245  34.785  1.00  0.00     0.041 A 
ATOM     93  F   UNL A   1      45.679  30.486  33.246  1.00  0.00    -0.206 F 
ATOM     94  C   UNL A   1      47.058  28.162  35.650  1.00  0.00     0.022 A 
BRANCH  91  95
ATOM     95  S   UNL A   1      46.090  25.895  36.954  1.00  0.00     0.124 S 
ATOM     96  O   UNL A   1      45.477  24.787  36.230  1.00  0.00    -0.237 OA
ATOM     97  O   UNL A   1      47.522  25.777  37.206  1.00  0.00    -0.237 OA
ATOM     98  O   UNL A   1      45.306  26.413  38.074  1.00  0.00    -0.744 OA
ENDBRANCH  91  95
ENDBRANCH  65  88
ENDBRANCH  39  40
ENDBRANCH  31  34
ENDBRANCH  29  30
ENDBRANCH  28  29
ENDBRANCH   1  28
TORSDOF 18
ENDMDL
MODEL 2
REMARK VINA RESULT:     -12.0      5.074     10.667
REMARK SMILES CN(c1ccccc1)c1nc(OCC(=O)NCCCNC(=O)c2ccc(-c3c4nc(c(-c5cc(S(=O)(=O)[O-])ccc5F)c5ccc([nH]5)c(-c5cc(S(=O)(=O)[O-])ccc5F)c5nc(c(-c6cc(S(=O)(=O)[O-])ccc6F)c6ccc3[nH]6)C=C5)C=C4)cc2)cc(-c2ccncc2)n1
REMARK SMILES IDX 17 1 16 2 14 3 15 4 13 6 12 7 11 8 9 9 10 10 94 11 87 12
REMARK SMILES IDX 86 13 2 14 1 15 3 16 4 17 8 18 5 19 7 20 6 21 88 22 89 23
REMARK SMILES IDX 93 24 90 25 92 26 91 27 18 28 19 29 20 30 21 31 22 33 23 34
REMARK SMILES IDX 24 35 85 36 25 37 84 38 26 39 27 40 28 41 78 42 29 43 83 44
REMARK SMILES IDX 77 45 79 46 30 47 82 48 76 49 75 50 31 52 63 53 43 54 62 55
REMARK SMILES IDX 44 56 47 57 61 58 80 59 45 60 46 61 60 63 81 64 48 65 32 66
REMARK SMILES IDX 33 67 41 68 34 69 40 70 42 71 39 72 35 73 36 74 37 75 38 76
REMARK SMILES IDX 64 77 65 78 73 79 66 80 72 81 74 82 71 83 67 84 68 85 69 86
REMARK SMILES IDX 70 87 49 88 50 89 58 90 51 91 57 92 59 93 56 94 52 95 53 96
REMARK SMILES IDX 54 97 55 98
REMARK H PARENT 16 5 20 32 79 51 47 62
REMARK Flexibility Score: inf
ROOT
ATOM      1  C   UNL A   1      33.980  22.526  24.086  1.00  0.00     0.117 C 
ENDROOT
BRANCH   1   2
ATOM      2  N   UNL A   1      33.838  22.770  22.662  1.00  0.00    -0.353 N 
ATOM      3  C   UNL A   1      33.285  23.846  22.036  1.00  0.00     0.258 C 
ATOM      4  O   UNL A   1      33.267  23.871  20.802  1.00  0.00    -0.271 OA
ATOM      5  H   UNL A   1      34.185  22.063  22.071  1.00  0.00     0.163 HD
BRANCH   3   6
ATOM      6  C   UNL A   1      32.717  25.006  22.863  1.00  0.00     0.331 C 
BRANCH   6   7
ATOM      7  O   UNL A   1      31.956  25.981  22.174  1.00  0.00    -0.467 OA
BRANCH   7   8
ATOM      8  C   UNL A   1      31.544  27.084  22.867  1.00  0.00     0.219 A 
ATOM      9  C   UNL A   1      31.616  28.097  24.943  1.00  0.00     0.233 A 
ATOM     10  N   UNL A   1      32.015  27.109  24.120  1.00  0.00    -0.177 NA
ATOM     11  N   UNL A   1      30.765  29.063  24.552  1.00  0.00    -0.212 NA
ATOM     12  C   UNL A   1      30.356  29.046  23.271  1.00  0.00     0.080 A 
ATOM     13  C   UNL A   1      30.737  28.071  22.377  1.00  0.00     0.097 A 
BRANCH   9  14
ATOM     14  N   UNL A   1      32.133  28.119  26.245  1.00  0.00    -0.314 N 
ATOM     15  C   UNL A   1      31.583  27.110  27.139  1.00  0.00     0.153 C 
BRANCH  14  16
ATOM     16  C   UNL A   1      33.128  28.989  26.712  1.00  0.00     0.043 A 
ATOM     17  C   UNL A   1      32.801  30.321  27.026  1.00  0.00     0.026 A 
ATOM     18  C   UNL A   1      34.459  28.590  26.896  1.00  0.00     0.026 A 
ATOM     19  C   UNL A   1      33.754  31.212  27.526  1.00  0.00     0.002 A 
ATOM     20  C   UNL A   1      35.422  29.483  27.380  1.00  0.00     0.002 A 
ATOM     21  C   UNL A   1      35.068  30.792  27.702  1.00  0.00     0.000 A 
ENDBRANCH  14  16
ENDBRANCH   9  14
BRANCH  12  22
ATOM     22  C   UNL A   1      29.502  30.152  22.833  1.00  0.00     0.004 A 
ATOM     23  C   UNL A   1      29.143  31.179  23.715  1.00  0.00     0.030 A 
ATOM     24  C   UNL A   1      28.951  30.165  21.548  1.00  0.00     0.030 A 
ATOM     25  C   UNL A   1      28.246  32.143  23.288  1.00  0.00     0.111 A 
ATOM     26  C   UNL A   1      28.054  31.167  21.218  1.00  0.00     0.111 A 
ATOM     27  N   UNL A   1      27.681  32.152  22.062  1.00  0.00    -0.265 NA
ENDBRANCH  12  22
ENDBRANCH   7   8
ENDBRANCH   6   7
ENDBRANCH   3   6
ENDBRANCH   1   2
BRANCH   1  28
ATOM     28  C   UNL A   1      35.325  22.992  24.629  1.00  0.00     0.042 C 
BRANCH  28  29
ATOM     29  C   UNL A   1      35.768  22.297  25.915  1.00  0.00     0.118 C 
BRANCH  29  30
ATOM     30  N   UNL A   1      36.785  21.277  25.695  1.00  0.00    -0.352 N 
ATOM     31  C   UNL A   1      38.155  21.355  25.759  1.00  0.00     0.251 C 
ATOM     32  H   UNL A   1      36.434  20.387  25.462  1.00  0.00     0.163 HD
ATOM     33  O   UNL A   1      38.826  20.404  25.361  1.00  0.00    -0.269 OA
BRANCH  31  34
ATOM     34  C   UNL A   1      38.823  22.574  26.269  1.00  0.00     0.039 A 
ATOM     35  C   UNL A   1      39.973  22.436  27.052  1.00  0.00     0.014 A 
ATOM     36  C   UNL A   1      38.318  23.847  25.992  1.00  0.00     0.014 A 
ATOM     37  C   UNL A   1      40.663  23.573  27.481  1.00  0.00     0.010 A 
ATOM     38  C   UNL A   1      39.049  24.977  26.352  1.00  0.00     0.010 A 
ATOM     39  C   UNL A   1      40.235  24.853  27.092  1.00  0.00    -0.014 A 
BRANCH  39  40
ATOM     40  C   UNL A   1      41.025  26.069  27.427  1.00  0.00     0.031 A 
ATOM     41  C   UNL A   1      40.432  27.150  28.284  1.00  0.00     0.074 A 
ATOM     42  C   UNL A   1      42.256  26.228  26.899  1.00  0.00     0.049 A 
ATOM     43  N   UNL A   1      40.930  28.315  28.615  1.00  0.00    -0.248 NA
ATOM     44  C   UNL A   1      39.086  26.897  28.818  1.00  0.00     0.031 C 
ATOM     45  C   UNL A   1      42.935  25.262  26.035  1.00  0.00     0.029 A 
ATOM     46  N   UNL A   1      43.153  27.261  27.010  1.00  0.00    -0.354 N 
ATOM     47  C   UNL A   1      39.959  28.936  29.394  1.00  0.00     0.074 A 
ATOM     48  C   UNL A   1      38.816  28.046  29.418  1.00  0.00     0.031 C 
ATOM     49  C   UNL A   1      44.155  25.729  25.726  1.00  0.00     0.029 A 
ATOM     50  C   UNL A   1      44.323  27.053  26.317  1.00  0.00     0.049 A 
ATOM     51  H   UNL A   1      42.977  28.074  27.537  1.00  0.00     0.167 HD
ATOM     52  C   UNL A   1      40.025  30.123  30.050  1.00  0.00     0.034 A 
ATOM     53  C   UNL A   1      45.403  27.843  26.162  1.00  0.00     0.034 A 
ATOM     54  C   UNL A   1      41.168  31.003  30.004  1.00  0.00     0.049 A 
ATOM     55  C   UNL A   1      45.419  29.198  26.824  1.00  0.00     0.074 A 
ATOM     56  C   UNL A   1      41.356  32.210  30.657  1.00  0.00     0.029 A 
ATOM     57  N   UNL A   1      42.315  30.782  29.250  1.00  0.00    -0.354 N 
ATOM     58  N   UNL A   1      44.510  29.754  27.592  1.00  0.00    -0.248 NA
ATOM     59  C   UNL A   1      46.607  30.032  26.595  1.00  0.00     0.031 C 
ATOM     60  C   UNL A   1      42.574  32.755  30.234  1.00  0.00     0.029 A 
ATOM     61  C   UNL A   1      43.190  31.851  29.385  1.00  0.00     0.049 A 
ATOM     62  H   UNL A   1      42.481  29.984  28.699  1.00  0.00     0.167 HD
ATOM     63  C   UNL A   1      45.033  30.990  27.963  1.00  0.00     0.074 A 
ATOM     64  C   UNL A   1      46.340  31.090  27.346  1.00  0.00     0.031 C 
ATOM     65  C   UNL A   1      44.484  31.953  28.748  1.00  0.00     0.034 A 
BRANCH  52  66
ATOM     66  C   UNL A   1      38.806  30.540  30.842  1.00  0.00     0.023 A 
ATOM     67  C   UNL A   1      37.869  31.451  30.320  1.00  0.00     0.031 A 
ATOM     68  C   UNL A   1      38.600  30.070  32.151  1.00  0.00     0.131 A 
ATOM     69  C   UNL A   1      36.839  31.944  31.136  1.00  0.00     0.055 A 
ATOM     70  C   UNL A   1      37.515  30.488  32.923  1.00  0.00     0.041 A 
ATOM     71  F   UNL A   1      39.468  29.213  32.714  1.00  0.00    -0.206 F 
ATOM     72  C   UNL A   1      36.638  31.448  32.425  1.00  0.00     0.022 A 
BRANCH  69  73
ATOM     73  S   UNL A   1      35.895  33.380  30.555  1.00  0.00     0.124 S 
ATOM     74  O   UNL A   1      36.176  34.360  31.601  1.00  0.00    -0.237 OA
ATOM     75  O   UNL A   1      36.496  33.646  29.253  1.00  0.00    -0.237 OA
ATOM     76  O   UNL A   1      34.518  32.894  30.522  1.00  0.00    -0.744 OA
ENDBRANCH  69  73
ENDBRANCH  52  66
BRANCH  53  77
ATOM     77  C   UNL A   1      46.564  27.384  25.345  1.00  0.00     0.023 A 
ATOM     78  C   UNL A   1      46.859  27.994  24.116  1.00  0.00     0.031 A 
ATOM     79  C   UNL A   1      47.371  26.310  25.759  1.00  0.00     0.131 A 
ATOM     80  C   UNL A   1      47.906  27.500  23.324  1.00  0.00     0.055 A 
ATOM     81  C   UNL A   1      48.448  25.859  24.994  1.00  0.00     0.041 A 
ATOM     82  F   UNL A   1      47.133  25.691  26.927  1.00  0.00    -0.206 F 
ATOM     83  C   UNL A   1      48.713  26.447  23.762  1.00  0.00     0.022 A 
BRANCH  80  84
ATOM     84  S   UNL A   1      48.148  28.203  21.670  1.00  0.00     0.124 S 
ATOM     85  O   UNL A   1      47.907  27.045  20.818  1.00  0.00    -0.237 OA
ATOM     86  O   UNL A   1      47.131  29.250  21.634  1.00  0.00    -0.237 OA
ATOM     87  O   UNL A   1      49.529  28.680  21.701  1.00  0.00    -0.744 OA
ENDBRANCH  80  84
ENDBRANCH  53  77
BRANCH  65  88
ATOM     88  C   UNL A   1      45.317  33.186  29.009  1.00  0.00     0.023 A 
ATOM     89  C   UNL A   1      45.228  34.326  28.190  1.00  0.00     0.031 A 
ATOM     90  C   UNL A   1      46.217  33.218  30.088  1.00  0.00     0.131 A 
ATOM     91  C   UNL A   1      46.062  35.428  28.432  1.00  0.00     0.055 A 
ATOM     92  C   UNL A   1      46.997  34.342  30.364  1.00  0.00     0.041 A 
ATOM     93  F   UNL A   1      46.350  32.156  30.900  1.00  0.00    -0.206 F 
ATOM     94  C   UNL A   1      46.931  35.451  29.526  1.00  0.00     0.022 A 
BRANCH  91  95
ATOM     95  S   UNL A   1      46.064  36.798  27.243  1.00  0.00     0.124 S 
ATOM     96  O   UNL A   1      46.706  37.862  28.007  1.00  0.00    -0.237 OA
ATOM     97  O   UNL A   1      46.840  36.251  26.136  1.00  0.00    -0.237 OA
ATOM     98  O   UNL A   1      44.645  37.008  26.960  1.00  0.00    -0.744 OA
ENDBRANCH  91  95
ENDBRANCH  65  88
ENDBRANCH  39  40
ENDBRANCH  31  34
ENDBRANCH  29  30
ENDBRANCH  28  29
ENDBRANCH   1  28
TORSDOF 18
ENDMDL
MODEL 3
REMARK VINA RESULT:     -12.0      4.985     10.696
REMARK SMILES CN(c1ccccc1)c1nc(OCC(=O)NCCCNC(=O)c2ccc(-c3c4nc(c(-c5cc(S(=O)(=O)[O-])ccc5F)c5ccc([nH]5)c(-c5cc(S(=O)(=O)[O-])ccc5F)c5nc(c(-c6cc(S(=O)(=O)[O-])ccc6F)c6ccc3[nH]6)C=C5)C=C4)cc2)cc(-c2ccncc2)n1
REMARK SMILES IDX 17 1 16 2 14 3 15 4 13 6 12 7 11 8 9 9 10 10 94 11 87 12
REMARK SMILES IDX 86 13 2 14 1 15 3 16 4 17 8 18 5 19 7 20 6 21 88 22 89 23
REMARK SMILES IDX 93 24 90 25 92 26 91 27 18 28 19 29 20 30 21 31 22 33 23 34
REMARK SMILES IDX 24 35 85 36 25 37 84 38 26 39 27 40 28 41 78 42 29 43 83 44
REMARK SMILES IDX 77 45 79 46 30 47 82 48 76 49 75 50 31 52 63 53 43 54 62 55
REMARK SMILES IDX 44 56 47 57 61 58 80 59 45 60 46 61 60 63 81 64 48 65 32 66
REMARK SMILES IDX 33 67 41 68 34 69 40 70 42 71 39 72 35 73 36 74 37 75 38 76
REMARK SMILES IDX 64 77 65 78 73 79 66 80 72 81 74 82 71 83 67 84 68 85 69 86
REMARK SMILES IDX 70 87 49 88 50 89 58 90 51 91 57 92 59 93 56 94 52 95 53 96
REMARK SMILES IDX 54 97 55 98
REMARK H PARENT 16 5 20 32 79 51 47 62
REMARK Flexibility Score: inf
ROOT
ATOM      1  C   UNL A   1      33.828  23.623  25.025  1.00  0.00     0.117 C 
ENDROOT
BRANCH   1   2
ATOM      2  N   UNL A   1      33.206  23.177  26.259  1.00  0.00    -0.353 N 
ATOM      3  C   UNL A   1      31.953  23.442  26.722  1.00  0.00     0.258 C 
ATOM      4  O   UNL A   1      31.603  22.957  27.801  1.00  0.00    -0.271 OA
ATOM      5  H   UNL A   1      33.764  22.608  26.837  1.00  0.00     0.163 HD
BRANCH   3   6
ATOM      6  C   UNL A   1      30.999  24.315  25.897  1.00  0.00     0.331 C 
BRANCH   6   7
ATOM      7  O   UNL A   1      30.511  25.496  26.506  1.00  0.00    -0.467 OA
BRANCH   7   8
ATOM      8  C   UNL A   1      31.043  26.691  26.112  1.00  0.00     0.219 A 
ATOM      9  C   UNL A   1      31.103  28.202  24.365  1.00  0.00     0.233 A 
ATOM     10  N   UNL A   1      30.594  27.082  24.914  1.00  0.00    -0.177 NA
ATOM     11  N   UNL A   1      32.042  28.944  24.978  1.00  0.00    -0.212 NA
ATOM     12  C   UNL A   1      32.430  28.560  26.207  1.00  0.00     0.080 A 
ATOM     13  C   UNL A   1      31.940  27.433  26.828  1.00  0.00     0.097 A 
BRANCH   9  14
ATOM     14  N   UNL A   1      30.608  28.608  23.118  1.00  0.00    -0.314 N 
ATOM     15  C   UNL A   1      30.982  27.750  22.002  1.00  0.00     0.153 C 
BRANCH  14  16
ATOM     16  C   UNL A   1      29.782  29.718  22.891  1.00  0.00     0.043 A 
ATOM     17  C   UNL A   1      29.172  29.891  21.635  1.00  0.00     0.026 A 
ATOM     18  C   UNL A   1      29.519  30.680  23.876  1.00  0.00     0.026 A 
ATOM     19  C   UNL A   1      28.316  30.964  21.378  1.00  0.00     0.002 A 
ATOM     20  C   UNL A   1      28.676  31.767  23.618  1.00  0.00     0.002 A 
ATOM     21  C   UNL A   1      28.069  31.905  22.372  1.00  0.00     0.000 A 
ENDBRANCH  14  16
ENDBRANCH   9  14
BRANCH  12  22
ATOM     22  C   UNL A   1      33.386  29.424  26.901  1.00  0.00     0.004 A 
ATOM     23  C   UNL A   1      33.086  30.766  27.164  1.00  0.00     0.030 A 
ATOM     24  C   UNL A   1      34.658  28.954  27.243  1.00  0.00     0.030 A 
ATOM     25  C   UNL A   1      34.063  31.572  27.724  1.00  0.00     0.111 A 
ATOM     26  C   UNL A   1      35.571  29.841  27.790  1.00  0.00     0.111 A 
ATOM     27  N   UNL A   1      35.305  31.143  28.029  1.00  0.00    -0.265 NA
ENDBRANCH  12  22
ENDBRANCH   7   8
ENDBRANCH   6   7
ENDBRANCH   3   6
ENDBRANCH   1   2
BRANCH   1  28
ATOM     28  C   UNL A   1      35.191  22.984  24.790  1.00  0.00     0.042 C 
BRANCH  28  29
ATOM     29  C   UNL A   1      35.880  22.470  26.053  1.00  0.00     0.118 C 
BRANCH  29  30
ATOM     30  N   UNL A   1      36.884  21.450  25.784  1.00  0.00    -0.352 N 
ATOM     31  C   UNL A   1      38.256  21.516  25.823  1.00  0.00     0.251 C 
ATOM     32  H   UNL A   1      36.521  20.569  25.534  1.00  0.00     0.163 HD
ATOM     33  O   UNL A   1      38.911  20.571  25.386  1.00  0.00    -0.269 OA
BRANCH  31  34
ATOM     34  C   UNL A   1      38.943  22.715  26.352  1.00  0.00     0.039 A 
ATOM     35  C   UNL A   1      40.065  22.545  27.169  1.00  0.00     0.014 A 
ATOM     36  C   UNL A   1      38.483  24.002  26.062  1.00  0.00     0.014 A 
ATOM     37  C   UNL A   1      40.775  23.662  27.618  1.00  0.00     0.010 A 
ATOM     38  C   UNL A   1      39.235  25.111  26.443  1.00  0.00     0.010 A 
ATOM     39  C   UNL A   1      40.395  24.953  27.217  1.00  0.00    -0.014 A 
BRANCH  39  40
ATOM     40  C   UNL A   1      41.210  26.146  27.575  1.00  0.00     0.031 A 
ATOM     41  C   UNL A   1      40.633  27.229  28.442  1.00  0.00     0.074 A 
ATOM     42  C   UNL A   1      42.448  26.284  27.061  1.00  0.00     0.049 A 
ATOM     43  N   UNL A   1      41.155  28.378  28.793  1.00  0.00    -0.248 NA
ATOM     44  C   UNL A   1      39.277  27.000  28.961  1.00  0.00     0.031 C 
ATOM     45  C   UNL A   1      43.113  25.314  26.190  1.00  0.00     0.029 A 
ATOM     46  N   UNL A   1      43.368  27.294  27.194  1.00  0.00    -0.354 N 
ATOM     47  C   UNL A   1      40.191  29.011  29.571  1.00  0.00     0.074 A 
ATOM     48  C   UNL A   1      39.028  28.147  29.573  1.00  0.00     0.031 C 
ATOM     49  C   UNL A   1      44.346  25.757  25.899  1.00  0.00     0.029 A 
ATOM     50  C   UNL A   1      44.540  27.069  26.509  1.00  0.00     0.049 A 
ATOM     51  H   UNL A   1      43.205  28.104  27.730  1.00  0.00     0.167 HD
ATOM     52  C   UNL A   1      40.278  30.187  30.244  1.00  0.00     0.034 A 
ATOM     53  C   UNL A   1      45.639  27.836  26.374  1.00  0.00     0.034 A 
ATOM     54  C   UNL A   1      41.441  31.041  30.220  1.00  0.00     0.049 A 
ATOM     55  C   UNL A   1      45.679  29.181  27.054  1.00  0.00     0.074 A 
ATOM     56  C   UNL A   1      41.650  32.235  30.890  1.00  0.00     0.029 A 
ATOM     57  N   UNL A   1      42.589  30.804  29.473  1.00  0.00    -0.354 N 
ATOM     58  N   UNL A   1      44.776  29.748  27.821  1.00  0.00    -0.248 NA
ATOM     59  C   UNL A   1      46.888  29.990  26.847  1.00  0.00     0.031 C 
ATOM     60  C   UNL A   1      42.884  32.757  30.486  1.00  0.00     0.029 A 
ATOM     61  C   UNL A   1      43.488  31.851  29.630  1.00  0.00     0.049 A 
ATOM     62  H   UNL A   1      42.743  30.010  28.913  1.00  0.00     0.167 HD
ATOM     63  C   UNL A   1      45.324  30.966  28.213  1.00  0.00     0.074 A 
ATOM     64  C   UNL A   1      46.638  31.044  27.609  1.00  0.00     0.031 C 
ATOM     65  C   UNL A   1      44.789  31.931  29.006  1.00  0.00     0.034 A 
BRANCH  52  66
ATOM     66  C   UNL A   1      39.061  30.621  31.030  1.00  0.00     0.023 A 
ATOM     67  C   UNL A   1      38.163  31.578  30.522  1.00  0.00     0.031 A 
ATOM     68  C   UNL A   1      38.820  30.121  32.321  1.00  0.00     0.131 A 
ATOM     69  C   UNL A   1      37.138  32.081  31.337  1.00  0.00     0.055 A 
ATOM     70  C   UNL A   1      37.738  30.553  33.090  1.00  0.00     0.041 A 
ATOM     71  F   UNL A   1      39.650  29.219  32.872  1.00  0.00    -0.206 F 
ATOM     72  C   UNL A   1      36.901  31.555  32.608  1.00  0.00     0.022 A 
BRANCH  69  73
ATOM     73  S   UNL A   1      36.251  33.565  30.785  1.00  0.00     0.124 S 
ATOM     74  O   UNL A   1      36.592  34.520  31.837  1.00  0.00    -0.237 OA
ATOM     75  O   UNL A   1      36.842  33.817  29.477  1.00  0.00    -0.237 OA
ATOM     76  O   UNL A   1      34.853  33.142  30.770  1.00  0.00    -0.744 OA
ENDBRANCH  69  73
ENDBRANCH  52  66
BRANCH  53  77
ATOM     77  C   UNL A   1      46.796  27.361  25.562  1.00  0.00     0.023 A 
ATOM     78  C   UNL A   1      46.994  27.833  24.255  1.00  0.00     0.031 A 
ATOM     79  C   UNL A   1      47.698  26.405  26.061  1.00  0.00     0.131 A 
ATOM     80  C   UNL A   1      48.042  27.319  23.477  1.00  0.00     0.055 A 
ATOM     81  C   UNL A   1      48.773  25.939  25.303  1.00  0.00     0.041 A 
ATOM     82  F   UNL A   1      47.554  25.919  27.305  1.00  0.00    -0.206 F 
ATOM     83  C   UNL A   1      48.943  26.387  23.997  1.00  0.00     0.022 A 
BRANCH  80  84
ATOM     84  S   UNL A   1      48.163  27.828  21.740  1.00  0.00     0.124 S 
ATOM     85  O   UNL A   1      49.362  28.657  21.757  1.00  0.00    -0.237 OA
ATOM     86  O   UNL A   1      48.278  26.544  21.056  1.00  0.00    -0.237 OA
ATOM     87  O   UNL A   1      46.911  28.545  21.508  1.00  0.00    -0.744 OA
ENDBRANCH  80  84
ENDBRANCH  53  77
BRANCH  65  88
ATOM     88  C   UNL A   1      45.648  33.141  29.291  1.00  0.00     0.023 A 
ATOM     89  C   UNL A   1      45.533  34.324  28.538  1.00  0.00     0.031 A 
ATOM     90  C   UNL A   1      46.598  33.108  30.327  1.00  0.00     0.131 A 
ATOM     91  C   UNL A   1      46.391  35.404  28.798  1.00  0.00     0.055 A 
ATOM     92  C   UNL A   1      47.403  34.209  30.623  1.00  0.00     0.041 A 
ATOM     93  F   UNL A   1      46.757  32.004  31.074  1.00  0.00    -0.206 F 
ATOM     94  C   UNL A   1      47.310  35.361  29.848  1.00  0.00     0.022 A 
BRANCH  91  95
ATOM     95  S   UNL A   1      46.352  36.834  27.683  1.00  0.00     0.124 S 
ATOM     96  O   UNL A   1      45.005  37.353  27.901  1.00  0.00    -0.237 OA
ATOM     97  O   UNL A   1      47.442  37.658  28.193  1.00  0.00    -0.237 OA
ATOM     98  O   UNL A   1      46.584  36.248  26.364  1.00  0.00    -0.744 OA
ENDBRANCH  91  95
ENDBRANCH  65  88
ENDBRANCH  39  40
ENDBRANCH  31  34
ENDBRANCH  29  30
ENDBRANCH  28  29
ENDBRANCH   1  28
TORSDOF 18
ENDMDL
