MODEL 1
REMARK VINA RESULT:     -13.4      0.000      0.000
REMARK SMILES Cn1c(=O)c(=O)n(C)c2cc(S(=O)(=O)N3CCC[C@H]3C(=O)NCCCNC(=O)c3ccc(-c4c5nc(c(-c6cc(S(=O)(=O)[O-])ccc6F)c6ccc([nH]6)c(-c6cc(S(=O)(=O)[O-])ccc6F)c6nc(c(-c7cc(S(=O)(=O)[O-])ccc7F)c7ccc4[nH]7)C=C6)C=C5)cc3)ccc21
REMARK SMILES IDX 24 1 23 2 22 3 20 4 21 5 19 7 15 8 16 9 17 10 18 11 12 12
REMARK SMILES IDX 13 13 14 14 11 15 1 16 2 17 3 18 94 19 4 20 5 21 9 22 93 23
REMARK SMILES IDX 6 24 7 25 10 26 92 27 8 28 25 29 26 30 27 31 28 33 29 34
REMARK SMILES IDX 30 35 91 36 31 37 90 38 32 39 33 40 34 41 84 42 35 43 89 44
REMARK SMILES IDX 83 45 85 46 36 47 88 48 82 49 81 50 37 52 69 53 49 54 68 55
REMARK SMILES IDX 50 56 53 57 67 58 86 59 51 60 52 61 66 63 87 64 54 65 38 66
REMARK SMILES IDX 39 67 47 68 40 69 46 70 48 71 45 72 41 73 42 74 43 75 44 76
REMARK SMILES IDX 70 77 71 78 79 79 72 80 78 81 80 82 77 83 73 84 74 85 75 86
REMARK SMILES IDX 76 87 55 88 56 89 64 90 57 91 63 92 65 93 62 94 58 95 59 96
REMARK SMILES IDX 60 97 61 98
REMARK H PARENT 22 6 26 32 85 51 53 62
REMARK Flexibility Score: inf
ROOT
ATOM      1  C   UNL A   1      31.416  29.490  27.360  1.00  0.00     0.042 C 
ENDROOT
BRANCH   1   2
ATOM      2  C   UNL A   1      31.991  28.094  27.579  1.00  0.00     0.117 C 
BRANCH   2   3
ATOM      3  N   UNL A   1      31.139  27.067  27.011  1.00  0.00    -0.355 N 
ATOM      4  C   UNL A   1      30.816  26.735  25.737  1.00  0.00     0.238 C 
ATOM      5  O   UNL A   1      29.905  25.902  25.618  1.00  0.00    -0.273 OA
ATOM      6  H   UNL A   1      30.708  26.496  27.687  1.00  0.00     0.163 HD
BRANCH   4   7
ATOM      7  C   UNL A   1      31.525  27.228  24.481  1.00  0.00     0.162 C 
ATOM      8  N   UNL A   1      31.874  26.315  23.383  1.00  0.00    -0.185 NA
ATOM      9  C   UNL A   1      31.000  26.514  22.225  1.00  0.00     0.103 C 
ATOM     10  C   UNL A   1      30.541  27.951  22.333  1.00  0.00     0.019 C 
ATOM     11  C   UNL A   1      30.592  28.272  23.818  1.00  0.00     0.032 C 
BRANCH   8  12
ATOM     12  S   UNL A   1      33.419  25.691  23.216  1.00  0.00     0.243 S 
ATOM     13  O   UNL A   1      34.243  26.329  24.216  1.00  0.00    -0.207 OA
ATOM     14  O   UNL A   1      33.755  25.738  21.811  1.00  0.00    -0.207 OA
BRANCH  12  15
ATOM     15  C   UNL A   1      33.398  23.959  23.618  1.00  0.00     0.084 A 
ATOM     16  C   UNL A   1      32.472  18.965  24.225  1.00  0.00     0.154 C 
ATOM     17  N   UNL A   1      33.659  19.797  24.344  1.00  0.00    -0.305 N 
ATOM     18  C   UNL A   1      34.860  19.171  24.671  1.00  0.00     0.316 A 
ATOM     19  C   UNL A   1      33.586  21.195  24.109  1.00  0.00     0.068 A 
ATOM     20  O   UNL A   1      34.955  17.963  24.881  1.00  0.00    -0.263 OA
ATOM     21  C   UNL A   1      36.119  20.040  24.777  1.00  0.00     0.316 A 
ATOM     22  C   UNL A   1      34.739  21.995  24.202  1.00  0.00     0.069 A 
ATOM     23  C   UNL A   1      32.362  21.798  23.769  1.00  0.00     0.030 A 
ATOM     24  O   UNL A   1      37.175  19.497  25.090  1.00  0.00    -0.263 OA
ATOM     25  N   UNL A   1      35.993  21.405  24.521  1.00  0.00    -0.305 N 
ATOM     26  C   UNL A   1      34.628  23.377  23.960  1.00  0.00     0.050 A 
ATOM     27  C   UNL A   1      32.267  23.168  23.523  1.00  0.00     0.024 A 
ATOM     28  C   UNL A   1      37.199  22.220  24.576  1.00  0.00     0.154 C 
ENDBRANCH  12  15
ENDBRANCH   8  12
ENDBRANCH   4   7
ENDBRANCH   2   3
ENDBRANCH   1   2
BRANCH   1  29
ATOM     29  C   UNL A   1      32.218  30.366  26.407  1.00  0.00     0.118 C 
BRANCH  29  30
ATOM     30  N   UNL A   1      32.100  31.789  26.693  1.00  0.00    -0.352 N 
ATOM     31  C   UNL A   1      32.943  32.618  27.398  1.00  0.00     0.251 C 
ATOM     32  H   UNL A   1      31.296  32.223  26.328  1.00  0.00     0.163 HD
ATOM     33  O   UNL A   1      32.584  33.767  27.644  1.00  0.00    -0.269 OA
BRANCH  31  34
ATOM     34  C   UNL A   1      34.252  32.125  27.888  1.00  0.00     0.039 A 
ATOM     35  C   UNL A   1      34.431  30.791  28.253  1.00  0.00     0.014 A 
ATOM     36  C   UNL A   1      35.321  33.021  27.989  1.00  0.00     0.014 A 
ATOM     37  C   UNL A   1      35.608  30.397  28.883  1.00  0.00     0.010 A 
ATOM     38  C   UNL A   1      36.538  32.600  28.540  1.00  0.00     0.010 A 
ATOM     39  C   UNL A   1      36.674  31.298  29.044  1.00  0.00    -0.014 A 
BRANCH  39  40
ATOM     40  C   UNL A   1      37.910  30.847  29.740  1.00  0.00     0.031 A 
ATOM     41  C   UNL A   1      38.185  31.250  31.166  1.00  0.00     0.074 A 
ATOM     42  C   UNL A   1      38.754  30.011  29.103  1.00  0.00     0.049 A 
ATOM     43  N   UNL A   1      39.177  30.894  31.943  1.00  0.00    -0.248 NA
ATOM     44  C   UNL A   1      37.232  32.174  31.802  1.00  0.00     0.031 C 
ATOM     45  C   UNL A   1      38.597  29.565  27.718  1.00  0.00     0.029 A 
ATOM     46  N   UNL A   1      39.886  29.362  29.533  1.00  0.00    -0.354 N 
ATOM     47  C   UNL A   1      38.977  31.558  33.148  1.00  0.00     0.074 A 
ATOM     48  C   UNL A   1      37.789  32.366  32.991  1.00  0.00     0.031 C 
ATOM     49  C   UNL A   1      39.553  28.671  27.433  1.00  0.00     0.029 A 
ATOM     50  C   UNL A   1      40.429  28.519  28.591  1.00  0.00     0.049 A 
ATOM     51  H   UNL A   1      40.271  29.488  30.431  1.00  0.00     0.167 HD
ATOM     52  C   UNL A   1      39.711  31.489  34.285  1.00  0.00     0.034 A 
ATOM     53  C   UNL A   1      41.508  27.709  28.649  1.00  0.00     0.034 A 
ATOM     54  C   UNL A   1      40.881  30.661  34.437  1.00  0.00     0.049 A 
ATOM     55  C   UNL A   1      42.281  27.620  29.939  1.00  0.00     0.074 A 
ATOM     56  C   UNL A   1      41.702  30.536  35.545  1.00  0.00     0.029 A 
ATOM     57  N   UNL A   1      41.382  29.802  33.470  1.00  0.00    -0.354 N 
ATOM     58  N   UNL A   1      42.059  28.238  31.075  1.00  0.00    -0.248 NA
ATOM     59  C   UNL A   1      43.441  26.718  29.967  1.00  0.00     0.031 C 
ATOM     60  C   UNL A   1      42.716  29.628  35.236  1.00  0.00     0.029 A 
ATOM     61  C   UNL A   1      42.497  29.143  33.957  1.00  0.00     0.049 A 
ATOM     62  H   UNL A   1      41.000  29.679  32.571  1.00  0.00     0.167 HD
ATOM     63  C   UNL A   1      43.036  27.784  31.956  1.00  0.00     0.074 A 
ATOM     64  C   UNL A   1      43.831  26.815  31.231  1.00  0.00     0.031 C 
ATOM     65  C   UNL A   1      43.259  28.148  33.243  1.00  0.00     0.034 A 
BRANCH  52  66
ATOM     66  C   UNL A   1      39.278  32.304  35.477  1.00  0.00     0.023 A 
ATOM     67  C   UNL A   1      39.736  33.626  35.634  1.00  0.00     0.031 A 
ATOM     68  C   UNL A   1      38.534  31.729  36.522  1.00  0.00     0.131 A 
ATOM     69  C   UNL A   1      39.477  34.315  36.825  1.00  0.00     0.055 A 
ATOM     70  C   UNL A   1      38.247  32.433  37.692  1.00  0.00     0.041 A 
ATOM     71  F   UNL A   1      38.072  30.472  36.418  1.00  0.00    -0.206 F 
ATOM     72  C   UNL A   1      38.730  33.729  37.852  1.00  0.00     0.022 A 
BRANCH  69  73
ATOM     73  S   UNL A   1      40.143  35.978  37.110  1.00  0.00     0.124 S 
ATOM     74  O   UNL A   1      39.436  36.382  38.325  1.00  0.00    -0.237 OA
ATOM     75  O   UNL A   1      41.569  35.711  37.278  1.00  0.00    -0.237 OA
ATOM     76  O   UNL A   1      39.775  36.715  35.907  1.00  0.00    -0.744 OA
ENDBRANCH  69  73
ENDBRANCH  52  66
BRANCH  53  77
ATOM     77  C   UNL A   1      41.859  26.882  27.457  1.00  0.00     0.023 A 
ATOM     78  C   UNL A   1      41.521  25.517  27.401  1.00  0.00     0.031 A 
ATOM     79  C   UNL A   1      42.629  27.413  26.409  1.00  0.00     0.131 A 
ATOM     80  C   UNL A   1      42.008  24.718  26.357  1.00  0.00     0.055 A 
ATOM     81  C   UNL A   1      43.051  26.630  25.333  1.00  0.00     0.041 A 
ATOM     82  F   UNL A   1      42.992  28.706  26.424  1.00  0.00    -0.206 F 
ATOM     83  C   UNL A   1      42.758  25.271  25.314  1.00  0.00     0.022 A 
BRANCH  80  84
ATOM     84  S   UNL A   1      41.819  22.914  26.408  1.00  0.00     0.124 S 
ATOM     85  O   UNL A   1      40.368  22.761  26.407  1.00  0.00    -0.237 OA
ATOM     86  O   UNL A   1      42.498  22.502  25.181  1.00  0.00    -0.237 OA
ATOM     87  O   UNL A   1      42.497  22.534  27.643  1.00  0.00    -0.744 OA
ENDBRANCH  80  84
ENDBRANCH  53  77
BRANCH  65  88
ATOM     88  C   UNL A   1      44.393  27.495  33.994  1.00  0.00     0.023 A 
ATOM     89  C   UNL A   1      44.145  26.366  34.796  1.00  0.00     0.031 A 
ATOM     90  C   UNL A   1      45.670  28.079  34.040  1.00  0.00     0.131 A 
ATOM     91  C   UNL A   1      45.152  25.872  35.634  1.00  0.00     0.055 A 
ATOM     92  C   UNL A   1      46.683  27.561  34.849  1.00  0.00     0.041 A 
ATOM     93  F   UNL A   1      45.949  29.168  33.304  1.00  0.00    -0.206 F 
ATOM     94  C   UNL A   1      46.421  26.461  35.661  1.00  0.00     0.022 A 
BRANCH  91  95
ATOM     95  S   UNL A   1      44.830  24.505  36.783  1.00  0.00     0.124 S 
ATOM     96  O   UNL A   1      46.139  24.322  37.406  1.00  0.00    -0.237 OA
ATOM     97  O   UNL A   1      43.800  25.067  37.651  1.00  0.00    -0.237 OA
ATOM     98  O   UNL A   1      44.394  23.413  35.919  1.00  0.00    -0.744 OA
ENDBRANCH  91  95
ENDBRANCH  65  88
ENDBRANCH  39  40
ENDBRANCH  31  34
ENDBRANCH  29  30
ENDBRANCH   1  29
TORSDOF 15
ENDMDL
MODEL 2
REMARK VINA RESULT:     -13.3      1.633      2.155
REMARK SMILES Cn1c(=O)c(=O)n(C)c2cc(S(=O)(=O)N3CCC[C@H]3C(=O)NCCCNC(=O)c3ccc(-c4c5nc(c(-c6cc(S(=O)(=O)[O-])ccc6F)c6ccc([nH]6)c(-c6cc(S(=O)(=O)[O-])ccc6F)c6nc(c(-c7cc(S(=O)(=O)[O-])ccc7F)c7ccc4[nH]7)C=C6)C=C5)cc3)ccc21
REMARK SMILES IDX 24 1 23 2 22 3 20 4 21 5 19 7 15 8 16 9 17 10 18 11 12 12
REMARK SMILES IDX 13 13 14 14 11 15 1 16 2 17 3 18 94 19 4 20 5 21 9 22 93 23
REMARK SMILES IDX 6 24 7 25 10 26 92 27 8 28 25 29 26 30 27 31 28 33 29 34
REMARK SMILES IDX 30 35 91 36 31 37 90 38 32 39 33 40 34 41 84 42 35 43 89 44
REMARK SMILES IDX 83 45 85 46 36 47 88 48 82 49 81 50 37 52 69 53 49 54 68 55
REMARK SMILES IDX 50 56 53 57 67 58 86 59 51 60 52 61 66 63 87 64 54 65 38 66
REMARK SMILES IDX 39 67 47 68 40 69 46 70 48 71 45 72 41 73 42 74 43 75 44 76
REMARK SMILES IDX 70 77 71 78 79 79 72 80 78 81 80 82 77 83 73 84 74 85 75 86
REMARK SMILES IDX 76 87 55 88 56 89 64 90 57 91 63 92 65 93 62 94 58 95 59 96
REMARK SMILES IDX 60 97 61 98
REMARK H PARENT 22 6 26 32 85 51 53 62
REMARK Flexibility Score: inf
ROOT
ATOM      1  C   UNL A   1      31.403  29.490  25.759  1.00  0.00     0.042 C 
ENDROOT
BRANCH   1   2
ATOM      2  C   UNL A   1      31.104  29.482  24.264  1.00  0.00     0.117 C 
BRANCH   2   3
ATOM      3  N   UNL A   1      32.312  29.323  23.475  1.00  0.00    -0.355 N 
ATOM      4  C   UNL A   1      33.096  28.254  23.193  1.00  0.00     0.238 C 
ATOM      5  O   UNL A   1      34.167  28.514  22.624  1.00  0.00    -0.273 OA
ATOM      6  H   UNL A   1      32.625  30.160  23.063  1.00  0.00     0.163 HD
BRANCH   4   7
ATOM      7  C   UNL A   1      32.732  26.793  23.436  1.00  0.00     0.162 C 
ATOM      8  N   UNL A   1      31.811  26.395  24.509  1.00  0.00    -0.185 NA
ATOM      9  C   UNL A   1      30.510  25.991  23.973  1.00  0.00     0.103 C 
ATOM     10  C   UNL A   1      30.805  25.515  22.569  1.00  0.00     0.019 C 
ATOM     11  C   UNL A   1      32.049  26.279  22.145  1.00  0.00     0.032 C 
BRANCH   8  12
ATOM     12  S   UNL A   1      32.370  25.819  25.979  1.00  0.00     0.243 S 
ATOM     13  O   UNL A   1      31.229  25.729  26.860  1.00  0.00    -0.207 OA
ATOM     14  O   UNL A   1      33.542  26.589  26.329  1.00  0.00    -0.207 OA
BRANCH  12  15
ATOM     15  C   UNL A   1      32.969  24.158  25.767  1.00  0.00     0.084 A 
ATOM     16  C   UNL A   1      33.781  19.218  24.717  1.00  0.00     0.154 C 
ATOM     17  N   UNL A   1      34.649  20.347  25.010  1.00  0.00    -0.305 N 
ATOM     18  C   UNL A   1      36.025  20.127  25.001  1.00  0.00     0.316 A 
ATOM     19  C   UNL A   1      34.100  21.630  25.272  1.00  0.00     0.068 A 
ATOM     20  O   UNL A   1      36.530  19.029  24.779  1.00  0.00    -0.263 OA
ATOM     21  C   UNL A   1      36.946  21.319  25.289  1.00  0.00     0.316 A 
ATOM     22  C   UNL A   1      34.941  22.726  25.532  1.00  0.00     0.069 A 
ATOM     23  C   UNL A   1      32.707  21.824  25.262  1.00  0.00     0.030 A 
ATOM     24  O   UNL A   1      38.158  21.126  25.307  1.00  0.00    -0.263 OA
ATOM     25  N   UNL A   1      36.353  22.560  25.524  1.00  0.00    -0.305 N 
ATOM     26  C   UNL A   1      34.361  23.983  25.785  1.00  0.00     0.050 A 
ATOM     27  C   UNL A   1      32.144  23.078  25.506  1.00  0.00     0.024 A 
ATOM     28  C   UNL A   1      37.233  23.699  25.750  1.00  0.00     0.154 C 
ENDBRANCH  12  15
ENDBRANCH   8  12
ENDBRANCH   4   7
ENDBRANCH   2   3
ENDBRANCH   1   2
BRANCH   1  29
ATOM     29  C   UNL A   1      32.693  30.203  26.145  1.00  0.00     0.118 C 
BRANCH  29  30
ATOM     30  N   UNL A   1      32.482  31.567  26.609  1.00  0.00    -0.352 N 
ATOM     31  C   UNL A   1      33.245  32.338  27.456  1.00  0.00     0.251 C 
ATOM     32  H   UNL A   1      31.670  32.004  26.265  1.00  0.00     0.163 HD
ATOM     33  O   UNL A   1      32.811  33.424  27.831  1.00  0.00    -0.269 OA
BRANCH  31  34
ATOM     34  C   UNL A   1      34.559  31.852  27.940  1.00  0.00     0.039 A 
ATOM     35  C   UNL A   1      34.738  30.527  28.337  1.00  0.00     0.014 A 
ATOM     36  C   UNL A   1      35.633  32.746  28.003  1.00  0.00     0.014 A 
ATOM     37  C   UNL A   1      35.923  30.145  28.960  1.00  0.00     0.010 A 
ATOM     38  C   UNL A   1      36.856  32.335  28.548  1.00  0.00     0.010 A 
ATOM     39  C   UNL A   1      36.994  31.045  29.083  1.00  0.00    -0.014 A 
BRANCH  39  40
ATOM     40  C   UNL A   1      38.238  30.607  29.773  1.00  0.00     0.031 A 
ATOM     41  C   UNL A   1      38.524  31.028  31.192  1.00  0.00     0.074 A 
ATOM     42  C   UNL A   1      39.080  29.766  29.139  1.00  0.00     0.049 A 
ATOM     43  N   UNL A   1      39.524  30.686  31.964  1.00  0.00    -0.248 NA
ATOM     44  C   UNL A   1      37.575  31.957  31.825  1.00  0.00     0.031 C 
ATOM     45  C   UNL A   1      38.911  29.303  27.761  1.00  0.00     0.029 A 
ATOM     46  N   UNL A   1      40.217  29.126  29.567  1.00  0.00    -0.354 N 
ATOM     47  C   UNL A   1      39.334  31.364  33.162  1.00  0.00     0.074 A 
ATOM     48  C   UNL A   1      38.141  32.166  33.006  1.00  0.00     0.031 C 
ATOM     49  C   UNL A   1      39.868  28.409  27.478  1.00  0.00     0.029 A 
ATOM     50  C   UNL A   1      40.755  28.274  28.630  1.00  0.00     0.049 A 
ATOM     51  H   UNL A   1      40.610  29.265  30.459  1.00  0.00     0.167 HD
ATOM     52  C   UNL A   1      40.079  31.311  34.293  1.00  0.00     0.034 A 
ATOM     53  C   UNL A   1      41.837  27.469  28.688  1.00  0.00     0.034 A 
ATOM     54  C   UNL A   1      41.253  30.490  34.445  1.00  0.00     0.049 A 
ATOM     55  C   UNL A   1      42.622  27.398  29.972  1.00  0.00     0.074 A 
ATOM     56  C   UNL A   1      42.084  30.381  35.547  1.00  0.00     0.029 A 
ATOM     57  N   UNL A   1      41.747  29.621  33.484  1.00  0.00    -0.354 N 
ATOM     58  N   UNL A   1      42.409  28.029  31.103  1.00  0.00    -0.248 NA
ATOM     59  C   UNL A   1      43.786  26.500  30.001  1.00  0.00     0.031 C 
ATOM     60  C   UNL A   1      43.099  29.473  35.240  1.00  0.00     0.029 A 
ATOM     61  C   UNL A   1      42.869  28.971  33.969  1.00  0.00     0.049 A 
ATOM     62  H   UNL A   1      41.358  29.485  32.590  1.00  0.00     0.167 HD
ATOM     63  C   UNL A   1      43.395  27.589  31.980  1.00  0.00     0.074 A 
ATOM     64  C   UNL A   1      44.187  26.615  31.260  1.00  0.00     0.031 C 
ATOM     65  C   UNL A   1      43.628  27.970  33.260  1.00  0.00     0.034 A 
BRANCH  52  66
ATOM     66  C   UNL A   1      39.653  32.139  35.480  1.00  0.00     0.023 A 
ATOM     67  C   UNL A   1      38.850  31.571  36.487  1.00  0.00     0.031 A 
ATOM     68  C   UNL A   1      39.923  33.518  35.541  1.00  0.00     0.131 A 
ATOM     69  C   UNL A   1      38.314  32.386  37.490  1.00  0.00     0.055 A 
ATOM     70  C   UNL A   1      39.415  34.319  36.565  1.00  0.00     0.041 A 
ATOM     71  F   UNL A   1      40.687  34.105  34.606  1.00  0.00    -0.206 F 
ATOM     72  C   UNL A   1      38.596  33.756  37.539  1.00  0.00     0.022 A 
BRANCH  69  73
ATOM     73  S   UNL A   1      37.185  31.714  38.741  1.00  0.00     0.124 S 
ATOM     74  O   UNL A   1      37.028  30.331  38.294  1.00  0.00    -0.237 OA
ATOM     75  O   UNL A   1      37.953  31.888  39.971  1.00  0.00    -0.237 OA
ATOM     76  O   UNL A   1      35.990  32.542  38.618  1.00  0.00    -0.744 OA
ENDBRANCH  69  73
ENDBRANCH  52  66
BRANCH  53  77
ATOM     77  C   UNL A   1      42.180  26.628  27.503  1.00  0.00     0.023 A 
ATOM     78  C   UNL A   1      41.813  25.270  27.451  1.00  0.00     0.031 A 
ATOM     79  C   UNL A   1      42.971  27.137  26.460  1.00  0.00     0.131 A 
ATOM     80  C   UNL A   1      42.292  24.456  26.415  1.00  0.00     0.055 A 
ATOM     81  C   UNL A   1      43.384  26.339  25.391  1.00  0.00     0.041 A 
ATOM     82  F   UNL A   1      43.362  28.421  26.471  1.00  0.00    -0.206 F 
ATOM     83  C   UNL A   1      43.062  24.987  25.376  1.00  0.00     0.022 A 
BRANCH  80  84
ATOM     84  S   UNL A   1      42.063  22.656  26.473  1.00  0.00     0.124 S 
ATOM     85  O   UNL A   1      42.870  22.286  27.631  1.00  0.00    -0.237 OA
ATOM     86  O   UNL A   1      40.617  22.539  26.648  1.00  0.00    -0.237 OA
ATOM     87  O   UNL A   1      42.565  22.206  25.179  1.00  0.00    -0.744 OA
ENDBRANCH  80  84
ENDBRANCH  53  77
BRANCH  65  88
ATOM     88  C   UNL A   1      44.772  27.331  34.009  1.00  0.00     0.023 A 
ATOM     89  C   UNL A   1      44.546  26.175  34.779  1.00  0.00     0.031 A 
ATOM     90  C   UNL A   1      46.031  27.949  34.085  1.00  0.00     0.131 A 
ATOM     91  C   UNL A   1      45.557  25.688  35.617  1.00  0.00     0.055 A 
ATOM     92  C   UNL A   1      47.048  27.440  34.894  1.00  0.00     0.041 A 
ATOM     93  F   UNL A   1      46.288  29.064  33.381  1.00  0.00    -0.206 F 
ATOM     94  C   UNL A   1      46.808  26.312  35.675  1.00  0.00     0.022 A 
BRANCH  91  95
ATOM     95  S   UNL A   1      45.261  24.284  36.727  1.00  0.00     0.124 S 
ATOM     96  O   UNL A   1      44.490  23.384  35.873  1.00  0.00    -0.237 OA
ATOM     97  O   UNL A   1      46.619  23.841  37.034  1.00  0.00    -0.237 OA
ATOM     98  O   UNL A   1      44.525  24.866  37.844  1.00  0.00    -0.744 OA
ENDBRANCH  91  95
ENDBRANCH  65  88
ENDBRANCH  39  40
ENDBRANCH  31  34
ENDBRANCH  29  30
ENDBRANCH   1  29
TORSDOF 15
ENDMDL
MODEL 3
REMARK VINA RESULT:     -13.3      4.787     10.312
REMARK SMILES Cn1c(=O)c(=O)n(C)c2cc(S(=O)(=O)N3CCC[C@H]3C(=O)NCCCNC(=O)c3ccc(-c4c5nc(c(-c6cc(S(=O)(=O)[O-])ccc6F)c6ccc([nH]6)c(-c6cc(S(=O)(=O)[O-])ccc6F)c6nc(c(-c7cc(S(=O)(=O)[O-])ccc7F)c7ccc4[nH]7)C=C6)C=C5)cc3)ccc21
REMARK SMILES IDX 24 1 23 2 22 3 20 4 21 5 19 7 15 8 16 9 17 10 18 11 12 12
REMARK SMILES IDX 13 13 14 14 11 15 1 16 2 17 3 18 94 19 4 20 5 21 9 22 93 23
REMARK SMILES IDX 6 24 7 25 10 26 92 27 8 28 25 29 26 30 27 31 28 33 29 34
REMARK SMILES IDX 30 35 91 36 31 37 90 38 32 39 33 40 34 41 84 42 35 43 89 44
REMARK SMILES IDX 83 45 85 46 36 47 88 48 82 49 81 50 37 52 69 53 49 54 68 55
REMARK SMILES IDX 50 56 53 57 67 58 86 59 51 60 52 61 66 63 87 64 54 65 38 66
REMARK SMILES IDX 39 67 47 68 40 69 46 70 48 71 45 72 41 73 42 74 43 75 44 76
REMARK SMILES IDX 70 77 71 78 79 79 72 80 78 81 80 82 77 83 73 84 74 85 75 86
REMARK SMILES IDX 76 87 55 88 56 89 64 90 57 91 63 92 65 93 62 94 58 95 59 96
REMARK SMILES IDX 60 97 61 98
REMARK H PARENT 22 6 26 32 85 51 53 62
REMARK Flexibility Score: inf
ROOT
ATOM      1  C   UNL A   1      36.093  21.281  24.630  1.00  0.00     0.042 C 
ENDROOT
BRANCH   1   2
ATOM      2  C   UNL A   1      35.155  21.124  25.822  1.00  0.00     0.117 C 
BRANCH   2   3
ATOM      3  N   UNL A   1      34.277  19.979  25.667  1.00  0.00    -0.355 N 
ATOM      4  C   UNL A   1      32.981  19.853  25.290  1.00  0.00     0.238 C 
ATOM      5  O   UNL A   1      32.489  18.724  25.441  1.00  0.00    -0.273 OA
ATOM      6  H   UNL A   1      34.710  19.121  25.879  1.00  0.00     0.163 HD
BRANCH   4   7
ATOM      7  C   UNL A   1      32.134  20.938  24.634  1.00  0.00     0.162 C 
ATOM      8  N   UNL A   1      32.416  22.366  24.839  1.00  0.00    -0.185 NA
ATOM      9  C   UNL A   1      33.011  22.969  23.645  1.00  0.00     0.103 C 
ATOM     10  C   UNL A   1      32.517  22.117  22.497  1.00  0.00     0.019 C 
ATOM     11  C   UNL A   1      32.264  20.745  23.103  1.00  0.00     0.032 C 
BRANCH   8  12
ATOM     12  S   UNL A   1      31.555  23.282  25.945  1.00  0.00     0.243 S 
ATOM     13  O   UNL A   1      32.459  23.601  27.025  1.00  0.00    -0.207 OA
ATOM     14  O   UNL A   1      30.298  22.607  26.180  1.00  0.00    -0.207 OA
BRANCH  12  15
ATOM     15  C   UNL A   1      31.102  24.831  25.198  1.00  0.00     0.084 A 
ATOM     16  C   UNL A   1      28.988  28.765  22.705  1.00  0.00     0.154 C 
ATOM     17  N   UNL A   1      29.962  28.652  23.778  1.00  0.00    -0.305 N 
ATOM     18  C   UNL A   1      30.467  29.831  24.323  1.00  0.00     0.316 A 
ATOM     19  C   UNL A   1      30.359  27.377  24.261  1.00  0.00     0.068 A 
ATOM     20  O   UNL A   1      30.144  30.949  23.926  1.00  0.00    -0.263 OA
ATOM     21  C   UNL A   1      31.480  29.718  25.469  1.00  0.00     0.316 A 
ATOM     22  C   UNL A   1      31.283  27.270  25.315  1.00  0.00     0.069 A 
ATOM     23  C   UNL A   1      29.823  26.204  23.700  1.00  0.00     0.030 A 
ATOM     24  O   UNL A   1      31.946  30.754  25.936  1.00  0.00    -0.263 OA
ATOM     25  N   UNL A   1      31.821  28.441  25.914  1.00  0.00    -0.305 N 
ATOM     26  C   UNL A   1      31.651  25.990  25.768  1.00  0.00     0.050 A 
ATOM     27  C   UNL A   1      30.189  24.941  24.165  1.00  0.00     0.024 A 
ATOM     28  C   UNL A   1      32.747  28.340  27.035  1.00  0.00     0.154 C 
ENDBRANCH  12  15
ENDBRANCH   8  12
ENDBRANCH   4   7
ENDBRANCH   2   3
ENDBRANCH   1   2
BRANCH   1  29
ATOM     29  C   UNL A   1      37.480  21.807  24.978  1.00  0.00     0.118 C 
BRANCH  29  30
ATOM     30  N   UNL A   1      38.399  20.766  25.416  1.00  0.00    -0.352 N 
ATOM     31  C   UNL A   1      39.567  20.869  26.136  1.00  0.00     0.251 C 
ATOM     32  H   UNL A   1      38.146  19.851  25.158  1.00  0.00     0.163 HD
ATOM     33  O   UNL A   1      40.271  19.872  26.281  1.00  0.00    -0.269 OA
BRANCH  31  34
ATOM     34  C   UNL A   1      39.995  22.171  26.701  1.00  0.00     0.039 A 
ATOM     35  C   UNL A   1      39.486  23.374  26.210  1.00  0.00     0.014 A 
ATOM     36  C   UNL A   1      40.929  22.187  27.741  1.00  0.00     0.014 A 
ATOM     37  C   UNL A   1      40.040  24.581  26.626  1.00  0.00     0.010 A 
ATOM     38  C   UNL A   1      41.419  23.406  28.224  1.00  0.00     0.010 A 
ATOM     39  C   UNL A   1      41.020  24.614  27.631  1.00  0.00    -0.014 A 
BRANCH  39  40
ATOM     40  C   UNL A   1      41.603  25.922  28.037  1.00  0.00     0.031 A 
ATOM     41  C   UNL A   1      42.996  26.312  27.614  1.00  0.00     0.074 A 
ATOM     42  C   UNL A   1      40.843  26.792  28.732  1.00  0.00     0.049 A 
ATOM     43  N   UNL A   1      43.633  27.437  27.823  1.00  0.00    -0.248 NA
ATOM     44  C   UNL A   1      43.779  25.315  26.868  1.00  0.00     0.031 C 
ATOM     45  C   UNL A   1      39.487  26.518  29.207  1.00  0.00     0.029 A 
ATOM     46  N   UNL A   1      41.079  28.085  29.133  1.00  0.00    -0.354 N 
ATOM     47  C   UNL A   1      44.889  27.278  27.251  1.00  0.00     0.074 A 
ATOM     48  C   UNL A   1      44.940  25.936  26.715  1.00  0.00     0.031 C 
ATOM     49  C   UNL A   1      38.988  27.623  29.777  1.00  0.00     0.029 A 
ATOM     50  C   UNL A   1      40.005  28.671  29.762  1.00  0.00     0.049 A 
ATOM     51  H   UNL A   1      41.935  28.547  28.984  1.00  0.00     0.167 HD
ATOM     52  C   UNL A   1      45.902  28.175  27.169  1.00  0.00     0.034 A 
ATOM     53  C   UNL A   1      39.848  29.913  30.269  1.00  0.00     0.034 A 
ATOM     54  C   UNL A   1      45.831  29.517  27.687  1.00  0.00     0.049 A 
ATOM     55  C   UNL A   1      40.976  30.902  30.126  1.00  0.00     0.074 A 
ATOM     56  C   UNL A   1      46.811  30.495  27.667  1.00  0.00     0.029 A 
ATOM     57  N   UNL A   1      44.717  30.081  28.291  1.00  0.00    -0.354 N 
ATOM     58  N   UNL A   1      42.147  30.739  29.558  1.00  0.00    -0.248 NA
ATOM     59  C   UNL A   1      40.763  32.248  30.677  1.00  0.00     0.031 C 
ATOM     60  C   UNL A   1      46.302  31.637  28.289  1.00  0.00     0.029 A 
ATOM     61  C   UNL A   1      44.985  31.392  28.645  1.00  0.00     0.049 A 
ATOM     62  H   UNL A   1      43.862  29.618  28.445  1.00  0.00     0.167 HD
ATOM     63  C   UNL A   1      42.800  31.963  29.664  1.00  0.00     0.074 A 
ATOM     64  C   UNL A   1      41.881  32.867  30.323  1.00  0.00     0.031 C 
ATOM     65  C   UNL A   1      44.050  32.299  29.263  1.00  0.00     0.034 A 
BRANCH  52  66
ATOM     66  C   UNL A   1      47.178  27.765  26.478  1.00  0.00     0.023 A 
ATOM     67  C   UNL A   1      47.322  27.951  25.090  1.00  0.00     0.031 A 
ATOM     68  C   UNL A   1      48.187  27.066  27.164  1.00  0.00     0.131 A 
ATOM     69  C   UNL A   1      48.430  27.410  24.427  1.00  0.00     0.055 A 
ATOM     70  C   UNL A   1      49.308  26.561  26.504  1.00  0.00     0.041 A 
ATOM     71  F   UNL A   1      48.097  26.867  28.489  1.00  0.00    -0.206 F 
ATOM     72  C   UNL A   1      49.427  26.722  25.126  1.00  0.00     0.022 A 
BRANCH  69  73
ATOM     73  S   UNL A   1      48.596  27.532  22.624  1.00  0.00     0.124 S 
ATOM     74  O   UNL A   1      48.630  26.124  22.229  1.00  0.00    -0.237 OA
ATOM     75  O   UNL A   1      47.381  28.254  22.254  1.00  0.00    -0.237 OA
ATOM     76  O   UNL A   1      49.847  28.257  22.435  1.00  0.00    -0.744 OA
ENDBRANCH  69  73
ENDBRANCH  52  66
BRANCH  53  77
ATOM     77  C   UNL A   1      38.544  30.284  30.891  1.00  0.00     0.023 A 
ATOM     78  C   UNL A   1      37.539  30.922  30.140  1.00  0.00     0.031 A 
ATOM     79  C   UNL A   1      38.323  30.106  32.268  1.00  0.00     0.131 A 
ATOM     80  C   UNL A   1      36.395  31.416  30.780  1.00  0.00     0.055 A 
ATOM     81  C   UNL A   1      37.148  30.535  32.888  1.00  0.00     0.041 A 
ATOM     82  F   UNL A   1      39.257  29.518  33.032  1.00  0.00    -0.206 F 
ATOM     83  C   UNL A   1      36.186  31.213  32.147  1.00  0.00     0.022 A 
BRANCH  80  84
ATOM     84  S   UNL A   1      35.223  32.478  29.888  1.00  0.00     0.124 S 
ATOM     85  O   UNL A   1      34.274  32.830  30.938  1.00  0.00    -0.237 OA
ATOM     86  O   UNL A   1      36.086  33.563  29.427  1.00  0.00    -0.237 OA
ATOM     87  O   UNL A   1      34.710  31.609  28.833  1.00  0.00    -0.744 OA
ENDBRANCH  80  84
ENDBRANCH  53  77
BRANCH  65  88
ATOM     88  C   UNL A   1      44.528  33.713  29.491  1.00  0.00     0.023 A 
ATOM     89  C   UNL A   1      44.425  34.662  28.457  1.00  0.00     0.031 A 
ATOM     90  C   UNL A   1      45.220  34.071  30.660  1.00  0.00     0.131 A 
ATOM     91  C   UNL A   1      45.031  35.917  28.601  1.00  0.00     0.055 A 
ATOM     92  C   UNL A   1      45.791  35.335  30.814  1.00  0.00     0.041 A 
ATOM     93  F   UNL A   1      45.358  33.192  31.667  1.00  0.00    -0.206 F 
ATOM     94  C   UNL A   1      45.709  36.260  29.775  1.00  0.00     0.022 A 
BRANCH  91  95
ATOM     95  S   UNL A   1      45.038  37.117  27.240  1.00  0.00     0.124 S 
ATOM     96  O   UNL A   1      43.621  37.190  26.896  1.00  0.00    -0.237 OA
ATOM     97  O   UNL A   1      45.586  38.308  27.882  1.00  0.00    -0.237 OA
ATOM     98  O   UNL A   1      45.893  36.500  26.231  1.00  0.00    -0.744 OA
ENDBRANCH  91  95
ENDBRANCH  65  88
ENDBRANCH  39  40
ENDBRANCH  31  34
ENDBRANCH  29  30
ENDBRANCH   1  29
TORSDOF 15
ENDMDL
