MODEL 1
REMARK VINA RESULT:     -12.3      0.000      0.000
REMARK SMILES COc1ccc([C@@H]2C(C#N)=C(N)N3C(=O)[C@H](CC(=O)NCCCNC(=O)c4ccc(-c5c6nc(c(-c7cc(S(=O)(=O)[O-])ccc7F)c7ccc([nH]7)c(-c7cc(S(=O)(=O)[O-])ccc7F)c7nc(c(-c8cc(S(=O)(=O)[O-])ccc8F)c8ccc5[nH]8)C=C7)C=C6)cc4)SC3=C2C#N)cc1
REMARK SMILES IDX 22 1 21 2 20 3 18 4 19 5 17 7 16 8 7 9 8 10 92 11 11 12
REMARK SMILES IDX 91 13 13 14 90 15 14 16 15 17 6 18 3 19 4 20 96 21 5 22
REMARK SMILES IDX 95 23 2 24 1 25 9 26 10 27 93 28 94 29 12 30 23 33 24 34
REMARK SMILES IDX 25 35 26 37 27 38 28 39 89 40 29 41 88 42 30 43 31 44 32 45
REMARK SMILES IDX 82 46 33 47 87 48 81 49 83 50 34 51 86 52 80 53 79 54 35 56
REMARK SMILES IDX 67 57 47 58 66 59 48 60 51 61 65 62 84 63 49 64 50 65 64 67
REMARK SMILES IDX 85 68 52 69 36 70 37 71 45 72 38 73 44 74 46 75 43 76 39 77
REMARK SMILES IDX 40 78 41 79 42 80 68 81 69 82 77 83 70 84 76 85 78 86 75 87
REMARK SMILES IDX 71 88 72 89 73 90 74 91 53 92 54 93 62 94 55 95 61 96 63 97
REMARK SMILES IDX 60 98 56 99 57 100 58 101 59 102
REMARK H PARENT 20 6 12 31 12 32 24 36 83 55 51 66
REMARK Flexibility Score: inf
ROOT
ATOM      1  C   UNL A   1      30.931  31.835  25.825  1.00  0.00     0.042 C 
ENDROOT
BRANCH   1   2
ATOM      2  C   UNL A   1      30.935  30.454  25.171  1.00  0.00     0.117 C 
BRANCH   2   3
ATOM      3  N   UNL A   1      30.364  30.473  23.832  1.00  0.00    -0.356 N 
ATOM      4  C   UNL A   1      30.039  29.457  22.985  1.00  0.00     0.221 C 
ATOM      5  O   UNL A   1      29.663  29.740  21.847  1.00  0.00    -0.275 OA
ATOM      6  H   UNL A   1      30.183  31.373  23.477  1.00  0.00     0.163 HD
BRANCH   4   7
ATOM      7  C   UNL A   1      30.103  28.010  23.434  1.00  0.00     0.125 C 
BRANCH   7   8
ATOM      8  C   UNL A   1      31.534  27.489  23.417  1.00  0.00     0.152 C 
ATOM      9  C   UNL A   1      33.494  23.197  24.750  1.00  0.00     0.107 C 
ATOM     10  C   UNL A   1      32.794  23.684  26.003  1.00  0.00     0.083 C 
ATOM     11  C   UNL A   1      32.980  23.882  23.491  1.00  0.00     0.073 C 
ATOM     12  C   UNL A   1      32.077  24.833  26.000  1.00  0.00     0.126 C 
ATOM     13  C   UNL A   1      32.261  25.006  23.614  1.00  0.00     0.099 C 
ATOM     14  N   UNL A   1      32.008  25.588  24.829  1.00  0.00    -0.258 N 
ATOM     15  S   UNL A   1      31.718  26.026  22.319  1.00  0.00    -0.093 SA
ATOM     16  C   UNL A   1      31.948  26.974  24.779  1.00  0.00     0.247 C 
ATOM     17  O   UNL A   1      32.292  27.729  25.677  1.00  0.00    -0.273 OA
BRANCH   9  18
ATOM     18  C   UNL A   1      33.430  21.685  24.603  1.00  0.00    -0.034 A 
ATOM     19  C   UNL A   1      33.401  18.917  24.183  1.00  0.00     0.118 A 
ATOM     20  C   UNL A   1      34.555  19.543  24.651  1.00  0.00     0.047 A 
ATOM     21  C   UNL A   1      32.243  19.667  23.975  1.00  0.00     0.047 A 
ATOM     22  C   UNL A   1      34.577  20.920  24.857  1.00  0.00     0.008 A 
ATOM     23  C   UNL A   1      32.255  21.044  24.185  1.00  0.00     0.008 A 
BRANCH  19  24
ATOM     24  O   UNL A   1      33.503  17.567  23.997  1.00  0.00    -0.497 OA
ATOM     25  C   UNL A   1      32.956  16.767  25.037  1.00  0.00     0.278 C 
ENDBRANCH  19  24
ENDBRANCH   9  18
BRANCH  10  26
ATOM     26  C   UNL A   1      32.922  22.919  27.204  1.00  0.00     0.100 C 
ATOM     27  N   UNL A   1      32.967  22.297  28.182  1.00  0.00    -0.193 NA
ENDBRANCH  10  26
BRANCH  11  28
ATOM     28  C   UNL A   1      33.391  23.401  22.215  1.00  0.00     0.098 C 
ATOM     29  N   UNL A   1      33.707  23.011  21.167  1.00  0.00    -0.193 NA
ENDBRANCH  11  28
BRANCH  12  30
ATOM     30  N   UNL A   1      31.372  25.227  27.108  1.00  0.00    -0.384 N 
ATOM     31  H   UNL A   1      31.831  25.698  27.842  1.00  0.00     0.158 HD
ATOM     32  H   UNL A   1      30.408  25.041  27.171  1.00  0.00     0.158 HD
ENDBRANCH  12  30
ENDBRANCH   7   8
ENDBRANCH   4   7
ENDBRANCH   2   3
ENDBRANCH   1   2
BRANCH   1  33
ATOM     33  C   UNL A   1      32.021  32.070  26.845  1.00  0.00     0.118 C 
BRANCH  33  34
ATOM     34  N   UNL A   1      32.173  33.482  27.130  1.00  0.00    -0.352 N 
ATOM     35  C   UNL A   1      33.009  34.124  28.013  1.00  0.00     0.251 C 
ATOM     36  H   UNL A   1      31.584  34.076  26.609  1.00  0.00     0.163 HD
ATOM     37  O   UNL A   1      32.735  35.280  28.329  1.00  0.00    -0.269 OA
BRANCH  35  38
ATOM     38  C   UNL A   1      34.191  33.450  28.613  1.00  0.00     0.039 A 
ATOM     39  C   UNL A   1      35.403  34.147  28.658  1.00  0.00     0.014 A 
ATOM     40  C   UNL A   1      34.152  32.134  29.079  1.00  0.00     0.014 A 
ATOM     41  C   UNL A   1      36.540  33.551  29.215  1.00  0.00     0.010 A 
ATOM     42  C   UNL A   1      35.251  31.584  29.742  1.00  0.00     0.010 A 
ATOM     43  C   UNL A   1      36.464  32.280  29.808  1.00  0.00    -0.014 A 
BRANCH  43  44
ATOM     44  C   UNL A   1      37.641  31.677  30.494  1.00  0.00     0.031 A 
ATOM     45  C   UNL A   1      38.485  30.638  29.802  1.00  0.00     0.074 A 
ATOM     46  C   UNL A   1      37.924  32.037  31.763  1.00  0.00     0.049 A 
ATOM     47  N   UNL A   1      39.515  29.970  30.259  1.00  0.00    -0.248 NA
ATOM     48  C   UNL A   1      38.109  30.284  28.425  1.00  0.00     0.031 C 
ATOM     49  C   UNL A   1      37.159  33.005  32.553  1.00  0.00     0.029 A 
ATOM     50  N   UNL A   1      38.922  31.633  32.615  1.00  0.00    -0.354 N 
ATOM     51  C   UNL A   1      39.899  29.112  29.234  1.00  0.00     0.074 A 
ATOM     52  C   UNL A   1      38.954  29.301  28.156  1.00  0.00     0.031 C 
ATOM     53  C   UNL A   1      37.735  33.146  33.755  1.00  0.00     0.029 A 
ATOM     54  C   UNL A   1      38.867  32.231  33.854  1.00  0.00     0.049 A 
ATOM     55  H   UNL A   1      39.612  30.978  32.364  1.00  0.00     0.167 HD
ATOM     56  C   UNL A   1      40.953  28.258  29.192  1.00  0.00     0.034 A 
ATOM     57  C   UNL A   1      39.621  32.046  34.957  1.00  0.00     0.034 A 
ATOM     58  C   UNL A   1      41.886  28.082  30.280  1.00  0.00     0.049 A 
ATOM     59  C   UNL A   1      40.754  31.054  34.904  1.00  0.00     0.074 A 
ATOM     60  C   UNL A   1      43.022  27.293  30.319  1.00  0.00     0.029 A 
ATOM     61  N   UNL A   1      41.780  28.684  31.528  1.00  0.00    -0.354 N 
ATOM     62  N   UNL A   1      41.142  30.298  33.902  1.00  0.00    -0.248 NA
ATOM     63  C   UNL A   1      41.552  30.892  36.125  1.00  0.00     0.031 C 
ATOM     64  C   UNL A   1      43.542  27.336  31.616  1.00  0.00     0.029 A 
ATOM     65  C   UNL A   1      42.797  28.238  32.359  1.00  0.00     0.049 A 
ATOM     66  H   UNL A   1      41.086  29.333  31.784  1.00  0.00     0.167 HD
ATOM     67  C   UNL A   1      42.246  29.588  34.368  1.00  0.00     0.074 A 
ATOM     68  C   UNL A   1      42.473  30.024  35.731  1.00  0.00     0.031 C 
ATOM     69  C   UNL A   1      43.003  28.662  33.726  1.00  0.00     0.034 A 
BRANCH  56  70
ATOM     70  C   UNL A   1      41.128  27.417  27.946  1.00  0.00     0.023 A 
ATOM     71  C   UNL A   1      40.775  26.057  27.910  1.00  0.00     0.031 A 
ATOM     72  C   UNL A   1      41.669  27.985  26.779  1.00  0.00     0.131 A 
ATOM     73  C   UNL A   1      41.041  25.294  26.762  1.00  0.00     0.055 A 
ATOM     74  C   UNL A   1      41.845  27.242  25.610  1.00  0.00     0.041 A 
ATOM     75  F   UNL A   1      42.049  29.273  26.757  1.00  0.00    -0.206 F 
ATOM     76  C   UNL A   1      41.545  25.884  25.601  1.00  0.00     0.022 A 
BRANCH  73  77
ATOM     77  S   UNL A   1      40.878  23.491  26.865  1.00  0.00     0.124 S 
ATOM     78  O   UNL A   1      39.469  23.302  26.528  1.00  0.00    -0.237 OA
ATOM     79  O   UNL A   1      41.841  23.028  25.872  1.00  0.00    -0.237 OA
ATOM     80  O   UNL A   1      41.222  23.194  28.255  1.00  0.00    -0.744 OA
ENDBRANCH  73  77
ENDBRANCH  56  70
BRANCH  57  81
ATOM     81  C   UNL A   1      39.305  32.785  36.215  1.00  0.00     0.023 A 
ATOM     82  C   UNL A   1      38.464  32.236  37.195  1.00  0.00     0.031 A 
ATOM     83  C   UNL A   1      39.817  34.078  36.439  1.00  0.00     0.131 A 
ATOM     84  C   UNL A   1      38.124  32.991  38.330  1.00  0.00     0.055 A 
ATOM     85  C   UNL A   1      39.533  34.796  37.600  1.00  0.00     0.041 A 
ATOM     86  F   UNL A   1      40.620  34.657  35.531  1.00  0.00    -0.206 F 
ATOM     87  C   UNL A   1      38.670  34.258  38.549  1.00  0.00     0.022 A 
BRANCH  84  88
ATOM     88  S   UNL A   1      36.869  32.338  39.465  1.00  0.00     0.124 S 
ATOM     89  O   UNL A   1      37.250  30.933  39.552  1.00  0.00    -0.237 OA
ATOM     90  O   UNL A   1      37.097  33.140  40.664  1.00  0.00    -0.237 OA
ATOM     91  O   UNL A   1      35.611  32.602  38.770  1.00  0.00    -0.744 OA
ENDBRANCH  84  88
ENDBRANCH  57  81
BRANCH  69  92
ATOM     92  C   UNL A   1      44.174  28.080  34.484  1.00  0.00     0.023 A 
ATOM     93  C   UNL A   1      44.050  26.911  35.253  1.00  0.00     0.031 A 
ATOM     94  C   UNL A   1      45.432  28.708  34.436  1.00  0.00     0.131 A 
ATOM     95  C   UNL A   1      45.148  26.437  35.988  1.00  0.00     0.055 A 
ATOM     96  C   UNL A   1      46.540  28.189  35.109  1.00  0.00     0.041 A 
ATOM     97  F   UNL A   1      45.608  29.834  33.726  1.00  0.00    -0.206 F 
ATOM     98  C   UNL A   1      46.398  27.056  35.901  1.00  0.00     0.022 A 
BRANCH  95  99
ATOM     99  S   UNL A   1      44.892  25.068  37.150  1.00  0.00     0.124 S 
ATOM    100  O   UNL A   1      45.225  23.908  36.328  1.00  0.00    -0.237 OA
ATOM    101  O   UNL A   1      45.835  25.384  38.218  1.00  0.00    -0.237 OA
ATOM    102  O   UNL A   1      43.481  25.186  37.513  1.00  0.00    -0.744 OA
ENDBRANCH  95  99
ENDBRANCH  69  92
ENDBRANCH  43  44
ENDBRANCH  35  38
ENDBRANCH  33  34
ENDBRANCH   1  33
TORSDOF 19
ENDMDL
MODEL 2
REMARK VINA RESULT:     -12.2      1.777      2.697
REMARK SMILES COc1ccc([C@@H]2C(C#N)=C(N)N3C(=O)[C@H](CC(=O)NCCCNC(=O)c4ccc(-c5c6nc(c(-c7cc(S(=O)(=O)[O-])ccc7F)c7ccc([nH]7)c(-c7cc(S(=O)(=O)[O-])ccc7F)c7nc(c(-c8cc(S(=O)(=O)[O-])ccc8F)c8ccc5[nH]8)C=C7)C=C6)cc4)SC3=C2C#N)cc1
REMARK SMILES IDX 22 1 21 2 20 3 18 4 19 5 17 7 16 8 7 9 8 10 92 11 11 12
REMARK SMILES IDX 91 13 13 14 90 15 14 16 15 17 6 18 3 19 4 20 96 21 5 22
REMARK SMILES IDX 95 23 2 24 1 25 9 26 10 27 93 28 94 29 12 30 23 33 24 34
REMARK SMILES IDX 25 35 26 37 27 38 28 39 89 40 29 41 88 42 30 43 31 44 32 45
REMARK SMILES IDX 82 46 33 47 87 48 81 49 83 50 34 51 86 52 80 53 79 54 35 56
REMARK SMILES IDX 67 57 47 58 66 59 48 60 51 61 65 62 84 63 49 64 50 65 64 67
REMARK SMILES IDX 85 68 52 69 36 70 37 71 45 72 38 73 44 74 46 75 43 76 39 77
REMARK SMILES IDX 40 78 41 79 42 80 68 81 69 82 77 83 70 84 76 85 78 86 75 87
REMARK SMILES IDX 71 88 72 89 73 90 74 91 53 92 54 93 62 94 55 95 61 96 63 97
REMARK SMILES IDX 60 98 56 99 57 100 58 101 59 102
REMARK H PARENT 20 6 12 31 12 32 24 36 83 55 51 66
REMARK Flexibility Score: inf
ROOT
ATOM      1  C   UNL A   1      31.795  32.022  27.014  1.00  0.00     0.042 C 
ENDROOT
BRANCH   1   2
ATOM      2  C   UNL A   1      32.066  30.527  27.176  1.00  0.00     0.117 C 
BRANCH   2   3
ATOM      3  N   UNL A   1      32.901  29.996  26.107  1.00  0.00    -0.356 N 
ATOM      4  C   UNL A   1      32.575  29.505  24.880  1.00  0.00     0.221 C 
ATOM      5  O   UNL A   1      33.468  29.011  24.190  1.00  0.00    -0.275 OA
ATOM      6  H   UNL A   1      33.865  29.990  26.306  1.00  0.00     0.163 HD
BRANCH   4   7
ATOM      7  C   UNL A   1      31.156  29.589  24.352  1.00  0.00     0.125 C 
BRANCH   7   8
ATOM      8  C   UNL A   1      30.468  28.231  24.397  1.00  0.00     0.152 C 
ATOM      9  C   UNL A   1      32.140  23.666  23.756  1.00  0.00     0.107 C 
ATOM     10  C   UNL A   1      32.511  24.375  22.470  1.00  0.00     0.083 C 
ATOM     11  C   UNL A   1      31.858  24.636  24.896  1.00  0.00     0.073 C 
ATOM     12  C   UNL A   1      32.257  25.695  22.302  1.00  0.00     0.126 C 
ATOM     13  C   UNL A   1      31.642  25.927  24.609  1.00  0.00     0.099 C 
ATOM     14  N   UNL A   1      31.619  26.400  23.323  1.00  0.00    -0.258 N 
ATOM     15  S   UNL A   1      31.150  27.161  25.726  1.00  0.00    -0.093 SA
ATOM     16  C   UNL A   1      30.723  27.443  23.130  1.00  0.00     0.247 C 
ATOM     17  O   UNL A   1      30.104  27.661  22.099  1.00  0.00    -0.273 OA
BRANCH   9  18
ATOM     18  C   UNL A   1      33.180  22.638  24.170  1.00  0.00    -0.034 A 
ATOM     19  C   UNL A   1      35.154  20.745  24.769  1.00  0.00     0.118 A 
ATOM     20  C   UNL A   1      35.489  22.093  24.649  1.00  0.00     0.047 A 
ATOM     21  C   UNL A   1      33.822  20.348  24.642  1.00  0.00     0.047 A 
ATOM     22  C   UNL A   1      34.511  23.038  24.347  1.00  0.00     0.008 A 
ATOM     23  C   UNL A   1      32.838  21.289  24.346  1.00  0.00     0.008 A 
BRANCH  19  24
ATOM     24  O   UNL A   1      36.198  19.907  25.046  1.00  0.00    -0.497 OA
ATOM     25  C   UNL A   1      37.489  20.492  24.951  1.00  0.00     0.278 C 
ENDBRANCH  19  24
ENDBRANCH   9  18
BRANCH  10  26
ATOM     26  C   UNL A   1      33.117  23.620  21.417  1.00  0.00     0.100 C 
ATOM     27  N   UNL A   1      33.587  23.048  20.525  1.00  0.00    -0.193 NA
ENDBRANCH  10  26
BRANCH  11  28
ATOM     28  C   UNL A   1      31.689  24.132  26.218  1.00  0.00     0.098 C 
ATOM     29  N   UNL A   1      31.564  23.707  27.292  1.00  0.00    -0.193 NA
ENDBRANCH  11  28
BRANCH  12  30
ATOM     30  N   UNL A   1      32.672  26.356  21.173  1.00  0.00    -0.384 N 
ATOM     31  H   UNL A   1      33.329  25.937  20.571  1.00  0.00     0.158 HD
ATOM     32  H   UNL A   1      32.312  27.248  20.965  1.00  0.00     0.158 HD
ENDBRANCH  12  30
ENDBRANCH   7   8
ENDBRANCH   4   7
ENDBRANCH   2   3
ENDBRANCH   1   2
BRANCH   1  33
ATOM     33  C   UNL A   1      33.021  32.906  27.029  1.00  0.00     0.118 C 
BRANCH  33  34
ATOM     34  N   UNL A   1      32.734  34.184  27.647  1.00  0.00    -0.352 N 
ATOM     35  C   UNL A   1      33.195  34.723  28.824  1.00  0.00     0.251 C 
ATOM     36  H   UNL A   1      32.110  34.757  27.144  1.00  0.00     0.163 HD
ATOM     37  O   UNL A   1      32.568  35.661  29.313  1.00  0.00    -0.269 OA
BRANCH  35  38
ATOM     38  C   UNL A   1      34.389  34.181  29.527  1.00  0.00     0.039 A 
ATOM     39  C   UNL A   1      34.189  33.333  30.621  1.00  0.00     0.014 A 
ATOM     40  C   UNL A   1      35.694  34.530  29.174  1.00  0.00     0.014 A 
ATOM     41  C   UNL A   1      35.285  32.800  31.309  1.00  0.00     0.010 A 
ATOM     42  C   UNL A   1      36.785  33.906  29.782  1.00  0.00     0.010 A 
ATOM     43  C   UNL A   1      36.595  33.042  30.867  1.00  0.00    -0.014 A 
BRANCH  43  44
ATOM     44  C   UNL A   1      37.765  32.399  31.529  1.00  0.00     0.031 A 
ATOM     45  C   UNL A   1      38.489  31.254  30.868  1.00  0.00     0.074 A 
ATOM     46  C   UNL A   1      38.149  32.821  32.751  1.00  0.00     0.049 A 
ATOM     47  N   UNL A   1      39.494  30.543  31.314  1.00  0.00    -0.248 NA
ATOM     48  C   UNL A   1      38.006  30.838  29.543  1.00  0.00     0.031 C 
ATOM     49  C   UNL A   1      37.505  33.895  33.510  1.00  0.00     0.029 A 
ATOM     50  N   UNL A   1      39.165  32.402  33.574  1.00  0.00    -0.354 N 
ATOM     51  C   UNL A   1      39.753  29.591  30.334  1.00  0.00     0.074 A 
ATOM     52  C   UNL A   1      38.761  29.778  29.299  1.00  0.00     0.031 C 
ATOM     53  C   UNL A   1      38.161  34.074  34.666  1.00  0.00     0.029 A 
ATOM     54  C   UNL A   1      39.229  33.084  34.767  1.00  0.00     0.049 A 
ATOM     55  H   UNL A   1      39.790  31.680  33.333  1.00  0.00     0.167 HD
ATOM     56  C   UNL A   1      40.738  28.658  30.295  1.00  0.00     0.034 A 
ATOM     57  C   UNL A   1      40.032  32.918  35.838  1.00  0.00     0.034 A 
ATOM     58  C   UNL A   1      41.720  28.487  31.340  1.00  0.00     0.049 A 
ATOM     59  C   UNL A   1      41.086  31.841  35.794  1.00  0.00     0.074 A 
ATOM     60  C   UNL A   1      42.797  27.618  31.373  1.00  0.00     0.029 A 
ATOM     61  N   UNL A   1      41.733  29.178  32.545  1.00  0.00    -0.354 N 
ATOM     62  N   UNL A   1      41.357  30.992  34.829  1.00  0.00    -0.248 NA
ATOM     63  C   UNL A   1      41.942  31.702  36.978  1.00  0.00     0.031 C 
ATOM     64  C   UNL A   1      43.396  27.709  32.633  1.00  0.00     0.029 A 
ATOM     65  C   UNL A   1      42.764  28.713  33.350  1.00  0.00     0.049 A 
ATOM     66  H   UNL A   1      41.104  29.894  32.792  1.00  0.00     0.167 HD
ATOM     67  C   UNL A   1      42.433  30.233  35.283  1.00  0.00     0.074 A 
ATOM     68  C   UNL A   1      42.773  30.743  36.597  1.00  0.00     0.031 C 
ATOM     69  C   UNL A   1      43.082  29.212  34.668  1.00  0.00     0.034 A 
BRANCH  56  70
ATOM     70  C   UNL A   1      40.777  27.725  29.106  1.00  0.00     0.023 A 
ATOM     71  C   UNL A   1      41.720  27.873  28.074  1.00  0.00     0.031 A 
ATOM     72  C   UNL A   1      39.846  26.676  28.997  1.00  0.00     0.131 A 
ATOM     73  C   UNL A   1      41.659  27.041  26.944  1.00  0.00     0.055 A 
ATOM     74  C   UNL A   1      39.851  25.794  27.915  1.00  0.00     0.041 A 
ATOM     75  F   UNL A   1      38.904  26.497  29.937  1.00  0.00    -0.206 F 
ATOM     76  C   UNL A   1      40.751  25.983  26.871  1.00  0.00     0.022 A 
BRANCH  73  77
ATOM     77  S   UNL A   1      42.671  27.468  25.501  1.00  0.00     0.124 S 
ATOM     78  O   UNL A   1      42.658  26.215  24.749  1.00  0.00    -0.237 OA
ATOM     79  O   UNL A   1      41.928  28.575  24.910  1.00  0.00    -0.237 OA
ATOM     80  O   UNL A   1      43.965  27.822  26.081  1.00  0.00    -0.744 OA
ENDBRANCH  73  77
ENDBRANCH  56  70
BRANCH  57  81
ATOM     81  C   UNL A   1      39.846  33.762  37.055  1.00  0.00     0.023 A 
ATOM     82  C   UNL A   1      39.192  33.270  38.195  1.00  0.00     0.031 A 
ATOM     83  C   UNL A   1      40.294  35.097  37.080  1.00  0.00     0.131 A 
ATOM     84  C   UNL A   1      38.965  34.116  39.292  1.00  0.00     0.055 A 
ATOM     85  C   UNL A   1      40.128  35.912  38.199  1.00  0.00     0.041 A 
ATOM     86  F   UNL A   1      40.918  35.625  36.014  1.00  0.00    -0.206 F 
ATOM     87  C   UNL A   1      39.447  35.427  39.311  1.00  0.00     0.022 A 
BRANCH  84  88
ATOM     88  S   UNL A   1      37.931  33.513  40.656  1.00  0.00     0.124 S 
ATOM     89  O   UNL A   1      36.851  32.848  39.936  1.00  0.00    -0.237 OA
ATOM     90  O   UNL A   1      38.854  32.642  41.376  1.00  0.00    -0.237 OA
ATOM     91  O   UNL A   1      37.551  34.735  41.361  1.00  0.00    -0.744 OA
ENDBRANCH  84  88
ENDBRANCH  57  81
BRANCH  69  92
ATOM     92  C   UNL A   1      44.252  28.595  35.400  1.00  0.00     0.023 A 
ATOM     93  C   UNL A   1      44.083  27.532  36.303  1.00  0.00     0.031 A 
ATOM     94  C   UNL A   1      45.555  29.082  35.192  1.00  0.00     0.131 A 
ATOM     95  C   UNL A   1      45.188  27.028  37.006  1.00  0.00     0.055 A 
ATOM     96  C   UNL A   1      46.661  28.526  35.836  1.00  0.00     0.041 A 
ATOM     97  F   UNL A   1      45.777  30.103  34.349  1.00  0.00    -0.206 F 
ATOM     98  C   UNL A   1      46.479  27.502  36.760  1.00  0.00     0.022 A 
BRANCH  95  99
ATOM     99  S   UNL A   1      44.902  25.821  38.330  1.00  0.00     0.124 S 
ATOM    100  O   UNL A   1      44.204  24.754  37.620  1.00  0.00    -0.237 OA
ATOM    101  O   UNL A   1      46.259  25.513  38.770  1.00  0.00    -0.237 OA
ATOM    102  O   UNL A   1      44.089  26.559  39.296  1.00  0.00    -0.744 OA
ENDBRANCH  95  99
ENDBRANCH  69  92
ENDBRANCH  43  44
ENDBRANCH  35  38
ENDBRANCH  33  34
ENDBRANCH   1  33
TORSDOF 19
ENDMDL
MODEL 3
REMARK VINA RESULT:     -12.1      0.494      7.244
REMARK SMILES COc1ccc([C@@H]2C(C#N)=C(N)N3C(=O)[C@H](CC(=O)NCCCNC(=O)c4ccc(-c5c6nc(c(-c7cc(S(=O)(=O)[O-])ccc7F)c7ccc([nH]7)c(-c7cc(S(=O)(=O)[O-])ccc7F)c7nc(c(-c8cc(S(=O)(=O)[O-])ccc8F)c8ccc5[nH]8)C=C7)C=C6)cc4)SC3=C2C#N)cc1
REMARK SMILES IDX 22 1 21 2 20 3 18 4 19 5 17 7 16 8 7 9 8 10 92 11 11 12
REMARK SMILES IDX 91 13 13 14 90 15 14 16 15 17 6 18 3 19 4 20 96 21 5 22
REMARK SMILES IDX 95 23 2 24 1 25 9 26 10 27 93 28 94 29 12 30 23 33 24 34
REMARK SMILES IDX 25 35 26 37 27 38 28 39 89 40 29 41 88 42 30 43 31 44 32 45
REMARK SMILES IDX 82 46 33 47 87 48 81 49 83 50 34 51 86 52 80 53 79 54 35 56
REMARK SMILES IDX 67 57 47 58 66 59 48 60 51 61 65 62 84 63 49 64 50 65 64 67
REMARK SMILES IDX 85 68 52 69 36 70 37 71 45 72 38 73 44 74 46 75 43 76 39 77
REMARK SMILES IDX 40 78 41 79 42 80 68 81 69 82 77 83 70 84 76 85 78 86 75 87
REMARK SMILES IDX 71 88 72 89 73 90 74 91 53 92 54 93 62 94 55 95 61 96 63 97
REMARK SMILES IDX 60 98 56 99 57 100 58 101 59 102
REMARK H PARENT 20 6 12 31 12 32 24 36 83 55 51 66
REMARK Flexibility Score: inf
ROOT
ATOM      1  C   UNL A   1      30.964  31.904  25.749  1.00  0.00     0.042 C 
ENDROOT
BRANCH   1   2
ATOM      2  C   UNL A   1      30.836  30.487  25.192  1.00  0.00     0.117 C 
BRANCH   2   3
ATOM      3  N   UNL A   1      30.273  30.468  23.849  1.00  0.00    -0.356 N 
ATOM      4  C   UNL A   1      29.981  29.429  23.018  1.00  0.00     0.221 C 
ATOM      5  O   UNL A   1      29.604  29.683  21.873  1.00  0.00    -0.275 OA
ATOM      6  H   UNL A   1      30.070  31.356  23.479  1.00  0.00     0.163 HD
BRANCH   4   7
ATOM      7  C   UNL A   1      30.083  27.992  23.491  1.00  0.00     0.125 C 
BRANCH   7   8
ATOM      8  C   UNL A   1      31.521  27.493  23.437  1.00  0.00     0.152 C 
ATOM      9  C   UNL A   1      33.570  23.210  24.659  1.00  0.00     0.107 C 
ATOM     10  C   UNL A   1      32.888  23.665  25.933  1.00  0.00     0.083 C 
ATOM     11  C   UNL A   1      33.021  23.908  23.422  1.00  0.00     0.073 C 
ATOM     12  C   UNL A   1      32.155  24.803  25.963  1.00  0.00     0.126 C 
ATOM     13  C   UNL A   1      32.288  25.018  23.578  1.00  0.00     0.099 C 
ATOM     14  N   UNL A   1      32.052  25.576  24.807  1.00  0.00    -0.258 N 
ATOM     15  S   UNL A   1      31.704  26.052  22.311  1.00  0.00    -0.093 SA
ATOM     16  C   UNL A   1      31.969  26.962  24.781  1.00  0.00     0.247 C 
ATOM     17  O   UNL A   1      32.321  27.708  25.684  1.00  0.00    -0.273 OA
BRANCH   9  18
ATOM     18  C   UNL A   1      33.526  21.699  24.488  1.00  0.00    -0.034 A 
ATOM     19  C   UNL A   1      33.361  18.909  24.325  1.00  0.00     0.118 A 
ATOM     20  C   UNL A   1      32.247  19.696  24.032  1.00  0.00     0.047 A 
ATOM     21  C   UNL A   1      34.573  19.519  24.649  1.00  0.00     0.047 A 
ATOM     22  C   UNL A   1      32.323  21.084  24.116  1.00  0.00     0.008 A 
ATOM     23  C   UNL A   1      34.658  20.908  24.729  1.00  0.00     0.008 A 
BRANCH  19  24
ATOM     24  O   UNL A   1      33.164  17.560  24.230  1.00  0.00    -0.497 OA
ATOM     25  C   UNL A   1      34.313  16.760  24.470  1.00  0.00     0.278 C 
ENDBRANCH  19  24
ENDBRANCH   9  18
BRANCH  10  26
ATOM     26  C   UNL A   1      33.052  22.883  27.119  1.00  0.00     0.100 C 
ATOM     27  N   UNL A   1      33.146  22.210  28.058  1.00  0.00    -0.193 NA
ENDBRANCH  10  26
BRANCH  11  28
ATOM     28  C   UNL A   1      33.413  23.453  22.130  1.00  0.00     0.098 C 
ATOM     29  N   UNL A   1      33.722  23.098  21.068  1.00  0.00    -0.193 NA
ENDBRANCH  11  28
BRANCH  12  30
ATOM     30  N   UNL A   1      31.466  25.169  27.092  1.00  0.00    -0.384 N 
ATOM     31  H   UNL A   1      30.494  25.022  27.145  1.00  0.00     0.158 HD
ATOM     32  H   UNL A   1      31.944  25.579  27.849  1.00  0.00     0.158 HD
ENDBRANCH  12  30
ENDBRANCH   7   8
ENDBRANCH   4   7
ENDBRANCH   2   3
ENDBRANCH   1   2
BRANCH   1  33
ATOM     33  C   UNL A   1      31.977  32.073  26.858  1.00  0.00     0.118 C 
BRANCH  33  34
ATOM     34  N   UNL A   1      32.233  33.474  27.121  1.00  0.00    -0.352 N 
ATOM     35  C   UNL A   1      33.128  34.066  27.982  1.00  0.00     0.251 C 
ATOM     36  H   UNL A   1      31.678  34.101  26.603  1.00  0.00     0.163 HD
ATOM     37  O   UNL A   1      32.941  35.242  28.287  1.00  0.00    -0.269 OA
BRANCH  35  38
ATOM     38  C   UNL A   1      34.270  33.317  28.570  1.00  0.00     0.039 A 
ATOM     39  C   UNL A   1      35.541  33.901  28.529  1.00  0.00     0.014 A 
ATOM     40  C   UNL A   1      34.134  32.036  29.108  1.00  0.00     0.014 A 
ATOM     41  C   UNL A   1      36.643  33.232  29.072  1.00  0.00     0.010 A 
ATOM     42  C   UNL A   1      35.208  31.421  29.756  1.00  0.00     0.010 A 
ATOM     43  C   UNL A   1      36.480  32.005  29.736  1.00  0.00    -0.014 A 
BRANCH  43  44
ATOM     44  C   UNL A   1      37.627  31.332  30.407  1.00  0.00     0.031 A 
ATOM     45  C   UNL A   1      37.980  31.655  31.836  1.00  0.00     0.074 A 
ATOM     46  C   UNL A   1      38.380  30.456  29.710  1.00  0.00     0.049 A 
ATOM     47  N   UNL A   1      38.969  31.205  32.566  1.00  0.00    -0.248 NA
ATOM     48  C   UNL A   1      37.123  32.630  32.528  1.00  0.00     0.031 C 
ATOM     49  C   UNL A   1      38.163  30.088  28.309  1.00  0.00     0.029 A 
ATOM     50  N   UNL A   1      39.480  29.720  30.076  1.00  0.00    -0.354 N 
ATOM     51  C   UNL A   1      38.862  31.849  33.794  1.00  0.00     0.074 A 
ATOM     52  C   UNL A   1      37.748  32.766  33.688  1.00  0.00     0.031 C 
ATOM     53  C   UNL A   1      39.073  29.172  27.947  1.00  0.00     0.029 A 
ATOM     54  C   UNL A   1      39.984  28.936  29.062  1.00  0.00     0.049 A 
ATOM     55  H   UNL A   1      39.872  29.749  30.979  1.00  0.00     0.167 HD
ATOM     56  C   UNL A   1      39.614  31.680  34.911  1.00  0.00     0.034 A 
ATOM     57  C   UNL A   1      41.072  28.141  29.019  1.00  0.00     0.034 A 
ATOM     58  C   UNL A   1      40.724  30.760  34.997  1.00  0.00     0.049 A 
ATOM     59  C   UNL A   1      41.923  28.007  30.256  1.00  0.00     0.074 A 
ATOM     60  C   UNL A   1      41.511  30.464  36.096  1.00  0.00     0.029 A 
ATOM     61  N   UNL A   1      41.220  30.006  33.941  1.00  0.00    -0.354 N 
ATOM     62  N   UNL A   1      41.767  28.576  31.430  1.00  0.00    -0.248 NA
ATOM     63  C   UNL A   1      43.092  27.124  30.166  1.00  0.00     0.031 C 
ATOM     64  C   UNL A   1      42.541  29.615  35.682  1.00  0.00     0.029 A 
ATOM     65  C   UNL A   1      42.337  29.292  34.350  1.00  0.00     0.049 A 
ATOM     66  H   UNL A   1      40.836  29.982  33.035  1.00  0.00     0.167 HD
ATOM     67  C   UNL A   1      42.807  28.099  32.224  1.00  0.00     0.074 A 
ATOM     68  C   UNL A   1      43.567  27.180  31.401  1.00  0.00     0.031 C 
ATOM     69  C   UNL A   1      43.103  28.393  33.516  1.00  0.00     0.034 A 
BRANCH  56  70
ATOM     70  C   UNL A   1      39.289  32.536  36.115  1.00  0.00     0.023 A 
ATOM     71  C   UNL A   1      38.503  32.058  37.178  1.00  0.00     0.031 A 
ATOM     72  C   UNL A   1      39.763  33.858  36.194  1.00  0.00     0.131 A 
ATOM     73  C   UNL A   1      38.150  32.918  38.230  1.00  0.00     0.055 A 
ATOM     74  C   UNL A   1      39.485  34.678  37.289  1.00  0.00     0.041 A 
ATOM     75  F   UNL A   1      40.498  34.382  35.199  1.00  0.00    -0.206 F 
ATOM     76  C   UNL A   1      38.660  34.215  38.309  1.00  0.00     0.022 A 
BRANCH  73  77
ATOM     77  S   UNL A   1      36.879  32.371  39.404  1.00  0.00     0.124 S 
ATOM     78  O   UNL A   1      37.190  33.184  40.577  1.00  0.00    -0.237 OA
ATOM     79  O   UNL A   1      35.642  32.700  38.707  1.00  0.00    -0.237 OA
ATOM     80  O   UNL A   1      37.148  30.942  39.559  1.00  0.00    -0.744 OA
ENDBRANCH  73  77
ENDBRANCH  56  70
BRANCH  57  81
ATOM     81  C   UNL A   1      41.442  27.441  27.753  1.00  0.00     0.023 A 
ATOM     82  C   UNL A   1      41.354  26.046  27.635  1.00  0.00     0.031 A 
ATOM     83  C   UNL A   1      41.927  28.164  26.647  1.00  0.00     0.131 A 
ATOM     84  C   UNL A   1      41.785  25.414  26.458  1.00  0.00     0.055 A 
ATOM     85  C   UNL A   1      42.288  27.538  25.454  1.00  0.00     0.041 A 
ATOM     86  F   UNL A   1      42.042  29.501  26.706  1.00  0.00    -0.206 F 
ATOM     87  C   UNL A   1      42.231  26.152  25.359  1.00  0.00     0.022 A 
BRANCH  84  88
ATOM     88  S   UNL A   1      41.859  23.601  26.420  1.00  0.00     0.124 S 
ATOM     89  O   UNL A   1      42.600  23.361  25.187  1.00  0.00    -0.237 OA
ATOM     90  O   UNL A   1      42.565  23.299  27.662  1.00  0.00    -0.237 OA
ATOM     91  O   UNL A   1      40.454  23.203  26.391  1.00  0.00    -0.744 OA
ENDBRANCH  84  88
ENDBRANCH  57  81
BRANCH  69  92
ATOM     92  C   UNL A   1      44.288  27.685  34.132  1.00  0.00     0.023 A 
ATOM     93  C   UNL A   1      44.150  26.462  34.809  1.00  0.00     0.031 A 
ATOM     94  C   UNL A   1      45.574  28.247  34.041  1.00  0.00     0.131 A 
ATOM     95  C   UNL A   1      45.266  25.868  35.417  1.00  0.00     0.055 A 
ATOM     96  C   UNL A   1      46.694  27.614  34.583  1.00  0.00     0.041 A 
ATOM     97  F   UNL A   1      45.767  29.419  33.416  1.00  0.00    -0.206 F 
ATOM     98  C   UNL A   1      46.542  26.424  35.287  1.00  0.00     0.022 A 
BRANCH  95  99
ATOM     99  S   UNL A   1      45.013  24.418  36.477  1.00  0.00     0.124 S 
ATOM    100  O   UNL A   1      44.233  23.542  35.609  1.00  0.00    -0.237 OA
ATOM    101  O   UNL A   1      46.380  23.990  36.754  1.00  0.00    -0.237 OA
ATOM    102  O   UNL A   1      44.287  24.957  37.627  1.00  0.00    -0.744 OA
ENDBRANCH  95  99
ENDBRANCH  69  92
ENDBRANCH  43  44
ENDBRANCH  35  38
ENDBRANCH  33  34
ENDBRANCH   1  33
TORSDOF 19
ENDMDL
