MODEL 1
REMARK VINA RESULT:     -12.6      0.000      0.000
REMARK SMILES Cc1nn(C)cc1C[NH+]1CCN(C(=O)c2cnn(CC(=O)NCCCNC(=O)c3ccc(-c4c5nc(c(-c6cc(S(=O)(=O)[O-])ccc6F)c6ccc([nH]6)c(-c6cc(S(=O)(=O)[O-])ccc6F)c6nc(c(-c7cc(S(=O)(=O)[O-])ccc7F)c7ccc4[nH]7)C=C6)C=C5)cc3)c2)CC1
REMARK SMILES IDX 23 1 22 2 20 3 21 4 19 6 18 7 15 8 16 9 92 10 17 11 13 12
REMARK SMILES IDX 9 13 10 14 94 15 11 17 93 18 12 19 14 20 8 21 7 22 1 23 2 24
REMARK SMILES IDX 3 25 4 26 6 27 5 28 24 29 25 30 26 31 27 32 28 34 29 35
REMARK SMILES IDX 30 36 91 37 31 38 90 39 32 40 33 41 34 42 84 43 35 44 89 45
REMARK SMILES IDX 83 46 85 47 36 48 88 49 82 50 81 51 37 53 69 54 49 55 68 56
REMARK SMILES IDX 50 57 53 58 67 59 86 60 51 61 52 62 66 64 87 65 54 66 38 67
REMARK SMILES IDX 39 68 47 69 40 70 46 71 48 72 45 73 41 74 42 75 43 76 44 77
REMARK SMILES IDX 70 78 71 79 79 80 72 81 78 82 80 83 77 84 73 85 74 86 75 87
REMARK SMILES IDX 76 88 55 89 56 90 64 91 57 92 63 93 65 94 62 95 58 96 59 97
REMARK SMILES IDX 60 98 61 99
REMARK H PARENT 22 5 9 16 26 33 85 52 53 63
REMARK Flexibility Score: inf
ROOT
ATOM      1  C   UNL A   1      38.138  23.042  25.947  1.00  0.00     0.117 C 
ENDROOT
BRANCH   1   2
ATOM      2  N   UNL A   1      37.693  23.238  24.580  1.00  0.00    -0.354 N 
ATOM      3  C   UNL A   1      36.683  22.616  23.897  1.00  0.00     0.241 C 
ATOM      4  O   UNL A   1      36.466  22.982  22.740  1.00  0.00    -0.273 OA
ATOM      5  H   UNL A   1      38.189  23.918  24.070  1.00  0.00     0.163 HD
BRANCH   3   6
ATOM      6  C   UNL A   1      35.777  21.619  24.583  1.00  0.00     0.243 C 
BRANCH   6   7
ATOM      7  N   UNL A   1      34.775  22.226  25.439  1.00  0.00    -0.262 N 
ATOM      8  C   UNL A   1      33.113  23.462  26.202  1.00  0.00     0.078 A 
ATOM      9  C   UNL A   1      33.684  22.640  27.197  1.00  0.00     0.149 A 
ATOM     10  C   UNL A   1      33.788  23.090  25.053  1.00  0.00     0.123 A 
ATOM     11  N   UNL A   1      34.702  21.905  26.743  1.00  0.00    -0.180 NA
BRANCH   8  12
ATOM     12  C   UNL A   1      32.023  24.423  26.255  1.00  0.00     0.257 C 
ATOM     13  N   UNL A   1      32.722  28.720  25.979  1.00  0.00    -0.328 N 
ATOM     14  C   UNL A   1      31.460  28.171  26.478  1.00  0.00     0.284 C 
ATOM     15  C   UNL A   1      33.841  27.829  26.281  1.00  0.00     0.284 C 
ATOM     16  H   UNL A   1      32.874  29.572  26.521  1.00  0.00     0.348 HD
ATOM     17  C   UNL A   1      31.183  26.696  26.129  1.00  0.00     0.181 C 
ATOM     18  C   UNL A   1      33.645  26.339  25.953  1.00  0.00     0.181 C 
ATOM     19  N   UNL A   1      32.326  25.792  26.292  1.00  0.00    -0.327 N 
ATOM     20  O   UNL A   1      30.861  24.020  26.193  1.00  0.00    -0.269 OA
BRANCH  13  21
ATOM     21  C   UNL A   1      32.717  29.335  24.648  1.00  0.00     0.302 C 
BRANCH  21  22
ATOM     22  C   UNL A   1      31.522  29.009  23.818  1.00  0.00     0.047 A 
ATOM     23  C   UNL A   1      32.313  26.881  22.484  1.00  0.00     0.069 C 
ATOM     24  C   UNL A   1      31.371  27.960  22.863  1.00  0.00     0.068 A 
ATOM     25  N   UNL A   1      30.203  28.040  22.215  1.00  0.00    -0.178 NA
ATOM     26  N   UNL A   1      29.597  29.096  22.770  1.00  0.00    -0.275 N 
ATOM     27  C   UNL A   1      30.284  29.624  23.821  1.00  0.00     0.118 A 
ATOM     28  C   UNL A   1      28.419  29.643  22.149  1.00  0.00     0.173 C 
ENDBRANCH  21  22
ENDBRANCH  13  21
ENDBRANCH   8  12
ENDBRANCH   6   7
ENDBRANCH   3   6
ENDBRANCH   1   2
BRANCH   1  29
ATOM     29  C   UNL A   1      38.963  21.764  26.106  1.00  0.00     0.042 C 
BRANCH  29  30
ATOM     30  C   UNL A   1      40.149  21.949  27.037  1.00  0.00     0.118 C 
BRANCH  30  31
ATOM     31  N   UNL A   1      41.417  22.161  26.332  1.00  0.00    -0.352 N 
ATOM     32  C   UNL A   1      42.141  23.340  26.193  1.00  0.00     0.251 C 
ATOM     33  H   UNL A   1      41.806  21.366  25.902  1.00  0.00     0.163 HD
ATOM     34  O   UNL A   1      43.000  23.439  25.343  1.00  0.00    -0.269 OA
BRANCH  32  35
ATOM     35  C   UNL A   1      41.812  24.457  27.102  1.00  0.00     0.039 A 
ATOM     36  C   UNL A   1      42.491  24.653  28.306  1.00  0.00     0.014 A 
ATOM     37  C   UNL A   1      40.876  25.379  26.657  1.00  0.00     0.014 A 
ATOM     38  C   UNL A   1      42.314  25.860  28.986  1.00  0.00     0.010 A 
ATOM     39  C   UNL A   1      40.856  26.631  27.218  1.00  0.00     0.010 A 
ATOM     40  C   UNL A   1      41.529  26.874  28.412  1.00  0.00    -0.014 A 
BRANCH  40  41
ATOM     41  C   UNL A   1      41.495  28.226  28.976  1.00  0.00     0.031 A 
ATOM     42  C   UNL A   1      42.483  29.195  28.421  1.00  0.00     0.074 A 
ATOM     43  C   UNL A   1      40.482  28.687  29.745  1.00  0.00     0.049 A 
ATOM     44  N   UNL A   1      43.445  29.792  29.043  1.00  0.00    -0.248 NA
ATOM     45  C   UNL A   1      42.463  29.466  26.975  1.00  0.00     0.031 C 
ATOM     46  C   UNL A   1      39.251  27.991  30.140  1.00  0.00     0.029 A 
ATOM     47  N   UNL A   1      40.267  29.950  30.209  1.00  0.00    -0.354 N 
ATOM     48  C   UNL A   1      44.008  30.685  28.135  1.00  0.00     0.074 A 
ATOM     49  C   UNL A   1      43.495  30.302  26.846  1.00  0.00     0.031 C 
ATOM     50  C   UNL A   1      38.324  28.894  30.517  1.00  0.00     0.029 A 
ATOM     51  C   UNL A   1      38.953  30.199  30.586  1.00  0.00     0.049 A 
ATOM     52  H   UNL A   1      40.981  30.626  30.271  1.00  0.00     0.167 HD
ATOM     53  C   UNL A   1      44.677  31.800  28.550  1.00  0.00     0.034 A 
ATOM     54  C   UNL A   1      38.398  31.394  30.913  1.00  0.00     0.034 A 
ATOM     55  C   UNL A   1      45.019  31.708  29.955  1.00  0.00     0.049 A 
ATOM     56  C   UNL A   1      39.510  32.277  31.338  1.00  0.00     0.074 A 
ATOM     57  C   UNL A   1      45.696  30.777  30.723  1.00  0.00     0.029 A 
ATOM     58  N   UNL A   1      44.310  32.470  30.860  1.00  0.00    -0.354 N 
ATOM     59  N   UNL A   1      40.245  32.045  32.393  1.00  0.00    -0.248 NA
ATOM     60  C   UNL A   1      40.115  33.151  30.347  1.00  0.00     0.031 C 
ATOM     61  C   UNL A   1      44.928  30.675  31.923  1.00  0.00     0.029 A 
ATOM     62  C   UNL A   1      43.897  31.615  31.853  1.00  0.00     0.049 A 
ATOM     63  H   UNL A   1      44.133  33.436  30.804  1.00  0.00     0.167 HD
ATOM     64  C   UNL A   1      41.537  32.358  32.004  1.00  0.00     0.074 A 
ATOM     65  C   UNL A   1      41.379  33.142  30.780  1.00  0.00     0.031 C 
ATOM     66  C   UNL A   1      42.621  31.718  32.539  1.00  0.00     0.034 A 
BRANCH  53  67
ATOM     67  C   UNL A   1      44.746  33.118  27.799  1.00  0.00     0.023 A 
ATOM     68  C   UNL A   1      43.920  34.168  28.250  1.00  0.00     0.031 A 
ATOM     69  C   UNL A   1      45.345  33.316  26.536  1.00  0.00     0.131 A 
ATOM     70  C   UNL A   1      43.641  35.279  27.433  1.00  0.00     0.055 A 
ATOM     71  C   UNL A   1      45.126  34.459  25.758  1.00  0.00     0.041 A 
ATOM     72  F   UNL A   1      46.098  32.388  25.936  1.00  0.00    -0.206 F 
ATOM     73  C   UNL A   1      44.243  35.434  26.189  1.00  0.00     0.022 A 
BRANCH  70  74
ATOM     74  S   UNL A   1      42.324  36.413  27.943  1.00  0.00     0.124 S 
ATOM     75  O   UNL A   1      42.312  37.365  26.838  1.00  0.00    -0.237 OA
ATOM     76  O   UNL A   1      41.177  35.517  28.036  1.00  0.00    -0.237 OA
ATOM     77  O   UNL A   1      42.807  36.942  29.217  1.00  0.00    -0.744 OA
ENDBRANCH  70  74
ENDBRANCH  53  67
BRANCH  54  78
ATOM     78  C   UNL A   1      37.014  31.854  30.627  1.00  0.00     0.023 A 
ATOM     79  C   UNL A   1      36.219  32.494  31.596  1.00  0.00     0.031 A 
ATOM     80  C   UNL A   1      36.528  31.869  29.298  1.00  0.00     0.131 A 
ATOM     81  C   UNL A   1      35.002  33.111  31.225  1.00  0.00     0.055 A 
ATOM     82  C   UNL A   1      35.320  32.468  28.939  1.00  0.00     0.041 A 
ATOM     83  F   UNL A   1      37.258  31.375  28.284  1.00  0.00    -0.206 F 
ATOM     84  C   UNL A   1      34.554  33.102  29.902  1.00  0.00     0.022 A 
BRANCH  81  85
ATOM     85  S   UNL A   1      34.037  34.049  32.453  1.00  0.00     0.124 S 
ATOM     86  O   UNL A   1      33.219  34.910  31.607  1.00  0.00    -0.237 OA
ATOM     87  O   UNL A   1      33.337  32.994  33.176  1.00  0.00    -0.237 OA
ATOM     88  O   UNL A   1      35.064  34.744  33.231  1.00  0.00    -0.744 OA
ENDBRANCH  81  85
ENDBRANCH  54  78
BRANCH  66  89
ATOM     89  C   UNL A   1      42.440  30.861  33.781  1.00  0.00     0.023 A 
ATOM     90  C   UNL A   1      42.086  29.492  33.779  1.00  0.00     0.031 A 
ATOM     91  C   UNL A   1      42.774  31.438  35.021  1.00  0.00     0.131 A 
ATOM     92  C   UNL A   1      42.067  28.762  34.985  1.00  0.00     0.055 A 
ATOM     93  C   UNL A   1      42.777  30.708  36.209  1.00  0.00     0.041 A 
ATOM     94  F   UNL A   1      43.146  32.728  35.095  1.00  0.00    -0.206 F 
ATOM     95  C   UNL A   1      42.416  29.366  36.196  1.00  0.00     0.022 A 
BRANCH  92  96
ATOM     96  S   UNL A   1      41.566  27.010  35.008  1.00  0.00     0.124 S 
ATOM     97  O   UNL A   1      42.782  26.297  34.632  1.00  0.00    -0.237 OA
ATOM     98  O   UNL A   1      41.120  26.827  36.387  1.00  0.00    -0.237 OA
ATOM     99  O   UNL A   1      40.494  26.951  34.012  1.00  0.00    -0.744 OA
ENDBRANCH  92  96
ENDBRANCH  66  89
ENDBRANCH  40  41
ENDBRANCH  32  35
ENDBRANCH  30  31
ENDBRANCH  29  30
ENDBRANCH   1  29
TORSDOF 17
ENDMDL
MODEL 2
REMARK VINA RESULT:     -11.9      3.313      6.988
REMARK SMILES Cc1nn(C)cc1C[NH+]1CCN(C(=O)c2cnn(CC(=O)NCCCNC(=O)c3ccc(-c4c5nc(c(-c6cc(S(=O)(=O)[O-])ccc6F)c6ccc([nH]6)c(-c6cc(S(=O)(=O)[O-])ccc6F)c6nc(c(-c7cc(S(=O)(=O)[O-])ccc7F)c7ccc4[nH]7)C=C6)C=C5)cc3)c2)CC1
REMARK SMILES IDX 23 1 22 2 20 3 21 4 19 6 18 7 15 8 16 9 92 10 17 11 13 12
REMARK SMILES IDX 9 13 10 14 94 15 11 17 93 18 12 19 14 20 8 21 7 22 1 23 2 24
REMARK SMILES IDX 3 25 4 26 6 27 5 28 24 29 25 30 26 31 27 32 28 34 29 35
REMARK SMILES IDX 30 36 91 37 31 38 90 39 32 40 33 41 34 42 84 43 35 44 89 45
REMARK SMILES IDX 83 46 85 47 36 48 88 49 82 50 81 51 37 53 69 54 49 55 68 56
REMARK SMILES IDX 50 57 53 58 67 59 86 60 51 61 52 62 66 64 87 65 54 66 38 67
REMARK SMILES IDX 39 68 47 69 40 70 46 71 48 72 45 73 41 74 42 75 43 76 44 77
REMARK SMILES IDX 70 78 71 79 79 80 72 81 78 82 80 83 77 84 73 85 74 86 75 87
REMARK SMILES IDX 76 88 55 89 56 90 64 91 57 92 63 93 65 94 62 95 58 96 59 97
REMARK SMILES IDX 60 98 61 99
REMARK H PARENT 22 5 9 16 26 33 85 52 53 63
REMARK Flexibility Score: inf
ROOT
ATOM      1  C   UNL A   1      38.747  20.981  25.760  1.00  0.00     0.117 C 
ENDROOT
BRANCH   1   2
ATOM      2  N   UNL A   1      38.076  21.834  24.798  1.00  0.00    -0.354 N 
ATOM      3  C   UNL A   1      36.743  21.927  24.502  1.00  0.00     0.241 C 
ATOM      4  O   UNL A   1      36.402  22.761  23.661  1.00  0.00    -0.273 OA
ATOM      5  H   UNL A   1      38.664  22.432  24.284  1.00  0.00     0.163 HD
BRANCH   3   6
ATOM      6  C   UNL A   1      35.714  21.136  25.279  1.00  0.00     0.243 C 
BRANCH   6   7
ATOM      7  N   UNL A   1      34.398  21.747  25.302  1.00  0.00    -0.262 N 
ATOM      8  C   UNL A   1      32.701  23.100  25.703  1.00  0.00     0.078 A 
ATOM      9  C   UNL A   1      32.339  21.991  24.910  1.00  0.00     0.149 A 
ATOM     10  C   UNL A   1      34.068  22.954  25.854  1.00  0.00     0.123 A 
ATOM     11  N   UNL A   1      33.360  21.160  24.681  1.00  0.00    -0.180 NA
BRANCH   8  12
ATOM     12  C   UNL A   1      31.921  24.219  26.207  1.00  0.00     0.257 C 
ATOM     13  N   UNL A   1      31.015  27.696  23.733  1.00  0.00    -0.328 N 
ATOM     14  C   UNL A   1      30.875  27.724  25.189  1.00  0.00     0.284 C 
ATOM     15  C   UNL A   1      32.080  26.782  23.323  1.00  0.00     0.284 C 
ATOM     16  H   UNL A   1      31.324  28.635  23.478  1.00  0.00     0.348 HD
ATOM     17  C   UNL A   1      30.808  26.352  25.886  1.00  0.00     0.181 C 
ATOM     18  C   UNL A   1      32.076  25.386  23.968  1.00  0.00     0.181 C 
ATOM     19  N   UNL A   1      31.776  25.362  25.405  1.00  0.00    -0.327 N 
ATOM     20  O   UNL A   1      31.346  24.114  27.290  1.00  0.00    -0.269 OA
BRANCH  13  21
ATOM     21  C   UNL A   1      29.787  27.671  22.931  1.00  0.00     0.302 C 
BRANCH  21  22
ATOM     22  C   UNL A   1      29.049  28.966  22.886  1.00  0.00     0.047 A 
ATOM     23  C   UNL A   1      26.594  28.248  23.512  1.00  0.00     0.069 C 
ATOM     24  C   UNL A   1      27.659  29.197  23.111  1.00  0.00     0.068 A 
ATOM     25  N   UNL A   1      27.320  30.468  22.868  1.00  0.00    -0.178 NA
ATOM     26  N   UNL A   1      28.474  31.053  22.530  1.00  0.00    -0.275 N 
ATOM     27  C   UNL A   1      29.555  30.232  22.658  1.00  0.00     0.118 A 
ATOM     28  C   UNL A   1      28.458  32.371  21.952  1.00  0.00     0.173 C 
ENDBRANCH  21  22
ENDBRANCH  13  21
ENDBRANCH   8  12
ENDBRANCH   6   7
ENDBRANCH   3   6
ENDBRANCH   1   2
BRANCH   1  29
ATOM     29  C   UNL A   1      39.299  19.708  25.117  1.00  0.00     0.042 C 
BRANCH  29  30
ATOM     30  C   UNL A   1      40.103  18.864  26.091  1.00  0.00     0.118 C 
BRANCH  30  31
ATOM     31  N   UNL A   1      41.526  18.777  25.752  1.00  0.00    -0.352 N 
ATOM     32  C   UNL A   1      42.476  19.792  25.746  1.00  0.00     0.251 C 
ATOM     33  H   UNL A   1      41.852  17.884  25.497  1.00  0.00     0.163 HD
ATOM     34  O   UNL A   1      43.529  19.647  25.162  1.00  0.00    -0.269 OA
BRANCH  32  35
ATOM     35  C   UNL A   1      42.146  21.044  26.457  1.00  0.00     0.039 A 
ATOM     36  C   UNL A   1      41.913  21.072  27.832  1.00  0.00     0.014 A 
ATOM     37  C   UNL A   1      42.189  22.219  25.721  1.00  0.00     0.014 A 
ATOM     38  C   UNL A   1      41.863  22.308  28.479  1.00  0.00     0.010 A 
ATOM     39  C   UNL A   1      42.336  23.412  26.380  1.00  0.00     0.010 A 
ATOM     40  C   UNL A   1      42.125  23.483  27.755  1.00  0.00    -0.014 A 
BRANCH  40  41
ATOM     41  C   UNL A   1      42.303  24.773  28.428  1.00  0.00     0.031 A 
ATOM     42  C   UNL A   1      41.198  25.760  28.260  1.00  0.00     0.074 A 
ATOM     43  C   UNL A   1      43.248  24.999  29.369  1.00  0.00     0.049 A 
ATOM     44  N   UNL A   1      41.250  26.920  27.695  1.00  0.00    -0.248 NA
ATOM     45  C   UNL A   1      39.843  25.376  28.686  1.00  0.00     0.031 C 
ATOM     46  C   UNL A   1      44.230  24.054  29.915  1.00  0.00     0.029 A 
ATOM     47  N   UNL A   1      43.425  26.095  30.158  1.00  0.00    -0.354 N 
ATOM     48  C   UNL A   1      40.005  27.513  27.894  1.00  0.00     0.074 A 
ATOM     49  C   UNL A   1      39.137  26.451  28.331  1.00  0.00     0.031 C 
ATOM     50  C   UNL A   1      44.683  24.509  31.101  1.00  0.00     0.029 A 
ATOM     51  C   UNL A   1      44.185  25.857  31.297  1.00  0.00     0.049 A 
ATOM     52  H   UNL A   1      43.047  26.978  29.940  1.00  0.00     0.167 HD
ATOM     53  C   UNL A   1      39.850  28.869  27.891  1.00  0.00     0.034 A 
ATOM     54  C   UNL A   1      44.381  26.690  32.350  1.00  0.00     0.034 A 
ATOM     55  C   UNL A   1      41.003  29.522  27.309  1.00  0.00     0.049 A 
ATOM     56  C   UNL A   1      44.130  28.065  31.856  1.00  0.00     0.074 A 
ATOM     57  C   UNL A   1      41.676  29.401  26.105  1.00  0.00     0.029 A 
ATOM     58  N   UNL A   1      41.883  30.179  28.143  1.00  0.00    -0.354 N 
ATOM     59  N   UNL A   1      44.861  28.642  30.941  1.00  0.00    -0.248 NA
ATOM     60  C   UNL A   1      42.800  28.626  32.026  1.00  0.00     0.031 C 
ATOM     61  C   UNL A   1      43.058  29.465  26.457  1.00  0.00     0.029 A 
ATOM     62  C   UNL A   1      43.140  29.719  27.828  1.00  0.00     0.049 A 
ATOM     63  H   UNL A   1      41.655  30.845  28.831  1.00  0.00     0.167 HD
ATOM     64  C   UNL A   1      43.958  29.312  30.132  1.00  0.00     0.074 A 
ATOM     65  C   UNL A   1      42.724  29.364  30.914  1.00  0.00     0.031 C 
ATOM     66  C   UNL A   1      44.197  29.508  28.799  1.00  0.00     0.034 A 
BRANCH  53  67
ATOM     67  C   UNL A   1      38.821  29.640  28.697  1.00  0.00     0.023 A 
ATOM     68  C   UNL A   1      38.981  29.669  30.098  1.00  0.00     0.031 A 
ATOM     69  C   UNL A   1      37.574  30.100  28.220  1.00  0.00     0.131 A 
ATOM     70  C   UNL A   1      37.919  30.034  30.946  1.00  0.00     0.055 A 
ATOM     71  C   UNL A   1      36.546  30.535  29.064  1.00  0.00     0.041 A 
ATOM     72  F   UNL A   1      37.238  30.071  26.925  1.00  0.00    -0.206 F 
ATOM     73  C   UNL A   1      36.702  30.472  30.437  1.00  0.00     0.022 A 
BRANCH  70  74
ATOM     74  S   UNL A   1      38.095  29.732  32.724  1.00  0.00     0.124 S 
ATOM     75  O   UNL A   1      37.437  30.905  33.288  1.00  0.00    -0.237 OA
ATOM     76  O   UNL A   1      37.397  28.461  32.882  1.00  0.00    -0.237 OA
ATOM     77  O   UNL A   1      39.543  29.676  32.916  1.00  0.00    -0.744 OA
ENDBRANCH  70  74
ENDBRANCH  53  67
BRANCH  54  78
ATOM     78  C   UNL A   1      44.520  26.318  33.782  1.00  0.00     0.023 A 
ATOM     79  C   UNL A   1      43.466  26.463  34.704  1.00  0.00     0.031 A 
ATOM     80  C   UNL A   1      45.650  25.588  34.222  1.00  0.00     0.131 A 
ATOM     81  C   UNL A   1      43.564  25.894  35.994  1.00  0.00     0.055 A 
ATOM     82  C   UNL A   1      45.749  25.040  35.502  1.00  0.00     0.041 A 
ATOM     83  F   UNL A   1      46.665  25.308  33.389  1.00  0.00    -0.206 F 
ATOM     84  C   UNL A   1      44.699  25.183  36.393  1.00  0.00     0.022 A 
BRANCH  81  85
ATOM     85  S   UNL A   1      42.151  25.970  37.140  1.00  0.00     0.124 S 
ATOM     86  O   UNL A   1      42.808  26.192  38.423  1.00  0.00    -0.237 OA
ATOM     87  O   UNL A   1      41.373  27.083  36.609  1.00  0.00    -0.237 OA
ATOM     88  O   UNL A   1      41.521  24.658  36.989  1.00  0.00    -0.744 OA
ENDBRANCH  81  85
ENDBRANCH  54  78
BRANCH  66  89
ATOM     89  C   UNL A   1      45.592  29.253  28.250  1.00  0.00     0.023 A 
ATOM     90  C   UNL A   1      46.059  28.009  27.767  1.00  0.00     0.031 A 
ATOM     91  C   UNL A   1      46.438  30.366  28.089  1.00  0.00     0.131 A 
ATOM     92  C   UNL A   1      47.330  27.914  27.164  1.00  0.00     0.055 A 
ATOM     93  C   UNL A   1      47.685  30.274  27.471  1.00  0.00     0.041 A 
ATOM     94  F   UNL A   1      46.048  31.586  28.500  1.00  0.00    -0.206 F 
ATOM     95  C   UNL A   1      48.139  29.044  27.011  1.00  0.00     0.022 A 
BRANCH  92  96
ATOM     96  S   UNL A   1      47.969  26.310  26.580  1.00  0.00     0.124 S 
ATOM     97  O   UNL A   1      46.987  25.886  25.589  1.00  0.00    -0.237 OA
ATOM     98  O   UNL A   1      49.288  26.666  26.062  1.00  0.00    -0.237 OA
ATOM     99  O   UNL A   1      47.997  25.494  27.796  1.00  0.00    -0.744 OA
ENDBRANCH  92  96
ENDBRANCH  66  89
ENDBRANCH  40  41
ENDBRANCH  32  35
ENDBRANCH  30  31
ENDBRANCH  29  30
ENDBRANCH   1  29
TORSDOF 17
ENDMDL
MODEL 3
REMARK VINA RESULT:     -11.8      3.120      7.327
REMARK SMILES Cc1nn(C)cc1C[NH+]1CCN(C(=O)c2cnn(CC(=O)NCCCNC(=O)c3ccc(-c4c5nc(c(-c6cc(S(=O)(=O)[O-])ccc6F)c6ccc([nH]6)c(-c6cc(S(=O)(=O)[O-])ccc6F)c6nc(c(-c7cc(S(=O)(=O)[O-])ccc7F)c7ccc4[nH]7)C=C6)C=C5)cc3)c2)CC1
REMARK SMILES IDX 23 1 22 2 20 3 21 4 19 6 18 7 15 8 16 9 92 10 17 11 13 12
REMARK SMILES IDX 9 13 10 14 94 15 11 17 93 18 12 19 14 20 8 21 7 22 1 23 2 24
REMARK SMILES IDX 3 25 4 26 6 27 5 28 24 29 25 30 26 31 27 32 28 34 29 35
REMARK SMILES IDX 30 36 91 37 31 38 90 39 32 40 33 41 34 42 84 43 35 44 89 45
REMARK SMILES IDX 83 46 85 47 36 48 88 49 82 50 81 51 37 53 69 54 49 55 68 56
REMARK SMILES IDX 50 57 53 58 67 59 86 60 51 61 52 62 66 64 87 65 54 66 38 67
REMARK SMILES IDX 39 68 47 69 40 70 46 71 48 72 45 73 41 74 42 75 43 76 44 77
REMARK SMILES IDX 70 78 71 79 79 80 72 81 78 82 80 83 77 84 73 85 74 86 75 87
REMARK SMILES IDX 76 88 55 89 56 90 64 91 57 92 63 93 65 94 62 95 58 96 59 97
REMARK SMILES IDX 60 98 61 99
REMARK H PARENT 22 5 9 16 26 33 85 52 53 63
REMARK Flexibility Score: inf
ROOT
ATOM      1  C   UNL A   1      37.762  19.932  24.654  1.00  0.00     0.117 C 
ENDROOT
BRANCH   1   2
ATOM      2  N   UNL A   1      37.634  21.376  24.689  1.00  0.00    -0.354 N 
ATOM      3  C   UNL A   1      36.506  22.150  24.663  1.00  0.00     0.241 C 
ATOM      4  O   UNL A   1      36.650  23.372  24.741  1.00  0.00    -0.273 OA
ATOM      5  H   UNL A   1      38.483  21.872  24.740  1.00  0.00     0.163 HD
BRANCH   3   6
ATOM      6  C   UNL A   1      35.130  21.523  24.682  1.00  0.00     0.243 C 
BRANCH   6   7
ATOM      7  N   UNL A   1      34.192  22.188  25.567  1.00  0.00    -0.262 N 
ATOM      8  C   UNL A   1      32.682  23.567  26.397  1.00  0.00     0.078 A 
ATOM      9  C   UNL A   1      33.120  22.608  27.335  1.00  0.00     0.149 A 
ATOM     10  C   UNL A   1      33.332  23.197  25.233  1.00  0.00     0.123 A 
ATOM     11  N   UNL A   1      34.047  21.784  26.841  1.00  0.00    -0.180 NA
BRANCH   8  12
ATOM     12  C   UNL A   1      31.721  24.652  26.507  1.00  0.00     0.257 C 
ATOM     13  N   UNL A   1      32.871  28.819  25.918  1.00  0.00    -0.328 N 
ATOM     14  C   UNL A   1      31.617  28.447  26.574  1.00  0.00     0.284 C 
ATOM     15  C   UNL A   1      33.907  27.815  26.154  1.00  0.00     0.284 C 
ATOM     16  H   UNL A   1      33.177  29.669  26.392  1.00  0.00     0.348 HD
ATOM     17  C   UNL A   1      31.136  27.002  26.339  1.00  0.00     0.181 C 
ATOM     18  C   UNL A   1      33.508  26.346  25.932  1.00  0.00     0.181 C 
ATOM     19  N   UNL A   1      32.180  25.976  26.435  1.00  0.00    -0.327 N 
ATOM     20  O   UNL A   1      30.520  24.389  26.587  1.00  0.00    -0.269 OA
BRANCH  13  21
ATOM     21  C   UNL A   1      32.793  29.371  24.561  1.00  0.00     0.302 C 
BRANCH  21  22
ATOM     22  C   UNL A   1      31.566  28.986  23.806  1.00  0.00     0.047 A 
ATOM     23  C   UNL A   1      32.332  26.806  22.542  1.00  0.00     0.069 C 
ATOM     24  C   UNL A   1      31.390  27.888  22.911  1.00  0.00     0.068 A 
ATOM     25  N   UNL A   1      30.191  27.918  22.316  1.00  0.00    -0.178 NA
ATOM     26  N   UNL A   1      29.594  28.992  22.845  1.00  0.00    -0.275 N 
ATOM     27  C   UNL A   1      30.319  29.582  23.836  1.00  0.00     0.118 A 
ATOM     28  C   UNL A   1      28.379  29.489  22.254  1.00  0.00     0.173 C 
ENDBRANCH  21  22
ENDBRANCH  13  21
ENDBRANCH   8  12
ENDBRANCH   6   7
ENDBRANCH   3   6
ENDBRANCH   1   2
BRANCH   1  29
ATOM     29  C   UNL A   1      38.508  19.390  25.874  1.00  0.00     0.042 C 
BRANCH  29  30
ATOM     30  C   UNL A   1      39.842  20.083  26.096  1.00  0.00     0.118 C 
BRANCH  30  31
ATOM     31  N   UNL A   1      40.997  19.261  25.722  1.00  0.00    -0.352 N 
ATOM     32  C   UNL A   1      42.329  19.642  25.611  1.00  0.00     0.251 C 
ATOM     33  H   UNL A   1      40.803  18.316  25.524  1.00  0.00     0.163 HD
ATOM     34  O   UNL A   1      43.121  18.949  25.008  1.00  0.00    -0.269 OA
BRANCH  32  35
ATOM     35  C   UNL A   1      42.731  20.919  26.236  1.00  0.00     0.039 A 
ATOM     36  C   UNL A   1      42.951  22.072  25.482  1.00  0.00     0.014 A 
ATOM     37  C   UNL A   1      42.768  20.960  27.622  1.00  0.00     0.014 A 
ATOM     38  C   UNL A   1      43.071  23.295  26.146  1.00  0.00     0.010 A 
ATOM     39  C   UNL A   1      42.689  22.174  28.255  1.00  0.00     0.010 A 
ATOM     40  C   UNL A   1      42.890  23.351  27.538  1.00  0.00    -0.014 A 
BRANCH  40  41
ATOM     41  C   UNL A   1      42.787  24.631  28.245  1.00  0.00     0.031 A 
ATOM     42  C   UNL A   1      41.466  25.317  28.171  1.00  0.00     0.074 A 
ATOM     43  C   UNL A   1      43.704  25.064  29.140  1.00  0.00     0.049 A 
ATOM     44  N   UNL A   1      41.197  26.466  27.644  1.00  0.00    -0.248 NA
ATOM     45  C   UNL A   1      40.275  24.603  28.657  1.00  0.00     0.031 C 
ATOM     46  C   UNL A   1      44.920  24.380  29.599  1.00  0.00     0.029 A 
ATOM     47  N   UNL A   1      43.655  26.154  29.955  1.00  0.00    -0.354 N 
ATOM     48  C   UNL A   1      39.859  26.729  27.931  1.00  0.00     0.074 A 
ATOM     49  C   UNL A   1      39.307  25.477  28.378  1.00  0.00     0.031 C 
ATOM     50  C   UNL A   1      45.319  24.909  30.773  1.00  0.00     0.029 A 
ATOM     51  C   UNL A   1      44.519  26.088  31.043  1.00  0.00     0.049 A 
ATOM     52  H   UNL A   1      43.060  26.921  29.788  1.00  0.00     0.167 HD
ATOM     53  C   UNL A   1      39.377  28.005  27.983  1.00  0.00     0.034 A 
ATOM     54  C   UNL A   1      44.568  26.923  32.111  1.00  0.00     0.034 A 
ATOM     55  C   UNL A   1      40.297  28.934  27.362  1.00  0.00     0.049 A 
ATOM     56  C   UNL A   1      43.958  28.203  31.679  1.00  0.00     0.074 A 
ATOM     57  C   UNL A   1      40.904  29.006  26.120  1.00  0.00     0.029 A 
ATOM     58  N   UNL A   1      41.039  29.770  28.169  1.00  0.00    -0.354 N 
ATOM     59  N   UNL A   1      44.468  28.960  30.746  1.00  0.00    -0.248 NA
ATOM     60  C   UNL A   1      42.544  28.415  31.941  1.00  0.00     0.031 C 
ATOM     61  C   UNL A   1      42.247  29.402  26.398  1.00  0.00     0.029 A 
ATOM     62  C   UNL A   1      42.348  29.642  27.770  1.00  0.00     0.049 A 
ATOM     63  H   UNL A   1      40.697  30.346  28.891  1.00  0.00     0.167 HD
ATOM     64  C   UNL A   1      43.380  29.403  30.011  1.00  0.00     0.074 A 
ATOM     65  C   UNL A   1      42.222  29.133  30.861  1.00  0.00     0.031 C 
ATOM     66  C   UNL A   1      43.482  29.679  28.675  1.00  0.00     0.034 A 
BRANCH  53  67
ATOM     67  C   UNL A   1      38.242  28.482  28.871  1.00  0.00     0.023 A 
ATOM     68  C   UNL A   1      37.300  29.365  28.304  1.00  0.00     0.031 A 
ATOM     69  C   UNL A   1      38.183  28.353  30.276  1.00  0.00     0.131 A 
ATOM     70  C   UNL A   1      36.442  30.134  29.112  1.00  0.00     0.055 A 
ATOM     71  C   UNL A   1      37.275  29.062  31.071  1.00  0.00     0.041 A 
ATOM     72  F   UNL A   1      39.051  27.611  30.973  1.00  0.00    -0.206 F 
ATOM     73  C   UNL A   1      36.421  29.985  30.494  1.00  0.00     0.022 A 
BRANCH  70  74
ATOM     74  S   UNL A   1      35.500  31.473  28.336  1.00  0.00     0.124 S 
ATOM     75  O   UNL A   1      36.565  32.385  27.932  1.00  0.00    -0.237 OA
ATOM     76  O   UNL A   1      34.810  30.769  27.261  1.00  0.00    -0.237 OA
ATOM     77  O   UNL A   1      34.643  31.955  29.418  1.00  0.00    -0.744 OA
ENDBRANCH  70  74
ENDBRANCH  53  67
BRANCH  54  78
ATOM     78  C   UNL A   1      44.882  26.568  33.520  1.00  0.00     0.023 A 
ATOM     79  C   UNL A   1      44.744  25.256  34.014  1.00  0.00     0.031 A 
ATOM     80  C   UNL A   1      45.551  27.493  34.356  1.00  0.00     0.131 A 
ATOM     81  C   UNL A   1      45.260  24.916  35.286  1.00  0.00     0.055 A 
ATOM     82  C   UNL A   1      46.047  27.156  35.616  1.00  0.00     0.041 A 
ATOM     83  F   UNL A   1      45.823  28.739  33.937  1.00  0.00    -0.206 F 
ATOM     84  C   UNL A   1      45.912  25.860  36.084  1.00  0.00     0.022 A 
BRANCH  81  85
ATOM     85  S   UNL A   1      45.196  23.193  35.871  1.00  0.00     0.124 S 
ATOM     86  O   UNL A   1      46.319  22.587  35.166  1.00  0.00    -0.237 OA
ATOM     87  O   UNL A   1      45.342  23.344  37.314  1.00  0.00    -0.237 OA
ATOM     88  O   UNL A   1      43.876  22.736  35.436  1.00  0.00    -0.744 OA
ENDBRANCH  81  85
ENDBRANCH  54  78
BRANCH  66  89
ATOM     89  C   UNL A   1      44.860  29.787  28.042  1.00  0.00     0.023 A 
ATOM     90  C   UNL A   1      45.475  28.782  27.258  1.00  0.00     0.031 A 
ATOM     91  C   UNL A   1      45.520  31.027  28.133  1.00  0.00     0.131 A 
ATOM     92  C   UNL A   1      46.703  29.037  26.616  1.00  0.00     0.055 A 
ATOM     93  C   UNL A   1      46.724  31.283  27.477  1.00  0.00     0.041 A 
ATOM     94  F   UNL A   1      44.981  32.036  28.839  1.00  0.00    -0.206 F 
ATOM     95  C   UNL A   1      47.324  30.285  26.720  1.00  0.00     0.022 A 
BRANCH  92  96
ATOM     96  S   UNL A   1      47.535  27.739  25.643  1.00  0.00     0.124 S 
ATOM     97  O   UNL A   1      46.689  27.596  24.463  1.00  0.00    -0.237 OA
ATOM     98  O   UNL A   1      48.858  28.314  25.414  1.00  0.00    -0.237 OA
ATOM     99  O   UNL A   1      47.524  26.583  26.542  1.00  0.00    -0.744 OA
ENDBRANCH  92  96
ENDBRANCH  66  89
ENDBRANCH  40  41
ENDBRANCH  32  35
ENDBRANCH  30  31
ENDBRANCH  29  30
ENDBRANCH   1  29
TORSDOF 17
ENDMDL
