MODEL 1
REMARK VINA RESULT:     -13.0      0.000      0.000
REMARK SMILES O=C(NCCCNC(=O)c1ccc(-c2c3nc(c(-c4cc(S(=O)(=O)[O-])ccc4F)c4ccc([nH]4)c(-c4cc(S(=O)(=O)[O-])ccc4F)c4nc(c(-c5cc(S(=O)(=O)[O-])ccc5F)c5ccc2[nH]5)C=C4)C=C3)cc1)C1=Cc2cc(C(F)(F)F)ccc2O[C@@H]1C(F)(F)F
REMARK SMILES IDX 6 1 5 2 4 3 3 4 1 5 2 6 73 8 74 9 86 10 75 11 85 12 76 13
REMARK SMILES IDX 84 14 77 15 83 16 82 17 87 18 88 19 89 20 90 21 78 22 79 23
REMARK SMILES IDX 80 24 81 25 7 26 8 27 9 29 10 30 11 31 72 32 12 33 71 34
REMARK SMILES IDX 13 35 14 36 15 37 65 38 16 39 70 40 64 41 66 42 17 43 69 44
REMARK SMILES IDX 63 45 62 46 18 48 50 49 30 50 49 51 31 52 34 53 48 54 67 55
REMARK SMILES IDX 32 56 33 57 47 59 68 60 35 61 19 62 20 63 28 64 21 65 27 66
REMARK SMILES IDX 29 67 26 68 22 69 23 70 24 71 25 72 51 73 52 74 60 75 53 76
REMARK SMILES IDX 59 77 61 78 58 79 54 80 55 81 56 82 57 83 36 84 37 85 45 86
REMARK SMILES IDX 38 87 44 88 46 89 43 90 39 91 40 92 41 93 42 94
REMARK H PARENT 3 7 7 28 66 47 34 58
REMARK Flexibility Score: inf
ROOT
ATOM      1  C   UNL A   1      32.661  29.834  25.825  1.00  0.00     0.118 C 
ENDROOT
BRANCH   1   2
ATOM      2  C   UNL A   1      31.705  28.757  26.323  1.00  0.00     0.042 C 
BRANCH   2   3
ATOM      3  C   UNL A   1      32.348  27.377  26.378  1.00  0.00     0.118 C 
BRANCH   3   4
ATOM      4  N   UNL A   1      31.442  26.333  26.863  1.00  0.00    -0.352 N 
ATOM      5  O   UNL A   1      30.183  24.453  26.755  1.00  0.00    -0.270 OA
ATOM      6  C   UNL A   1      30.695  25.405  26.181  1.00  0.00     0.251 C 
ATOM      7  H   UNL A   1      31.353  26.291  27.843  1.00  0.00     0.163 HD
BRANCH   6   8
ATOM      8  C   UNL A   1      30.613  25.540  24.715  1.00  0.00     0.067 C 
ATOM      9  C   UNL A   1      29.501  26.043  24.164  1.00  0.00     0.025 C 
ATOM     10  C   UNL A   1      31.897  25.434  23.952  1.00  0.00     0.314 C 
ATOM     11  C   UNL A   1      29.811  27.195  23.303  1.00  0.00     0.018 A 
ATOM     12  O   UNL A   1      32.196  26.629  23.187  1.00  0.00    -0.475 OA
ATOM     13  C   UNL A   1      28.846  28.206  23.210  1.00  0.00     0.025 A 
ATOM     14  C   UNL A   1      31.144  27.482  22.952  1.00  0.00     0.128 A 
ATOM     15  C   UNL A   1      29.215  29.517  22.862  1.00  0.00     0.056 A 
ATOM     16  C   UNL A   1      31.503  28.763  22.536  1.00  0.00     0.048 A 
ATOM     17  C   UNL A   1      30.548  29.781  22.515  1.00  0.00     0.017 A 
BRANCH  10  18
ATOM     18  C   UNL A   1      31.872  24.201  23.034  1.00  0.00     0.429 C 
ATOM     19  F   UNL A   1      31.819  24.565  21.729  1.00  0.00    -0.167 F 
ATOM     20  F   UNL A   1      32.981  23.438  23.179  1.00  0.00    -0.167 F 
ATOM     21  F   UNL A   1      30.803  23.403  23.268  1.00  0.00    -0.167 F 
ENDBRANCH  10  18
BRANCH  15  22
ATOM     22  C   UNL A   1      28.194  30.629  22.925  1.00  0.00     0.416 C 
ATOM     23  F   UNL A   1      27.655  30.900  21.708  1.00  0.00    -0.166 F 
ATOM     24  F   UNL A   1      27.148  30.328  23.745  1.00  0.00    -0.166 F 
ATOM     25  F   UNL A   1      28.703  31.803  23.389  1.00  0.00    -0.166 F 
ENDBRANCH  15  22
ENDBRANCH   6   8
ENDBRANCH   3   4
ENDBRANCH   2   3
ENDBRANCH   1   2
BRANCH   1  26
ATOM     26  N   UNL A   1      32.400  31.163  26.364  1.00  0.00    -0.352 N 
ATOM     27  C   UNL A   1      33.143  31.939  27.236  1.00  0.00     0.251 C 
ATOM     28  H   UNL A   1      31.561  31.576  26.058  1.00  0.00     0.163 HD
ATOM     29  O   UNL A   1      32.695  33.011  27.602  1.00  0.00    -0.269 OA
BRANCH  27  30
ATOM     30  C   UNL A   1      34.444  31.446  27.762  1.00  0.00     0.039 A 
ATOM     31  C   UNL A   1      35.482  32.361  27.969  1.00  0.00     0.014 A 
ATOM     32  C   UNL A   1      34.641  30.104  28.083  1.00  0.00     0.014 A 
ATOM     33  C   UNL A   1      36.668  31.940  28.579  1.00  0.00     0.010 A 
ATOM     34  C   UNL A   1      35.757  29.721  28.816  1.00  0.00     0.010 A 
ATOM     35  C   UNL A   1      36.797  30.627  29.060  1.00  0.00    -0.014 A 
BRANCH  35  36
ATOM     36  C   UNL A   1      38.012  30.176  29.793  1.00  0.00     0.031 A 
ATOM     37  C   UNL A   1      38.252  30.632  31.212  1.00  0.00     0.074 A 
ATOM     38  C   UNL A   1      38.933  29.419  29.161  1.00  0.00     0.049 A 
ATOM     39  N   UNL A   1      39.279  30.413  31.994  1.00  0.00    -0.248 NA
ATOM     40  C   UNL A   1      37.223  31.495  31.813  1.00  0.00     0.031 C 
ATOM     41  C   UNL A   1      38.860  28.985  27.763  1.00  0.00     0.029 A 
ATOM     42  N   UNL A   1      40.111  28.877  29.609  1.00  0.00    -0.354 N 
ATOM     43  C   UNL A   1      39.031  31.136  33.157  1.00  0.00     0.074 A 
ATOM     44  C   UNL A   1      37.806  31.871  32.940  1.00  0.00     0.031 C 
ATOM     45  C   UNL A   1      39.914  28.200  27.487  1.00  0.00     0.029 A 
ATOM     46  C   UNL A   1      40.761  28.108  28.670  1.00  0.00     0.049 A 
ATOM     47  H   UNL A   1      40.459  29.023  30.518  1.00  0.00     0.167 HD
ATOM     48  C   UNL A   1      39.735  31.155  34.317  1.00  0.00     0.034 A 
ATOM     49  C   UNL A   1      41.907  27.405  28.756  1.00  0.00     0.034 A 
ATOM     50  C   UNL A   1      40.933  30.378  34.529  1.00  0.00     0.049 A 
ATOM     51  C   UNL A   1      42.648  27.398  30.069  1.00  0.00     0.074 A 
ATOM     52  C   UNL A   1      41.697  30.263  35.676  1.00  0.00     0.029 A 
ATOM     53  N   UNL A   1      41.536  29.576  33.567  1.00  0.00    -0.354 N 
ATOM     54  N   UNL A   1      42.366  28.037  31.182  1.00  0.00    -0.248 NA
ATOM     55  C   UNL A   1      43.846  26.556  30.144  1.00  0.00     0.031 C 
ATOM     56  C   UNL A   1      42.792  29.438  35.393  1.00  0.00     0.029 A 
ATOM     57  C   UNL A   1      42.672  28.977  34.091  1.00  0.00     0.049 A 
ATOM     58  H   UNL A   1      41.207  29.452  32.649  1.00  0.00     0.167 HD
ATOM     59  C   UNL A   1      43.340  27.650  32.097  1.00  0.00     0.074 A 
ATOM     60  C   UNL A   1      44.194  26.700  31.413  1.00  0.00     0.031 C 
ATOM     61  C   UNL A   1      43.519  28.043  33.386  1.00  0.00     0.034 A 
BRANCH  48  62
ATOM     62  C   UNL A   1      39.224  32.047  35.427  1.00  0.00     0.023 A 
ATOM     63  C   UNL A   1      39.614  33.395  35.531  1.00  0.00     0.031 A 
ATOM     64  C   UNL A   1      38.375  31.535  36.424  1.00  0.00     0.131 A 
ATOM     65  C   UNL A   1      39.239  34.153  36.651  1.00  0.00     0.055 A 
ATOM     66  C   UNL A   1      37.927  32.323  37.487  1.00  0.00     0.041 A 
ATOM     67  F   UNL A   1      37.982  30.252  36.396  1.00  0.00    -0.206 F 
ATOM     68  C   UNL A   1      38.374  33.635  37.616  1.00  0.00     0.022 A 
BRANCH  65  69
ATOM     69  S   UNL A   1      40.031  35.764  36.911  1.00  0.00     0.124 S 
ATOM     70  O   UNL A   1      41.445  35.392  36.949  1.00  0.00    -0.237 OA
ATOM     71  O   UNL A   1      39.602  36.519  35.740  1.00  0.00    -0.237 OA
ATOM     72  O   UNL A   1      39.479  36.217  38.186  1.00  0.00    -0.744 OA
ENDBRANCH  65  69
ENDBRANCH  48  62
BRANCH  49  73
ATOM     73  C   UNL A   1      42.414  26.629  27.587  1.00  0.00     0.023 A 
ATOM     74  C   UNL A   1      42.048  25.285  27.397  1.00  0.00     0.031 A 
ATOM     75  C   UNL A   1      43.303  27.204  26.662  1.00  0.00     0.131 A 
ATOM     76  C   UNL A   1      42.608  24.547  26.342  1.00  0.00     0.055 A 
ATOM     77  C   UNL A   1      43.814  26.481  25.582  1.00  0.00     0.041 A 
ATOM     78  F   UNL A   1      43.679  28.486  26.788  1.00  0.00    -0.206 F 
ATOM     79  C   UNL A   1      43.478  25.139  25.426  1.00  0.00     0.022 A 
BRANCH  76  80
ATOM     80  S   UNL A   1      42.246  22.772  26.237  1.00  0.00     0.124 S 
ATOM     81  O   UNL A   1      43.012  22.244  27.360  1.00  0.00    -0.237 OA
ATOM     82  O   UNL A   1      40.794  22.750  26.383  1.00  0.00    -0.237 OA
ATOM     83  O   UNL A   1      42.742  22.402  24.913  1.00  0.00    -0.744 OA
ENDBRANCH  76  80
ENDBRANCH  49  73
BRANCH  61  84
ATOM     84  C   UNL A   1      44.663  27.404  34.135  1.00  0.00     0.023 A 
ATOM     85  C   UNL A   1      44.487  26.224  34.878  1.00  0.00     0.031 A 
ATOM     86  C   UNL A   1      45.931  28.011  34.146  1.00  0.00     0.131 A 
ATOM     87  C   UNL A   1      45.537  25.736  35.671  1.00  0.00     0.055 A 
ATOM     88  C   UNL A   1      46.994  27.479  34.876  1.00  0.00     0.041 A 
ATOM     89  F   UNL A   1      46.156  29.139  33.453  1.00  0.00    -0.206 F 
ATOM     90  C   UNL A   1      46.794  26.346  35.663  1.00  0.00     0.022 A 
BRANCH  87  91
ATOM     91  S   UNL A   1      45.192  24.379  36.823  1.00  0.00     0.124 S 
ATOM     92  O   UNL A   1      44.552  23.398  35.953  1.00  0.00    -0.237 OA
ATOM     93  O   UNL A   1      46.525  24.033  37.304  1.00  0.00    -0.237 OA
ATOM     94  O   UNL A   1      44.313  24.992  37.819  1.00  0.00    -0.744 OA
ENDBRANCH  87  91
ENDBRANCH  61  84
ENDBRANCH  35  36
ENDBRANCH  27  30
ENDBRANCH   1  26
TORSDOF 15
ENDMDL
MODEL 2
REMARK VINA RESULT:     -12.8      2.316      3.998
REMARK SMILES O=C(NCCCNC(=O)c1ccc(-c2c3nc(c(-c4cc(S(=O)(=O)[O-])ccc4F)c4ccc([nH]4)c(-c4cc(S(=O)(=O)[O-])ccc4F)c4nc(c(-c5cc(S(=O)(=O)[O-])ccc5F)c5ccc2[nH]5)C=C4)C=C3)cc1)C1=Cc2cc(C(F)(F)F)ccc2O[C@@H]1C(F)(F)F
REMARK SMILES IDX 6 1 5 2 4 3 3 4 1 5 2 6 73 8 74 9 86 10 75 11 85 12 76 13
REMARK SMILES IDX 84 14 77 15 83 16 82 17 87 18 88 19 89 20 90 21 78 22 79 23
REMARK SMILES IDX 80 24 81 25 7 26 8 27 9 29 10 30 11 31 72 32 12 33 71 34
REMARK SMILES IDX 13 35 14 36 15 37 65 38 16 39 70 40 64 41 66 42 17 43 69 44
REMARK SMILES IDX 63 45 62 46 18 48 50 49 30 50 49 51 31 52 34 53 48 54 67 55
REMARK SMILES IDX 32 56 33 57 47 59 68 60 35 61 19 62 20 63 28 64 21 65 27 66
REMARK SMILES IDX 29 67 26 68 22 69 23 70 24 71 25 72 51 73 52 74 60 75 53 76
REMARK SMILES IDX 59 77 61 78 58 79 54 80 55 81 56 82 57 83 36 84 37 85 45 86
REMARK SMILES IDX 38 87 44 88 46 89 43 90 39 91 40 92 41 93 42 94
REMARK H PARENT 3 7 7 28 66 47 34 58
REMARK Flexibility Score: inf
ROOT
ATOM      1  C   UNL A   1      32.975  29.820  26.307  1.00  0.00     0.118 C 
ENDROOT
BRANCH   1   2
ATOM      2  C   UNL A   1      31.997  28.847  26.957  1.00  0.00     0.042 C 
BRANCH   2   3
ATOM      3  C   UNL A   1      32.466  27.399  26.880  1.00  0.00     0.118 C 
BRANCH   3   4
ATOM      4  N   UNL A   1      31.366  26.433  26.879  1.00  0.00    -0.352 N 
ATOM      5  O   UNL A   1      30.360  24.423  26.597  1.00  0.00    -0.270 OA
ATOM      6  C   UNL A   1      31.258  25.196  26.292  1.00  0.00     0.251 C 
ATOM      7  H   UNL A   1      30.569  26.718  27.382  1.00  0.00     0.163 HD
BRANCH   6   8
ATOM      8  C   UNL A   1      32.322  24.792  25.354  1.00  0.00     0.067 C 
ATOM      9  C   UNL A   1      33.145  23.790  25.689  1.00  0.00     0.025 C 
ATOM     10  C   UNL A   1      32.206  25.284  23.945  1.00  0.00     0.314 C 
ATOM     11  C   UNL A   1      33.147  22.739  24.659  1.00  0.00     0.018 A 
ATOM     12  O   UNL A   1      32.127  24.207  22.978  1.00  0.00    -0.475 OA
ATOM     13  C   UNL A   1      33.354  21.421  25.087  1.00  0.00     0.025 A 
ATOM     14  C   UNL A   1      32.548  22.970  23.407  1.00  0.00     0.128 A 
ATOM     15  C   UNL A   1      32.885  20.339  24.321  1.00  0.00     0.056 A 
ATOM     16  C   UNL A   1      32.147  21.899  22.609  1.00  0.00     0.048 A 
ATOM     17  C   UNL A   1      32.293  20.592  23.075  1.00  0.00     0.017 A 
BRANCH  10  18
ATOM     18  C   UNL A   1      33.377  26.222  23.609  1.00  0.00     0.429 C 
ATOM     19  F   UNL A   1      33.916  25.918  22.402  1.00  0.00    -0.167 F 
ATOM     20  F   UNL A   1      32.988  27.517  23.546  1.00  0.00    -0.167 F 
ATOM     21  F   UNL A   1      34.377  26.147  24.521  1.00  0.00    -0.167 F 
ENDBRANCH  10  18
BRANCH  15  22
ATOM     22  C   UNL A   1      32.969  18.934  24.871  1.00  0.00     0.416 C 
ATOM     23  F   UNL A   1      32.754  18.896  26.213  1.00  0.00    -0.166 F 
ATOM     24  F   UNL A   1      32.043  18.103  24.314  1.00  0.00    -0.166 F 
ATOM     25  F   UNL A   1      34.175  18.342  24.658  1.00  0.00    -0.166 F 
ENDBRANCH  15  22
ENDBRANCH   6   8
ENDBRANCH   3   4
ENDBRANCH   2   3
ENDBRANCH   1   2
BRANCH   1  26
ATOM     26  N   UNL A   1      32.897  31.182  26.820  1.00  0.00    -0.352 N 
ATOM     27  C   UNL A   1      33.788  31.899  27.597  1.00  0.00     0.251 C 
ATOM     28  H   UNL A   1      32.078  31.669  26.574  1.00  0.00     0.163 HD
ATOM     29  O   UNL A   1      33.483  33.021  27.963  1.00  0.00    -0.269 OA
BRANCH  27  30
ATOM     30  C   UNL A   1      35.076  31.289  28.026  1.00  0.00     0.039 A 
ATOM     31  C   UNL A   1      36.229  32.081  28.037  1.00  0.00     0.014 A 
ATOM     32  C   UNL A   1      35.151  29.963  28.444  1.00  0.00     0.014 A 
ATOM     33  C   UNL A   1      37.422  31.563  28.554  1.00  0.00     0.010 A 
ATOM     34  C   UNL A   1      36.293  29.500  29.087  1.00  0.00     0.010 A 
ATOM     35  C   UNL A   1      37.452  30.286  29.136  1.00  0.00    -0.014 A 
BRANCH  35  36
ATOM     36  C   UNL A   1      38.684  29.744  29.774  1.00  0.00     0.031 A 
ATOM     37  C   UNL A   1      39.098  30.222  31.145  1.00  0.00     0.074 A 
ATOM     38  C   UNL A   1      39.466  28.881  29.094  1.00  0.00     0.049 A 
ATOM     39  N   UNL A   1      40.169  29.932  31.839  1.00  0.00    -0.248 NA
ATOM     40  C   UNL A   1      38.215  31.201  31.800  1.00  0.00     0.031 C 
ATOM     41  C   UNL A   1      39.222  28.409  27.728  1.00  0.00     0.029 A 
ATOM     42  N   UNL A   1      40.626  28.243  29.456  1.00  0.00    -0.354 N 
ATOM     43  C   UNL A   1      40.100  30.715  32.988  1.00  0.00     0.074 A 
ATOM     44  C   UNL A   1      38.934  31.556  32.852  1.00  0.00     0.031 C 
ATOM     45  C   UNL A   1      40.167  27.517  27.392  1.00  0.00     0.029 A 
ATOM     46  C   UNL A   1      41.110  27.383  28.496  1.00  0.00     0.049 A 
ATOM     47  H   UNL A   1      41.070  28.385  30.323  1.00  0.00     0.167 HD
ATOM     48  C   UNL A   1      40.909  30.704  34.078  1.00  0.00     0.034 A 
ATOM     49  C   UNL A   1      42.188  26.576  28.508  1.00  0.00     0.034 A 
ATOM     50  C   UNL A   1      42.044  29.823  34.213  1.00  0.00     0.049 A 
ATOM     51  C   UNL A   1      43.046  26.542  29.747  1.00  0.00     0.074 A 
ATOM     52  C   UNL A   1      42.898  29.673  35.291  1.00  0.00     0.029 A 
ATOM     53  N   UNL A   1      42.477  28.934  33.236  1.00  0.00    -0.354 N 
ATOM     54  N   UNL A   1      42.931  27.243  30.853  1.00  0.00    -0.248 NA
ATOM     55  C   UNL A   1      44.162  25.592  29.749  1.00  0.00     0.031 C 
ATOM     56  C   UNL A   1      43.880  28.737  34.945  1.00  0.00     0.029 A 
ATOM     57  C   UNL A   1      43.596  28.246  33.679  1.00  0.00     0.049 A 
ATOM     58  H   UNL A   1      42.052  28.811  32.357  1.00  0.00     0.167 HD
ATOM     59  C   UNL A   1      43.946  26.794  31.692  1.00  0.00     0.074 A 
ATOM     60  C   UNL A   1      44.640  25.744  30.974  1.00  0.00     0.031 C 
ATOM     61  C   UNL A   1      44.282  27.211  32.941  1.00  0.00     0.034 A 
BRANCH  48  62
ATOM     62  C   UNL A   1      40.590  31.678  35.191  1.00  0.00     0.023 A 
ATOM     63  C   UNL A   1      39.607  31.398  36.159  1.00  0.00     0.031 A 
ATOM     64  C   UNL A   1      41.239  32.923  35.262  1.00  0.00     0.131 A 
ATOM     65  C   UNL A   1      39.235  32.381  37.089  1.00  0.00     0.055 A 
ATOM     66  C   UNL A   1      40.930  33.861  36.250  1.00  0.00     0.041 A 
ATOM     67  F   UNL A   1      42.171  33.261  34.357  1.00  0.00    -0.206 F 
ATOM     68  C   UNL A   1      39.909  33.601  37.159  1.00  0.00     0.022 A 
BRANCH  65  69
ATOM     69  S   UNL A   1      37.748  32.104  38.091  1.00  0.00     0.124 S 
ATOM     70  O   UNL A   1      37.405  30.728  37.733  1.00  0.00    -0.237 OA
ATOM     71  O   UNL A   1      38.239  32.307  39.448  1.00  0.00    -0.237 OA
ATOM     72  O   UNL A   1      36.813  33.117  37.605  1.00  0.00    -0.744 OA
ENDBRANCH  65  69
ENDBRANCH  48  62
BRANCH  49  73
ATOM     73  C   UNL A   1      42.509  25.716  27.331  1.00  0.00     0.023 A 
ATOM     74  C   UNL A   1      42.094  24.373  27.283  1.00  0.00     0.031 A 
ATOM     75  C   UNL A   1      43.267  26.208  26.254  1.00  0.00     0.131 A 
ATOM     76  C   UNL A   1      42.483  23.556  26.210  1.00  0.00     0.055 A 
ATOM     77  C   UNL A   1      43.605  25.406  25.162  1.00  0.00     0.041 A 
ATOM     78  F   UNL A   1      43.681  27.485  26.243  1.00  0.00    -0.206 F 
ATOM     79  C   UNL A   1      43.225  24.067  25.143  1.00  0.00     0.022 A 
BRANCH  76  80
ATOM     80  S   UNL A   1      42.076  21.790  26.272  1.00  0.00     0.124 S 
ATOM     81  O   UNL A   1      42.386  21.461  27.658  1.00  0.00    -0.237 OA
ATOM     82  O   UNL A   1      40.662  21.792  25.913  1.00  0.00    -0.237 OA
ATOM     83  O   UNL A   1      42.969  21.200  25.276  1.00  0.00    -0.744 OA
ENDBRANCH  76  80
ENDBRANCH  49  73
BRANCH  61  84
ATOM     84  C   UNL A   1      45.427  26.490  33.610  1.00  0.00     0.023 A 
ATOM     85  C   UNL A   1      45.216  25.344  34.396  1.00  0.00     0.031 A 
ATOM     86  C   UNL A   1      46.738  26.986  33.501  1.00  0.00     0.131 A 
ATOM     87  C   UNL A   1      46.283  24.783  35.112  1.00  0.00     0.055 A 
ATOM     88  C   UNL A   1      47.810  26.378  34.155  1.00  0.00     0.041 A 
ATOM     89  F   UNL A   1      46.998  28.078  32.763  1.00  0.00    -0.206 F 
ATOM     90  C   UNL A   1      47.582  25.282  34.984  1.00  0.00     0.022 A 
BRANCH  87  91
ATOM     91  S   UNL A   1      45.923  23.482  36.323  1.00  0.00     0.124 S 
ATOM     92  O   UNL A   1      47.116  22.646  36.235  1.00  0.00    -0.237 OA
ATOM     93  O   UNL A   1      45.766  24.243  37.558  1.00  0.00    -0.237 OA
ATOM     94  O   UNL A   1      44.698  22.870  35.812  1.00  0.00    -0.744 OA
ENDBRANCH  87  91
ENDBRANCH  61  84
ENDBRANCH  35  36
ENDBRANCH  27  30
ENDBRANCH   1  26
TORSDOF 15
ENDMDL
MODEL 3
REMARK VINA RESULT:     -12.8      1.364      1.699
REMARK SMILES O=C(NCCCNC(=O)c1ccc(-c2c3nc(c(-c4cc(S(=O)(=O)[O-])ccc4F)c4ccc([nH]4)c(-c4cc(S(=O)(=O)[O-])ccc4F)c4nc(c(-c5cc(S(=O)(=O)[O-])ccc5F)c5ccc2[nH]5)C=C4)C=C3)cc1)C1=Cc2cc(C(F)(F)F)ccc2O[C@@H]1C(F)(F)F
REMARK SMILES IDX 6 1 5 2 4 3 3 4 1 5 2 6 73 8 74 9 86 10 75 11 85 12 76 13
REMARK SMILES IDX 84 14 77 15 83 16 82 17 87 18 88 19 89 20 90 21 78 22 79 23
REMARK SMILES IDX 80 24 81 25 7 26 8 27 9 29 10 30 11 31 72 32 12 33 71 34
REMARK SMILES IDX 13 35 14 36 15 37 65 38 16 39 70 40 64 41 66 42 17 43 69 44
REMARK SMILES IDX 63 45 62 46 18 48 50 49 30 50 49 51 31 52 34 53 48 54 67 55
REMARK SMILES IDX 32 56 33 57 47 59 68 60 35 61 19 62 20 63 28 64 21 65 27 66
REMARK SMILES IDX 29 67 26 68 22 69 23 70 24 71 25 72 51 73 52 74 60 75 53 76
REMARK SMILES IDX 59 77 61 78 58 79 54 80 55 81 56 82 57 83 36 84 37 85 45 86
REMARK SMILES IDX 38 87 44 88 46 89 43 90 39 91 40 92 41 93 42 94
REMARK H PARENT 3 7 7 28 66 47 34 58
REMARK Flexibility Score: inf
ROOT
ATOM      1  C   UNL A   1      32.933  29.881  25.962  1.00  0.00     0.118 C 
ENDROOT
BRANCH   1   2
ATOM      2  C   UNL A   1      32.008  28.787  26.485  1.00  0.00     0.042 C 
BRANCH   2   3
ATOM      3  C   UNL A   1      32.648  27.405  26.443  1.00  0.00     0.118 C 
BRANCH   3   4
ATOM      4  N   UNL A   1      31.762  26.342  26.923  1.00  0.00    -0.352 N 
ATOM      5  O   UNL A   1      30.553  24.430  26.811  1.00  0.00    -0.270 OA
ATOM      6  C   UNL A   1      31.047  25.391  26.238  1.00  0.00     0.251 C 
ATOM      7  H   UNL A   1      31.662  26.303  27.902  1.00  0.00     0.163 HD
BRANCH   6   8
ATOM      8  C   UNL A   1      30.981  25.516  24.769  1.00  0.00     0.067 C 
ATOM      9  C   UNL A   1      29.827  25.880  24.195  1.00  0.00     0.025 C 
ATOM     10  C   UNL A   1      32.283  25.567  24.034  1.00  0.00     0.314 C 
ATOM     11  C   UNL A   1      30.013  27.061  23.338  1.00  0.00     0.018 A 
ATOM     12  O   UNL A   1      32.451  26.789  23.273  1.00  0.00    -0.475 OA
ATOM     13  C   UNL A   1      28.935  27.948  23.223  1.00  0.00     0.025 A 
ATOM     14  C   UNL A   1      31.309  27.508  23.014  1.00  0.00     0.128 A 
ATOM     15  C   UNL A   1      29.149  29.294  22.879  1.00  0.00     0.056 A 
ATOM     16  C   UNL A   1      31.518  28.823  22.602  1.00  0.00     0.048 A 
ATOM     17  C   UNL A   1      30.448  29.718  22.559  1.00  0.00     0.017 A 
BRANCH  10  18
ATOM     18  C   UNL A   1      32.428  24.340  23.118  1.00  0.00     0.429 C 
ATOM     19  F   UNL A   1      31.704  23.293  23.586  1.00  0.00    -0.167 F 
ATOM     20  F   UNL A   1      31.985  24.587  21.863  1.00  0.00    -0.167 F 
ATOM     21  F   UNL A   1      33.712  23.920  23.015  1.00  0.00    -0.167 F 
ENDBRANCH  10  18
BRANCH  15  22
ATOM     22  C   UNL A   1      28.000  30.275  22.919  1.00  0.00     0.416 C 
ATOM     23  F   UNL A   1      26.806  29.657  23.121  1.00  0.00    -0.166 F 
ATOM     24  F   UNL A   1      28.130  31.187  23.924  1.00  0.00    -0.166 F 
ATOM     25  F   UNL A   1      27.869  30.999  21.775  1.00  0.00    -0.166 F 
ENDBRANCH  15  22
ENDBRANCH   6   8
ENDBRANCH   3   4
ENDBRANCH   2   3
ENDBRANCH   1   2
BRANCH   1  26
ATOM     26  N   UNL A   1      32.731  31.185  26.583  1.00  0.00    -0.352 N 
ATOM     27  C   UNL A   1      33.527  31.888  27.469  1.00  0.00     0.251 C 
ATOM     28  H   UNL A   1      31.894  31.637  26.330  1.00  0.00     0.163 HD
ATOM     29  O   UNL A   1      33.124  32.950  27.910  1.00  0.00    -0.269 OA
BRANCH  27  30
ATOM     30  C   UNL A   1      34.829  31.329  27.921  1.00  0.00     0.039 A 
ATOM     31  C   UNL A   1      35.945  32.170  27.976  1.00  0.00     0.014 A 
ATOM     32  C   UNL A   1      34.954  29.999  28.318  1.00  0.00     0.014 A 
ATOM     33  C   UNL A   1      37.146  31.698  28.514  1.00  0.00     0.010 A 
ATOM     34  C   UNL A   1      36.099  29.577  28.983  1.00  0.00     0.010 A 
ATOM     35  C   UNL A   1      37.220  30.413  29.075  1.00  0.00    -0.014 A 
BRANCH  35  36
ATOM     36  C   UNL A   1      38.458  29.915  29.736  1.00  0.00     0.031 A 
ATOM     37  C   UNL A   1      38.829  30.406  31.115  1.00  0.00     0.074 A 
ATOM     38  C   UNL A   1      39.285  29.082  29.070  1.00  0.00     0.049 A 
ATOM     39  N   UNL A   1      39.897  30.153  31.829  1.00  0.00    -0.248 NA
ATOM     40  C   UNL A   1      37.899  31.350  31.754  1.00  0.00     0.031 C 
ATOM     41  C   UNL A   1      39.083  28.604  27.699  1.00  0.00     0.029 A 
ATOM     42  N   UNL A   1      40.459  28.486  29.453  1.00  0.00    -0.354 N 
ATOM     43  C   UNL A   1      39.778  30.931  32.977  1.00  0.00     0.074 A 
ATOM     44  C   UNL A   1      38.584  31.730  32.820  1.00  0.00     0.031 C 
ATOM     45  C   UNL A   1      40.066  27.747  27.380  1.00  0.00     0.029 A 
ATOM     46  C   UNL A   1      40.992  27.647  28.501  1.00  0.00     0.049 A 
ATOM     47  H   UNL A   1      40.882  28.644  30.328  1.00  0.00     0.167 HD
ATOM     48  C   UNL A   1      40.566  30.948  34.082  1.00  0.00     0.034 A 
ATOM     49  C   UNL A   1      42.099  26.880  28.532  1.00  0.00     0.034 A 
ATOM     50  C   UNL A   1      41.729  30.109  34.237  1.00  0.00     0.049 A 
ATOM     51  C   UNL A   1      42.934  26.875  29.788  1.00  0.00     0.074 A 
ATOM     52  C   UNL A   1      42.568  29.988  35.331  1.00  0.00     0.029 A 
ATOM     53  N   UNL A   1      42.213  29.238  33.268  1.00  0.00    -0.354 N 
ATOM     54  N   UNL A   1      42.773  27.568  30.891  1.00  0.00    -0.248 NA
ATOM     55  C   UNL A   1      44.084  25.965  29.809  1.00  0.00     0.031 C 
ATOM     56  C   UNL A   1      43.590  29.090  35.002  1.00  0.00     0.029 A 
ATOM     57  C   UNL A   1      43.348  28.590  33.731  1.00  0.00     0.049 A 
ATOM     58  H   UNL A   1      41.809  29.101  32.381  1.00  0.00     0.167 HD
ATOM     59  C   UNL A   1      43.788  27.156  31.749  1.00  0.00     0.074 A 
ATOM     60  C   UNL A   1      44.533  26.133  31.043  1.00  0.00     0.031 C 
ATOM     61  C   UNL A   1      44.085  27.582  33.005  1.00  0.00     0.034 A 
BRANCH  48  62
ATOM     62  C   UNL A   1      40.191  31.908  35.189  1.00  0.00     0.023 A 
ATOM     63  C   UNL A   1      39.323  31.531  36.231  1.00  0.00     0.031 A 
ATOM     64  C   UNL A   1      40.665  33.231  35.183  1.00  0.00     0.131 A 
ATOM     65  C   UNL A   1      38.882  32.486  37.161  1.00  0.00     0.055 A 
ATOM     66  C   UNL A   1      40.296  34.152  36.166  1.00  0.00     0.041 A 
ATOM     67  F   UNL A   1      41.479  33.661  34.206  1.00  0.00    -0.206 F 
ATOM     68  C   UNL A   1      39.384  33.787  37.152  1.00  0.00     0.022 A 
BRANCH  65  69
ATOM     69  S   UNL A   1      37.517  32.044  38.272  1.00  0.00     0.124 S 
ATOM     70  O   UNL A   1      38.116  32.290  39.583  1.00  0.00    -0.237 OA
ATOM     71  O   UNL A   1      36.467  32.971  37.867  1.00  0.00    -0.237 OA
ATOM     72  O   UNL A   1      37.265  30.638  37.965  1.00  0.00    -0.744 OA
ENDBRANCH  65  69
ENDBRANCH  48  62
BRANCH  49  73
ATOM     73  C   UNL A   1      42.473  26.033  27.361  1.00  0.00     0.023 A 
ATOM     74  C   UNL A   1      42.057  24.693  27.275  1.00  0.00     0.031 A 
ATOM     75  C   UNL A   1      43.283  26.537  26.328  1.00  0.00     0.131 A 
ATOM     76  C   UNL A   1      42.494  23.889  26.211  1.00  0.00     0.055 A 
ATOM     77  C   UNL A   1      43.671  25.748  25.243  1.00  0.00     0.041 A 
ATOM     78  F   UNL A   1      43.702  27.812  26.354  1.00  0.00    -0.206 F 
ATOM     79  C   UNL A   1      43.288  24.411  25.188  1.00  0.00     0.022 A 
BRANCH  76  80
ATOM     80  S   UNL A   1      42.079  22.123  26.230  1.00  0.00     0.124 S 
ATOM     81  O   UNL A   1      42.929  21.606  25.164  1.00  0.00    -0.237 OA
ATOM     82  O   UNL A   1      42.448  21.740  27.588  1.00  0.00    -0.237 OA
ATOM     83  O   UNL A   1      40.645  22.108  25.948  1.00  0.00    -0.744 OA
ENDBRANCH  76  80
ENDBRANCH  49  73
BRANCH  61  84
ATOM     84  C   UNL A   1      45.242  26.903  33.694  1.00  0.00     0.023 A 
ATOM     85  C   UNL A   1      45.065  25.726  34.442  1.00  0.00     0.031 A 
ATOM     86  C   UNL A   1      46.529  27.468  33.644  1.00  0.00     0.131 A 
ATOM     87  C   UNL A   1      46.136  25.200  35.180  1.00  0.00     0.055 A 
ATOM     88  C   UNL A   1      47.608  26.897  34.319  1.00  0.00     0.041 A 
ATOM     89  F   UNL A   1      46.757  28.591  32.945  1.00  0.00    -0.206 F 
ATOM     90  C   UNL A   1      47.410  25.768  35.111  1.00  0.00     0.022 A 
BRANCH  87  91
ATOM     91  S   UNL A   1      45.803  23.850  36.344  1.00  0.00     0.124 S 
ATOM     92  O   UNL A   1      47.102  23.187  36.420  1.00  0.00    -0.237 OA
ATOM     93  O   UNL A   1      45.383  24.569  37.542  1.00  0.00    -0.237 OA
ATOM     94  O   UNL A   1      44.752  23.080  35.681  1.00  0.00    -0.744 OA
ENDBRANCH  87  91
ENDBRANCH  61  84
ENDBRANCH  35  36
ENDBRANCH  27  30
ENDBRANCH   1  26
TORSDOF 15
ENDMDL
