MODEL 1
REMARK VINA RESULT:      -9.6      0.000      0.000
REMARK SMILES C[C@@H](C(=O)NCCCNC(=O)c1ccc(-c2c3nc(c(-c4cc(S(=O)(=O)[O-])ccc4F)c4ccc([nH]4)c(-c4cc(S(=O)(=O)[O-])ccc4F)c4nc(c(-c5cc(S(=O)(=O)[O-])ccc5F)c5ccc2[nH]5)C=C4)C=C3)cc1)c1ccc(Cc2ccco2)cc1F
REMARK SMILES IDX 7 1 6 2 5 3 3 4 4 5 2 7 1 8 75 9 76 10 86 11 77 12 85 13
REMARK SMILES IDX 87 14 78 15 79 16 80 17 81 18 84 19 82 20 83 21 8 22 9 23
REMARK SMILES IDX 10 24 11 26 12 27 13 28 74 29 14 30 73 31 15 32 16 33 17 34
REMARK SMILES IDX 67 35 18 36 72 37 66 38 68 39 19 40 71 41 65 42 64 43 20 45
REMARK SMILES IDX 52 46 32 47 51 48 33 49 36 50 50 51 69 52 34 53 35 54 49 56
REMARK SMILES IDX 70 57 37 58 21 59 22 60 30 61 23 62 29 63 31 64 28 65 24 66
REMARK SMILES IDX 25 67 26 68 27 69 53 70 54 71 62 72 55 73 61 74 63 75 60 76
REMARK SMILES IDX 56 77 57 78 58 79 59 80 38 81 39 82 47 83 40 84 46 85 48 86
REMARK SMILES IDX 45 87 41 88 42 89 43 90 44 91
REMARK H PARENT 5 6 9 25 68 44 36 55
REMARK Flexibility Score: inf
ROOT
ATOM      1  C   UNL A   1      42.170  20.348  27.205  1.00  0.00     0.042 C 
ENDROOT
BRANCH   1   2
ATOM      2  C   UNL A   1      42.780  20.595  25.822  1.00  0.00     0.117 C 
BRANCH   2   3
ATOM      3  N   UNL A   1      44.213  20.823  25.909  1.00  0.00    -0.356 N 
ATOM      4  C   UNL A   1      44.896  22.009  25.870  1.00  0.00     0.227 C 
ATOM      5  O   UNL A   1      46.018  21.979  25.366  1.00  0.00    -0.274 OA
ATOM      6  H   UNL A   1      44.767  20.015  26.011  1.00  0.00     0.163 HD
BRANCH   4   7
ATOM      7  C   UNL A   1      44.205  23.287  26.360  1.00  0.00     0.108 C 
ATOM      8  C   UNL A   1      44.463  24.360  25.288  1.00  0.00     0.023 C 
BRANCH   7   9
ATOM      9  C   UNL A   1      44.591  23.828  27.740  1.00  0.00    -0.000 A 
ATOM     10  C   UNL A   1      43.623  23.784  28.764  1.00  0.00     0.008 A 
ATOM     11  C   UNL A   1      45.831  24.374  28.084  1.00  0.00     0.127 A 
ATOM     12  C   UNL A   1      43.839  24.387  30.007  1.00  0.00     0.005 A 
ATOM     13  C   UNL A   1      46.039  25.015  29.311  1.00  0.00     0.043 A 
ATOM     14  F   UNL A   1      46.891  24.276  27.273  1.00  0.00    -0.207 F 
ATOM     15  C   UNL A   1      45.027  25.069  30.273  1.00  0.00    -0.038 A 
BRANCH  15  16
ATOM     16  C   UNL A   1      45.229  25.815  31.574  1.00  0.00     0.111 C 
BRANCH  16  17
ATOM     17  C   UNL A   1      44.484  27.108  31.663  1.00  0.00     0.108 A 
ATOM     18  C   UNL A   1      43.146  27.453  31.617  1.00  0.00     0.046 A 
ATOM     19  O   UNL A   1      45.236  28.230  31.875  1.00  0.00    -0.469 OA
ATOM     20  C   UNL A   1      43.082  28.856  31.788  1.00  0.00     0.042 A 
ATOM     21  C   UNL A   1      44.379  29.281  31.943  1.00  0.00     0.195 A 
ENDBRANCH  16  17
ENDBRANCH  15  16
ENDBRANCH   7   9
ENDBRANCH   4   7
ENDBRANCH   2   3
ENDBRANCH   1   2
BRANCH   1  22
ATOM     22  C   UNL A   1      41.155  21.397  27.653  1.00  0.00     0.118 C 
BRANCH  22  23
ATOM     23  N   UNL A   1      39.972  21.422  26.809  1.00  0.00    -0.352 N 
ATOM     24  C   UNL A   1      39.145  22.471  26.494  1.00  0.00     0.251 C 
ATOM     25  H   UNL A   1      39.728  20.559  26.404  1.00  0.00     0.163 HD
ATOM     26  O   UNL A   1      38.080  22.237  25.918  1.00  0.00    -0.269 OA
BRANCH  24  27
ATOM     27  C   UNL A   1      39.503  23.860  26.859  1.00  0.00     0.039 A 
ATOM     28  C   UNL A   1      39.256  24.295  28.165  1.00  0.00     0.014 A 
ATOM     29  C   UNL A   1      40.047  24.745  25.923  1.00  0.00     0.014 A 
ATOM     30  C   UNL A   1      39.608  25.593  28.546  1.00  0.00     0.010 A 
ATOM     31  C   UNL A   1      40.458  26.017  26.323  1.00  0.00     0.010 A 
ATOM     32  C   UNL A   1      40.243  26.456  27.638  1.00  0.00    -0.014 A 
BRANCH  32  33
ATOM     33  C   UNL A   1      40.689  27.813  28.051  1.00  0.00     0.031 A 
ATOM     34  C   UNL A   1      42.150  28.176  28.022  1.00  0.00     0.074 A 
ATOM     35  C   UNL A   1      39.785  28.701  28.510  1.00  0.00     0.049 A 
ATOM     36  N   UNL A   1      42.738  29.278  28.412  1.00  0.00    -0.248 NA
ATOM     37  C   UNL A   1      43.073  27.152  27.509  1.00  0.00     0.031 C 
ATOM     38  C   UNL A   1      38.345  28.456  28.623  1.00  0.00     0.029 A 
ATOM     39  N   UNL A   1      39.938  29.983  28.977  1.00  0.00    -0.354 N 
ATOM     40  C   UNL A   1      44.100  29.075  28.210  1.00  0.00     0.074 A 
ATOM     41  C   UNL A   1      44.251  27.725  27.709  1.00  0.00     0.031 C 
ATOM     42  C   UNL A   1      37.747  29.555  29.110  1.00  0.00     0.029 A 
ATOM     43  C   UNL A   1      38.762  30.568  29.387  1.00  0.00     0.049 A 
ATOM     44  H   UNL A   1      40.809  30.441  29.016  1.00  0.00     0.167 HD
ATOM     45  C   UNL A   1      45.126  29.941  28.410  1.00  0.00     0.034 A 
ATOM     46  C   UNL A   1      38.525  31.775  29.938  1.00  0.00     0.034 A 
ATOM     47  C   UNL A   1      44.958  31.290  28.896  1.00  0.00     0.049 A 
ATOM     48  C   UNL A   1      39.682  32.715  30.160  1.00  0.00     0.074 A 
ATOM     49  C   UNL A   1      45.921  32.268  29.071  1.00  0.00     0.029 A 
ATOM     50  N   UNL A   1      43.750  31.849  29.295  1.00  0.00    -0.354 N 
ATOM     51  N   UNL A   1      40.958  32.526  29.917  1.00  0.00    -0.248 NA
ATOM     52  C   UNL A   1      39.364  34.036  30.718  1.00  0.00     0.031 C 
ATOM     53  C   UNL A   1      45.309  33.391  29.638  1.00  0.00     0.029 A 
ATOM     54  C   UNL A   1      43.950  33.146  29.745  1.00  0.00     0.049 A 
ATOM     55  H   UNL A   1      42.878  31.391  29.262  1.00  0.00     0.167 HD
ATOM     56  C   UNL A   1      41.592  33.715  30.269  1.00  0.00     0.074 A 
ATOM     57  C   UNL A   1      40.555  34.618  30.725  1.00  0.00     0.031 C 
ATOM     58  C   UNL A   1      42.910  34.032  30.214  1.00  0.00     0.034 A 
BRANCH  45  59
ATOM     59  C   UNL A   1      46.524  29.440  28.130  1.00  0.00     0.023 A 
ATOM     60  C   UNL A   1      47.291  28.794  29.115  1.00  0.00     0.031 A 
ATOM     61  C   UNL A   1      47.103  29.625  26.862  1.00  0.00     0.131 A 
ATOM     62  C   UNL A   1      48.616  28.420  28.839  1.00  0.00     0.055 A 
ATOM     63  C   UNL A   1      48.394  29.178  26.569  1.00  0.00     0.041 A 
ATOM     64  F   UNL A   1      46.428  30.251  25.886  1.00  0.00    -0.206 F 
ATOM     65  C   UNL A   1      49.164  28.585  27.565  1.00  0.00     0.022 A 
BRANCH  62  66
ATOM     66  S   UNL A   1      49.655  27.838  30.206  1.00  0.00     0.124 S 
ATOM     67  O   UNL A   1      50.147  29.097  30.759  1.00  0.00    -0.237 OA
ATOM     68  O   UNL A   1      48.705  27.104  31.034  1.00  0.00    -0.237 OA
ATOM     69  O   UNL A   1      50.668  27.018  29.543  1.00  0.00    -0.744 OA
ENDBRANCH  62  66
ENDBRANCH  45  59
BRANCH  46  70
ATOM     70  C   UNL A   1      37.141  32.161  30.336  1.00  0.00     0.023 A 
ATOM     71  C   UNL A   1      36.253  32.732  29.411  1.00  0.00     0.031 A 
ATOM     72  C   UNL A   1      36.697  31.989  31.659  1.00  0.00     0.131 A 
ATOM     73  C   UNL A   1      34.979  33.145  29.830  1.00  0.00     0.055 A 
ATOM     74  C   UNL A   1      35.411  32.357  32.060  1.00  0.00     0.041 A 
ATOM     75  F   UNL A   1      37.505  31.440  32.581  1.00  0.00    -0.206 F 
ATOM     76  C   UNL A   1      34.548  32.951  31.144  1.00  0.00     0.022 A 
BRANCH  73  77
ATOM     77  S   UNL A   1      33.913  34.011  28.645  1.00  0.00     0.124 S 
ATOM     78  O   UNL A   1      32.902  34.590  29.521  1.00  0.00    -0.237 OA
ATOM     79  O   UNL A   1      34.845  34.950  28.029  1.00  0.00    -0.237 OA
ATOM     80  O   UNL A   1      33.442  32.940  27.767  1.00  0.00    -0.744 OA
ENDBRANCH  73  77
ENDBRANCH  46  70
BRANCH  58  81
ATOM     81  C   UNL A   1      43.297  35.434  30.621  1.00  0.00     0.023 A 
ATOM     82  C   UNL A   1      43.522  35.780  31.966  1.00  0.00     0.031 A 
ATOM     83  C   UNL A   1      43.431  36.440  29.648  1.00  0.00     0.131 A 
ATOM     84  C   UNL A   1      43.817  37.109  32.304  1.00  0.00     0.055 A 
ATOM     85  C   UNL A   1      43.784  37.748  29.985  1.00  0.00     0.041 A 
ATOM     86  F   UNL A   1      43.224  36.167  28.349  1.00  0.00    -0.206 F 
ATOM     87  C   UNL A   1      43.966  38.092  31.322  1.00  0.00     0.022 A 
BRANCH  84  88
ATOM     88  S   UNL A   1      43.913  37.561  34.059  1.00  0.00     0.124 S 
ATOM     89  O   UNL A   1      44.023  36.257  34.703  1.00  0.00    -0.237 OA
ATOM     90  O   UNL A   1      45.110  38.395  34.101  1.00  0.00    -0.237 OA
ATOM     91  O   UNL A   1      42.657  38.268  34.301  1.00  0.00    -0.744 OA
ENDBRANCH  84  88
ENDBRANCH  58  81
ENDBRANCH  32  33
ENDBRANCH  24  27
ENDBRANCH  22  23
ENDBRANCH   1  22
TORSDOF 16
ENDMDL
MODEL 2
REMARK VINA RESULT:      -9.5      5.587     10.577
REMARK SMILES C[C@@H](C(=O)NCCCNC(=O)c1ccc(-c2c3nc(c(-c4cc(S(=O)(=O)[O-])ccc4F)c4ccc([nH]4)c(-c4cc(S(=O)(=O)[O-])ccc4F)c4nc(c(-c5cc(S(=O)(=O)[O-])ccc5F)c5ccc2[nH]5)C=C4)C=C3)cc1)c1ccc(Cc2ccco2)cc1F
REMARK SMILES IDX 7 1 6 2 5 3 3 4 4 5 2 7 1 8 75 9 76 10 86 11 77 12 85 13
REMARK SMILES IDX 87 14 78 15 79 16 80 17 81 18 84 19 82 20 83 21 8 22 9 23
REMARK SMILES IDX 10 24 11 26 12 27 13 28 74 29 14 30 73 31 15 32 16 33 17 34
REMARK SMILES IDX 67 35 18 36 72 37 66 38 68 39 19 40 71 41 65 42 64 43 20 45
REMARK SMILES IDX 52 46 32 47 51 48 33 49 36 50 50 51 69 52 34 53 35 54 49 56
REMARK SMILES IDX 70 57 37 58 21 59 22 60 30 61 23 62 29 63 31 64 28 65 24 66
REMARK SMILES IDX 25 67 26 68 27 69 53 70 54 71 62 72 55 73 61 74 63 75 60 76
REMARK SMILES IDX 56 77 57 78 58 79 59 80 38 81 39 82 47 83 40 84 46 85 48 86
REMARK SMILES IDX 45 87 41 88 42 89 43 90 44 91
REMARK H PARENT 5 6 9 25 68 44 36 55
REMARK Flexibility Score: inf
ROOT
ATOM      1  C   UNL A   1      31.556  32.175  26.601  1.00  0.00     0.042 C 
ENDROOT
BRANCH   1   2
ATOM      2  C   UNL A   1      31.769  30.759  26.057  1.00  0.00     0.117 C 
BRANCH   2   3
ATOM      3  N   UNL A   1      31.849  29.784  27.133  1.00  0.00    -0.356 N 
ATOM      4  C   UNL A   1      31.709  28.424  27.068  1.00  0.00     0.227 C 
ATOM      5  O   UNL A   1      31.221  27.876  28.055  1.00  0.00    -0.274 OA
ATOM      6  H   UNL A   1      32.028  30.153  28.028  1.00  0.00     0.163 HD
BRANCH   4   7
ATOM      7  C   UNL A   1      32.075  27.695  25.770  1.00  0.00     0.108 C 
ATOM      8  C   UNL A   1      30.789  27.632  24.928  1.00  0.00     0.023 C 
BRANCH   7   9
ATOM      9  C   UNL A   1      32.693  26.298  25.880  1.00  0.00    -0.000 A 
ATOM     10  C   UNL A   1      34.065  26.154  25.593  1.00  0.00     0.008 A 
ATOM     11  C   UNL A   1      32.011  25.131  26.239  1.00  0.00     0.127 A 
ATOM     12  C   UNL A   1      34.676  24.899  25.526  1.00  0.00     0.005 A 
ATOM     13  C   UNL A   1      32.605  23.868  26.134  1.00  0.00     0.043 A 
ATOM     14  F   UNL A   1      30.770  25.169  26.739  1.00  0.00    -0.207 F 
ATOM     15  C   UNL A   1      33.936  23.733  25.731  1.00  0.00    -0.038 A 
BRANCH  15  16
ATOM     16  C   UNL A   1      34.562  22.366  25.556  1.00  0.00     0.111 C 
BRANCH  16  17
ATOM     17  C   UNL A   1      33.700  21.384  24.830  1.00  0.00     0.108 A 
ATOM     18  C   UNL A   1      32.974  21.426  23.654  1.00  0.00     0.046 A 
ATOM     19  O   UNL A   1      33.600  20.138  25.382  1.00  0.00    -0.469 OA
ATOM     20  C   UNL A   1      32.386  20.149  23.494  1.00  0.00     0.042 A 
ATOM     21  C   UNL A   1      32.798  19.402  24.569  1.00  0.00     0.195 A 
ENDBRANCH  16  17
ENDBRANCH  15  16
ENDBRANCH   7   9
ENDBRANCH   4   7
ENDBRANCH   2   3
ENDBRANCH   1   2
BRANCH   1  22
ATOM     22  C   UNL A   1      32.768  32.775  27.310  1.00  0.00     0.118 C 
BRANCH  22  23
ATOM     23  N   UNL A   1      32.548  34.153  27.715  1.00  0.00    -0.352 N 
ATOM     24  C   UNL A   1      33.147  34.876  28.717  1.00  0.00     0.251 C 
ATOM     25  H   UNL A   1      31.870  34.641  27.194  1.00  0.00     0.163 HD
ATOM     26  O   UNL A   1      32.675  35.973  29.023  1.00  0.00    -0.269 OA
BRANCH  24  27
ATOM     27  C   UNL A   1      34.323  34.344  29.442  1.00  0.00     0.039 A 
ATOM     28  C   UNL A   1      34.123  33.728  30.682  1.00  0.00     0.014 A 
ATOM     29  C   UNL A   1      35.618  34.475  28.932  1.00  0.00     0.014 A 
ATOM     30  C   UNL A   1      35.211  33.193  31.377  1.00  0.00     0.010 A 
ATOM     31  C   UNL A   1      36.692  33.881  29.595  1.00  0.00     0.010 A 
ATOM     32  C   UNL A   1      36.502  33.235  30.826  1.00  0.00    -0.014 A 
BRANCH  32  33
ATOM     33  C   UNL A   1      37.656  32.604  31.521  1.00  0.00     0.031 A 
ATOM     34  C   UNL A   1      38.387  31.450  30.888  1.00  0.00     0.074 A 
ATOM     35  C   UNL A   1      38.008  33.032  32.750  1.00  0.00     0.049 A 
ATOM     36  N   UNL A   1      39.364  30.725  31.370  1.00  0.00    -0.248 NA
ATOM     37  C   UNL A   1      37.941  31.043  29.548  1.00  0.00     0.031 C 
ATOM     38  C   UNL A   1      37.352  34.116  33.486  1.00  0.00     0.029 A 
ATOM     39  N   UNL A   1      38.994  32.604  33.604  1.00  0.00    -0.354 N 
ATOM     40  C   UNL A   1      39.639  29.766  30.401  1.00  0.00     0.074 A 
ATOM     41  C   UNL A   1      38.690  29.973  29.327  1.00  0.00     0.031 C 
ATOM     42  C   UNL A   1      37.964  34.279  34.669  1.00  0.00     0.029 A 
ATOM     43  C   UNL A   1      39.025  33.283  34.800  1.00  0.00     0.049 A 
ATOM     44  H   UNL A   1      39.621  31.878  33.381  1.00  0.00     0.167 HD
ATOM     45  C   UNL A   1      40.604  28.811  30.401  1.00  0.00     0.034 A 
ATOM     46  C   UNL A   1      39.806  33.117  35.886  1.00  0.00     0.034 A 
ATOM     47  C   UNL A   1      41.553  28.627  31.473  1.00  0.00     0.049 A 
ATOM     48  C   UNL A   1      40.863  32.043  35.867  1.00  0.00     0.074 A 
ATOM     49  C   UNL A   1      42.610  27.735  31.544  1.00  0.00     0.029 A 
ATOM     50  N   UNL A   1      41.557  29.338  32.666  1.00  0.00    -0.354 N 
ATOM     51  N   UNL A   1      41.142  31.176  34.922  1.00  0.00    -0.248 NA
ATOM     52  C   UNL A   1      41.718  31.936  37.056  1.00  0.00     0.031 C 
ATOM     53  C   UNL A   1      43.207  27.859  32.802  1.00  0.00     0.029 A 
ATOM     54  C   UNL A   1      42.576  28.883  33.490  1.00  0.00     0.049 A 
ATOM     55  H   UNL A   1      40.927  30.061  32.893  1.00  0.00     0.167 HD
ATOM     56  C   UNL A   1      42.223  30.436  35.394  1.00  0.00     0.074 A 
ATOM     57  C   UNL A   1      42.554  30.970  36.699  1.00  0.00     0.031 C 
ATOM     58  C   UNL A   1      42.886  29.412  34.798  1.00  0.00     0.034 A 
BRANCH  45  59
ATOM     59  C   UNL A   1      40.658  27.874  29.216  1.00  0.00     0.023 A 
ATOM     60  C   UNL A   1      41.569  28.061  28.163  1.00  0.00     0.031 A 
ATOM     61  C   UNL A   1      39.773  26.783  29.134  1.00  0.00     0.131 A 
ATOM     62  C   UNL A   1      41.528  27.217  27.042  1.00  0.00     0.055 A 
ATOM     63  C   UNL A   1      39.792  25.899  28.054  1.00  0.00     0.041 A 
ATOM     64  F   UNL A   1      38.868  26.562  30.100  1.00  0.00    -0.206 F 
ATOM     65  C   UNL A   1      40.663  26.122  26.992  1.00  0.00     0.022 A 
BRANCH  62  66
ATOM     66  S   UNL A   1      42.530  27.651  25.594  1.00  0.00     0.124 S 
ATOM     67  O   UNL A   1      42.281  26.513  24.712  1.00  0.00    -0.237 OA
ATOM     68  O   UNL A   1      41.948  28.921  25.177  1.00  0.00    -0.237 OA
ATOM     69  O   UNL A   1      43.889  27.731  26.127  1.00  0.00    -0.744 OA
ENDBRANCH  62  66
ENDBRANCH  45  59
BRANCH  46  70
ATOM     70  C   UNL A   1      39.609  33.973  37.091  1.00  0.00     0.023 A 
ATOM     71  C   UNL A   1      38.972  33.475  38.238  1.00  0.00     0.031 A 
ATOM     72  C   UNL A   1      40.030  35.314  37.099  1.00  0.00     0.131 A 
ATOM     73  C   UNL A   1      38.741  34.323  39.332  1.00  0.00     0.055 A 
ATOM     74  C   UNL A   1      39.842  36.141  38.209  1.00  0.00     0.041 A 
ATOM     75  F   UNL A   1      40.651  35.838  36.029  1.00  0.00    -0.206 F 
ATOM     76  C   UNL A   1      39.182  35.647  39.331  1.00  0.00     0.022 A 
BRANCH  73  77
ATOM     77  S   UNL A   1      37.788  33.687  40.738  1.00  0.00     0.124 S 
ATOM     78  O   UNL A   1      38.782  32.876  41.430  1.00  0.00    -0.237 OA
ATOM     79  O   UNL A   1      37.381  34.917  41.410  1.00  0.00    -0.237 OA
ATOM     80  O   UNL A   1      36.703  32.940  40.103  1.00  0.00    -0.744 OA
ENDBRANCH  73  77
ENDBRANCH  46  70
BRANCH  58  81
ATOM     81  C   UNL A   1      44.065  28.832  35.543  1.00  0.00     0.023 A 
ATOM     82  C   UNL A   1      43.919  27.764  36.445  1.00  0.00     0.031 A 
ATOM     83  C   UNL A   1      45.352  29.365  35.351  1.00  0.00     0.131 A 
ATOM     84  C   UNL A   1      45.031  27.299  37.162  1.00  0.00     0.055 A 
ATOM     85  C   UNL A   1      46.466  28.858  36.023  1.00  0.00     0.041 A 
ATOM     86  F   UNL A   1      45.549  30.388  34.503  1.00  0.00    -0.206 F 
ATOM     87  C   UNL A   1      46.307  27.827  36.944  1.00  0.00     0.022 A 
BRANCH  84  88
ATOM     88  S   UNL A   1      44.776  26.052  38.456  1.00  0.00     0.124 S 
ATOM     89  O   UNL A   1      46.144  25.767  38.876  1.00  0.00    -0.237 OA
ATOM     90  O   UNL A   1      43.950  26.769  39.421  1.00  0.00    -0.237 OA
ATOM     91  O   UNL A   1      44.102  24.962  37.754  1.00  0.00    -0.744 OA
ENDBRANCH  84  88
ENDBRANCH  58  81
ENDBRANCH  32  33
ENDBRANCH  24  27
ENDBRANCH  22  23
ENDBRANCH   1  22
TORSDOF 16
ENDMDL
MODEL 3
REMARK VINA RESULT:      -9.5      1.946      2.336
REMARK SMILES C[C@@H](C(=O)NCCCNC(=O)c1ccc(-c2c3nc(c(-c4cc(S(=O)(=O)[O-])ccc4F)c4ccc([nH]4)c(-c4cc(S(=O)(=O)[O-])ccc4F)c4nc(c(-c5cc(S(=O)(=O)[O-])ccc5F)c5ccc2[nH]5)C=C4)C=C3)cc1)c1ccc(Cc2ccco2)cc1F
REMARK SMILES IDX 7 1 6 2 5 3 3 4 4 5 2 7 1 8 75 9 76 10 86 11 77 12 85 13
REMARK SMILES IDX 87 14 78 15 79 16 80 17 81 18 84 19 82 20 83 21 8 22 9 23
REMARK SMILES IDX 10 24 11 26 12 27 13 28 74 29 14 30 73 31 15 32 16 33 17 34
REMARK SMILES IDX 67 35 18 36 72 37 66 38 68 39 19 40 71 41 65 42 64 43 20 45
REMARK SMILES IDX 52 46 32 47 51 48 33 49 36 50 50 51 69 52 34 53 35 54 49 56
REMARK SMILES IDX 70 57 37 58 21 59 22 60 30 61 23 62 29 63 31 64 28 65 24 66
REMARK SMILES IDX 25 67 26 68 27 69 53 70 54 71 62 72 55 73 61 74 63 75 60 76
REMARK SMILES IDX 56 77 57 78 58 79 59 80 38 81 39 82 47 83 40 84 46 85 48 86
REMARK SMILES IDX 45 87 41 88 42 89 43 90 44 91
REMARK H PARENT 5 6 9 25 68 44 36 55
REMARK Flexibility Score: inf
ROOT
ATOM      1  C   UNL A   1      41.441  20.308  26.055  1.00  0.00     0.042 C 
ENDROOT
BRANCH   1   2
ATOM      2  C   UNL A   1      42.872  20.222  26.593  1.00  0.00     0.117 C 
BRANCH   2   3
ATOM      3  N   UNL A   1      43.832  20.737  25.629  1.00  0.00    -0.356 N 
ATOM      4  C   UNL A   1      43.869  21.969  25.032  1.00  0.00     0.227 C 
ATOM      5  O   UNL A   1      44.322  22.009  23.889  1.00  0.00    -0.274 OA
ATOM      6  H   UNL A   1      44.551  20.116  25.373  1.00  0.00     0.163 HD
BRANCH   4   7
ATOM      7  C   UNL A   1      43.276  23.175  25.768  1.00  0.00     0.108 C 
ATOM      8  C   UNL A   1      43.630  24.415  24.928  1.00  0.00     0.023 C 
BRANCH   7   9
ATOM      9  C   UNL A   1      43.689  23.400  27.227  1.00  0.00    -0.000 A 
ATOM     10  C   UNL A   1      42.675  23.436  28.205  1.00  0.00     0.008 A 
ATOM     11  C   UNL A   1      44.997  23.581  27.685  1.00  0.00     0.127 A 
ATOM     12  C   UNL A   1      42.945  23.781  29.533  1.00  0.00     0.005 A 
ATOM     13  C   UNL A   1      45.270  23.966  29.002  1.00  0.00     0.043 A 
ATOM     14  F   UNL A   1      46.055  23.356  26.896  1.00  0.00    -0.207 F 
ATOM     15  C   UNL A   1      44.239  24.116  29.934  1.00  0.00    -0.038 A 
BRANCH  15  16
ATOM     16  C   UNL A   1      44.525  24.593  31.342  1.00  0.00     0.111 C 
BRANCH  16  17
ATOM     17  C   UNL A   1      44.409  26.072  31.524  1.00  0.00     0.108 A 
ATOM     18  C   UNL A   1      43.460  27.014  31.172  1.00  0.00     0.046 A 
ATOM     19  O   UNL A   1      45.415  26.679  32.223  1.00  0.00    -0.469 OA
ATOM     20  C   UNL A   1      43.922  28.259  31.660  1.00  0.00     0.042 A 
ATOM     21  C   UNL A   1      45.114  28.002  32.293  1.00  0.00     0.195 A 
ENDBRANCH  16  17
ENDBRANCH  15  16
ENDBRANCH   7   9
ENDBRANCH   4   7
ENDBRANCH   2   3
ENDBRANCH   1   2
BRANCH   1  22
ATOM     22  C   UNL A   1      40.487  21.141  26.907  1.00  0.00     0.118 C 
BRANCH  22  23
ATOM     23  N   UNL A   1      39.232  21.418  26.227  1.00  0.00    -0.352 N 
ATOM     24  C   UNL A   1      38.518  22.588  26.152  1.00  0.00     0.251 C 
ATOM     25  H   UNL A   1      38.836  20.654  25.751  1.00  0.00     0.163 HD
ATOM     26  O   UNL A   1      37.376  22.560  25.689  1.00  0.00    -0.269 OA
BRANCH  24  27
ATOM     27  C   UNL A   1      39.091  23.863  26.642  1.00  0.00     0.039 A 
ATOM     28  C   UNL A   1      39.829  24.651  25.753  1.00  0.00     0.014 A 
ATOM     29  C   UNL A   1      38.936  24.272  27.969  1.00  0.00     0.014 A 
ATOM     30  C   UNL A   1      40.359  25.872  26.180  1.00  0.00     0.010 A 
ATOM     31  C   UNL A   1      39.408  25.521  28.374  1.00  0.00     0.010 A 
ATOM     32  C   UNL A   1      40.125  26.335  27.485  1.00  0.00    -0.014 A 
BRANCH  32  33
ATOM     33  C   UNL A   1      40.620  27.666  27.929  1.00  0.00     0.031 A 
ATOM     34  C   UNL A   1      42.090  27.987  27.874  1.00  0.00     0.074 A 
ATOM     35  C   UNL A   1      39.753  28.564  28.436  1.00  0.00     0.049 A 
ATOM     36  N   UNL A   1      42.719  29.060  28.284  1.00  0.00    -0.248 NA
ATOM     37  C   UNL A   1      42.970  26.954  27.309  1.00  0.00     0.031 C 
ATOM     38  C   UNL A   1      38.309  28.356  28.576  1.00  0.00     0.029 A 
ATOM     39  N   UNL A   1      39.954  29.826  28.937  1.00  0.00    -0.354 N 
ATOM     40  C   UNL A   1      44.069  28.825  28.043  1.00  0.00     0.074 A 
ATOM     41  C   UNL A   1      44.169  27.487  27.498  1.00  0.00     0.031 C 
ATOM     42  C   UNL A   1      37.755  29.456  29.110  1.00  0.00     0.029 A 
ATOM     43  C   UNL A   1      38.806  30.432  29.393  1.00  0.00     0.049 A 
ATOM     44  H   UNL A   1      40.838  30.258  28.969  1.00  0.00     0.167 HD
ATOM     45  C   UNL A   1      45.124  29.654  28.244  1.00  0.00     0.034 A 
ATOM     46  C   UNL A   1      38.617  31.627  29.986  1.00  0.00     0.034 A 
ATOM     47  C   UNL A   1      45.006  30.992  28.774  1.00  0.00     0.049 A 
ATOM     48  C   UNL A   1      39.805  32.527  30.208  1.00  0.00     0.074 A 
ATOM     49  C   UNL A   1      46.002  31.937  28.955  1.00  0.00     0.029 A 
ATOM     50  N   UNL A   1      43.826  31.572  29.219  1.00  0.00    -0.354 N 
ATOM     51  N   UNL A   1      41.069  32.309  29.928  1.00  0.00    -0.248 NA
ATOM     52  C   UNL A   1      39.539  33.838  30.813  1.00  0.00     0.031 C 
ATOM     53  C   UNL A   1      45.436  33.058  29.571  1.00  0.00     0.029 A 
ATOM     54  C   UNL A   1      44.073  32.849  29.703  1.00  0.00     0.049 A 
ATOM     55  H   UNL A   1      42.940  31.140  29.194  1.00  0.00     0.167 HD
ATOM     56  C   UNL A   1      41.746  33.468  30.301  1.00  0.00     0.074 A 
ATOM     57  C   UNL A   1      40.746  34.385  30.809  1.00  0.00     0.031 C 
ATOM     58  C   UNL A   1      43.071  33.749  30.224  1.00  0.00     0.034 A 
BRANCH  45  59
ATOM     59  C   UNL A   1      46.500  29.123  27.916  1.00  0.00     0.023 A 
ATOM     60  C   UNL A   1      46.881  28.811  26.599  1.00  0.00     0.031 A 
ATOM     61  C   UNL A   1      47.442  28.914  28.939  1.00  0.00     0.131 A 
ATOM     62  C   UNL A   1      48.139  28.241  26.349  1.00  0.00     0.055 A 
ATOM     63  C   UNL A   1      48.722  28.422  28.673  1.00  0.00     0.041 A 
ATOM     64  F   UNL A   1      47.132  29.176  30.218  1.00  0.00    -0.206 F 
ATOM     65  C   UNL A   1      49.072  28.067  27.374  1.00  0.00     0.022 A 
BRANCH  62  66
ATOM     66  S   UNL A   1      48.488  27.606  24.687  1.00  0.00     0.124 S 
ATOM     67  O   UNL A   1      47.344  28.112  23.931  1.00  0.00    -0.237 OA
ATOM     68  O   UNL A   1      49.776  28.216  24.380  1.00  0.00    -0.237 OA
ATOM     69  O   UNL A   1      48.512  26.156  24.870  1.00  0.00    -0.744 OA
ENDBRANCH  62  66
ENDBRANCH  45  59
BRANCH  46  70
ATOM     70  C   UNL A   1      37.255  32.039  30.429  1.00  0.00     0.023 A 
ATOM     71  C   UNL A   1      36.366  32.675  29.547  1.00  0.00     0.031 A 
ATOM     72  C   UNL A   1      36.832  31.828  31.753  1.00  0.00     0.131 A 
ATOM     73  C   UNL A   1      35.115  33.111  30.009  1.00  0.00     0.055 A 
ATOM     74  C   UNL A   1      35.567  32.219  32.196  1.00  0.00     0.041 A 
ATOM     75  F   UNL A   1      37.640  31.217  32.635  1.00  0.00    -0.206 F 
ATOM     76  C   UNL A   1      34.705  32.877  31.323  1.00  0.00     0.022 A 
BRANCH  73  77
ATOM     77  S   UNL A   1      34.054  34.056  28.883  1.00  0.00     0.124 S 
ATOM     78  O   UNL A   1      34.976  35.069  28.384  1.00  0.00    -0.237 OA
ATOM     79  O   UNL A   1      33.642  33.035  27.925  1.00  0.00    -0.237 OA
ATOM     80  O   UNL A   1      32.990  34.553  29.754  1.00  0.00    -0.744 OA
ENDBRANCH  73  77
ENDBRANCH  46  70
BRANCH  58  81
ATOM     81  C   UNL A   1      43.507  35.126  30.664  1.00  0.00     0.023 A 
ATOM     82  C   UNL A   1      43.516  36.219  29.779  1.00  0.00     0.031 A 
ATOM     83  C   UNL A   1      43.930  35.343  31.987  1.00  0.00     0.131 A 
ATOM     84  C   UNL A   1      43.989  37.466  30.214  1.00  0.00     0.055 A 
ATOM     85  C   UNL A   1      44.342  36.601  32.431  1.00  0.00     0.041 A 
ATOM     86  F   UNL A   1      43.944  34.335  32.874  1.00  0.00    -0.206 F 
ATOM     87  C   UNL A   1      44.386  37.668  31.539  1.00  0.00     0.022 A 
BRANCH  84  88
ATOM     88  S   UNL A   1      44.167  38.803  29.001  1.00  0.00     0.124 S 
ATOM     89  O   UNL A   1      43.489  38.248  27.835  1.00  0.00    -0.237 OA
ATOM     90  O   UNL A   1      43.491  39.916  29.661  1.00  0.00    -0.237 OA
ATOM     91  O   UNL A   1      45.615  38.953  28.865  1.00  0.00    -0.744 OA
ENDBRANCH  84  88
ENDBRANCH  58  81
ENDBRANCH  32  33
ENDBRANCH  24  27
ENDBRANCH  22  23
ENDBRANCH   1  22
TORSDOF 16
ENDMDL
