MODEL 1
REMARK VINA RESULT:     -11.9      0.000      0.000
REMARK SMILES C[C@](NC(=O)c1ccc(Br)o1)(C(=O)NCCCNC(=O)c1ccc(-c2c3nc(c(-c4cc(S(=O)(=O)[O-])ccc4F)c4ccc([nH]4)c(-c4cc(S(=O)(=O)[O-])ccc4F)c4nc(c(-c5cc(S(=O)(=O)[O-])ccc5F)c5ccc2[nH]5)C=C4)C=C3)cc1)C(F)(F)F
REMARK SMILES IDX 16 1 15 2 14 3 12 4 13 5 2 7 1 8 84 9 85 10 86 11 87 12 3 13
REMARK SMILES IDX 4 14 5 16 6 17 7 18 11 19 8 20 9 21 10 22 17 23 18 24 19 25
REMARK SMILES IDX 20 27 21 28 22 29 83 30 23 31 82 32 24 33 25 34 26 35 76 36
REMARK SMILES IDX 27 37 81 38 75 39 77 40 28 41 80 42 74 43 73 44 29 46 61 47
REMARK SMILES IDX 41 48 60 49 42 50 45 51 59 52 78 53 43 54 44 55 58 57 79 58
REMARK SMILES IDX 46 59 30 60 31 61 39 62 32 63 38 64 40 65 37 66 33 67 34 68
REMARK SMILES IDX 35 69 36 70 62 71 63 72 71 73 64 74 70 75 72 76 69 77 65 78
REMARK SMILES IDX 66 79 67 80 68 81 47 82 48 83 56 84 49 85 55 86 57 87 54 88
REMARK SMILES IDX 50 89 51 90 52 91 53 92
REMARK H PARENT 14 6 3 15 18 26 77 45 45 56
REMARK Flexibility Score: inf
ROOT
ATOM      1  C   UNL A   1      31.510  31.944  26.844  1.00  0.00     0.042 C 
ENDROOT
BRANCH   1   2
ATOM      2  C   UNL A   1      31.710  30.766  25.901  1.00  0.00     0.117 C 
BRANCH   2   3
ATOM      3  N   UNL A   1      30.738  30.728  24.822  1.00  0.00    -0.354 N 
ATOM      4  C   UNL A   1      30.401  29.726  23.951  1.00  0.00     0.254 C 
ATOM      5  O   UNL A   1      29.436  29.951  23.219  1.00  0.00    -0.272 OA
ATOM      6  H   UNL A   1      30.235  31.564  24.695  1.00  0.00     0.163 HD
BRANCH   4   7
ATOM      7  C   UNL A   1      31.126  28.362  23.970  1.00  0.00     0.212 C 
ATOM      8  C   UNL A   1      31.270  27.890  25.423  1.00  0.00     0.056 C 
BRANCH   7   9
ATOM      9  C   UNL A   1      30.192  27.347  23.263  1.00  0.00     0.420 C 
ATOM     10  F   UNL A   1      28.887  27.568  23.545  1.00  0.00    -0.168 F 
ATOM     11  F   UNL A   1      30.317  27.477  21.912  1.00  0.00    -0.168 F 
ATOM     12  F   UNL A   1      30.484  26.059  23.544  1.00  0.00    -0.168 F 
ENDBRANCH   7   9
BRANCH   7  13
ATOM     13  N   UNL A   1      32.380  28.518  23.163  1.00  0.00    -0.328 N 
ATOM     14  C   UNL A   1      33.428  27.727  22.785  1.00  0.00     0.288 C 
ATOM     15  H   UNL A   1      32.475  29.434  22.814  1.00  0.00     0.165 HD
ATOM     16  O   UNL A   1      34.203  28.200  21.956  1.00  0.00    -0.266 OA
BRANCH  14  17
ATOM     17  C   UNL A   1      33.633  26.441  23.390  1.00  0.00     0.192 A 
ATOM     18  C   UNL A   1      34.088  26.044  24.631  1.00  0.00     0.057 A 
ATOM     19  O   UNL A   1      33.255  25.340  22.670  1.00  0.00    -0.444 OA
ATOM     20  C   UNL A   1      34.012  24.627  24.655  1.00  0.00     0.059 A 
ATOM     21  C   UNL A   1      33.486  24.249  23.441  1.00  0.00     0.170 A 
ATOM     22  Br  UNL A   1      33.136  22.496  22.912  1.00  0.00    -0.008 Br
ENDBRANCH  14  17
ENDBRANCH   7  13
ENDBRANCH   4   7
ENDBRANCH   2   3
ENDBRANCH   1   2
BRANCH   1  23
ATOM     23  C   UNL A   1      32.806  32.650  27.230  1.00  0.00     0.118 C 
BRANCH  23  24
ATOM     24  N   UNL A   1      32.585  34.023  27.663  1.00  0.00    -0.352 N 
ATOM     25  C   UNL A   1      33.173  34.733  28.681  1.00  0.00     0.251 C 
ATOM     26  H   UNL A   1      31.909  34.519  27.147  1.00  0.00     0.163 HD
ATOM     27  O   UNL A   1      32.705  35.827  28.990  1.00  0.00    -0.269 OA
BRANCH  25  28
ATOM     28  C   UNL A   1      34.342  34.190  29.407  1.00  0.00     0.039 A 
ATOM     29  C   UNL A   1      34.121  33.373  30.521  1.00  0.00     0.014 A 
ATOM     30  C   UNL A   1      35.647  34.505  29.021  1.00  0.00     0.014 A 
ATOM     31  C   UNL A   1      35.207  32.828  31.211  1.00  0.00     0.010 A 
ATOM     32  C   UNL A   1      36.727  33.910  29.669  1.00  0.00     0.010 A 
ATOM     33  C   UNL A   1      36.518  33.069  30.772  1.00  0.00    -0.014 A 
BRANCH  33  34
ATOM     34  C   UNL A   1      37.687  32.466  31.460  1.00  0.00     0.031 A 
ATOM     35  C   UNL A   1      38.434  31.330  30.815  1.00  0.00     0.074 A 
ATOM     36  C   UNL A   1      38.027  32.888  32.693  1.00  0.00     0.049 A 
ATOM     37  N   UNL A   1      39.402  30.594  31.296  1.00  0.00    -0.248 NA
ATOM     38  C   UNL A   1      38.006  30.953  29.460  1.00  0.00     0.031 C 
ATOM     39  C   UNL A   1      37.351  33.953  33.439  1.00  0.00     0.029 A 
ATOM     40  N   UNL A   1      39.014  32.462  33.544  1.00  0.00    -0.354 N 
ATOM     41  C   UNL A   1      39.685  29.651  30.315  1.00  0.00     0.074 A 
ATOM     42  C   UNL A   1      38.751  29.881  29.232  1.00  0.00     0.031 C 
ATOM     43  C   UNL A   1      37.951  34.103  34.631  1.00  0.00     0.029 A 
ATOM     44  C   UNL A   1      39.026  33.123  34.751  1.00  0.00     0.049 A 
ATOM     45  H   UNL A   1      39.653  31.749  33.314  1.00  0.00     0.167 HD
ATOM     46  C   UNL A   1      40.646  28.692  30.309  1.00  0.00     0.034 A 
ATOM     47  C   UNL A   1      39.806  32.949  35.834  1.00  0.00     0.034 A 
ATOM     48  C   UNL A   1      41.584  28.491  31.386  1.00  0.00     0.049 A 
ATOM     49  C   UNL A   1      40.875  31.889  35.802  1.00  0.00     0.074 A 
ATOM     50  C   UNL A   1      42.631  27.589  31.464  1.00  0.00     0.029 A 
ATOM     51  N   UNL A   1      41.587  29.203  32.579  1.00  0.00    -0.354 N 
ATOM     52  N   UNL A   1      41.154  31.027  34.852  1.00  0.00    -0.248 NA
ATOM     53  C   UNL A   1      41.742  31.788  36.984  1.00  0.00     0.031 C 
ATOM     54  C   UNL A   1      43.237  27.723  32.720  1.00  0.00     0.029 A 
ATOM     55  C   UNL A   1      42.605  28.749  33.405  1.00  0.00     0.049 A 
ATOM     56  H   UNL A   1      40.958  29.926  32.806  1.00  0.00     0.167 HD
ATOM     57  C   UNL A   1      42.245  30.297  35.313  1.00  0.00     0.074 A 
ATOM     58  C   UNL A   1      42.578  30.826  36.620  1.00  0.00     0.031 C 
ATOM     59  C   UNL A   1      42.914  29.282  34.710  1.00  0.00     0.034 A 
BRANCH  46  60
ATOM     60  C   UNL A   1      40.699  27.777  29.110  1.00  0.00     0.023 A 
ATOM     61  C   UNL A   1      41.634  27.967  28.079  1.00  0.00     0.031 A 
ATOM     62  C   UNL A   1      39.774  26.727  28.975  1.00  0.00     0.131 A 
ATOM     63  C   UNL A   1      41.572  27.176  26.922  1.00  0.00     0.055 A 
ATOM     64  C   UNL A   1      39.768  25.891  27.856  1.00  0.00     0.041 A 
ATOM     65  F   UNL A   1      38.845  26.508  29.919  1.00  0.00    -0.206 F 
ATOM     66  C   UNL A   1      40.661  26.124  26.813  1.00  0.00     0.022 A 
BRANCH  63  67
ATOM     67  S   UNL A   1      42.602  27.637  25.502  1.00  0.00     0.124 S 
ATOM     68  O   UNL A   1      42.501  26.443  24.665  1.00  0.00    -0.237 OA
ATOM     69  O   UNL A   1      41.930  28.829  24.998  1.00  0.00    -0.237 OA
ATOM     70  O   UNL A   1      43.919  27.865  26.092  1.00  0.00    -0.744 OA
ENDBRANCH  63  67
ENDBRANCH  46  60
BRANCH  47  71
ATOM     71  C   UNL A   1      39.604  33.788  37.046  1.00  0.00     0.023 A 
ATOM     72  C   UNL A   1      38.930  33.282  38.168  1.00  0.00     0.031 A 
ATOM     73  C   UNL A   1      40.060  35.117  37.090  1.00  0.00     0.131 A 
ATOM     74  C   UNL A   1      38.695  34.113  39.275  1.00  0.00     0.055 A 
ATOM     75  C   UNL A   1      39.861  35.926  38.209  1.00  0.00     0.041 A 
ATOM     76  F   UNL A   1      40.721  35.641  36.044  1.00  0.00    -0.206 F 
ATOM     77  C   UNL A   1      39.165  35.428  39.306  1.00  0.00     0.022 A 
BRANCH  74  78
ATOM     78  S   UNL A   1      37.711  33.465  40.653  1.00  0.00     0.124 S 
ATOM     79  O   UNL A   1      38.624  32.490  41.239  1.00  0.00    -0.237 OA
ATOM     80  O   UNL A   1      37.464  34.668  41.441  1.00  0.00    -0.237 OA
ATOM     81  O   UNL A   1      36.534  32.901  39.995  1.00  0.00    -0.744 OA
ENDBRANCH  74  78
ENDBRANCH  47  71
BRANCH  59  82
ATOM     82  C   UNL A   1      44.098  28.718  35.450  1.00  0.00     0.023 A 
ATOM     83  C   UNL A   1      43.955  27.679  36.387  1.00  0.00     0.031 A 
ATOM     84  C   UNL A   1      45.382  29.243  35.229  1.00  0.00     0.131 A 
ATOM     85  C   UNL A   1      45.073  27.232  37.107  1.00  0.00     0.055 A 
ATOM     86  C   UNL A   1      46.499  28.762  35.914  1.00  0.00     0.041 A 
ATOM     87  F   UNL A   1      45.570  30.237  34.345  1.00  0.00    -0.206 F 
ATOM     88  C   UNL A   1      46.346  27.759  36.867  1.00  0.00     0.022 A 
BRANCH  85  89
ATOM     89  S   UNL A   1      44.831  26.005  38.419  1.00  0.00     0.124 S 
ATOM     90  O   UNL A   1      44.307  24.864  37.676  1.00  0.00    -0.237 OA
ATOM     91  O   UNL A   1      46.179  25.851  38.956  1.00  0.00    -0.237 OA
ATOM     92  O   UNL A   1      43.876  26.649  39.321  1.00  0.00    -0.744 OA
ENDBRANCH  85  89
ENDBRANCH  59  82
ENDBRANCH  33  34
ENDBRANCH  25  28
ENDBRANCH  23  24
ENDBRANCH   1  23
TORSDOF 16
ENDMDL
MODEL 2
REMARK VINA RESULT:     -11.9      1.701      2.121
REMARK SMILES C[C@](NC(=O)c1ccc(Br)o1)(C(=O)NCCCNC(=O)c1ccc(-c2c3nc(c(-c4cc(S(=O)(=O)[O-])ccc4F)c4ccc([nH]4)c(-c4cc(S(=O)(=O)[O-])ccc4F)c4nc(c(-c5cc(S(=O)(=O)[O-])ccc5F)c5ccc2[nH]5)C=C4)C=C3)cc1)C(F)(F)F
REMARK SMILES IDX 16 1 15 2 14 3 12 4 13 5 2 7 1 8 84 9 85 10 86 11 87 12 3 13
REMARK SMILES IDX 4 14 5 16 6 17 7 18 11 19 8 20 9 21 10 22 17 23 18 24 19 25
REMARK SMILES IDX 20 27 21 28 22 29 83 30 23 31 82 32 24 33 25 34 26 35 76 36
REMARK SMILES IDX 27 37 81 38 75 39 77 40 28 41 80 42 74 43 73 44 29 46 61 47
REMARK SMILES IDX 41 48 60 49 42 50 45 51 59 52 78 53 43 54 44 55 58 57 79 58
REMARK SMILES IDX 46 59 30 60 31 61 39 62 32 63 38 64 40 65 37 66 33 67 34 68
REMARK SMILES IDX 35 69 36 70 62 71 63 72 71 73 64 74 70 75 72 76 69 77 65 78
REMARK SMILES IDX 66 79 67 80 68 81 47 82 48 83 56 84 49 85 55 86 57 87 54 88
REMARK SMILES IDX 50 89 51 90 52 91 53 92
REMARK H PARENT 14 6 3 15 18 26 77 45 45 56
REMARK Flexibility Score: inf
ROOT
ATOM      1  C   UNL A   1      31.379  31.803  26.480  1.00  0.00     0.042 C 
ENDROOT
BRANCH   1   2
ATOM      2  C   UNL A   1      31.523  30.443  25.812  1.00  0.00     0.117 C 
BRANCH   2   3
ATOM      3  N   UNL A   1      30.898  30.381  24.502  1.00  0.00    -0.354 N 
ATOM      4  C   UNL A   1      30.874  29.384  23.564  1.00  0.00     0.254 C 
ATOM      5  O   UNL A   1      30.144  29.578  22.591  1.00  0.00    -0.272 OA
ATOM      6  H   UNL A   1      30.407  31.195  24.244  1.00  0.00     0.163 HD
BRANCH   4   7
ATOM      7  C   UNL A   1      31.634  28.056  23.776  1.00  0.00     0.212 C 
ATOM      8  C   UNL A   1      31.264  27.080  22.651  1.00  0.00     0.056 C 
BRANCH   7   9
ATOM      9  C   UNL A   1      33.142  28.371  23.615  1.00  0.00     0.420 C 
ATOM     10  F   UNL A   1      33.828  27.336  23.078  1.00  0.00    -0.168 F 
ATOM     11  F   UNL A   1      33.301  29.418  22.756  1.00  0.00    -0.168 F 
ATOM     12  F   UNL A   1      33.744  28.737  24.767  1.00  0.00    -0.168 F 
ENDBRANCH   7   9
BRANCH   7  13
ATOM     13  N   UNL A   1      31.374  27.620  25.187  1.00  0.00    -0.328 N 
ATOM     14  C   UNL A   1      31.853  26.667  26.041  1.00  0.00     0.288 C 
ATOM     15  H   UNL A   1      30.669  28.163  25.610  1.00  0.00     0.165 HD
ATOM     16  O   UNL A   1      31.482  26.741  27.212  1.00  0.00    -0.266 OA
BRANCH  14  17
ATOM     17  C   UNL A   1      32.687  25.603  25.561  1.00  0.00     0.192 A 
ATOM     18  C   UNL A   1      34.039  25.341  25.670  1.00  0.00     0.057 A 
ATOM     19  O   UNL A   1      32.073  24.565  24.915  1.00  0.00    -0.444 OA
ATOM     20  C   UNL A   1      34.261  24.094  25.029  1.00  0.00     0.059 A 
ATOM     21  C   UNL A   1      33.030  23.658  24.598  1.00  0.00     0.170 A 
ATOM     22  Br  UNL A   1      32.701  22.055  23.704  1.00  0.00    -0.008 Br
ENDBRANCH  14  17
ENDBRANCH   7  13
ENDBRANCH   4   7
ENDBRANCH   2   3
ENDBRANCH   1   2
BRANCH   1  23
ATOM     23  C   UNL A   1      32.638  32.270  27.203  1.00  0.00     0.118 C 
BRANCH  23  24
ATOM     24  N   UNL A   1      32.574  33.674  27.585  1.00  0.00    -0.352 N 
ATOM     25  C   UNL A   1      33.296  34.367  28.525  1.00  0.00     0.251 C 
ATOM     26  H   UNL A   1      31.911  34.209  27.092  1.00  0.00     0.163 HD
ATOM     27  O   UNL A   1      32.952  35.511  28.814  1.00  0.00    -0.269 OA
BRANCH  25  28
ATOM     28  C   UNL A   1      34.459  33.747  29.195  1.00  0.00     0.039 A 
ATOM     29  C   UNL A   1      35.744  34.186  28.857  1.00  0.00     0.014 A 
ATOM     30  C   UNL A   1      34.297  32.716  30.125  1.00  0.00     0.014 A 
ATOM     31  C   UNL A   1      36.858  33.634  29.492  1.00  0.00     0.010 A 
ATOM     32  C   UNL A   1      35.404  32.211  30.804  1.00  0.00     0.010 A 
ATOM     33  C   UNL A   1      36.695  32.662  30.492  1.00  0.00    -0.014 A 
BRANCH  33  34
ATOM     34  C   UNL A   1      37.860  32.090  31.213  1.00  0.00     0.031 A 
ATOM     35  C   UNL A   1      38.668  30.990  30.582  1.00  0.00     0.074 A 
ATOM     36  C   UNL A   1      38.142  32.508  32.463  1.00  0.00     0.049 A 
ATOM     37  N   UNL A   1      39.643  30.281  31.089  1.00  0.00    -0.248 NA
ATOM     38  C   UNL A   1      38.301  30.615  29.209  1.00  0.00     0.031 C 
ATOM     39  C   UNL A   1      37.403  33.540  33.196  1.00  0.00     0.029 A 
ATOM     40  N   UNL A   1      39.112  32.105  33.343  1.00  0.00    -0.354 N 
ATOM     41  C   UNL A   1      39.993  29.360  30.108  1.00  0.00     0.074 A 
ATOM     42  C   UNL A   1      39.090  29.573  28.995  1.00  0.00     0.031 C 
ATOM     43  C   UNL A   1      37.955  33.695  34.410  1.00  0.00     0.029 A 
ATOM     44  C   UNL A   1      39.059  32.751  34.557  1.00  0.00     0.049 A 
ATOM     45  H   UNL A   1      39.783  31.418  33.128  1.00  0.00     0.167 HD
ATOM     46  C   UNL A   1      40.986  28.435  30.125  1.00  0.00     0.034 A 
ATOM     47  C   UNL A   1      39.806  32.591  35.665  1.00  0.00     0.034 A 
ATOM     48  C   UNL A   1      41.892  28.252  31.233  1.00  0.00     0.049 A 
ATOM     49  C   UNL A   1      40.911  31.568  35.659  1.00  0.00     0.074 A 
ATOM     50  C   UNL A   1      42.966  27.386  31.337  1.00  0.00     0.029 A 
ATOM     51  N   UNL A   1      41.829  28.949  32.433  1.00  0.00    -0.354 N 
ATOM     52  N   UNL A   1      41.253  30.728  34.710  1.00  0.00    -0.248 NA
ATOM     53  C   UNL A   1      41.739  31.482  36.869  1.00  0.00     0.031 C 
ATOM     54  C   UNL A   1      43.523  27.525  32.615  1.00  0.00     0.029 A 
ATOM     55  C   UNL A   1      42.832  28.519  33.289  1.00  0.00     0.049 A 
ATOM     56  H   UNL A   1      41.167  29.647  32.646  1.00  0.00     0.167 HD
ATOM     57  C   UNL A   1      42.352  30.030  35.201  1.00  0.00     0.074 A 
ATOM     58  C   UNL A   1      42.620  30.554  36.525  1.00  0.00     0.031 C 
ATOM     59  C   UNL A   1      43.076  29.046  34.610  1.00  0.00     0.034 A 
BRANCH  46  60
ATOM     60  C   UNL A   1      41.112  27.537  28.918  1.00  0.00     0.023 A 
ATOM     61  C   UNL A   1      42.106  27.746  27.946  1.00  0.00     0.031 A 
ATOM     62  C   UNL A   1      40.202  26.486  28.715  1.00  0.00     0.131 A 
ATOM     63  C   UNL A   1      42.115  26.972  26.776  1.00  0.00     0.055 A 
ATOM     64  C   UNL A   1      40.265  25.667  27.585  1.00  0.00     0.041 A 
ATOM     65  F   UNL A   1      39.220  26.250  29.599  1.00  0.00    -0.206 F 
ATOM     66  C   UNL A   1      41.216  25.918  26.599  1.00  0.00     0.022 A 
BRANCH  63  67
ATOM     67  S   UNL A   1      43.223  27.457  25.425  1.00  0.00     0.124 S 
ATOM     68  O   UNL A   1      43.677  26.157  24.936  1.00  0.00    -0.237 OA
ATOM     69  O   UNL A   1      42.335  28.198  24.538  1.00  0.00    -0.237 OA
ATOM     70  O   UNL A   1      44.249  28.256  26.093  1.00  0.00    -0.744 OA
ENDBRANCH  63  67
ENDBRANCH  46  60
BRANCH  47  71
ATOM     71  C   UNL A   1      39.533  33.406  36.879  1.00  0.00     0.023 A 
ATOM     72  C   UNL A   1      40.288  34.555  37.161  1.00  0.00     0.031 A 
ATOM     73  C   UNL A   1      38.530  33.032  37.790  1.00  0.00     0.131 A 
ATOM     74  C   UNL A   1      40.054  35.271  38.344  1.00  0.00     0.055 A 
ATOM     75  C   UNL A   1      38.273  33.771  38.946  1.00  0.00     0.041 A 
ATOM     76  F   UNL A   1      37.774  31.946  37.558  1.00  0.00    -0.206 F 
ATOM     77  C   UNL A   1      39.045  34.892  39.234  1.00  0.00     0.022 A 
BRANCH  74  78
ATOM     78  S   UNL A   1      41.132  36.676  38.736  1.00  0.00     0.124 S 
ATOM     79  O   UNL A   1      40.168  37.678  39.176  1.00  0.00    -0.237 OA
ATOM     80  O   UNL A   1      41.994  36.116  39.772  1.00  0.00    -0.237 OA
ATOM     81  O   UNL A   1      41.794  36.961  37.464  1.00  0.00    -0.744 OA
ENDBRANCH  74  78
ENDBRANCH  47  71
BRANCH  59  82
ATOM     82  C   UNL A   1      44.253  28.513  35.385  1.00  0.00     0.023 A 
ATOM     83  C   UNL A   1      44.107  27.481  36.328  1.00  0.00     0.031 A 
ATOM     84  C   UNL A   1      45.531  29.063  35.191  1.00  0.00     0.131 A 
ATOM     85  C   UNL A   1      45.215  27.064  37.081  1.00  0.00     0.055 A 
ATOM     86  C   UNL A   1      46.640  28.611  35.908  1.00  0.00     0.041 A 
ATOM     87  F   UNL A   1      45.721  30.052  34.302  1.00  0.00    -0.206 F 
ATOM     88  C   UNL A   1      46.483  27.615  36.868  1.00  0.00     0.022 A 
BRANCH  85  89
ATOM     89  S   UNL A   1      44.965  25.844  38.399  1.00  0.00     0.124 S 
ATOM     90  O   UNL A   1      43.996  26.518  39.257  1.00  0.00    -0.237 OA
ATOM     91  O   UNL A   1      44.468  24.686  37.663  1.00  0.00    -0.237 OA
ATOM     92  O   UNL A   1      46.299  25.683  38.977  1.00  0.00    -0.744 OA
ENDBRANCH  85  89
ENDBRANCH  59  82
ENDBRANCH  33  34
ENDBRANCH  25  28
ENDBRANCH  23  24
ENDBRANCH   1  23
TORSDOF 16
ENDMDL
MODEL 3
REMARK VINA RESULT:     -11.8      1.820      2.263
REMARK SMILES C[C@](NC(=O)c1ccc(Br)o1)(C(=O)NCCCNC(=O)c1ccc(-c2c3nc(c(-c4cc(S(=O)(=O)[O-])ccc4F)c4ccc([nH]4)c(-c4cc(S(=O)(=O)[O-])ccc4F)c4nc(c(-c5cc(S(=O)(=O)[O-])ccc5F)c5ccc2[nH]5)C=C4)C=C3)cc1)C(F)(F)F
REMARK SMILES IDX 16 1 15 2 14 3 12 4 13 5 2 7 1 8 84 9 85 10 86 11 87 12 3 13
REMARK SMILES IDX 4 14 5 16 6 17 7 18 11 19 8 20 9 21 10 22 17 23 18 24 19 25
REMARK SMILES IDX 20 27 21 28 22 29 83 30 23 31 82 32 24 33 25 34 26 35 76 36
REMARK SMILES IDX 27 37 81 38 75 39 77 40 28 41 80 42 74 43 73 44 29 46 61 47
REMARK SMILES IDX 41 48 60 49 42 50 45 51 59 52 78 53 43 54 44 55 58 57 79 58
REMARK SMILES IDX 46 59 30 60 31 61 39 62 32 63 38 64 40 65 37 66 33 67 34 68
REMARK SMILES IDX 35 69 36 70 62 71 63 72 71 73 64 74 70 75 72 76 69 77 65 78
REMARK SMILES IDX 66 79 67 80 68 81 47 82 48 83 56 84 49 85 55 86 57 87 54 88
REMARK SMILES IDX 50 89 51 90 52 91 53 92
REMARK H PARENT 14 6 3 15 18 26 77 45 45 56
REMARK Flexibility Score: inf
ROOT
ATOM      1  C   UNL A   1      31.141  31.617  26.099  1.00  0.00     0.042 C 
ENDROOT
BRANCH   1   2
ATOM      2  C   UNL A   1      31.234  30.207  25.533  1.00  0.00     0.117 C 
BRANCH   2   3
ATOM      3  N   UNL A   1      30.751  30.107  24.166  1.00  0.00    -0.354 N 
ATOM      4  C   UNL A   1      30.873  29.104  23.241  1.00  0.00     0.254 C 
ATOM      5  O   UNL A   1      30.239  29.257  22.196  1.00  0.00    -0.272 OA
ATOM      6  H   UNL A   1      30.251  30.894  23.851  1.00  0.00     0.163 HD
BRANCH   4   7
ATOM      7  C   UNL A   1      31.671  27.817  23.544  1.00  0.00     0.212 C 
ATOM      8  C   UNL A   1      31.453  26.811  22.406  1.00  0.00     0.056 C 
BRANCH   7   9
ATOM      9  C   UNL A   1      33.171  28.202  23.518  1.00  0.00     0.420 C 
ATOM     10  F   UNL A   1      33.937  27.241  22.950  1.00  0.00    -0.168 F 
ATOM     11  F   UNL A   1      33.343  29.322  22.760  1.00  0.00    -0.168 F 
ATOM     12  F   UNL A   1      33.676  28.493  24.737  1.00  0.00    -0.168 F 
ENDBRANCH   7   9
BRANCH   7  13
ATOM     13  N   UNL A   1      31.300  27.386  24.932  1.00  0.00    -0.328 N 
ATOM     14  C   UNL A   1      31.731  26.456  25.836  1.00  0.00     0.288 C 
ATOM     15  H   UNL A   1      30.545  27.911  25.285  1.00  0.00     0.165 HD
ATOM     16  O   UNL A   1      31.256  26.530  26.969  1.00  0.00    -0.266 OA
BRANCH  14  17
ATOM     17  C   UNL A   1      32.636  25.414  25.443  1.00  0.00     0.192 A 
ATOM     18  C   UNL A   1      33.992  25.225  25.623  1.00  0.00     0.057 A 
ATOM     19  O   UNL A   1      32.101  24.318  24.822  1.00  0.00    -0.444 OA
ATOM     20  C   UNL A   1      34.302  23.963  25.053  1.00  0.00     0.059 A 
ATOM     21  C   UNL A   1      33.114  23.447  24.590  1.00  0.00     0.170 A 
ATOM     22  Br  UNL A   1      32.904  21.790  23.760  1.00  0.00    -0.008 Br
ENDBRANCH  14  17
ENDBRANCH   7  13
ENDBRANCH   4   7
ENDBRANCH   2   3
ENDBRANCH   1   2
BRANCH   1  23
ATOM     23  C   UNL A   1      32.378  32.049  26.879  1.00  0.00     0.118 C 
BRANCH  23  24
ATOM     24  N   UNL A   1      32.340  33.457  27.251  1.00  0.00    -0.352 N 
ATOM     25  C   UNL A   1      33.103  34.153  28.155  1.00  0.00     0.251 C 
ATOM     26  H   UNL A   1      31.661  33.992  26.780  1.00  0.00     0.163 HD
ATOM     27  O   UNL A   1      32.779  35.302  28.446  1.00  0.00    -0.269 OA
BRANCH  25  28
ATOM     28  C   UNL A   1      34.288  33.530  28.784  1.00  0.00     0.039 A 
ATOM     29  C   UNL A   1      35.539  34.129  28.604  1.00  0.00     0.014 A 
ATOM     30  C   UNL A   1      34.182  32.345  29.517  1.00  0.00     0.014 A 
ATOM     31  C   UNL A   1      36.671  33.575  29.206  1.00  0.00     0.010 A 
ATOM     32  C   UNL A   1      35.299  31.829  30.170  1.00  0.00     0.010 A 
ATOM     33  C   UNL A   1      36.555  32.436  30.018  1.00  0.00    -0.014 A 
BRANCH  33  34
ATOM     34  C   UNL A   1      37.734  31.852  30.705  1.00  0.00     0.031 A 
ATOM     35  C   UNL A   1      38.568  30.810  30.011  1.00  0.00     0.074 A 
ATOM     36  C   UNL A   1      38.007  32.202  31.977  1.00  0.00     0.049 A 
ATOM     37  N   UNL A   1      39.561  30.097  30.475  1.00  0.00    -0.248 NA
ATOM     38  C   UNL A   1      38.209  30.507  28.618  1.00  0.00     0.031 C 
ATOM     39  C   UNL A   1      37.244  33.171  32.769  1.00  0.00     0.029 A 
ATOM     40  N   UNL A   1      38.987  31.773  32.833  1.00  0.00    -0.354 N 
ATOM     41  C   UNL A   1      39.932  29.244  29.442  1.00  0.00     0.074 A 
ATOM     42  C   UNL A   1      39.023  29.499  28.343  1.00  0.00     0.031 C 
ATOM     43  C   UNL A   1      37.793  33.268  33.991  1.00  0.00     0.029 A 
ATOM     44  C   UNL A   1      38.920  32.345  34.082  1.00  0.00     0.049 A 
ATOM     45  H   UNL A   1      39.675  31.116  32.578  1.00  0.00     0.167 HD
ATOM     46  C   UNL A   1      40.947  28.345  29.406  1.00  0.00     0.034 A 
ATOM     47  C   UNL A   1      39.672  32.138  35.180  1.00  0.00     0.034 A 
ATOM     48  C   UNL A   1      41.859  28.119  30.501  1.00  0.00     0.049 A 
ATOM     49  C   UNL A   1      40.802  31.145  35.113  1.00  0.00     0.074 A 
ATOM     50  C   UNL A   1      42.954  27.275  30.555  1.00  0.00     0.029 A 
ATOM     51  N   UNL A   1      41.780  28.743  31.740  1.00  0.00    -0.354 N 
ATOM     52  N   UNL A   1      41.163  30.371  34.117  1.00  0.00    -0.248 NA
ATOM     53  C   UNL A   1      41.633  31.008  36.317  1.00  0.00     0.031 C 
ATOM     54  C   UNL A   1      43.509  27.352  31.839  1.00  0.00     0.029 A 
ATOM     55  C   UNL A   1      42.795  28.289  32.570  1.00  0.00     0.049 A 
ATOM     56  H   UNL A   1      41.102  29.411  31.993  1.00  0.00     0.167 HD
ATOM     57  C   UNL A   1      42.279  29.672  34.567  1.00  0.00     0.074 A 
ATOM     58  C   UNL A   1      42.536  30.124  35.919  1.00  0.00     0.031 C 
ATOM     59  C   UNL A   1      43.027  28.743  33.919  1.00  0.00     0.034 A 
BRANCH  46  60
ATOM     60  C   UNL A   1      41.095  27.522  28.149  1.00  0.00     0.023 A 
ATOM     61  C   UNL A   1      40.729  26.166  28.109  1.00  0.00     0.031 A 
ATOM     62  C   UNL A   1      41.648  28.089  26.988  1.00  0.00     0.131 A 
ATOM     63  C   UNL A   1      40.998  25.401  26.964  1.00  0.00     0.055 A 
ATOM     64  C   UNL A   1      41.840  27.342  25.823  1.00  0.00     0.041 A 
ATOM     65  F   UNL A   1      42.033  29.375  26.971  1.00  0.00    -0.206 F 
ATOM     66  C   UNL A   1      41.529  25.984  25.812  1.00  0.00     0.022 A 
BRANCH  63  67
ATOM     67  S   UNL A   1      40.779  23.602  27.053  1.00  0.00     0.124 S 
ATOM     68  O   UNL A   1      41.604  23.150  25.934  1.00  0.00    -0.237 OA
ATOM     69  O   UNL A   1      41.283  23.288  28.385  1.00  0.00    -0.237 OA
ATOM     70  O   UNL A   1      39.341  23.422  26.870  1.00  0.00    -0.744 OA
ENDBRANCH  63  67
ENDBRANCH  46  60
BRANCH  47  71
ATOM     71  C   UNL A   1      39.380  32.874  36.439  1.00  0.00     0.023 A 
ATOM     72  C   UNL A   1      38.507  32.341  37.400  1.00  0.00     0.031 A 
ATOM     73  C   UNL A   1      39.950  34.135  36.687  1.00  0.00     0.131 A 
ATOM     74  C   UNL A   1      38.197  33.083  38.550  1.00  0.00     0.055 A 
ATOM     75  C   UNL A   1      39.672  34.851  37.852  1.00  0.00     0.041 A 
ATOM     76  F   UNL A   1      40.800  34.681  35.802  1.00  0.00    -0.206 F 
ATOM     77  C   UNL A   1      38.781  34.330  38.787  1.00  0.00     0.022 A 
BRANCH  74  78
ATOM     78  S   UNL A   1      36.969  32.419  39.706  1.00  0.00     0.124 S 
ATOM     79  O   UNL A   1      36.962  33.437  40.751  1.00  0.00    -0.237 OA
ATOM     80  O   UNL A   1      35.774  32.348  38.871  1.00  0.00    -0.237 OA
ATOM     81  O   UNL A   1      37.532  31.127  40.095  1.00  0.00    -0.744 OA
ENDBRANCH  74  78
ENDBRANCH  47  71
BRANCH  59  82
ATOM     82  C   UNL A   1      44.217  28.194  34.663  1.00  0.00     0.023 A 
ATOM     83  C   UNL A   1      44.131  27.017  35.426  1.00  0.00     0.031 A 
ATOM     84  C   UNL A   1      45.446  28.874  34.623  1.00  0.00     0.131 A 
ATOM     85  C   UNL A   1      45.243  26.580  36.160  1.00  0.00     0.055 A 
ATOM     86  C   UNL A   1      46.563  28.409  35.318  1.00  0.00     0.041 A 
ATOM     87  F   UNL A   1      45.579  30.004  33.910  1.00  0.00    -0.206 F 
ATOM     88  C   UNL A   1      46.462  27.263  36.102  1.00  0.00     0.022 A 
BRANCH  85  89
ATOM     89  S   UNL A   1      45.056  25.149  37.258  1.00  0.00     0.124 S 
ATOM     90  O   UNL A   1      43.637  24.839  37.115  1.00  0.00    -0.237 OA
ATOM     91  O   UNL A   1      45.981  24.184  36.674  1.00  0.00    -0.237 OA
ATOM     92  O   UNL A   1      45.448  25.667  38.568  1.00  0.00    -0.744 OA
ENDBRANCH  85  89
ENDBRANCH  59  82
ENDBRANCH  33  34
ENDBRANCH  25  28
ENDBRANCH  23  24
ENDBRANCH   1  23
TORSDOF 16
ENDMDL
