MODEL 1
REMARK VINA RESULT:     -11.0      0.000      0.000
REMARK SMILES Cn1ccnc1N1[C@@H]2CC[C@H]1C[C@H](CC(=O)NCCCNC(=O)c1ccc(-c3c4nc(c(-c5cc(S(=O)(=O)[O-])ccc5F)c5ccc([nH]5)c(-c5cc(S(=O)(=O)[O-])ccc5F)c5nc(c(-c6cc(S(=O)(=O)[O-])ccc6F)c6ccc3[nH]6)C=C5)C=C4)cc1)C2
REMARK SMILES IDX 19 1 18 2 17 3 15 4 16 5 14 7 13 8 7 9 8 10 11 11 9 12 87 13
REMARK SMILES IDX 10 14 12 15 6 16 1 17 2 18 3 19 4 20 5 21 20 22 21 23 22 24
REMARK SMILES IDX 23 26 24 27 25 28 86 29 26 30 85 31 27 32 28 33 29 34 79 35
REMARK SMILES IDX 30 36 84 37 78 38 80 39 31 40 83 41 77 42 76 43 32 45 64 46
REMARK SMILES IDX 44 47 63 48 45 49 48 50 62 51 81 52 46 53 47 54 61 56 82 57
REMARK SMILES IDX 49 58 33 59 34 60 42 61 35 62 41 63 43 64 40 65 36 66 37 67
REMARK SMILES IDX 38 68 39 69 65 70 66 71 74 72 67 73 73 74 75 75 72 76 68 77
REMARK SMILES IDX 69 78 70 79 71 80 50 81 51 82 59 83 52 84 58 85 60 86 57 87
REMARK SMILES IDX 53 88 54 89 55 90 56 91
REMARK H PARENT 17 6 21 25 80 44 48 55
REMARK Flexibility Score: inf
ROOT
ATOM      1  C   UNL A   1      34.470  35.117  28.123  1.00  0.00     0.042 C 
ENDROOT
BRANCH   1   2
ATOM      2  C   UNL A   1      33.279  35.274  29.071  1.00  0.00     0.117 C 
BRANCH   2   3
ATOM      3  N   UNL A   1      33.419  36.387  30.002  1.00  0.00    -0.356 N 
ATOM      4  C   UNL A   1      33.321  36.443  31.362  1.00  0.00     0.220 C 
ATOM      5  O   UNL A   1      33.568  37.516  31.917  1.00  0.00    -0.275 OA
ATOM      6  H   UNL A   1      33.620  37.251  29.574  1.00  0.00     0.163 HD
BRANCH   4   7
ATOM      7  C   UNL A   1      32.889  35.233  32.179  1.00  0.00     0.103 C 
BRANCH   7   8
ATOM      8  C   UNL A   1      34.086  34.459  32.762  1.00  0.00     0.002 C 
ATOM      9  N   UNL A   1      36.999  34.485  32.520  1.00  0.00    -0.336 N 
ATOM     10  C   UNL A   1      36.406  34.741  33.844  1.00  0.00     0.086 C 
ATOM     11  C   UNL A   1      36.285  33.299  32.038  1.00  0.00     0.086 C 
ATOM     12  C   UNL A   1      36.308  33.331  34.459  1.00  0.00     0.027 C 
ATOM     13  C   UNL A   1      35.010  35.367  33.602  1.00  0.00     0.029 C 
ATOM     14  C   UNL A   1      36.260  32.377  33.258  1.00  0.00     0.027 C 
ATOM     15  C   UNL A   1      34.882  33.764  31.648  1.00  0.00     0.029 C 
BRANCH   9  16
ATOM     16  C   UNL A   1      38.354  34.524  32.402  1.00  0.00     0.205 A 
ATOM     17  C   UNL A   1      38.446  34.436  29.869  1.00  0.00     0.153 C 
ATOM     18  N   UNL A   1      39.011  34.409  31.195  1.00  0.00    -0.320 N 
ATOM     19  C   UNL A   1      40.351  34.300  31.457  1.00  0.00     0.109 A 
ATOM     20  C   UNL A   1      40.458  34.450  32.816  1.00  0.00     0.133 A 
ATOM     21  N   UNL A   1      39.225  34.633  33.382  1.00  0.00    -0.221 NA
ENDBRANCH   9  16
ENDBRANCH   7   8
ENDBRANCH   4   7
ENDBRANCH   2   3
ENDBRANCH   1   2
BRANCH   1  22
ATOM     22  C   UNL A   1      35.139  33.749  28.168  1.00  0.00     0.118 C 
BRANCH  22  23
ATOM     23  N   UNL A   1      34.197  32.697  27.832  1.00  0.00    -0.352 N 
ATOM     24  C   UNL A   1      34.408  31.344  27.692  1.00  0.00     0.251 C 
ATOM     25  H   UNL A   1      33.271  32.996  27.684  1.00  0.00     0.163 HD
ATOM     26  O   UNL A   1      33.572  30.676  27.090  1.00  0.00    -0.269 OA
BRANCH  24  27
ATOM     27  C   UNL A   1      35.627  30.693  28.236  1.00  0.00     0.039 A 
ATOM     28  C   UNL A   1      35.532  29.946  29.417  1.00  0.00     0.014 A 
ATOM     29  C   UNL A   1      36.877  30.868  27.637  1.00  0.00     0.014 A 
ATOM     30  C   UNL A   1      36.672  29.343  29.965  1.00  0.00     0.010 A 
ATOM     31  C   UNL A   1      37.996  30.203  28.139  1.00  0.00     0.010 A 
ATOM     32  C   UNL A   1      37.912  29.445  29.318  1.00  0.00    -0.014 A 
BRANCH  32  33
ATOM     33  C   UNL A   1      39.153  28.825  29.866  1.00  0.00     0.031 A 
ATOM     34  C   UNL A   1      39.843  29.471  31.041  1.00  0.00     0.074 A 
ATOM     35  C   UNL A   1      39.708  27.755  29.265  1.00  0.00     0.049 A 
ATOM     36  N   UNL A   1      41.026  29.230  31.547  1.00  0.00    -0.248 NA
ATOM     37  C   UNL A   1      39.114  30.556  31.715  1.00  0.00     0.031 C 
ATOM     38  C   UNL A   1      39.145  27.040  28.119  1.00  0.00     0.029 A 
ATOM     39  N   UNL A   1      40.888  27.095  29.519  1.00  0.00    -0.354 N 
ATOM     40  C   UNL A   1      41.199  30.158  32.568  1.00  0.00     0.074 A 
ATOM     41  C   UNL A   1      40.015  30.991  32.583  1.00  0.00     0.031 C 
ATOM     42  C   UNL A   1      39.978  26.046  27.768  1.00  0.00     0.029 A 
ATOM     43  C   UNL A   1      41.161  26.086  28.622  1.00  0.00     0.049 A 
ATOM     44  H   UNL A   1      41.481  27.322  30.270  1.00  0.00     0.167 HD
ATOM     45  C   UNL A   1      42.243  30.296  33.423  1.00  0.00     0.034 A 
ATOM     46  C   UNL A   1      42.254  25.305  28.481  1.00  0.00     0.034 A 
ATOM     47  C   UNL A   1      43.399  29.434  33.420  1.00  0.00     0.049 A 
ATOM     48  C   UNL A   1      43.415  25.490  29.429  1.00  0.00     0.074 A 
ATOM     49  C   UNL A   1      44.484  29.445  34.281  1.00  0.00     0.029 A 
ATOM     50  N   UNL A   1      43.624  28.408  32.512  1.00  0.00    -0.354 N 
ATOM     51  N   UNL A   1      43.551  26.357  30.406  1.00  0.00    -0.248 NA
ATOM     52  C   UNL A   1      44.565  24.589  29.263  1.00  0.00     0.031 C 
ATOM     53  C   UNL A   1      45.393  28.472  33.854  1.00  0.00     0.029 A 
ATOM     54  C   UNL A   1      44.841  27.800  32.776  1.00  0.00     0.049 A 
ATOM     55  H   UNL A   1      43.009  28.151  31.788  1.00  0.00     0.167 HD
ATOM     56  C   UNL A   1      44.783  26.076  30.993  1.00  0.00     0.074 A 
ATOM     57  C   UNL A   1      45.349  24.963  30.263  1.00  0.00     0.031 C 
ATOM     58  C   UNL A   1      45.385  26.679  32.049  1.00  0.00     0.034 A 
BRANCH  45  59
ATOM     59  C   UNL A   1      42.199  31.437  34.411  1.00  0.00     0.023 A 
ATOM     60  C   UNL A   1      41.253  31.484  35.449  1.00  0.00     0.031 A 
ATOM     61  C   UNL A   1      43.114  32.500  34.306  1.00  0.00     0.131 A 
ATOM     62  C   UNL A   1      41.198  32.601  36.297  1.00  0.00     0.055 A 
ATOM     63  C   UNL A   1      43.107  33.570  35.203  1.00  0.00     0.041 A 
ATOM     64  F   UNL A   1      44.028  32.521  33.323  1.00  0.00    -0.206 F 
ATOM     65  C   UNL A   1      42.135  33.632  36.198  1.00  0.00     0.022 A 
BRANCH  62  66
ATOM     66  S   UNL A   1      39.801  32.750  37.442  1.00  0.00     0.124 S 
ATOM     67  O   UNL A   1      38.977  31.608  37.051  1.00  0.00    -0.237 OA
ATOM     68  O   UNL A   1      40.449  32.653  38.745  1.00  0.00    -0.237 OA
ATOM     69  O   UNL A   1      39.232  34.057  37.122  1.00  0.00    -0.744 OA
ENDBRANCH  62  66
ENDBRANCH  45  59
BRANCH  46  70
ATOM     70  C   UNL A   1      42.328  24.300  27.380  1.00  0.00     0.023 A 
ATOM     71  C   UNL A   1      41.734  23.034  27.514  1.00  0.00     0.031 A 
ATOM     72  C   UNL A   1      43.042  24.569  26.198  1.00  0.00     0.131 A 
ATOM     73  C   UNL A   1      41.907  22.070  26.509  1.00  0.00     0.055 A 
ATOM     74  C   UNL A   1      43.163  23.625  25.176  1.00  0.00     0.041 A 
ATOM     75  F   UNL A   1      43.628  25.763  26.016  1.00  0.00    -0.206 F 
ATOM     76  C   UNL A   1      42.606  22.360  25.336  1.00  0.00     0.022 A 
BRANCH  73  77
ATOM     77  S   UNL A   1      41.288  20.390  26.805  1.00  0.00     0.124 S 
ATOM     78  O   UNL A   1      40.218  20.291  25.817  1.00  0.00    -0.237 OA
ATOM     79  O   UNL A   1      42.475  19.582  26.549  1.00  0.00    -0.237 OA
ATOM     80  O   UNL A   1      40.850  20.430  28.199  1.00  0.00    -0.744 OA
ENDBRANCH  73  77
ENDBRANCH  46  70
BRANCH  58  81
ATOM     81  C   UNL A   1      46.690  26.099  32.532  1.00  0.00     0.023 A 
ATOM     82  C   UNL A   1      46.742  25.062  33.477  1.00  0.00     0.031 A 
ATOM     83  C   UNL A   1      47.903  26.573  31.999  1.00  0.00     0.131 A 
ATOM     84  C   UNL A   1      47.985  24.550  33.881  1.00  0.00     0.055 A 
ATOM     85  C   UNL A   1      49.131  26.027  32.367  1.00  0.00     0.041 A 
ATOM     86  F   UNL A   1      47.907  27.564  31.091  1.00  0.00    -0.206 F 
ATOM     87  C   UNL A   1      49.177  25.013  33.319  1.00  0.00     0.022 A 
BRANCH  84  88
ATOM     88  S   UNL A   1      48.031  23.293  35.189  1.00  0.00     0.124 S 
ATOM     89  O   UNL A   1      46.622  22.937  35.317  1.00  0.00    -0.237 OA
ATOM     90  O   UNL A   1      48.896  22.270  34.609  1.00  0.00    -0.237 OA
ATOM     91  O   UNL A   1      48.598  24.005  36.331  1.00  0.00    -0.744 OA
ENDBRANCH  84  88
ENDBRANCH  58  81
ENDBRANCH  32  33
ENDBRANCH  24  27
ENDBRANCH  22  23
ENDBRANCH   1  22
TORSDOF 15
ENDMDL
MODEL 2
REMARK VINA RESULT:     -11.0      4.487     10.366
REMARK SMILES Cn1ccnc1N1[C@@H]2CC[C@H]1C[C@H](CC(=O)NCCCNC(=O)c1ccc(-c3c4nc(c(-c5cc(S(=O)(=O)[O-])ccc5F)c5ccc([nH]5)c(-c5cc(S(=O)(=O)[O-])ccc5F)c5nc(c(-c6cc(S(=O)(=O)[O-])ccc6F)c6ccc3[nH]6)C=C5)C=C4)cc1)C2
REMARK SMILES IDX 19 1 18 2 17 3 15 4 16 5 14 7 13 8 7 9 8 10 11 11 9 12 87 13
REMARK SMILES IDX 10 14 12 15 6 16 1 17 2 18 3 19 4 20 5 21 20 22 21 23 22 24
REMARK SMILES IDX 23 26 24 27 25 28 86 29 26 30 85 31 27 32 28 33 29 34 79 35
REMARK SMILES IDX 30 36 84 37 78 38 80 39 31 40 83 41 77 42 76 43 32 45 64 46
REMARK SMILES IDX 44 47 63 48 45 49 48 50 62 51 81 52 46 53 47 54 61 56 82 57
REMARK SMILES IDX 49 58 33 59 34 60 42 61 35 62 41 63 43 64 40 65 36 66 37 67
REMARK SMILES IDX 38 68 39 69 65 70 66 71 74 72 67 73 73 74 75 75 72 76 68 77
REMARK SMILES IDX 69 78 70 79 71 80 50 81 51 82 59 83 52 84 58 85 60 86 57 87
REMARK SMILES IDX 53 88 54 89 55 90 56 91
REMARK H PARENT 17 6 21 25 80 44 48 55
REMARK Flexibility Score: inf
ROOT
ATOM      1  C   UNL A   1      34.027  28.779  24.142  1.00  0.00     0.042 C 
ENDROOT
BRANCH   1   2
ATOM      2  C   UNL A   1      33.329  28.780  22.780  1.00  0.00     0.117 C 
BRANCH   2   3
ATOM      3  N   UNL A   1      33.598  27.584  21.989  1.00  0.00    -0.356 N 
ATOM      4  C   UNL A   1      32.824  26.494  21.713  1.00  0.00     0.220 C 
ATOM      5  O   UNL A   1      33.274  25.647  20.938  1.00  0.00    -0.275 OA
ATOM      6  H   UNL A   1      34.495  27.559  21.584  1.00  0.00     0.163 HD
BRANCH   4   7
ATOM      7  C   UNL A   1      31.460  26.301  22.360  1.00  0.00     0.103 C 
BRANCH   7   8
ATOM      8  C   UNL A   1      31.536  25.470  23.655  1.00  0.00     0.002 C 
ATOM      9  N   UNL A   1      32.437  22.810  24.463  1.00  0.00    -0.336 N 
ATOM     10  C   UNL A   1      33.089  23.982  25.072  1.00  0.00     0.086 C 
ATOM     11  C   UNL A   1      31.006  23.107  24.570  1.00  0.00     0.086 C 
ATOM     12  C   UNL A   1      32.228  24.247  26.323  1.00  0.00     0.027 C 
ATOM     13  C   UNL A   1      32.993  25.138  24.045  1.00  0.00     0.029 C 
ATOM     14  C   UNL A   1      30.857  23.638  25.997  1.00  0.00     0.027 C 
ATOM     15  C   UNL A   1      30.706  24.185  23.529  1.00  0.00     0.029 C 
BRANCH   9  16
ATOM     16  C   UNL A   1      32.874  21.572  24.819  1.00  0.00     0.205 A 
ATOM     17  C   UNL A   1      35.320  21.935  24.255  1.00  0.00     0.153 C 
ATOM     18  N   UNL A   1      34.174  21.148  24.637  1.00  0.00    -0.320 N 
ATOM     19  C   UNL A   1      34.223  19.810  24.925  1.00  0.00     0.109 A 
ATOM     20  C   UNL A   1      32.961  19.498  25.364  1.00  0.00     0.133 A 
ATOM     21  N   UNL A   1      32.152  20.602  25.338  1.00  0.00    -0.221 NA
ENDBRANCH   9  16
ENDBRANCH   7   8
ENDBRANCH   4   7
ENDBRANCH   2   3
ENDBRANCH   1   2
BRANCH   1  22
ATOM     22  C   UNL A   1      33.082  28.730  25.336  1.00  0.00     0.118 C 
BRANCH  22  23
ATOM     23  N   UNL A   1      32.558  30.050  25.639  1.00  0.00    -0.352 N 
ATOM     24  C   UNL A   1      32.875  30.903  26.672  1.00  0.00     0.251 C 
ATOM     25  H   UNL A   1      31.876  30.384  25.013  1.00  0.00     0.163 HD
ATOM     26  O   UNL A   1      32.100  31.816  26.943  1.00  0.00    -0.269 OA
BRANCH  24  27
ATOM     27  C   UNL A   1      34.118  30.724  27.466  1.00  0.00     0.039 A 
ATOM     28  C   UNL A   1      34.984  31.812  27.631  1.00  0.00     0.014 A 
ATOM     29  C   UNL A   1      34.478  29.479  27.989  1.00  0.00     0.014 A 
ATOM     30  C   UNL A   1      36.176  31.664  28.354  1.00  0.00     0.010 A 
ATOM     31  C   UNL A   1      35.624  29.352  28.774  1.00  0.00     0.010 A 
ATOM     32  C   UNL A   1      36.496  30.437  28.953  1.00  0.00    -0.014 A 
BRANCH  32  33
ATOM     33  C   UNL A   1      37.755  30.231  29.726  1.00  0.00     0.031 A 
ATOM     34  C   UNL A   1      38.829  29.336  29.162  1.00  0.00     0.074 A 
ATOM     35  C   UNL A   1      37.898  30.759  30.958  1.00  0.00     0.049 A 
ATOM     36  N   UNL A   1      39.900  28.854  29.740  1.00  0.00    -0.248 NA
ATOM     37  C   UNL A   1      38.653  28.899  27.768  1.00  0.00     0.031 C 
ATOM     38  C   UNL A   1      36.933  31.636  31.621  1.00  0.00     0.029 A 
ATOM     39  N   UNL A   1      38.902  30.612  31.885  1.00  0.00    -0.354 N 
ATOM     40  C   UNL A   1      40.502  28.028  28.797  1.00  0.00     0.074 A 
ATOM     41  C   UNL A   1      39.654  28.044  27.623  1.00  0.00     0.031 C 
ATOM     42  C   UNL A   1      37.389  31.947  32.846  1.00  0.00     0.029 A 
ATOM     43  C   UNL A   1      38.648  31.247  33.081  1.00  0.00     0.049 A 
ATOM     44  H   UNL A   1      39.725  30.102  31.712  1.00  0.00     0.167 HD
ATOM     45  C   UNL A   1      41.660  27.329  28.895  1.00  0.00     0.034 A 
ATOM     46  C   UNL A   1      39.332  31.239  34.246  1.00  0.00     0.034 A 
ATOM     47  C   UNL A   1      42.514  27.354  30.058  1.00  0.00     0.049 A 
ATOM     48  C   UNL A   1      40.608  30.437  34.341  1.00  0.00     0.074 A 
ATOM     49  C   UNL A   1      43.739  26.734  30.240  1.00  0.00     0.029 A 
ATOM     50  N   UNL A   1      42.232  28.030  31.237  1.00  0.00    -0.354 N 
ATOM     51  N   UNL A   1      41.176  29.679  33.430  1.00  0.00    -0.248 NA
ATOM     52  C   UNL A   1      41.339  30.492  35.615  1.00  0.00     0.031 C 
ATOM     53  C   UNL A   1      44.165  26.982  31.548  1.00  0.00     0.029 A 
ATOM     54  C   UNL A   1      43.246  27.821  32.157  1.00  0.00     0.049 A 
ATOM     55  H   UNL A   1      41.429  28.578  31.395  1.00  0.00     0.167 HD
ATOM     56  C   UNL A   1      42.350  29.205  34.011  1.00  0.00     0.074 A 
ATOM     57  C   UNL A   1      42.409  29.757  35.346  1.00  0.00     0.031 C 
ATOM     58  C   UNL A   1      43.299  28.392  33.481  1.00  0.00     0.034 A 
BRANCH  45  59
ATOM     59  C   UNL A   1      42.058  26.457  27.729  1.00  0.00     0.023 A 
ATOM     60  C   UNL A   1      41.769  25.082  27.697  1.00  0.00     0.031 A 
ATOM     61  C   UNL A   1      42.745  27.009  26.633  1.00  0.00     0.131 A 
ATOM     62  C   UNL A   1      42.225  24.294  26.629  1.00  0.00     0.055 A 
ATOM     63  C   UNL A   1      43.125  26.236  25.534  1.00  0.00     0.041 A 
ATOM     64  F   UNL A   1      43.066  28.313  26.614  1.00  0.00    -0.206 F 
ATOM     65  C   UNL A   1      42.878  24.866  25.535  1.00  0.00     0.022 A 
BRANCH  62  66
ATOM     66  S   UNL A   1      42.072  22.492  26.756  1.00  0.00     0.124 S 
ATOM     67  O   UNL A   1      43.361  22.128  27.339  1.00  0.00    -0.237 OA
ATOM     68  O   UNL A   1      40.911  22.335  27.624  1.00  0.00    -0.237 OA
ATOM     69  O   UNL A   1      41.879  22.066  25.371  1.00  0.00    -0.744 OA
ENDBRANCH  62  66
ENDBRANCH  45  59
BRANCH  46  70
ATOM     70  C   UNL A   1      38.814  31.981  35.433  1.00  0.00     0.023 A 
ATOM     71  C   UNL A   1      38.284  31.298  36.539  1.00  0.00     0.031 A 
ATOM     72  C   UNL A   1      38.791  33.387  35.456  1.00  0.00     0.131 A 
ATOM     73  C   UNL A   1      37.708  32.019  37.597  1.00  0.00     0.055 A 
ATOM     74  C   UNL A   1      38.269  34.101  36.537  1.00  0.00     0.041 A 
ATOM     75  F   UNL A   1      39.288  34.092  34.426  1.00  0.00    -0.206 F 
ATOM     76  C   UNL A   1      37.708  33.415  37.610  1.00  0.00     0.022 A 
BRANCH  73  77
ATOM     77  S   UNL A   1      36.865  31.099  38.914  1.00  0.00     0.124 S 
ATOM     78  O   UNL A   1      36.796  29.758  38.342  1.00  0.00    -0.237 OA
ATOM     79  O   UNL A   1      37.781  31.272  40.036  1.00  0.00    -0.237 OA
ATOM     80  O   UNL A   1      35.583  31.789  39.044  1.00  0.00    -0.744 OA
ENDBRANCH  73  77
ENDBRANCH  46  70
BRANCH  58  81
ATOM     81  C   UNL A   1      44.524  28.114  34.314  1.00  0.00     0.023 A 
ATOM     82  C   UNL A   1      44.614  26.995  35.159  1.00  0.00     0.031 A 
ATOM     83  C   UNL A   1      45.638  28.968  34.222  1.00  0.00     0.131 A 
ATOM     84  C   UNL A   1      45.784  26.777  35.902  1.00  0.00     0.055 A 
ATOM     85  C   UNL A   1      46.815  28.719  34.925  1.00  0.00     0.041 A 
ATOM     86  F   UNL A   1      45.602  30.051  33.427  1.00  0.00    -0.206 F 
ATOM     87  C   UNL A   1      46.891  27.621  35.776  1.00  0.00     0.022 A 
BRANCH  84  88
ATOM     88  S   UNL A   1      45.833  25.393  37.074  1.00  0.00     0.124 S 
ATOM     89  O   UNL A   1      44.821  24.496  36.526  1.00  0.00    -0.237 OA
ATOM     90  O   UNL A   1      47.215  24.937  36.964  1.00  0.00    -0.237 OA
ATOM     91  O   UNL A   1      45.487  26.012  38.352  1.00  0.00    -0.744 OA
ENDBRANCH  84  88
ENDBRANCH  58  81
ENDBRANCH  32  33
ENDBRANCH  24  27
ENDBRANCH  22  23
ENDBRANCH   1  22
TORSDOF 15
ENDMDL
MODEL 3
REMARK VINA RESULT:     -10.9      4.569     10.603
REMARK SMILES Cn1ccnc1N1[C@@H]2CC[C@H]1C[C@H](CC(=O)NCCCNC(=O)c1ccc(-c3c4nc(c(-c5cc(S(=O)(=O)[O-])ccc5F)c5ccc([nH]5)c(-c5cc(S(=O)(=O)[O-])ccc5F)c5nc(c(-c6cc(S(=O)(=O)[O-])ccc6F)c6ccc3[nH]6)C=C5)C=C4)cc1)C2
REMARK SMILES IDX 19 1 18 2 17 3 15 4 16 5 14 7 13 8 7 9 8 10 11 11 9 12 87 13
REMARK SMILES IDX 10 14 12 15 6 16 1 17 2 18 3 19 4 20 5 21 20 22 21 23 22 24
REMARK SMILES IDX 23 26 24 27 25 28 86 29 26 30 85 31 27 32 28 33 29 34 79 35
REMARK SMILES IDX 30 36 84 37 78 38 80 39 31 40 83 41 77 42 76 43 32 45 64 46
REMARK SMILES IDX 44 47 63 48 45 49 48 50 62 51 81 52 46 53 47 54 61 56 82 57
REMARK SMILES IDX 49 58 33 59 34 60 42 61 35 62 41 63 43 64 40 65 36 66 37 67
REMARK SMILES IDX 38 68 39 69 65 70 66 71 74 72 67 73 73 74 75 75 72 76 68 77
REMARK SMILES IDX 69 78 70 79 71 80 50 81 51 82 59 83 52 84 58 85 60 86 57 87
REMARK SMILES IDX 53 88 54 89 55 90 56 91
REMARK H PARENT 17 6 21 25 80 44 48 55
REMARK Flexibility Score: inf
ROOT
ATOM      1  C   UNL A   1      31.532  31.489  26.459  1.00  0.00     0.042 C 
ENDROOT
BRANCH   1   2
ATOM      2  C   UNL A   1      31.665  30.042  25.978  1.00  0.00     0.117 C 
BRANCH   2   3
ATOM      3  N   UNL A   1      32.100  29.928  24.591  1.00  0.00    -0.356 N 
ATOM      4  C   UNL A   1      32.838  28.973  23.953  1.00  0.00     0.220 C 
ATOM      5  O   UNL A   1      32.997  29.082  22.736  1.00  0.00    -0.275 OA
ATOM      6  H   UNL A   1      31.811  30.671  24.013  1.00  0.00     0.163 HD
BRANCH   4   7
ATOM      7  C   UNL A   1      33.478  27.821  24.715  1.00  0.00     0.103 C 
BRANCH   7   8
ATOM      8  C   UNL A   1      32.625  26.539  24.668  1.00  0.00     0.002 C 
ATOM      9  N   UNL A   1      33.037  23.660  24.947  1.00  0.00    -0.336 N 
ATOM     10  C   UNL A   1      32.136  24.331  25.900  1.00  0.00     0.086 C 
ATOM     11  C   UNL A   1      32.608  24.164  23.640  1.00  0.00     0.086 C 
ATOM     12  C   UNL A   1      30.762  24.231  25.207  1.00  0.00     0.027 C 
ATOM     13  C   UNL A   1      32.618  25.798  26.023  1.00  0.00     0.029 C 
ATOM     14  C   UNL A   1      31.081  24.088  23.713  1.00  0.00     0.027 C 
ATOM     15  C   UNL A   1      33.101  25.608  23.546  1.00  0.00     0.029 C 
BRANCH   9  16
ATOM     16  C   UNL A   1      33.250  22.324  25.094  1.00  0.00     0.205 A 
ATOM     17  C   UNL A   1      35.707  22.332  24.464  1.00  0.00     0.153 C 
ATOM     18  N   UNL A   1      34.446  21.711  24.784  1.00  0.00    -0.320 N 
ATOM     19  C   UNL A   1      34.257  20.357  24.869  1.00  0.00     0.109 A 
ATOM     20  C   UNL A   1      32.971  20.209  25.323  1.00  0.00     0.133 A 
ATOM     21  N   UNL A   1      32.376  21.429  25.501  1.00  0.00    -0.221 NA
ENDBRANCH   9  16
ENDBRANCH   7   8
ENDBRANCH   4   7
ENDBRANCH   2   3
ENDBRANCH   1   2
BRANCH   1  22
ATOM     22  C   UNL A   1      32.740  32.015  27.223  1.00  0.00     0.118 C 
BRANCH  22  23
ATOM     23  N   UNL A   1      32.611  33.437  27.488  1.00  0.00    -0.352 N 
ATOM     24  C   UNL A   1      33.228  34.209  28.446  1.00  0.00     0.251 C 
ATOM     25  H   UNL A   1      31.993  33.919  26.893  1.00  0.00     0.163 HD
ATOM     26  O   UNL A   1      32.748  35.306  28.719  1.00  0.00    -0.269 OA
BRANCH  24  27
ATOM     27  C   UNL A   1      34.441  33.732  29.158  1.00  0.00     0.039 A 
ATOM     28  C   UNL A   1      35.693  34.243  28.792  1.00  0.00     0.014 A 
ATOM     29  C   UNL A   1      34.369  32.733  30.134  1.00  0.00     0.014 A 
ATOM     30  C   UNL A   1      36.855  33.790  29.431  1.00  0.00     0.010 A 
ATOM     31  C   UNL A   1      35.517  32.342  30.823  1.00  0.00     0.010 A 
ATOM     32  C   UNL A   1      36.776  32.852  30.471  1.00  0.00    -0.014 A 
BRANCH  32  33
ATOM     33  C   UNL A   1      37.986  32.338  31.175  1.00  0.00     0.031 A 
ATOM     34  C   UNL A   1      38.782  31.218  30.554  1.00  0.00     0.074 A 
ATOM     35  C   UNL A   1      38.315  32.798  32.399  1.00  0.00     0.049 A 
ATOM     36  N   UNL A   1      39.733  30.485  31.074  1.00  0.00    -0.248 NA
ATOM     37  C   UNL A   1      38.435  30.856  29.171  1.00  0.00     0.031 C 
ATOM     38  C   UNL A   1      37.625  33.873  33.113  1.00  0.00     0.029 A 
ATOM     39  N   UNL A   1      39.301  32.401  33.271  1.00  0.00    -0.354 N 
ATOM     40  C   UNL A   1      40.069  29.551  30.099  1.00  0.00     0.074 A 
ATOM     41  C   UNL A   1      39.191  29.787  28.972  1.00  0.00     0.031 C 
ATOM     42  C   UNL A   1      38.205  34.048  34.312  1.00  0.00     0.029 A 
ATOM     43  C   UNL A   1      39.268  33.062  34.480  1.00  0.00     0.049 A 
ATOM     44  H   UNL A   1      39.966  31.710  33.054  1.00  0.00     0.167 HD
ATOM     45  C   UNL A   1      41.028  28.592  30.135  1.00  0.00     0.034 A 
ATOM     46  C   UNL A   1      39.989  32.873  35.606  1.00  0.00     0.034 A 
ATOM     47  C   UNL A   1      41.920  28.394  31.251  1.00  0.00     0.049 A 
ATOM     48  C   UNL A   1      41.037  31.786  35.633  1.00  0.00     0.074 A 
ATOM     49  C   UNL A   1      42.967  27.496  31.367  1.00  0.00     0.029 A 
ATOM     50  N   UNL A   1      41.871  29.102  32.444  1.00  0.00    -0.354 N 
ATOM     51  N   UNL A   1      41.358  30.927  34.692  1.00  0.00    -0.248 NA
ATOM     52  C   UNL A   1      41.824  31.645  36.866  1.00  0.00     0.031 C 
ATOM     53  C   UNL A   1      43.507  27.615  32.651  1.00  0.00     0.029 A 
ATOM     54  C   UNL A   1      42.850  28.642  33.309  1.00  0.00     0.049 A 
ATOM     55  H   UNL A   1      41.233  29.825  32.645  1.00  0.00     0.167 HD
ATOM     56  C   UNL A   1      42.410  30.175  35.209  1.00  0.00     0.074 A 
ATOM     57  C   UNL A   1      42.670  30.678  36.540  1.00  0.00     0.031 C 
ATOM     58  C   UNL A   1      43.107  29.165  34.629  1.00  0.00     0.034 A 
BRANCH  45  59
ATOM     59  C   UNL A   1      41.142  27.666  28.949  1.00  0.00     0.023 A 
ATOM     60  C   UNL A   1      42.113  27.853  27.951  1.00  0.00     0.031 A 
ATOM     61  C   UNL A   1      40.258  26.581  28.809  1.00  0.00     0.131 A 
ATOM     62  C   UNL A   1      42.134  27.014  26.826  1.00  0.00     0.055 A 
ATOM     63  C   UNL A   1      40.335  25.700  27.729  1.00  0.00     0.041 A 
ATOM     64  F   UNL A   1      39.295  26.362  29.720  1.00  0.00    -0.206 F 
ATOM     65  C   UNL A   1      41.269  25.923  26.721  1.00  0.00     0.022 A 
BRANCH  62  66
ATOM     66  S   UNL A   1      43.219  27.451  25.441  1.00  0.00     0.124 S 
ATOM     67  O   UNL A   1      43.593  26.133  24.933  1.00  0.00    -0.237 OA
ATOM     68  O   UNL A   1      42.337  28.238  24.586  1.00  0.00    -0.237 OA
ATOM     69  O   UNL A   1      44.303  28.197  26.075  1.00  0.00    -0.744 OA
ENDBRANCH  62  66
ENDBRANCH  45  59
BRANCH  46  70
ATOM     70  C   UNL A   1      39.727  33.701  36.820  1.00  0.00     0.023 A 
ATOM     71  C   UNL A   1      40.554  34.788  37.147  1.00  0.00     0.031 A 
ATOM     72  C   UNL A   1      38.677  33.386  37.701  1.00  0.00     0.131 A 
ATOM     73  C   UNL A   1      40.351  35.486  38.347  1.00  0.00     0.055 A 
ATOM     74  C   UNL A   1      38.443  34.120  38.866  1.00  0.00     0.041 A 
ATOM     75  F   UNL A   1      37.853  32.360  37.436  1.00  0.00    -0.206 F 
ATOM     76  C   UNL A   1      39.294  35.169  39.203  1.00  0.00     0.022 A 
BRANCH  73  77
ATOM     77  S   UNL A   1      41.555  36.756  38.825  1.00  0.00     0.124 S 
ATOM     78  O   UNL A   1      40.690  37.789  39.385  1.00  0.00    -0.237 OA
ATOM     79  O   UNL A   1      42.393  36.035  39.776  1.00  0.00    -0.237 OA
ATOM     80  O   UNL A   1      42.203  37.102  37.561  1.00  0.00    -0.744 OA
ENDBRANCH  73  77
ENDBRANCH  46  70
BRANCH  58  81
ATOM     81  C   UNL A   1      44.269  28.588  35.396  1.00  0.00     0.023 A 
ATOM     82  C   UNL A   1      44.107  27.552  36.330  1.00  0.00     0.031 A 
ATOM     83  C   UNL A   1      45.571  29.062  35.148  1.00  0.00     0.131 A 
ATOM     84  C   UNL A   1      45.227  27.042  37.005  1.00  0.00     0.055 A 
ATOM     85  C   UNL A   1      46.685  28.518  35.786  1.00  0.00     0.041 A 
ATOM     86  F   UNL A   1      45.779  30.050  34.263  1.00  0.00    -0.206 F 
ATOM     87  C   UNL A   1      46.515  27.506  36.725  1.00  0.00     0.022 A 
BRANCH  84  88
ATOM     88  S   UNL A   1      44.978  25.788  38.292  1.00  0.00     0.124 S 
ATOM     89  O   UNL A   1      46.345  25.535  38.737  1.00  0.00    -0.237 OA
ATOM     90  O   UNL A   1      44.117  26.482  39.244  1.00  0.00    -0.237 OA
ATOM     91  O   UNL A   1      44.344  24.683  37.578  1.00  0.00    -0.744 OA
ENDBRANCH  84  88
ENDBRANCH  58  81
ENDBRANCH  32  33
ENDBRANCH  24  27
ENDBRANCH  22  23
ENDBRANCH   1  22
TORSDOF 15
ENDMDL
