MODEL 1
REMARK VINA RESULT:     -10.2      0.000      0.000
REMARK SMILES Cc1n[nH]c(C(F)(F)Cl)c1C(=O)NCCCNC(=O)c1ccc(-c2c3nc(c(-c4cc(S(=O)(=O)[O-])ccc4F)c4ccc([nH]4)c(-c4cc(S(=O)(=O)[O-])ccc4F)c4nc(c(-c5cc(S(=O)(=O)[O-])ccc5F)c5ccc2[nH]5)C=C4)C=C3)cc1
REMARK SMILES IDX 16 1 15 2 14 3 13 4 11 5 12 6 10 8 1 9 2 10 3 11 4 12 5 13
REMARK SMILES IDX 6 15 7 16 8 17 9 18 17 19 18 20 19 22 20 23 21 24 82 25
REMARK SMILES IDX 22 26 81 27 23 28 24 29 25 30 75 31 26 32 80 33 74 34 76 35
REMARK SMILES IDX 27 36 79 37 73 38 72 39 28 41 60 42 40 43 59 44 41 45 44 46
REMARK SMILES IDX 58 47 77 48 42 49 43 50 57 52 78 53 45 54 29 55 30 56 38 57
REMARK SMILES IDX 31 58 37 59 39 60 36 61 32 62 33 63 34 64 35 65 61 66 62 67
REMARK SMILES IDX 70 68 63 69 69 70 71 71 68 72 64 73 65 74 66 75 67 76 46 77
REMARK SMILES IDX 47 78 55 79 48 80 54 81 56 82 53 83 49 84 50 85 51 86 52 87
REMARK H PARENT 13 7 4 14 17 21 76 40 44 51
REMARK Flexibility Score: inf
ROOT
ATOM      1  C   UNL A   1      34.558  33.321  28.142  1.00  0.00     0.118 C 
ENDROOT
BRANCH   1   2
ATOM      2  C   UNL A   1      33.645  34.358  28.790  1.00  0.00     0.042 C 
BRANCH   2   3
ATOM      3  C   UNL A   1      34.031  34.723  30.228  1.00  0.00     0.118 C 
BRANCH   3   4
ATOM      4  N   UNL A   1      34.308  33.526  30.985  1.00  0.00    -0.352 N 
ATOM      5  C   UNL A   1      35.451  32.950  31.463  1.00  0.00     0.255 C 
ATOM      6  O   UNL A   1      35.324  31.772  31.846  1.00  0.00    -0.269 OA
ATOM      7  H   UNL A   1      33.498  33.011  31.203  1.00  0.00     0.163 HD
BRANCH   5   8
ATOM      8  C   UNL A   1      36.736  33.625  31.621  1.00  0.00     0.091 A 
ATOM      9  C   UNL A   1      37.999  33.829  29.264  1.00  0.00     0.069 C 
ATOM     10  C   UNL A   1      37.794  34.001  30.725  1.00  0.00     0.072 A 
ATOM     11  N   UNL A   1      38.821  34.573  31.369  1.00  0.00    -0.180 NA
ATOM     12  N   UNL A   1      38.495  34.486  32.651  1.00  0.00    -0.274 N 
ATOM     13  C   UNL A   1      37.254  33.971  32.875  1.00  0.00     0.133 A 
ATOM     14  H   UNL A   1      39.097  34.770  33.377  1.00  0.00     0.190 HD
BRANCH  13  15
ATOM     15  C   UNL A   1      36.856  33.856  34.302  1.00  0.00     0.365 C 
ATOM     16  F   UNL A   1      37.016  32.573  34.733  1.00  0.00    -0.181 F 
ATOM     17  F   UNL A   1      37.752  34.576  35.049  1.00  0.00    -0.181 F 
ATOM     18  Cl  UNL A   1      35.256  34.450  34.734  1.00  0.00    -0.040 Cl
ENDBRANCH  13  15
ENDBRANCH   5   8
ENDBRANCH   3   4
ENDBRANCH   2   3
ENDBRANCH   1   2
BRANCH   1  19
ATOM     19  N   UNL A   1      33.812  32.168  27.666  1.00  0.00    -0.352 N 
ATOM     20  C   UNL A   1      34.231  30.878  27.460  1.00  0.00     0.251 C 
ATOM     21  H   UNL A   1      32.864  32.337  27.462  1.00  0.00     0.163 HD
ATOM     22  O   UNL A   1      33.515  30.122  26.796  1.00  0.00    -0.269 OA
BRANCH  20  23
ATOM     23  C   UNL A   1      35.517  30.391  28.007  1.00  0.00     0.039 A 
ATOM     24  C   UNL A   1      35.521  29.722  29.235  1.00  0.00     0.014 A 
ATOM     25  C   UNL A   1      36.725  30.635  27.347  1.00  0.00     0.014 A 
ATOM     26  C   UNL A   1      36.724  29.259  29.775  1.00  0.00     0.010 A 
ATOM     27  C   UNL A   1      37.916  30.110  27.850  1.00  0.00     0.010 A 
ATOM     28  C   UNL A   1      37.929  29.423  29.074  1.00  0.00    -0.014 A 
BRANCH  28  29
ATOM     29  C   UNL A   1      39.213  28.896  29.609  1.00  0.00     0.031 A 
ATOM     30  C   UNL A   1      39.884  29.579  30.772  1.00  0.00     0.074 A 
ATOM     31  C   UNL A   1      39.801  27.841  29.012  1.00  0.00     0.049 A 
ATOM     32  N   UNL A   1      41.043  29.328  31.325  1.00  0.00    -0.248 NA
ATOM     33  C   UNL A   1      39.167  30.716  31.370  1.00  0.00     0.031 C 
ATOM     34  C   UNL A   1      39.261  27.116  27.859  1.00  0.00     0.029 A 
ATOM     35  N   UNL A   1      40.982  27.198  29.280  1.00  0.00    -0.354 N 
ATOM     36  C   UNL A   1      41.203  30.283  32.324  1.00  0.00     0.074 A 
ATOM     37  C   UNL A   1      40.047  31.152  32.260  1.00  0.00     0.031 C 
ATOM     38  C   UNL A   1      40.094  26.114  27.539  1.00  0.00     0.029 A 
ATOM     39  C   UNL A   1      41.251  26.152  28.427  1.00  0.00     0.049 A 
ATOM     40  H   UNL A   1      41.582  27.459  30.016  1.00  0.00     0.167 HD
ATOM     41  C   UNL A   1      42.211  30.409  33.225  1.00  0.00     0.034 A 
ATOM     42  C   UNL A   1      42.316  25.328  28.358  1.00  0.00     0.034 A 
ATOM     43  C   UNL A   1      43.347  29.522  33.282  1.00  0.00     0.049 A 
ATOM     44  C   UNL A   1      43.436  25.504  29.353  1.00  0.00     0.074 A 
ATOM     45  C   UNL A   1      44.397  29.523  34.184  1.00  0.00     0.029 A 
ATOM     46  N   UNL A   1      43.587  28.477  32.398  1.00  0.00    -0.354 N 
ATOM     47  N   UNL A   1      43.551  26.388  30.318  1.00  0.00    -0.248 NA
ATOM     48  C   UNL A   1      44.562  24.569  29.254  1.00  0.00     0.031 C 
ATOM     49  C   UNL A   1      45.303  28.527  33.805  1.00  0.00     0.029 A 
ATOM     50  C   UNL A   1      44.782  27.849  32.715  1.00  0.00     0.049 A 
ATOM     51  H   UNL A   1      42.995  28.219  31.655  1.00  0.00     0.167 HD
ATOM     52  C   UNL A   1      44.748  26.089  30.963  1.00  0.00     0.074 A 
ATOM     53  C   UNL A   1      45.308  24.937  30.284  1.00  0.00     0.031 C 
ATOM     54  C   UNL A   1      45.331  26.706  32.022  1.00  0.00     0.034 A 
BRANCH  41  55
ATOM     55  C   UNL A   1      42.138  31.563  34.197  1.00  0.00     0.023 A 
ATOM     56  C   UNL A   1      41.326  31.515  35.344  1.00  0.00     0.031 A 
ATOM     57  C   UNL A   1      42.875  32.739  33.964  1.00  0.00     0.131 A 
ATOM     58  C   UNL A   1      41.210  32.643  36.171  1.00  0.00     0.055 A 
ATOM     59  C   UNL A   1      42.820  33.829  34.837  1.00  0.00     0.041 A 
ATOM     60  F   UNL A   1      43.652  32.855  32.876  1.00  0.00    -0.206 F 
ATOM     61  C   UNL A   1      41.972  33.791  35.940  1.00  0.00     0.022 A 
BRANCH  58  62
ATOM     62  S   UNL A   1      39.943  32.640  37.468  1.00  0.00     0.124 S 
ATOM     63  O   UNL A   1      39.041  31.593  36.996  1.00  0.00    -0.237 OA
ATOM     64  O   UNL A   1      40.716  32.327  38.665  1.00  0.00    -0.237 OA
ATOM     65  O   UNL A   1      39.395  33.994  37.416  1.00  0.00    -0.744 OA
ENDBRANCH  58  62
ENDBRANCH  41  55
BRANCH  42  66
ATOM     66  C   UNL A   1      42.384  24.266  27.314  1.00  0.00     0.023 A 
ATOM     67  C   UNL A   1      41.629  23.087  27.435  1.00  0.00     0.031 A 
ATOM     68  C   UNL A   1      43.235  24.391  26.202  1.00  0.00     0.131 A 
ATOM     69  C   UNL A   1      41.775  22.062  26.488  1.00  0.00     0.055 A 
ATOM     70  C   UNL A   1      43.336  23.390  25.233  1.00  0.00     0.041 A 
ATOM     71  F   UNL A   1      43.975  25.498  26.034  1.00  0.00    -0.206 F 
ATOM     72  C   UNL A   1      42.613  22.211  25.380  1.00  0.00     0.022 A 
BRANCH  69  73
ATOM     73  S   UNL A   1      40.918  20.489  26.773  1.00  0.00     0.124 S 
ATOM     74  O   UNL A   1      41.864  19.530  26.213  1.00  0.00    -0.237 OA
ATOM     75  O   UNL A   1      40.779  20.480  28.225  1.00  0.00    -0.237 OA
ATOM     76  O   UNL A   1      39.670  20.642  26.029  1.00  0.00    -0.744 OA
ENDBRANCH  69  73
ENDBRANCH  42  66
BRANCH  54  77
ATOM     77  C   UNL A   1      46.618  26.111  32.539  1.00  0.00     0.023 A 
ATOM     78  C   UNL A   1      47.867  26.457  31.994  1.00  0.00     0.031 A 
ATOM     79  C   UNL A   1      46.590  25.174  33.587  1.00  0.00     0.131 A 
ATOM     80  C   UNL A   1      49.031  25.828  32.460  1.00  0.00     0.055 A 
ATOM     81  C   UNL A   1      47.758  24.599  34.090  1.00  0.00     0.041 A 
ATOM     82  F   UNL A   1      45.426  24.804  34.144  1.00  0.00    -0.206 F 
ATOM     83  C   UNL A   1      48.986  24.915  33.517  1.00  0.00     0.022 A 
BRANCH  80  84
ATOM     84  S   UNL A   1      50.597  26.149  31.603  1.00  0.00     0.124 S 
ATOM     85  O   UNL A   1      51.376  26.821  32.638  1.00  0.00    -0.237 OA
ATOM     86  O   UNL A   1      51.038  24.806  31.245  1.00  0.00    -0.237 OA
ATOM     87  O   UNL A   1      50.205  26.994  30.476  1.00  0.00    -0.744 OA
ENDBRANCH  80  84
ENDBRANCH  54  77
ENDBRANCH  28  29
ENDBRANCH  20  23
ENDBRANCH   1  19
TORSDOF 14
ENDMDL
MODEL 2
REMARK VINA RESULT:     -10.1      4.788     10.215
REMARK SMILES Cc1n[nH]c(C(F)(F)Cl)c1C(=O)NCCCNC(=O)c1ccc(-c2c3nc(c(-c4cc(S(=O)(=O)[O-])ccc4F)c4ccc([nH]4)c(-c4cc(S(=O)(=O)[O-])ccc4F)c4nc(c(-c5cc(S(=O)(=O)[O-])ccc5F)c5ccc2[nH]5)C=C4)C=C3)cc1
REMARK SMILES IDX 16 1 15 2 14 3 13 4 11 5 12 6 10 8 1 9 2 10 3 11 4 12 5 13
REMARK SMILES IDX 6 15 7 16 8 17 9 18 17 19 18 20 19 22 20 23 21 24 82 25
REMARK SMILES IDX 22 26 81 27 23 28 24 29 25 30 75 31 26 32 80 33 74 34 76 35
REMARK SMILES IDX 27 36 79 37 73 38 72 39 28 41 60 42 40 43 59 44 41 45 44 46
REMARK SMILES IDX 58 47 77 48 42 49 43 50 57 52 78 53 45 54 29 55 30 56 38 57
REMARK SMILES IDX 31 58 37 59 39 60 36 61 32 62 33 63 34 64 35 65 61 66 62 67
REMARK SMILES IDX 70 68 63 69 69 70 71 71 68 72 64 73 65 74 66 75 67 76 46 77
REMARK SMILES IDX 47 78 55 79 48 80 54 81 56 82 53 83 49 84 50 85 51 86 52 87
REMARK H PARENT 13 7 4 14 17 21 76 40 44 51
REMARK Flexibility Score: inf
ROOT
ATOM      1  C   UNL A   1      32.715  32.472  27.220  1.00  0.00     0.118 C 
ENDROOT
BRANCH   1   2
ATOM      2  C   UNL A   1      31.436  32.026  26.515  1.00  0.00     0.042 C 
BRANCH   2   3
ATOM      3  C   UNL A   1      31.352  30.516  26.263  1.00  0.00     0.118 C 
BRANCH   3   4
ATOM      4  N   UNL A   1      32.188  30.155  25.144  1.00  0.00    -0.352 N 
ATOM      5  C   UNL A   1      32.199  29.106  24.268  1.00  0.00     0.255 C 
ATOM      6  O   UNL A   1      33.240  28.997  23.593  1.00  0.00    -0.269 OA
ATOM      7  H   UNL A   1      32.908  30.804  24.974  1.00  0.00     0.163 HD
BRANCH   5   8
ATOM      8  C   UNL A   1      31.085  28.193  24.028  1.00  0.00     0.091 A 
ATOM      9  C   UNL A   1      31.717  25.701  24.791  1.00  0.00     0.069 C 
ATOM     10  C   UNL A   1      30.867  26.790  24.244  1.00  0.00     0.072 A 
ATOM     11  N   UNL A   1      29.666  26.392  23.803  1.00  0.00    -0.180 NA
ATOM     12  N   UNL A   1      29.153  27.471  23.229  1.00  0.00    -0.274 N 
ATOM     13  C   UNL A   1      29.921  28.588  23.358  1.00  0.00     0.133 A 
ATOM     14  H   UNL A   1      28.291  27.465  22.752  1.00  0.00     0.190 HD
BRANCH  13  15
ATOM     15  C   UNL A   1      29.378  29.817  22.724  1.00  0.00     0.365 C 
ATOM     16  F   UNL A   1      29.483  30.873  23.578  1.00  0.00    -0.181 F 
ATOM     17  F   UNL A   1      30.198  30.148  21.677  1.00  0.00    -0.181 F 
ATOM     18  Cl  UNL A   1      27.747  29.722  22.068  1.00  0.00    -0.040 Cl
ENDBRANCH  13  15
ENDBRANCH   5   8
ENDBRANCH   3   4
ENDBRANCH   2   3
ENDBRANCH   1   2
BRANCH   1  19
ATOM     19  N   UNL A   1      32.638  33.859  27.650  1.00  0.00    -0.352 N 
ATOM     20  C   UNL A   1      33.285  34.494  28.679  1.00  0.00     0.251 C 
ATOM     21  H   UNL A   1      32.031  34.428  27.123  1.00  0.00     0.163 HD
ATOM     22  O   UNL A   1      32.875  35.599  29.045  1.00  0.00    -0.269 OA
BRANCH  20  23
ATOM     23  C   UNL A   1      34.446  33.874  29.357  1.00  0.00     0.039 A 
ATOM     24  C   UNL A   1      35.736  34.280  28.998  1.00  0.00     0.014 A 
ATOM     25  C   UNL A   1      34.278  32.857  30.301  1.00  0.00     0.014 A 
ATOM     26  C   UNL A   1      36.848  33.704  29.618  1.00  0.00     0.010 A 
ATOM     27  C   UNL A   1      35.384  32.334  30.971  1.00  0.00     0.010 A 
ATOM     28  C   UNL A   1      36.682  32.746  30.631  1.00  0.00    -0.014 A 
BRANCH  28  29
ATOM     29  C   UNL A   1      37.851  32.156  31.336  1.00  0.00     0.031 A 
ATOM     30  C   UNL A   1      38.644  31.051  30.690  1.00  0.00     0.074 A 
ATOM     31  C   UNL A   1      38.160  32.574  32.579  1.00  0.00     0.049 A 
ATOM     32  N   UNL A   1      39.637  30.350  31.173  1.00  0.00    -0.248 NA
ATOM     33  C   UNL A   1      38.244  30.664  29.328  1.00  0.00     0.031 C 
ATOM     34  C   UNL A   1      37.446  33.617  33.320  1.00  0.00     0.029 A 
ATOM     35  N   UNL A   1      39.146  32.173  33.445  1.00  0.00    -0.354 N 
ATOM     36  C   UNL A   1      39.970  29.429  30.186  1.00  0.00     0.074 A 
ATOM     37  C   UNL A   1      39.034  29.625  29.099  1.00  0.00     0.031 C 
ATOM     38  C   UNL A   1      38.034  33.790  34.514  1.00  0.00     0.029 A 
ATOM     39  C   UNL A   1      39.133  32.841  34.648  1.00  0.00     0.049 A 
ATOM     40  H   UNL A   1      39.802  31.473  33.225  1.00  0.00     0.167 HD
ATOM     41  C   UNL A   1      40.978  28.519  30.178  1.00  0.00     0.034 A 
ATOM     42  C   UNL A   1      39.909  32.693  35.740  1.00  0.00     0.034 A 
ATOM     43  C   UNL A   1      41.911  28.350  31.265  1.00  0.00     0.049 A 
ATOM     44  C   UNL A   1      41.006  31.658  35.718  1.00  0.00     0.074 A 
ATOM     45  C   UNL A   1      43.000  27.499  31.343  1.00  0.00     0.029 A 
ATOM     46  N   UNL A   1      41.863  29.042  32.470  1.00  0.00    -0.354 N 
ATOM     47  N   UNL A   1      41.334  30.823  34.758  1.00  0.00    -0.248 NA
ATOM     48  C   UNL A   1      41.840  31.551  36.921  1.00  0.00     0.031 C 
ATOM     49  C   UNL A   1      43.567  27.626  32.616  1.00  0.00     0.029 A 
ATOM     50  C   UNL A   1      42.883  28.614  33.306  1.00  0.00     0.049 A 
ATOM     51  H   UNL A   1      41.202  29.735  32.697  1.00  0.00     0.167 HD
ATOM     52  C   UNL A   1      42.435  30.117  35.231  1.00  0.00     0.074 A 
ATOM     53  C   UNL A   1      42.722  30.634  36.555  1.00  0.00     0.031 C 
ATOM     54  C   UNL A   1      43.150  29.134  34.627  1.00  0.00     0.034 A 
BRANCH  41  55
ATOM     55  C   UNL A   1      41.099  27.623  28.967  1.00  0.00     0.023 A 
ATOM     56  C   UNL A   1      42.092  27.826  27.993  1.00  0.00     0.031 A 
ATOM     57  C   UNL A   1      40.197  26.561  28.773  1.00  0.00     0.131 A 
ATOM     58  C   UNL A   1      42.113  27.033  26.835  1.00  0.00     0.055 A 
ATOM     59  C   UNL A   1      40.275  25.721  27.659  1.00  0.00     0.041 A 
ATOM     60  F   UNL A   1      39.215  26.328  29.657  1.00  0.00    -0.206 F 
ATOM     61  C   UNL A   1      41.227  25.964  26.674  1.00  0.00     0.022 A 
BRANCH  58  62
ATOM     62  S   UNL A   1      43.219  27.508  25.479  1.00  0.00     0.124 S 
ATOM     63  O   UNL A   1      43.684  26.205  25.008  1.00  0.00    -0.237 OA
ATOM     64  O   UNL A   1      42.326  28.230  24.581  1.00  0.00    -0.237 OA
ATOM     65  O   UNL A   1      44.237  28.324  26.137  1.00  0.00    -0.744 OA
ENDBRANCH  58  62
ENDBRANCH  41  55
BRANCH  42  66
ATOM     66  C   UNL A   1      39.684  33.538  36.949  1.00  0.00     0.023 A 
ATOM     67  C   UNL A   1      39.108  32.996  38.110  1.00  0.00     0.031 A 
ATOM     68  C   UNL A   1      40.000  34.908  36.949  1.00  0.00     0.131 A 
ATOM     69  C   UNL A   1      38.822  33.827  39.203  1.00  0.00     0.055 A 
ATOM     70  C   UNL A   1      39.764  35.719  38.060  1.00  0.00     0.041 A 
ATOM     71  F   UNL A   1      40.557  35.477  35.868  1.00  0.00    -0.206 F 
ATOM     72  C   UNL A   1      39.159  35.182  39.192  1.00  0.00     0.022 A 
BRANCH  69  73
ATOM     73  S   UNL A   1      37.920  33.127  40.613  1.00  0.00     0.124 S 
ATOM     74  O   UNL A   1      38.257  34.068  41.676  1.00  0.00    -0.237 OA
ATOM     75  O   UNL A   1      36.541  33.162  40.137  1.00  0.00    -0.237 OA
ATOM     76  O   UNL A   1      38.495  31.791  40.756  1.00  0.00    -0.744 OA
ENDBRANCH  69  73
ENDBRANCH  42  66
BRANCH  54  77
ATOM     77  C   UNL A   1      44.341  28.591  35.378  1.00  0.00     0.023 A 
ATOM     78  C   UNL A   1      44.212  27.574  36.340  1.00  0.00     0.031 A 
ATOM     79  C   UNL A   1      45.625  29.112  35.134  1.00  0.00     0.131 A 
ATOM     80  C   UNL A   1      45.337  27.148  37.062  1.00  0.00     0.055 A 
ATOM     81  C   UNL A   1      46.750  28.640  35.811  1.00  0.00     0.041 A 
ATOM     82  F   UNL A   1      45.807  30.086  34.229  1.00  0.00    -0.206 F 
ATOM     83  C   UNL A   1      46.608  27.661  36.791  1.00  0.00     0.022 A 
BRANCH  80  84
ATOM     84  S   UNL A   1      45.103  25.979  38.429  1.00  0.00     0.124 S 
ATOM     85  O   UNL A   1      43.899  26.499  39.070  1.00  0.00    -0.237 OA
ATOM     86  O   UNL A   1      44.955  24.707  37.729  1.00  0.00    -0.237 OA
ATOM     87  O   UNL A   1      46.330  26.116  39.211  1.00  0.00    -0.744 OA
ENDBRANCH  80  84
ENDBRANCH  54  77
ENDBRANCH  28  29
ENDBRANCH  20  23
ENDBRANCH   1  19
TORSDOF 14
ENDMDL
MODEL 3
REMARK VINA RESULT:     -10.1      4.854     10.419
REMARK SMILES Cc1n[nH]c(C(F)(F)Cl)c1C(=O)NCCCNC(=O)c1ccc(-c2c3nc(c(-c4cc(S(=O)(=O)[O-])ccc4F)c4ccc([nH]4)c(-c4cc(S(=O)(=O)[O-])ccc4F)c4nc(c(-c5cc(S(=O)(=O)[O-])ccc5F)c5ccc2[nH]5)C=C4)C=C3)cc1
REMARK SMILES IDX 16 1 15 2 14 3 13 4 11 5 12 6 10 8 1 9 2 10 3 11 4 12 5 13
REMARK SMILES IDX 6 15 7 16 8 17 9 18 17 19 18 20 19 22 20 23 21 24 82 25
REMARK SMILES IDX 22 26 81 27 23 28 24 29 25 30 75 31 26 32 80 33 74 34 76 35
REMARK SMILES IDX 27 36 79 37 73 38 72 39 28 41 60 42 40 43 59 44 41 45 44 46
REMARK SMILES IDX 58 47 77 48 42 49 43 50 57 52 78 53 45 54 29 55 30 56 38 57
REMARK SMILES IDX 31 58 37 59 39 60 36 61 32 62 33 63 34 64 35 65 61 66 62 67
REMARK SMILES IDX 70 68 63 69 69 70 71 71 68 72 64 73 65 74 66 75 67 76 46 77
REMARK SMILES IDX 47 78 55 79 48 80 54 81 56 82 53 83 49 84 50 85 51 86 52 87
REMARK H PARENT 13 7 4 14 17 21 76 40 44 51
REMARK Flexibility Score: inf
ROOT
ATOM      1  C   UNL A   1      32.680  32.344  27.372  1.00  0.00     0.118 C 
ENDROOT
BRANCH   1   2
ATOM      2  C   UNL A   1      31.530  31.900  26.472  1.00  0.00     0.042 C 
BRANCH   2   3
ATOM      3  C   UNL A   1      31.459  30.385  26.245  1.00  0.00     0.118 C 
BRANCH   3   4
ATOM      4  N   UNL A   1      32.129  30.039  25.015  1.00  0.00    -0.352 N 
ATOM      5  C   UNL A   1      31.980  29.028  24.106  1.00  0.00     0.255 C 
ATOM      6  O   UNL A   1      32.921  28.907  23.299  1.00  0.00    -0.269 OA
ATOM      7  H   UNL A   1      32.851  30.665  24.778  1.00  0.00     0.163 HD
BRANCH   5   8
ATOM      8  C   UNL A   1      30.803  28.173  23.977  1.00  0.00     0.091 A 
ATOM      9  C   UNL A   1      31.295  25.726  24.957  1.00  0.00     0.069 C 
ATOM     10  C   UNL A   1      30.502  26.814  24.329  1.00  0.00     0.072 A 
ATOM     11  N   UNL A   1      29.266  26.458  23.953  1.00  0.00    -0.180 NA
ATOM     12  N   UNL A   1      28.807  27.511  23.291  1.00  0.00    -0.274 N 
ATOM     13  C   UNL A   1      29.649  28.581  23.298  1.00  0.00     0.133 A 
ATOM     14  H   UNL A   1      27.934  27.518  22.836  1.00  0.00     0.190 HD
BRANCH  13  15
ATOM     15  C   UNL A   1      29.168  29.780  22.563  1.00  0.00     0.365 C 
ATOM     16  F   UNL A   1      29.990  30.046  21.509  1.00  0.00    -0.181 F 
ATOM     17  F   UNL A   1      27.967  29.464  21.982  1.00  0.00    -0.181 F 
ATOM     18  Cl  UNL A   1      28.896  31.240  23.508  1.00  0.00    -0.040 Cl
ENDBRANCH  13  15
ENDBRANCH   5   8
ENDBRANCH   3   4
ENDBRANCH   2   3
ENDBRANCH   1   2
BRANCH   1  19
ATOM     19  N   UNL A   1      32.619  33.768  27.661  1.00  0.00    -0.352 N 
ATOM     20  C   UNL A   1      33.284  34.497  28.614  1.00  0.00     0.251 C 
ATOM     21  H   UNL A   1      32.010  34.287  27.087  1.00  0.00     0.163 HD
ATOM     22  O   UNL A   1      32.886  35.637  28.871  1.00  0.00    -0.269 OA
BRANCH  20  23
ATOM     23  C   UNL A   1      34.449  33.938  29.336  1.00  0.00     0.039 A 
ATOM     24  C   UNL A   1      34.229  33.011  30.359  1.00  0.00     0.014 A 
ATOM     25  C   UNL A   1      35.751  34.361  29.051  1.00  0.00     0.014 A 
ATOM     26  C   UNL A   1      35.313  32.474  31.061  1.00  0.00     0.010 A 
ATOM     27  C   UNL A   1      36.835  33.772  29.702  1.00  0.00     0.010 A 
ATOM     28  C   UNL A   1      36.628  32.828  30.719  1.00  0.00    -0.014 A 
BRANCH  28  29
ATOM     29  C   UNL A   1      37.796  32.233  31.421  1.00  0.00     0.031 A 
ATOM     30  C   UNL A   1      38.583  31.125  30.771  1.00  0.00     0.074 A 
ATOM     31  C   UNL A   1      38.110  32.648  32.664  1.00  0.00     0.049 A 
ATOM     32  N   UNL A   1      39.575  30.420  31.252  1.00  0.00    -0.248 NA
ATOM     33  C   UNL A   1      38.179  30.742  29.410  1.00  0.00     0.031 C 
ATOM     34  C   UNL A   1      37.401  33.693  33.408  1.00  0.00     0.029 A 
ATOM     35  N   UNL A   1      39.097  32.242  33.527  1.00  0.00    -0.354 N 
ATOM     36  C   UNL A   1      39.902  29.499  30.262  1.00  0.00     0.074 A 
ATOM     37  C   UNL A   1      38.965  29.700  29.178  1.00  0.00     0.031 C 
ATOM     38  C   UNL A   1      37.993  33.863  34.600  1.00  0.00     0.029 A 
ATOM     39  C   UNL A   1      39.089  32.909  34.731  1.00  0.00     0.049 A 
ATOM     40  H   UNL A   1      39.749  31.540  33.305  1.00  0.00     0.167 HD
ATOM     41  C   UNL A   1      40.906  28.585  30.251  1.00  0.00     0.034 A 
ATOM     42  C   UNL A   1      39.867  32.757  35.821  1.00  0.00     0.034 A 
ATOM     43  C   UNL A   1      41.841  28.411  31.336  1.00  0.00     0.049 A 
ATOM     44  C   UNL A   1      40.959  31.717  35.795  1.00  0.00     0.074 A 
ATOM     45  C   UNL A   1      42.927  27.556  31.410  1.00  0.00     0.029 A 
ATOM     46  N   UNL A   1      41.799  29.101  32.542  1.00  0.00    -0.354 N 
ATOM     47  N   UNL A   1      41.282  30.883  34.833  1.00  0.00    -0.248 NA
ATOM     48  C   UNL A   1      41.796  31.606  36.996  1.00  0.00     0.031 C 
ATOM     49  C   UNL A   1      43.497  27.679  32.682  1.00  0.00     0.029 A 
ATOM     50  C   UNL A   1      42.819  28.669  33.375  1.00  0.00     0.049 A 
ATOM     51  H   UNL A   1      41.141  29.797  32.771  1.00  0.00     0.167 HD
ATOM     52  C   UNL A   1      42.382  30.171  35.303  1.00  0.00     0.074 A 
ATOM     53  C   UNL A   1      42.674  30.686  36.626  1.00  0.00     0.031 C 
ATOM     54  C   UNL A   1      43.091  29.186  34.696  1.00  0.00     0.034 A 
BRANCH  41  55
ATOM     55  C   UNL A   1      41.022  27.690  29.040  1.00  0.00     0.023 A 
ATOM     56  C   UNL A   1      42.002  27.900  28.055  1.00  0.00     0.031 A 
ATOM     57  C   UNL A   1      40.125  26.622  28.855  1.00  0.00     0.131 A 
ATOM     58  C   UNL A   1      42.017  27.107  26.896  1.00  0.00     0.055 A 
ATOM     59  C   UNL A   1      40.197  25.782  27.740  1.00  0.00     0.041 A 
ATOM     60  F   UNL A   1      39.153  26.381  29.749  1.00  0.00    -0.206 F 
ATOM     61  C   UNL A   1      41.137  26.032  26.744  1.00  0.00     0.022 A 
BRANCH  58  62
ATOM     62  S   UNL A   1      43.106  27.589  25.529  1.00  0.00     0.124 S 
ATOM     63  O   UNL A   1      44.093  28.418  26.217  1.00  0.00    -0.237 OA
ATOM     64  O   UNL A   1      43.584  26.303  25.036  1.00  0.00    -0.237 OA
ATOM     65  O   UNL A   1      42.218  28.314  24.623  1.00  0.00    -0.744 OA
ENDBRANCH  58  62
ENDBRANCH  41  55
BRANCH  42  66
ATOM     66  C   UNL A   1      39.647  33.601  37.031  1.00  0.00     0.023 A 
ATOM     67  C   UNL A   1      40.446  34.730  37.277  1.00  0.00     0.031 A 
ATOM     68  C   UNL A   1      38.665  33.270  37.981  1.00  0.00     0.131 A 
ATOM     69  C   UNL A   1      40.282  35.458  38.465  1.00  0.00     0.055 A 
ATOM     70  C   UNL A   1      38.469  34.031  39.135  1.00  0.00     0.041 A 
ATOM     71  F   UNL A   1      37.870  32.205  37.793  1.00  0.00    -0.206 F 
ATOM     72  C   UNL A   1      39.290  35.125  39.389  1.00  0.00     0.022 A 
BRANCH  69  73
ATOM     73  S   UNL A   1      41.447  36.801  38.827  1.00  0.00     0.124 S 
ATOM     74  O   UNL A   1      42.269  36.205  39.876  1.00  0.00    -0.237 OA
ATOM     75  O   UNL A   1      42.097  36.994  37.535  1.00  0.00    -0.237 OA
ATOM     76  O   UNL A   1      40.581  37.895  39.259  1.00  0.00    -0.744 OA
ENDBRANCH  69  73
ENDBRANCH  42  66
BRANCH  54  77
ATOM     77  C   UNL A   1      44.282  28.638  35.444  1.00  0.00     0.023 A 
ATOM     78  C   UNL A   1      44.144  27.660  36.444  1.00  0.00     0.031 A 
ATOM     79  C   UNL A   1      45.575  29.114  35.157  1.00  0.00     0.131 A 
ATOM     80  C   UNL A   1      45.271  27.229  37.160  1.00  0.00     0.055 A 
ATOM     81  C   UNL A   1      46.700  28.635  35.829  1.00  0.00     0.041 A 
ATOM     82  F   UNL A   1      45.765  30.050  34.214  1.00  0.00    -0.206 F 
ATOM     83  C   UNL A   1      46.550  27.697  36.846  1.00  0.00     0.022 A 
BRANCH  80  84
ATOM     84  S   UNL A   1      45.033  26.117  38.572  1.00  0.00     0.124 S 
ATOM     85  O   UNL A   1      43.669  26.435  38.983  1.00  0.00    -0.237 OA
ATOM     86  O   UNL A   1      45.228  24.802  37.971  1.00  0.00    -0.237 OA
ATOM     87  O   UNL A   1      46.074  26.528  39.513  1.00  0.00    -0.744 OA
ENDBRANCH  80  84
ENDBRANCH  54  77
ENDBRANCH  28  29
ENDBRANCH  20  23
ENDBRANCH   1  19
TORSDOF 14
ENDMDL
