MODEL 1
REMARK VINA RESULT:     -13.0      0.000      0.000
REMARK SMILES O=C(Cn1c(=O)c2cccn2c2ccccc21)NCCCNC(=O)c1ccc(-c2c3nc(c(-c4cc(S(=O)(=O)[O-])ccc4F)c4ccc([nH]4)c(-c4cc(S(=O)(=O)[O-])ccc4F)c4nc(c(-c5cc(S(=O)(=O)[O-])ccc5F)c5ccc2[nH]5)C=C4)C=C3)cc1
REMARK SMILES IDX 21 1 20 2 19 3 18 4 1 5 2 6 3 8 4 9 5 10 17 11 6 12 7 13
REMARK SMILES IDX 12 14 16 15 8 16 11 17 13 18 15 19 9 20 10 21 14 22 22 23
REMARK SMILES IDX 23 24 24 26 25 27 26 28 87 29 27 30 86 31 28 32 29 33 30 34
REMARK SMILES IDX 80 35 31 36 85 37 79 38 81 39 32 40 84 41 78 42 77 43 33 45
REMARK SMILES IDX 65 46 45 47 64 48 46 49 49 50 63 51 82 52 47 53 48 54 62 56
REMARK SMILES IDX 83 57 50 58 34 59 35 60 43 61 36 62 42 63 44 64 41 65 37 66
REMARK SMILES IDX 38 67 39 68 40 69 66 70 67 71 75 72 68 73 74 74 76 75 73 76
REMARK SMILES IDX 69 77 70 78 71 79 72 80 51 81 52 82 60 83 53 84 59 85 61 86
REMARK SMILES IDX 58 87 54 88 55 89 56 90 57 91
REMARK H PARENT 18 7 22 25 81 44 49 55
REMARK Flexibility Score: inf
ROOT
ATOM      1  C   UNL A   1      32.039  29.620  25.238  1.00  0.00     0.118 C 
ENDROOT
BRANCH   1   2
ATOM      2  C   UNL A   1      30.979  28.770  24.539  1.00  0.00     0.042 C 
BRANCH   2   3
ATOM      3  C   UNL A   1      31.514  27.705  23.585  1.00  0.00     0.117 C 
BRANCH   3   4
ATOM      4  N   UNL A   1      31.774  26.401  24.183  1.00  0.00    -0.354 N 
ATOM      5  O   UNL A   1      34.057  26.678  24.300  1.00  0.00    -0.273 OA
ATOM      6  C   UNL A   1      33.042  26.066  24.630  1.00  0.00     0.240 C 
ATOM      7  H   UNL A   1      31.040  25.750  24.270  1.00  0.00     0.163 HD
BRANCH   6   8
ATOM      8  C   UNL A   1      33.110  24.899  25.621  1.00  0.00     0.226 C 
BRANCH   8   9
ATOM      9  N   UNL A   1      33.602  23.553  25.288  1.00  0.00    -0.296 N 
ATOM     10  C   UNL A   1      32.573  22.626  25.005  1.00  0.00     0.275 A 
ATOM     11  C   UNL A   1      34.983  23.154  25.284  1.00  0.00     0.069 A 
ATOM     12  O   UNL A   1      31.394  22.948  24.968  1.00  0.00    -0.267 OA
ATOM     13  C   UNL A   1      32.997  21.269  24.771  1.00  0.00     0.112 A 
ATOM     14  C   UNL A   1      35.326  21.786  25.225  1.00  0.00     0.070 A 
ATOM     15  C   UNL A   1      36.051  24.053  25.337  1.00  0.00     0.028 A 
ATOM     16  C   UNL A   1      32.251  20.165  24.396  1.00  0.00     0.034 A 
ATOM     17  N   UNL A   1      34.300  20.872  24.917  1.00  0.00    -0.310 N 
ATOM     18  C   UNL A   1      36.643  21.342  25.415  1.00  0.00     0.029 A 
ATOM     19  C   UNL A   1      37.369  23.624  25.534  1.00  0.00     0.002 A 
ATOM     20  C   UNL A   1      33.131  19.064  24.314  1.00  0.00     0.021 A 
ATOM     21  C   UNL A   1      34.386  19.523  24.651  1.00  0.00     0.092 A 
ATOM     22  C   UNL A   1      37.659  22.270  25.611  1.00  0.00     0.002 A 
ENDBRANCH   8   9
ENDBRANCH   6   8
ENDBRANCH   3   4
ENDBRANCH   2   3
ENDBRANCH   1   2
BRANCH   1  23
ATOM     23  N   UNL A   1      31.521  30.809  25.889  1.00  0.00    -0.352 N 
ATOM     24  C   UNL A   1      32.063  31.816  26.642  1.00  0.00     0.251 C 
ATOM     25  H   UNL A   1      30.551  30.918  25.758  1.00  0.00     0.163 HD
ATOM     26  O   UNL A   1      31.345  32.814  26.770  1.00  0.00    -0.269 OA
BRANCH  24  27
ATOM     27  C   UNL A   1      33.376  31.783  27.351  1.00  0.00     0.039 A 
ATOM     28  C   UNL A   1      33.994  32.869  27.965  1.00  0.00     0.014 A 
ATOM     29  C   UNL A   1      34.088  30.565  27.284  1.00  0.00     0.014 A 
ATOM     30  C   UNL A   1      35.310  32.755  28.428  1.00  0.00     0.010 A 
ATOM     31  C   UNL A   1      35.401  30.449  27.747  1.00  0.00     0.010 A 
ATOM     32  C   UNL A   1      36.036  31.561  28.284  1.00  0.00    -0.014 A 
BRANCH  32  33
ATOM     33  C   UNL A   1      37.419  31.526  28.780  1.00  0.00     0.031 A 
ATOM     34  C   UNL A   1      38.120  30.224  28.590  1.00  0.00     0.074 A 
ATOM     35  C   UNL A   1      38.103  32.549  29.338  1.00  0.00     0.049 A 
ATOM     36  N   UNL A   1      38.413  29.345  29.492  1.00  0.00    -0.248 NA
ATOM     37  C   UNL A   1      38.417  29.799  27.217  1.00  0.00     0.031 C 
ATOM     38  C   UNL A   1      37.764  33.973  29.376  1.00  0.00     0.029 A 
ATOM     39  N   UNL A   1      39.320  32.511  29.964  1.00  0.00    -0.354 N 
ATOM     40  C   UNL A   1      39.090  28.320  28.832  1.00  0.00     0.074 A 
ATOM     41  C   UNL A   1      38.947  28.593  27.423  1.00  0.00     0.031 C 
ATOM     42  C   UNL A   1      38.834  34.683  29.810  1.00  0.00     0.029 A 
ATOM     43  C   UNL A   1      39.867  33.755  30.243  1.00  0.00     0.049 A 
ATOM     44  H   UNL A   1      39.771  31.667  30.197  1.00  0.00     0.167 HD
ATOM     45  C   UNL A   1      39.853  27.408  29.503  1.00  0.00     0.034 A 
ATOM     46  C   UNL A   1      41.083  34.015  30.786  1.00  0.00     0.034 A 
ATOM     47  C   UNL A   1      39.597  27.451  30.917  1.00  0.00     0.049 A 
ATOM     48  C   UNL A   1      41.539  32.807  31.506  1.00  0.00     0.074 A 
ATOM     49  C   UNL A   1      38.517  27.168  31.727  1.00  0.00     0.029 A 
ATOM     50  N   UNL A   1      40.473  28.168  31.691  1.00  0.00    -0.354 N 
ATOM     51  N   UNL A   1      41.016  32.371  32.616  1.00  0.00    -0.248 NA
ATOM     52  C   UNL A   1      42.369  31.854  30.788  1.00  0.00     0.031 C 
ATOM     53  C   UNL A   1      38.596  28.109  32.793  1.00  0.00     0.029 A 
ATOM     54  C   UNL A   1      39.743  28.884  32.603  1.00  0.00     0.049 A 
ATOM     55  H   UNL A   1      41.454  28.169  31.606  1.00  0.00     0.167 HD
ATOM     56  C   UNL A   1      41.056  30.993  32.493  1.00  0.00     0.074 A 
ATOM     57  C   UNL A   1      42.016  30.736  31.424  1.00  0.00     0.031 C 
ATOM     58  C   UNL A   1      40.104  30.207  33.077  1.00  0.00     0.034 A 
BRANCH  45  59
ATOM     59  C   UNL A   1      41.050  26.689  28.926  1.00  0.00     0.023 A 
ATOM     60  C   UNL A   1      41.016  25.335  28.549  1.00  0.00     0.031 A 
ATOM     61  C   UNL A   1      42.197  27.406  28.526  1.00  0.00     0.131 A 
ATOM     62  C   UNL A   1      42.066  24.743  27.834  1.00  0.00     0.055 A 
ATOM     63  C   UNL A   1      43.217  26.834  27.753  1.00  0.00     0.041 A 
ATOM     64  F   UNL A   1      42.339  28.709  28.823  1.00  0.00    -0.206 F 
ATOM     65  C   UNL A   1      43.155  25.493  27.402  1.00  0.00     0.022 A 
BRANCH  62  66
ATOM     66  S   UNL A   1      42.021  22.972  27.441  1.00  0.00     0.124 S 
ATOM     67  O   UNL A   1      40.586  22.711  27.397  1.00  0.00    -0.237 OA
ATOM     68  O   UNL A   1      42.711  22.938  26.153  1.00  0.00    -0.237 OA
ATOM     69  O   UNL A   1      42.748  22.359  28.547  1.00  0.00    -0.744 OA
ENDBRANCH  62  66
ENDBRANCH  45  59
BRANCH  46  70
ATOM     70  C   UNL A   1      42.058  35.048  30.365  1.00  0.00     0.023 A 
ATOM     71  C   UNL A   1      42.270  35.271  28.993  1.00  0.00     0.031 A 
ATOM     72  C   UNL A   1      43.028  35.539  31.261  1.00  0.00     0.131 A 
ATOM     73  C   UNL A   1      43.445  35.894  28.551  1.00  0.00     0.055 A 
ATOM     74  C   UNL A   1      44.190  36.183  30.816  1.00  0.00     0.041 A 
ATOM     75  F   UNL A   1      42.905  35.330  32.581  1.00  0.00    -0.206 F 
ATOM     76  C   UNL A   1      44.411  36.345  29.453  1.00  0.00     0.022 A 
BRANCH  73  77
ATOM     77  S   UNL A   1      43.794  36.037  26.777  1.00  0.00     0.124 S 
ATOM     78  O   UNL A   1      42.600  35.444  26.179  1.00  0.00    -0.237 OA
ATOM     79  O   UNL A   1      43.927  37.481  26.617  1.00  0.00    -0.237 OA
ATOM     80  O   UNL A   1      45.019  35.262  26.608  1.00  0.00    -0.744 OA
ENDBRANCH  73  77
ENDBRANCH  46  70
BRANCH  58  81
ATOM     81  C   UNL A   1      39.188  30.819  34.117  1.00  0.00     0.023 A 
ATOM     82  C   UNL A   1      38.160  31.657  33.646  1.00  0.00     0.031 A 
ATOM     83  C   UNL A   1      39.404  30.776  35.507  1.00  0.00     0.131 A 
ATOM     84  C   UNL A   1      37.424  32.447  34.536  1.00  0.00     0.055 A 
ATOM     85  C   UNL A   1      38.611  31.508  36.401  1.00  0.00     0.041 A 
ATOM     86  F   UNL A   1      40.429  30.099  36.042  1.00  0.00    -0.206 F 
ATOM     87  C   UNL A   1      37.628  32.363  35.915  1.00  0.00     0.022 A 
BRANCH  84  88
ATOM     88  S   UNL A   1      36.299  33.721  33.909  1.00  0.00     0.124 S 
ATOM     89  O   UNL A   1      35.151  33.586  34.801  1.00  0.00    -0.237 OA
ATOM     90  O   UNL A   1      37.086  34.940  34.082  1.00  0.00    -0.237 OA
ATOM     91  O   UNL A   1      36.062  33.333  32.522  1.00  0.00    -0.744 OA
ENDBRANCH  84  88
ENDBRANCH  58  81
ENDBRANCH  32  33
ENDBRANCH  24  27
ENDBRANCH   1  23
TORSDOF 14
ENDMDL
MODEL 2
REMARK VINA RESULT:     -13.0      3.388      7.928
REMARK SMILES O=C(Cn1c(=O)c2cccn2c2ccccc21)NCCCNC(=O)c1ccc(-c2c3nc(c(-c4cc(S(=O)(=O)[O-])ccc4F)c4ccc([nH]4)c(-c4cc(S(=O)(=O)[O-])ccc4F)c4nc(c(-c5cc(S(=O)(=O)[O-])ccc5F)c5ccc2[nH]5)C=C4)C=C3)cc1
REMARK SMILES IDX 21 1 20 2 19 3 18 4 1 5 2 6 3 8 4 9 5 10 17 11 6 12 7 13
REMARK SMILES IDX 12 14 16 15 8 16 11 17 13 18 15 19 9 20 10 21 14 22 22 23
REMARK SMILES IDX 23 24 24 26 25 27 26 28 87 29 27 30 86 31 28 32 29 33 30 34
REMARK SMILES IDX 80 35 31 36 85 37 79 38 81 39 32 40 84 41 78 42 77 43 33 45
REMARK SMILES IDX 65 46 45 47 64 48 46 49 49 50 63 51 82 52 47 53 48 54 62 56
REMARK SMILES IDX 83 57 50 58 34 59 35 60 43 61 36 62 42 63 44 64 41 65 37 66
REMARK SMILES IDX 38 67 39 68 40 69 66 70 67 71 75 72 68 73 74 74 76 75 73 76
REMARK SMILES IDX 69 77 70 78 71 79 72 80 51 81 52 82 60 83 53 84 59 85 61 86
REMARK SMILES IDX 58 87 54 88 55 89 56 90 57 91
REMARK H PARENT 18 7 22 25 81 44 49 55
REMARK Flexibility Score: inf
ROOT
ATOM      1  C   UNL A   1      33.305  30.003  27.122  1.00  0.00     0.118 C 
ENDROOT
BRANCH   1   2
ATOM      2  C   UNL A   1      33.386  29.590  25.653  1.00  0.00     0.042 C 
BRANCH   2   3
ATOM      3  C   UNL A   1      32.302  28.623  25.182  1.00  0.00     0.117 C 
BRANCH   3   4
ATOM      4  N   UNL A   1      32.355  27.288  25.767  1.00  0.00    -0.354 N 
ATOM      5  O   UNL A   1      33.613  26.368  24.073  1.00  0.00    -0.273 OA
ATOM      6  C   UNL A   1      33.153  26.301  25.211  1.00  0.00     0.240 C 
ATOM      7  H   UNL A   1      31.817  27.085  26.567  1.00  0.00     0.163 HD
BRANCH   6   8
ATOM      8  C   UNL A   1      33.483  25.119  26.129  1.00  0.00     0.226 C 
BRANCH   8   9
ATOM      9  N   UNL A   1      33.850  23.775  25.654  1.00  0.00    -0.296 N 
ATOM     10  C   UNL A   1      32.737  22.960  25.342  1.00  0.00     0.275 A 
ATOM     11  C   UNL A   1      35.192  23.273  25.545  1.00  0.00     0.069 A 
ATOM     12  O   UNL A   1      31.588  23.374  25.392  1.00  0.00    -0.267 OA
ATOM     13  C   UNL A   1      33.040  21.601  24.968  1.00  0.00     0.112 A 
ATOM     14  C   UNL A   1      35.420  21.894  25.348  1.00  0.00     0.070 A 
ATOM     15  C   UNL A   1      36.331  24.079  25.624  1.00  0.00     0.028 A 
ATOM     16  C   UNL A   1      32.191  20.597  24.535  1.00  0.00     0.034 A 
ATOM     17  N   UNL A   1      34.311  21.094  25.012  1.00  0.00    -0.310 N 
ATOM     18  C   UNL A   1      36.704  21.335  25.433  1.00  0.00     0.029 A 
ATOM     19  C   UNL A   1      37.617  23.533  25.717  1.00  0.00     0.002 A 
ATOM     20  C   UNL A   1      32.975  19.444  24.311  1.00  0.00     0.021 A 
ATOM     21  C   UNL A   1      34.276  19.773  24.625  1.00  0.00     0.092 A 
ATOM     22  C   UNL A   1      37.799  22.159  25.659  1.00  0.00     0.002 A 
ENDBRANCH   8   9
ENDBRANCH   6   8
ENDBRANCH   3   4
ENDBRANCH   2   3
ENDBRANCH   1   2
BRANCH   1  23
ATOM     23  N   UNL A   1      33.863  31.311  27.408  1.00  0.00    -0.352 N 
ATOM     24  C   UNL A   1      35.106  31.786  27.734  1.00  0.00     0.251 C 
ATOM     25  H   UNL A   1      33.190  32.028  27.356  1.00  0.00     0.163 HD
ATOM     26  O   UNL A   1      35.245  33.008  27.612  1.00  0.00    -0.269 OA
BRANCH  24  27
ATOM     27  C   UNL A   1      36.247  30.985  28.267  1.00  0.00     0.039 A 
ATOM     28  C   UNL A   1      37.416  31.505  28.817  1.00  0.00     0.014 A 
ATOM     29  C   UNL A   1      36.162  29.586  28.087  1.00  0.00     0.014 A 
ATOM     30  C   UNL A   1      38.491  30.656  29.105  1.00  0.00     0.010 A 
ATOM     31  C   UNL A   1      37.234  28.737  28.375  1.00  0.00     0.010 A 
ATOM     32  C   UNL A   1      38.424  29.276  28.846  1.00  0.00    -0.014 A 
BRANCH  32  33
ATOM     33  C   UNL A   1      39.601  28.454  29.160  1.00  0.00     0.031 A 
ATOM     34  C   UNL A   1      40.016  28.476  30.592  1.00  0.00     0.074 A 
ATOM     35  C   UNL A   1      40.292  27.672  28.302  1.00  0.00     0.049 A 
ATOM     36  N   UNL A   1      41.044  29.069  31.107  1.00  0.00    -0.248 NA
ATOM     37  C   UNL A   1      39.114  27.871  31.578  1.00  0.00     0.031 C 
ATOM     38  C   UNL A   1      39.934  27.250  26.946  1.00  0.00     0.029 A 
ATOM     39  N   UNL A   1      41.484  27.033  28.514  1.00  0.00    -0.354 N 
ATOM     40  C   UNL A   1      41.022  28.773  32.470  1.00  0.00     0.074 A 
ATOM     41  C   UNL A   1      39.746  28.146  32.719  1.00  0.00     0.031 C 
ATOM     42  C   UNL A   1      40.782  26.274  26.537  1.00  0.00     0.029 A 
ATOM     43  C   UNL A   1      41.840  26.128  27.524  1.00  0.00     0.049 A 
ATOM     44  H   UNL A   1      42.044  27.202  29.305  1.00  0.00     0.167 HD
ATOM     45  C   UNL A   1      42.123  28.926  33.261  1.00  0.00     0.034 A 
ATOM     46  C   UNL A   1      42.921  25.308  27.510  1.00  0.00     0.034 A 
ATOM     47  C   UNL A   1      43.137  29.704  32.603  1.00  0.00     0.049 A 
ATOM     48  C   UNL A   1      43.936  25.860  28.433  1.00  0.00     0.074 A 
ATOM     49  C   UNL A   1      43.246  31.009  32.172  1.00  0.00     0.029 A 
ATOM     50  N   UNL A   1      44.155  29.018  31.992  1.00  0.00    -0.354 N 
ATOM     51  N   UNL A   1      44.620  26.945  28.209  1.00  0.00    -0.248 NA
ATOM     52  C   UNL A   1      43.939  25.388  29.807  1.00  0.00     0.031 C 
ATOM     53  C   UNL A   1      44.031  30.945  30.986  1.00  0.00     0.029 A 
ATOM     54  C   UNL A   1      44.399  29.613  30.782  1.00  0.00     0.049 A 
ATOM     55  H   UNL A   1      44.627  28.235  32.357  1.00  0.00     0.167 HD
ATOM     56  C   UNL A   1      44.736  27.537  29.455  1.00  0.00     0.074 A 
ATOM     57  C   UNL A   1      44.425  26.475  30.408  1.00  0.00     0.031 C 
ATOM     58  C   UNL A   1      44.800  28.894  29.587  1.00  0.00     0.034 A 
BRANCH  45  59
ATOM     59  C   UNL A   1      42.413  28.121  34.507  1.00  0.00     0.023 A 
ATOM     60  C   UNL A   1      42.726  26.750  34.471  1.00  0.00     0.031 A 
ATOM     61  C   UNL A   1      42.607  28.760  35.749  1.00  0.00     0.131 A 
ATOM     62  C   UNL A   1      43.187  26.070  35.607  1.00  0.00     0.055 A 
ATOM     63  C   UNL A   1      43.132  28.098  36.868  1.00  0.00     0.041 A 
ATOM     64  F   UNL A   1      42.348  30.069  35.904  1.00  0.00    -0.206 F 
ATOM     65  C   UNL A   1      43.425  26.744  36.801  1.00  0.00     0.022 A 
BRANCH  62  66
ATOM     66  S   UNL A   1      43.499  24.284  35.540  1.00  0.00     0.124 S 
ATOM     67  O   UNL A   1      44.300  24.074  36.742  1.00  0.00    -0.237 OA
ATOM     68  O   UNL A   1      42.141  23.746  35.583  1.00  0.00    -0.237 OA
ATOM     69  O   UNL A   1      44.193  24.107  34.270  1.00  0.00    -0.744 OA
ENDBRANCH  62  66
ENDBRANCH  45  59
BRANCH  46  70
ATOM     70  C   UNL A   1      42.968  23.882  27.112  1.00  0.00     0.023 A 
ATOM     71  C   UNL A   1      44.007  23.438  26.276  1.00  0.00     0.031 A 
ATOM     72  C   UNL A   1      41.832  23.056  27.232  1.00  0.00     0.131 A 
ATOM     73  C   UNL A   1      43.866  22.253  25.540  1.00  0.00     0.055 A 
ATOM     74  C   UNL A   1      41.705  21.861  26.514  1.00  0.00     0.041 A 
ATOM     75  F   UNL A   1      40.790  23.437  27.986  1.00  0.00    -0.206 F 
ATOM     76  C   UNL A   1      42.718  21.464  25.647  1.00  0.00     0.022 A 
BRANCH  73  77
ATOM     77  S   UNL A   1      45.135  21.763  24.341  1.00  0.00     0.124 S 
ATOM     78  O   UNL A   1      44.528  20.592  23.712  1.00  0.00    -0.237 OA
ATOM     79  O   UNL A   1      45.223  22.952  23.501  1.00  0.00    -0.237 OA
ATOM     80  O   UNL A   1      46.300  21.481  25.173  1.00  0.00    -0.744 OA
ENDBRANCH  73  77
ENDBRANCH  46  70
BRANCH  58  81
ATOM     81  C   UNL A   1      45.061  29.736  28.355  1.00  0.00     0.023 A 
ATOM     82  C   UNL A   1      46.387  30.156  28.140  1.00  0.00     0.031 A 
ATOM     83  C   UNL A   1      44.065  30.290  27.530  1.00  0.00     0.131 A 
ATOM     84  C   UNL A   1      46.678  31.123  27.172  1.00  0.00     0.055 A 
ATOM     85  C   UNL A   1      44.371  31.200  26.509  1.00  0.00     0.041 A 
ATOM     86  F   UNL A   1      42.763  30.041  27.731  1.00  0.00    -0.206 F 
ATOM     87  C   UNL A   1      45.681  31.634  26.339  1.00  0.00     0.022 A 
BRANCH  84  88
ATOM     88  S   UNL A   1      48.331  31.860  27.087  1.00  0.00     0.124 S 
ATOM     89  O   UNL A   1      48.124  32.979  26.173  1.00  0.00    -0.237 OA
ATOM     90  O   UNL A   1      48.579  32.227  28.480  1.00  0.00    -0.237 OA
ATOM     91  O   UNL A   1      49.173  30.783  26.576  1.00  0.00    -0.744 OA
ENDBRANCH  84  88
ENDBRANCH  58  81
ENDBRANCH  32  33
ENDBRANCH  24  27
ENDBRANCH   1  23
TORSDOF 14
ENDMDL
MODEL 3
REMARK VINA RESULT:     -13.0      3.351      7.681
REMARK SMILES O=C(Cn1c(=O)c2cccn2c2ccccc21)NCCCNC(=O)c1ccc(-c2c3nc(c(-c4cc(S(=O)(=O)[O-])ccc4F)c4ccc([nH]4)c(-c4cc(S(=O)(=O)[O-])ccc4F)c4nc(c(-c5cc(S(=O)(=O)[O-])ccc5F)c5ccc2[nH]5)C=C4)C=C3)cc1
REMARK SMILES IDX 21 1 20 2 19 3 18 4 1 5 2 6 3 8 4 9 5 10 17 11 6 12 7 13
REMARK SMILES IDX 12 14 16 15 8 16 11 17 13 18 15 19 9 20 10 21 14 22 22 23
REMARK SMILES IDX 23 24 24 26 25 27 26 28 87 29 27 30 86 31 28 32 29 33 30 34
REMARK SMILES IDX 80 35 31 36 85 37 79 38 81 39 32 40 84 41 78 42 77 43 33 45
REMARK SMILES IDX 65 46 45 47 64 48 46 49 49 50 63 51 82 52 47 53 48 54 62 56
REMARK SMILES IDX 83 57 50 58 34 59 35 60 43 61 36 62 42 63 44 64 41 65 37 66
REMARK SMILES IDX 38 67 39 68 40 69 66 70 67 71 75 72 68 73 74 74 76 75 73 76
REMARK SMILES IDX 69 77 70 78 71 79 72 80 51 81 52 82 60 83 53 84 59 85 61 86
REMARK SMILES IDX 58 87 54 88 55 89 56 90 57 91
REMARK H PARENT 18 7 22 25 81 44 49 55
REMARK Flexibility Score: inf
ROOT
ATOM      1  C   UNL A   1      37.268  22.422  25.733  1.00  0.00     0.118 C 
ENDROOT
BRANCH   1   2
ATOM      2  C   UNL A   1      37.067  22.588  24.227  1.00  0.00     0.042 C 
BRANCH   2   3
ATOM      3  C   UNL A   1      35.616  22.593  23.754  1.00  0.00     0.117 C 
BRANCH   3   4
ATOM      4  N   UNL A   1      34.699  23.403  24.549  1.00  0.00    -0.354 N 
ATOM      5  O   UNL A   1      34.090  24.790  22.816  1.00  0.00    -0.273 OA
ATOM      6  C   UNL A   1      33.892  24.356  23.950  1.00  0.00     0.240 C 
ATOM      7  H   UNL A   1      34.655  23.271  25.524  1.00  0.00     0.163 HD
BRANCH   6   8
ATOM      8  C   UNL A   1      32.683  24.814  24.771  1.00  0.00     0.226 C 
BRANCH   8   9
ATOM      9  N   UNL A   1      32.077  26.153  24.684  1.00  0.00    -0.296 N 
ATOM     10  C   UNL A   1      30.958  26.214  23.823  1.00  0.00     0.275 A 
ATOM     11  C   UNL A   1      32.566  27.328  25.353  1.00  0.00     0.069 A 
ATOM     12  O   UNL A   1      30.502  25.224  23.271  1.00  0.00    -0.267 OA
ATOM     13  C   UNL A   1      30.389  27.524  23.625  1.00  0.00     0.112 A 
ATOM     14  C   UNL A   1      32.085  28.603  24.986  1.00  0.00     0.070 A 
ATOM     15  C   UNL A   1      33.518  27.299  26.376  1.00  0.00     0.028 A 
ATOM     16  C   UNL A   1      29.259  27.896  22.917  1.00  0.00     0.034 A 
ATOM     17  N   UNL A   1      30.955  28.656  24.150  1.00  0.00    -0.310 N 
ATOM     18  C   UNL A   1      32.672  29.783  25.469  1.00  0.00     0.029 A 
ATOM     19  C   UNL A   1      34.115  28.469  26.860  1.00  0.00     0.002 A 
ATOM     20  C   UNL A   1      29.138  29.299  23.015  1.00  0.00     0.021 A 
ATOM     21  C   UNL A   1      30.202  29.745  23.769  1.00  0.00     0.092 A 
ATOM     22  C   UNL A   1      33.719  29.708  26.379  1.00  0.00     0.002 A 
ENDBRANCH   8   9
ENDBRANCH   6   8
ENDBRANCH   3   4
ENDBRANCH   2   3
ENDBRANCH   1   2
BRANCH   1  23
ATOM     23  N   UNL A   1      38.536  21.826  26.107  1.00  0.00    -0.352 N 
ATOM     24  C   UNL A   1      39.623  22.233  26.834  1.00  0.00     0.251 C 
ATOM     25  H   UNL A   1      38.642  20.913  25.753  1.00  0.00     0.163 HD
ATOM     26  O   UNL A   1      40.389  21.327  27.177  1.00  0.00    -0.269 OA
BRANCH  24  27
ATOM     27  C   UNL A   1      39.978  23.641  27.181  1.00  0.00     0.039 A 
ATOM     28  C   UNL A   1      41.027  24.033  28.008  1.00  0.00     0.014 A 
ATOM     29  C   UNL A   1      39.096  24.639  26.710  1.00  0.00     0.014 A 
ATOM     30  C   UNL A   1      41.141  25.369  28.409  1.00  0.00     0.010 A 
ATOM     31  C   UNL A   1      39.208  25.974  27.108  1.00  0.00     0.010 A 
ATOM     32  C   UNL A   1      40.210  26.338  27.998  1.00  0.00    -0.014 A 
BRANCH  32  33
ATOM     33  C   UNL A   1      40.387  27.717  28.476  1.00  0.00     0.031 A 
ATOM     34  C   UNL A   1      41.605  28.405  27.962  1.00  0.00     0.074 A 
ATOM     35  C   UNL A   1      39.549  28.407  29.281  1.00  0.00     0.049 A 
ATOM     36  N   UNL A   1      42.689  28.682  28.610  1.00  0.00    -0.248 NA
ATOM     37  C   UNL A   1      41.668  28.709  26.528  1.00  0.00     0.031 C 
ATOM     38  C   UNL A   1      38.179  28.082  29.680  1.00  0.00     0.029 A 
ATOM     39  N   UNL A   1      39.762  29.619  29.882  1.00  0.00    -0.354 N 
ATOM     40  C   UNL A   1      43.520  29.354  27.713  1.00  0.00     0.074 A 
ATOM     41  C   UNL A   1      42.893  29.224  26.420  1.00  0.00     0.031 C 
ATOM     42  C   UNL A   1      37.617  29.157  30.287  1.00  0.00     0.029 A 
ATOM     43  C   UNL A   1      38.637  30.176  30.473  1.00  0.00     0.049 A 
ATOM     44  H   UNL A   1      40.642  30.059  29.893  1.00  0.00     0.167 HD
ATOM     45  C   UNL A   1      44.582  30.102  28.132  1.00  0.00     0.034 A 
ATOM     46  C   UNL A   1      38.540  31.391  31.070  1.00  0.00     0.034 A 
ATOM     47  C   UNL A   1      44.900  29.835  29.508  1.00  0.00     0.049 A 
ATOM     48  C   UNL A   1      39.897  31.829  31.459  1.00  0.00     0.074 A 
ATOM     49  C   UNL A   1      45.368  28.747  30.214  1.00  0.00     0.029 A 
ATOM     50  N   UNL A   1      44.415  30.713  30.445  1.00  0.00    -0.354 N 
ATOM     51  N   UNL A   1      40.596  31.293  32.418  1.00  0.00    -0.248 NA
ATOM     52  C   UNL A   1      40.644  32.654  30.525  1.00  0.00     0.031 C 
ATOM     53  C   UNL A   1      44.732  28.827  31.486  1.00  0.00     0.029 A 
ATOM     54  C   UNL A   1      43.948  29.983  31.506  1.00  0.00     0.049 A 
ATOM     55  H   UNL A   1      44.404  31.694  30.367  1.00  0.00     0.167 HD
ATOM     56  C   UNL A   1      41.897  31.318  31.947  1.00  0.00     0.074 A 
ATOM     57  C   UNL A   1      41.883  32.285  30.852  1.00  0.00     0.031 C 
ATOM     58  C   UNL A   1      42.795  30.354  32.304  1.00  0.00     0.034 A 
BRANCH  45  59
ATOM     59  C   UNL A   1      45.144  31.296  27.396  1.00  0.00     0.023 A 
ATOM     60  C   UNL A   1      44.443  32.508  27.265  1.00  0.00     0.031 A 
ATOM     61  C   UNL A   1      46.498  31.326  27.000  1.00  0.00     0.131 A 
ATOM     62  C   UNL A   1      45.057  33.662  26.758  1.00  0.00     0.055 A 
ATOM     63  C   UNL A   1      47.131  32.496  26.557  1.00  0.00     0.041 A 
ATOM     64  F   UNL A   1      47.270  30.231  27.085  1.00  0.00    -0.206 F 
ATOM     65  C   UNL A   1      46.409  33.674  26.434  1.00  0.00     0.022 A 
BRANCH  62  66
ATOM     66  S   UNL A   1      44.094  35.182  26.526  1.00  0.00     0.124 S 
ATOM     67  O   UNL A   1      45.142  36.197  26.478  1.00  0.00    -0.237 OA
ATOM     68  O   UNL A   1      43.416  34.912  25.260  1.00  0.00    -0.237 OA
ATOM     69  O   UNL A   1      43.225  35.217  27.697  1.00  0.00    -0.744 OA
ENDBRANCH  62  66
ENDBRANCH  45  59
BRANCH  46  70
ATOM     70  C   UNL A   1      37.445  32.380  30.933  1.00  0.00     0.023 A 
ATOM     71  C   UNL A   1      36.739  32.784  32.079  1.00  0.00     0.031 A 
ATOM     72  C   UNL A   1      36.855  32.641  29.680  1.00  0.00     0.131 A 
ATOM     73  C   UNL A   1      35.464  33.355  31.961  1.00  0.00     0.055 A 
ATOM     74  C   UNL A   1      35.591  33.233  29.565  1.00  0.00     0.041 A 
ATOM     75  F   UNL A   1      37.459  32.250  28.547  1.00  0.00    -0.206 F 
ATOM     76  C   UNL A   1      34.881  33.575  30.711  1.00  0.00     0.022 A 
BRANCH  73  77
ATOM     77  S   UNL A   1      34.486  33.727  33.441  1.00  0.00     0.124 S 
ATOM     78  O   UNL A   1      34.408  35.185  33.401  1.00  0.00    -0.237 OA
ATOM     79  O   UNL A   1      33.240  33.023  33.159  1.00  0.00    -0.237 OA
ATOM     80  O   UNL A   1      35.294  33.183  34.529  1.00  0.00    -0.744 OA
ENDBRANCH  73  77
ENDBRANCH  46  70
BRANCH  58  81
ATOM     81  C   UNL A   1      42.459  29.437  33.462  1.00  0.00     0.023 A 
ATOM     82  C   UNL A   1      43.173  29.633  34.659  1.00  0.00     0.031 A 
ATOM     83  C   UNL A   1      41.645  28.291  33.375  1.00  0.00     0.131 A 
ATOM     84  C   UNL A   1      43.103  28.692  35.691  1.00  0.00     0.055 A 
ATOM     85  C   UNL A   1      41.515  27.393  34.442  1.00  0.00     0.041 A 
ATOM     86  F   UNL A   1      41.017  27.957  32.239  1.00  0.00    -0.206 F 
ATOM     87  C   UNL A   1      42.261  27.581  35.600  1.00  0.00     0.022 A 
BRANCH  84  88
ATOM     88  S   UNL A   1      44.228  28.804  37.106  1.00  0.00     0.124 S 
ATOM     89  O   UNL A   1      43.958  27.557  37.815  1.00  0.00    -0.237 OA
ATOM     90  O   UNL A   1      45.535  28.884  36.456  1.00  0.00    -0.237 OA
ATOM     91  O   UNL A   1      43.809  30.019  37.797  1.00  0.00    -0.744 OA
ENDBRANCH  84  88
ENDBRANCH  58  81
ENDBRANCH  32  33
ENDBRANCH  24  27
ENDBRANCH   1  23
TORSDOF 14
ENDMDL
