MODEL 1
REMARK VINA RESULT:     -11.8      0.000      0.000
REMARK SMILES C[C@@H](C(=O)NCCCNC(=O)c1ccc(-c2c3nc(c(-c4cc(S(=O)(=O)[O-])ccc4F)c4ccc([nH]4)c(-c4cc(S(=O)(=O)[O-])ccc4F)c4nc(c(-c5cc(S(=O)(=O)[O-])ccc5F)c5ccc2[nH]5)C=C4)C=C3)cc1)N(C)C(=O)NC[C@H]1C[N@@H+]2CCC[C@@H]2CO1
REMARK SMILES IDX 6 1 5 2 3 3 4 4 2 6 1 7 75 8 76 9 77 10 78 11 79 12 80 14
REMARK SMILES IDX 81 15 82 16 89 17 83 18 88 19 84 20 87 21 85 23 86 24 7 25
REMARK SMILES IDX 8 26 9 27 10 28 11 30 12 31 13 32 74 33 14 34 73 35 15 36
REMARK SMILES IDX 16 37 17 38 67 39 18 40 72 41 66 42 68 43 19 44 71 45 65 46
REMARK SMILES IDX 64 47 20 49 52 50 32 51 51 52 33 53 36 54 50 55 69 56 34 57
REMARK SMILES IDX 35 58 49 60 70 61 37 62 21 63 22 64 30 65 23 66 29 67 31 68
REMARK SMILES IDX 28 69 24 70 25 71 26 72 27 73 53 74 54 75 62 76 55 77 61 78
REMARK SMILES IDX 63 79 60 80 56 81 57 82 58 83 59 84 38 85 39 86 47 87 40 88
REMARK SMILES IDX 46 89 48 90 45 91 41 92 42 93 43 94 44 95
REMARK H PARENT 5 5 79 13 83 22 9 29 68 48 36 59
REMARK Flexibility Score: inf
ROOT
ATOM      1  C   UNL A   1      31.755  30.447  26.246  1.00  0.00     0.117 C 
ENDROOT
BRANCH   1   2
ATOM      2  N   UNL A   1      31.118  30.084  24.996  1.00  0.00    -0.354 N 
ATOM      3  C   UNL A   1      31.501  29.188  24.037  1.00  0.00     0.242 C 
ATOM      4  O   UNL A   1      30.663  28.922  23.170  1.00  0.00    -0.273 OA
ATOM      5  H   UNL A   1      30.276  30.558  24.807  1.00  0.00     0.163 HD
BRANCH   3   6
ATOM      6  C   UNL A   1      32.884  28.483  24.128  1.00  0.00     0.172 C 
ATOM      7  C   UNL A   1      33.751  28.621  22.873  1.00  0.00     0.042 C 
BRANCH   6   8
ATOM      8  N   UNL A   1      32.717  27.070  24.560  1.00  0.00    -0.316 N 
ATOM      9  C   UNL A   1      32.795  26.079  23.505  1.00  0.00     0.149 C 
BRANCH   8  10
ATOM     10  C   UNL A   1      32.576  26.824  25.899  1.00  0.00     0.317 C 
ATOM     11  O   UNL A   1      33.302  27.350  26.747  1.00  0.00    -0.249 OA
ATOM     12  N   UNL A   1      31.627  26.022  26.407  1.00  0.00    -0.335 N 
ATOM     13  H   UNL A   1      31.658  26.021  27.390  1.00  0.00     0.165 HD
BRANCH  12  14
ATOM     14  C   UNL A   1      30.568  25.157  25.919  1.00  0.00     0.155 C 
BRANCH  14  15
ATOM     15  C   UNL A   1      30.711  23.679  26.334  1.00  0.00     0.192 C 
ATOM     16  C   UNL A   1      31.248  22.762  25.204  1.00  0.00     0.296 C 
ATOM     17  O   UNL A   1      31.507  23.649  27.546  1.00  0.00    -0.364 OA
ATOM     18  N   UNL A   1      32.689  22.928  24.975  1.00  0.00    -0.328 N 
ATOM     19  C   UNL A   1      32.573  22.694  27.501  1.00  0.00     0.225 C 
ATOM     20  C   UNL A   1      33.226  21.907  24.068  1.00  0.00     0.262 C 
ATOM     21  C   UNL A   1      33.444  22.876  26.247  1.00  0.00     0.210 C 
ATOM     22  H   UNL A   1      32.803  23.845  24.545  1.00  0.00     0.348 HD
ATOM     23  C   UNL A   1      34.639  21.668  24.568  1.00  0.00     0.068 C 
ATOM     24  C   UNL A   1      34.477  21.765  26.073  1.00  0.00     0.073 C 
ENDBRANCH  14  15
ENDBRANCH  12  14
ENDBRANCH   8  10
ENDBRANCH   6   8
ENDBRANCH   3   6
ENDBRANCH   1   2
BRANCH   1  25
ATOM     25  C   UNL A   1      31.582  31.924  26.582  1.00  0.00     0.042 C 
BRANCH  25  26
ATOM     26  C   UNL A   1      32.849  32.596  27.103  1.00  0.00     0.118 C 
BRANCH  26  27
ATOM     27  N   UNL A   1      32.586  33.882  27.735  1.00  0.00    -0.352 N 
ATOM     28  C   UNL A   1      33.213  34.477  28.805  1.00  0.00     0.251 C 
ATOM     29  H   UNL A   1      31.851  34.403  27.338  1.00  0.00     0.163 HD
ATOM     30  O   UNL A   1      32.726  35.485  29.309  1.00  0.00    -0.269 OA
BRANCH  28  31
ATOM     31  C   UNL A   1      34.450  33.886  29.360  1.00  0.00     0.039 A 
ATOM     32  C   UNL A   1      35.691  34.342  28.905  1.00  0.00     0.014 A 
ATOM     33  C   UNL A   1      34.384  32.885  30.331  1.00  0.00     0.014 A 
ATOM     34  C   UNL A   1      36.866  33.854  29.485  1.00  0.00     0.010 A 
ATOM     35  C   UNL A   1      35.548  32.455  30.959  1.00  0.00     0.010 A 
ATOM     36  C   UNL A   1      36.802  32.937  30.546  1.00  0.00    -0.014 A 
BRANCH  36  37
ATOM     37  C   UNL A   1      38.017  32.444  31.245  1.00  0.00     0.031 A 
ATOM     38  C   UNL A   1      38.801  31.309  30.648  1.00  0.00     0.074 A 
ATOM     39  C   UNL A   1      38.337  32.921  32.463  1.00  0.00     0.049 A 
ATOM     40  N   UNL A   1      39.745  30.578  31.181  1.00  0.00    -0.248 NA
ATOM     41  C   UNL A   1      38.433  30.919  29.280  1.00  0.00     0.031 C 
ATOM     42  C   UNL A   1      37.635  34.000  33.159  1.00  0.00     0.029 A 
ATOM     43  N   UNL A   1      39.313  32.532  33.347  1.00  0.00    -0.354 N 
ATOM     44  C   UNL A   1      40.063  29.618  30.225  1.00  0.00     0.074 A 
ATOM     45  C   UNL A   1      39.166  29.831  29.108  1.00  0.00     0.031 C 
ATOM     46  C   UNL A   1      38.195  34.179  34.367  1.00  0.00     0.029 A 
ATOM     47  C   UNL A   1      39.257  33.194  34.552  1.00  0.00     0.049 A 
ATOM     48  H   UNL A   1      39.987  31.845  33.141  1.00  0.00     0.167 HD
ATOM     49  C   UNL A   1      41.023  28.661  30.271  1.00  0.00     0.034 A 
ATOM     50  C   UNL A   1      39.954  33.006  35.690  1.00  0.00     0.034 A 
ATOM     51  C   UNL A   1      41.911  28.475  31.394  1.00  0.00     0.049 A 
ATOM     52  C   UNL A   1      41.003  31.925  35.737  1.00  0.00     0.074 A 
ATOM     53  C   UNL A   1      42.957  27.579  31.530  1.00  0.00     0.029 A 
ATOM     54  N   UNL A   1      41.850  29.193  32.582  1.00  0.00    -0.354 N 
ATOM     55  N   UNL A   1      41.321  31.046  34.815  1.00  0.00    -0.248 NA
ATOM     56  C   UNL A   1      41.790  31.816  36.972  1.00  0.00     0.031 C 
ATOM     57  C   UNL A   1      43.482  27.710  32.820  1.00  0.00     0.029 A 
ATOM     58  C   UNL A   1      42.820  28.742  33.465  1.00  0.00     0.049 A 
ATOM     59  H   UNL A   1      41.211  29.919  32.770  1.00  0.00     0.167 HD
ATOM     60  C   UNL A   1      42.368  30.300  35.348  1.00  0.00     0.074 A 
ATOM     61  C   UNL A   1      42.625  30.830  36.671  1.00  0.00     0.031 C 
ATOM     62  C   UNL A   1      43.062  29.278  34.784  1.00  0.00     0.034 A 
BRANCH  49  63
ATOM     63  C   UNL A   1      41.121  27.726  29.086  1.00  0.00     0.023 A 
ATOM     64  C   UNL A   1      42.134  27.866  28.118  1.00  0.00     0.031 A 
ATOM     65  C   UNL A   1      40.151  26.732  28.876  1.00  0.00     0.131 A 
ATOM     66  C   UNL A   1      42.085  27.109  26.938  1.00  0.00     0.055 A 
ATOM     67  C   UNL A   1      40.167  25.912  27.746  1.00  0.00     0.041 A 
ATOM     68  F   UNL A   1      39.149  26.558  29.753  1.00  0.00    -0.206 F 
ATOM     69  C   UNL A   1      41.124  26.115  26.756  1.00  0.00     0.022 A 
BRANCH  66  70
ATOM     70  S   UNL A   1      43.173  27.587  25.566  1.00  0.00     0.124 S 
ATOM     71  O   UNL A   1      43.735  26.298  25.171  1.00  0.00    -0.237 OA
ATOM     72  O   UNL A   1      42.242  28.194  24.623  1.00  0.00    -0.237 OA
ATOM     73  O   UNL A   1      44.123  28.507  26.188  1.00  0.00    -0.744 OA
ENDBRANCH  66  70
ENDBRANCH  49  63
BRANCH  50  74
ATOM     74  C   UNL A   1      39.655  33.841  36.887  1.00  0.00     0.023 A 
ATOM     75  C   UNL A   1      38.989  33.306  38.000  1.00  0.00     0.031 A 
ATOM     76  C   UNL A   1      40.049  35.192  36.937  1.00  0.00     0.131 A 
ATOM     77  C   UNL A   1      38.713  34.124  39.107  1.00  0.00     0.055 A 
ATOM     78  C   UNL A   1      39.809  35.989  38.057  1.00  0.00     0.041 A 
ATOM     79  F   UNL A   1      40.701  35.746  35.903  1.00  0.00    -0.206 F 
ATOM     80  C   UNL A   1      39.130  35.457  39.148  1.00  0.00     0.022 A 
BRANCH  77  81
ATOM     81  S   UNL A   1      37.763  33.428  40.487  1.00  0.00     0.124 S 
ATOM     82  O   UNL A   1      38.677  32.410  40.993  1.00  0.00    -0.237 OA
ATOM     83  O   UNL A   1      37.568  34.596  41.340  1.00  0.00    -0.237 OA
ATOM     84  O   UNL A   1      36.553  32.920  39.845  1.00  0.00    -0.744 OA
ENDBRANCH  77  81
ENDBRANCH  50  74
BRANCH  62  85
ATOM     85  C   UNL A   1      44.214  28.705  35.573  1.00  0.00     0.023 A 
ATOM     86  C   UNL A   1      44.045  27.645  36.480  1.00  0.00     0.031 A 
ATOM     87  C   UNL A   1      45.510  29.216  35.381  1.00  0.00     0.131 A 
ATOM     88  C   UNL A   1      45.154  27.149  37.183  1.00  0.00     0.055 A 
ATOM     89  C   UNL A   1      46.616  28.686  36.046  1.00  0.00     0.041 A 
ATOM     90  F   UNL A   1      45.724  30.230  34.525  1.00  0.00    -0.206 F 
ATOM     91  C   UNL A   1      46.440  27.651  36.959  1.00  0.00     0.022 A 
BRANCH  88  92
ATOM     92  S   UNL A   1      44.894  25.866  38.439  1.00  0.00     0.124 S 
ATOM     93  O   UNL A   1      43.883  26.479  39.294  1.00  0.00    -0.237 OA
ATOM     94  O   UNL A   1      44.449  24.729  37.639  1.00  0.00    -0.237 OA
ATOM     95  O   UNL A   1      46.213  25.711  39.051  1.00  0.00    -0.744 OA
ENDBRANCH  88  92
ENDBRANCH  62  85
ENDBRANCH  36  37
ENDBRANCH  28  31
ENDBRANCH  26  27
ENDBRANCH  25  26
ENDBRANCH   1  25
TORSDOF 17
ENDMDL
MODEL 2
REMARK VINA RESULT:     -11.5      6.219     11.521
REMARK SMILES C[C@@H](C(=O)NCCCNC(=O)c1ccc(-c2c3nc(c(-c4cc(S(=O)(=O)[O-])ccc4F)c4ccc([nH]4)c(-c4cc(S(=O)(=O)[O-])ccc4F)c4nc(c(-c5cc(S(=O)(=O)[O-])ccc5F)c5ccc2[nH]5)C=C4)C=C3)cc1)N(C)C(=O)NC[C@H]1C[N@@H+]2CCC[C@@H]2CO1
REMARK SMILES IDX 6 1 5 2 3 3 4 4 2 6 1 7 75 8 76 9 77 10 78 11 79 12 80 14
REMARK SMILES IDX 81 15 82 16 89 17 83 18 88 19 84 20 87 21 85 23 86 24 7 25
REMARK SMILES IDX 8 26 9 27 10 28 11 30 12 31 13 32 74 33 14 34 73 35 15 36
REMARK SMILES IDX 16 37 17 38 67 39 18 40 72 41 66 42 68 43 19 44 71 45 65 46
REMARK SMILES IDX 64 47 20 49 52 50 32 51 51 52 33 53 36 54 50 55 69 56 34 57
REMARK SMILES IDX 35 58 49 60 70 61 37 62 21 63 22 64 30 65 23 66 29 67 31 68
REMARK SMILES IDX 28 69 24 70 25 71 26 72 27 73 53 74 54 75 62 76 55 77 61 78
REMARK SMILES IDX 63 79 60 80 56 81 57 82 58 83 59 84 38 85 39 86 47 87 40 88
REMARK SMILES IDX 46 89 48 90 45 91 41 92 42 93 43 94 44 95
REMARK H PARENT 5 5 79 13 83 22 9 29 68 48 36 59
REMARK Flexibility Score: inf
ROOT
ATOM      1  C   UNL A   1      36.527  20.976  24.952  1.00  0.00     0.117 C 
ENDROOT
BRANCH   1   2
ATOM      2  N   UNL A   1      35.309  20.272  25.302  1.00  0.00    -0.354 N 
ATOM      3  C   UNL A   1      34.009  20.696  25.288  1.00  0.00     0.242 C 
ATOM      4  O   UNL A   1      33.148  19.823  25.435  1.00  0.00    -0.273 OA
ATOM      5  H   UNL A   1      35.439  19.342  25.596  1.00  0.00     0.163 HD
BRANCH   3   6
ATOM      6  C   UNL A   1      33.671  22.184  24.994  1.00  0.00     0.172 C 
ATOM      7  C   UNL A   1      33.776  23.111  26.210  1.00  0.00     0.042 C 
BRANCH   6   8
ATOM      8  N   UNL A   1      32.360  22.290  24.301  1.00  0.00    -0.316 N 
ATOM      9  C   UNL A   1      31.248  22.719  25.126  1.00  0.00     0.149 C 
BRANCH   8  10
ATOM     10  C   UNL A   1      32.328  22.045  22.955  1.00  0.00     0.317 C 
ATOM     11  O   UNL A   1      31.781  21.046  22.479  1.00  0.00    -0.249 OA
ATOM     12  N   UNL A   1      32.854  22.873  22.040  1.00  0.00    -0.335 N 
ATOM     13  H   UNL A   1      32.678  22.547  21.128  1.00  0.00     0.165 HD
BRANCH  12  14
ATOM     14  C   UNL A   1      33.608  24.114  22.011  1.00  0.00     0.155 C 
BRANCH  14  15
ATOM     15  C   UNL A   1      32.767  25.362  21.674  1.00  0.00     0.192 C 
ATOM     16  C   UNL A   1      31.586  25.602  22.650  1.00  0.00     0.296 C 
ATOM     17  O   UNL A   1      33.684  26.481  21.570  1.00  0.00    -0.364 OA
ATOM     18  N   UNL A   1      32.022  26.139  23.946  1.00  0.00    -0.328 N 
ATOM     19  C   UNL A   1      33.260  27.633  22.307  1.00  0.00     0.225 C 
ATOM     20  C   UNL A   1      30.890  26.570  24.775  1.00  0.00     0.262 C 
ATOM     21  C   UNL A   1      32.944  27.283  23.771  1.00  0.00     0.210 C 
ATOM     22  H   UNL A   1      32.506  25.376  24.419  1.00  0.00     0.348 HD
ATOM     23  C   UNL A   1      31.429  27.755  25.556  1.00  0.00     0.068 C 
ATOM     24  C   UNL A   1      32.317  28.445  24.538  1.00  0.00     0.073 C 
ENDBRANCH  14  15
ENDBRANCH  12  14
ENDBRANCH   8  10
ENDBRANCH   6   8
ENDBRANCH   3   6
ENDBRANCH   1   2
BRANCH   1  25
ATOM     25  C   UNL A   1      37.729  20.045  24.844  1.00  0.00     0.042 C 
BRANCH  25  26
ATOM     26  C   UNL A   1      38.894  20.426  25.751  1.00  0.00     0.118 C 
BRANCH  26  27
ATOM     27  N   UNL A   1      39.881  19.362  25.878  1.00  0.00    -0.352 N 
ATOM     28  C   UNL A   1      41.238  19.446  26.092  1.00  0.00     0.251 C 
ATOM     29  H   UNL A   1      39.526  18.447  25.799  1.00  0.00     0.163 HD
ATOM     30  O   UNL A   1      41.932  18.439  25.985  1.00  0.00    -0.269 OA
BRANCH  28  31
ATOM     31  C   UNL A   1      41.856  20.749  26.420  1.00  0.00     0.039 A 
ATOM     32  C   UNL A   1      41.976  21.720  25.421  1.00  0.00     0.014 A 
ATOM     33  C   UNL A   1      42.312  21.012  27.713  1.00  0.00     0.014 A 
ATOM     34  C   UNL A   1      42.477  22.986  25.740  1.00  0.00     0.010 A 
ATOM     35  C   UNL A   1      42.740  22.293  28.046  1.00  0.00     0.010 A 
ATOM     36  C   UNL A   1      42.823  23.296  27.065  1.00  0.00    -0.014 A 
BRANCH  36  37
ATOM     37  C   UNL A   1      43.291  24.647  27.469  1.00  0.00     0.031 A 
ATOM     38  C   UNL A   1      42.325  25.600  28.116  1.00  0.00     0.074 A 
ATOM     39  C   UNL A   1      44.530  25.059  27.140  1.00  0.00     0.049 A 
ATOM     40  N   UNL A   1      42.446  26.882  28.343  1.00  0.00    -0.248 NA
ATOM     41  C   UNL A   1      41.031  25.033  28.517  1.00  0.00     0.031 C 
ATOM     42  C   UNL A   1      45.549  24.238  26.485  1.00  0.00     0.029 A 
ATOM     43  N   UNL A   1      45.131  26.286  27.280  1.00  0.00    -0.354 N 
ATOM     44  C   UNL A   1      41.229  27.284  28.884  1.00  0.00     0.074 A 
ATOM     45  C   UNL A   1      40.371  26.116  28.892  1.00  0.00     0.031 C 
ATOM     46  C   UNL A   1      46.643  24.985  26.269  1.00  0.00     0.029 A 
ATOM     47  C   UNL A   1      46.386  26.350  26.719  1.00  0.00     0.049 A 
ATOM     48  H   UNL A   1      44.706  27.047  27.737  1.00  0.00     0.167 HD
ATOM     49  C   UNL A   1      40.868  28.509  29.344  1.00  0.00     0.034 A 
ATOM     50  C   UNL A   1      47.220  27.395  26.551  1.00  0.00     0.034 A 
ATOM     51  C   UNL A   1      41.745  29.655  29.332  1.00  0.00     0.049 A 
ATOM     52  C   UNL A   1      46.800  28.755  27.045  1.00  0.00     0.074 A 
ATOM     53  C   UNL A   1      41.510  30.927  29.823  1.00  0.00     0.029 A 
ATOM     54  N   UNL A   1      43.025  29.670  28.791  1.00  0.00    -0.354 N 
ATOM     55  N   UNL A   1      45.661  29.118  27.588  1.00  0.00    -0.248 NA
ATOM     56  C   UNL A   1      47.778  29.842  26.912  1.00  0.00     0.031 C 
ATOM     57  C   UNL A   1      42.619  31.726  29.519  1.00  0.00     0.029 A 
ATOM     58  C   UNL A   1      43.580  30.935  28.911  1.00  0.00     0.049 A 
ATOM     59  H   UNL A   1      43.474  28.894  28.382  1.00  0.00     0.167 HD
ATOM     60  C   UNL A   1      45.798  30.470  27.890  1.00  0.00     0.074 A 
ATOM     61  C   UNL A   1      47.128  30.857  27.467  1.00  0.00     0.031 C 
ATOM     62  C   UNL A   1      44.908  31.308  28.479  1.00  0.00     0.034 A 
BRANCH  49  63
ATOM     63  C   UNL A   1      39.452  28.663  29.854  1.00  0.00     0.023 A 
ATOM     64  C   UNL A   1      38.414  29.122  29.022  1.00  0.00     0.031 A 
ATOM     65  C   UNL A   1      39.148  28.421  31.204  1.00  0.00     0.131 A 
ATOM     66  C   UNL A   1      37.161  29.434  29.571  1.00  0.00     0.055 A 
ATOM     67  C   UNL A   1      37.870  28.637  31.723  1.00  0.00     0.041 A 
ATOM     68  F   UNL A   1      40.097  27.998  32.054  1.00  0.00    -0.206 F 
ATOM     69  C   UNL A   1      36.873  29.171  30.910  1.00  0.00     0.022 A 
BRANCH  66  70
ATOM     70  S   UNL A   1      35.989  30.375  28.554  1.00  0.00     0.124 S 
ATOM     71  O   UNL A   1      36.881  31.014  27.589  1.00  0.00    -0.237 OA
ATOM     72  O   UNL A   1      35.120  29.330  28.026  1.00  0.00    -0.237 OA
ATOM     73  O   UNL A   1      35.363  31.286  29.510  1.00  0.00    -0.744 OA
ENDBRANCH  66  70
ENDBRANCH  49  63
BRANCH  50  74
ATOM     74  C   UNL A   1      48.521  27.198  25.852  1.00  0.00     0.023 A 
ATOM     75  C   UNL A   1      48.630  27.345  24.461  1.00  0.00     0.031 A 
ATOM     76  C   UNL A   1      49.683  26.871  26.576  1.00  0.00     0.131 A 
ATOM     77  C   UNL A   1      49.869  27.142  23.833  1.00  0.00     0.055 A 
ATOM     78  C   UNL A   1      50.920  26.711  25.952  1.00  0.00     0.041 A 
ATOM     79  F   UNL A   1      49.633  26.732  27.911  1.00  0.00    -0.206 F 
ATOM     80  C   UNL A   1      51.016  26.839  24.570  1.00  0.00     0.022 A 
BRANCH  77  81
ATOM     81  S   UNL A   1      49.954  27.243  22.024  1.00  0.00     0.124 S 
ATOM     82  O   UNL A   1      49.743  28.668  21.795  1.00  0.00    -0.237 OA
ATOM     83  O   UNL A   1      51.297  26.741  21.755  1.00  0.00    -0.237 OA
ATOM     84  O   UNL A   1      48.867  26.371  21.583  1.00  0.00    -0.744 OA
ENDBRANCH  77  81
ENDBRANCH  50  74
BRANCH  62  85
ATOM     85  C   UNL A   1      45.365  32.718  28.761  1.00  0.00     0.023 A 
ATOM     86  C   UNL A   1      45.282  33.738  27.798  1.00  0.00     0.031 A 
ATOM     87  C   UNL A   1      45.864  33.046  30.035  1.00  0.00     0.131 A 
ATOM     88  C   UNL A   1      45.719  35.033  28.118  1.00  0.00     0.055 A 
ATOM     89  C   UNL A   1      46.251  34.345  30.362  1.00  0.00     0.041 A 
ATOM     90  F   UNL A   1      45.965  32.106  30.990  1.00  0.00    -0.206 F 
ATOM     91  C   UNL A   1      46.186  35.347  29.398  1.00  0.00     0.022 A 
BRANCH  88  92
ATOM     92  S   UNL A   1      45.718  36.304  26.823  1.00  0.00     0.124 S 
ATOM     93  O   UNL A   1      45.998  35.517  25.626  1.00  0.00    -0.237 OA
ATOM     94  O   UNL A   1      44.370  36.854  26.924  1.00  0.00    -0.237 OA
ATOM     95  O   UNL A   1      46.787  37.213  27.232  1.00  0.00    -0.744 OA
ENDBRANCH  88  92
ENDBRANCH  62  85
ENDBRANCH  36  37
ENDBRANCH  28  31
ENDBRANCH  26  27
ENDBRANCH  25  26
ENDBRANCH   1  25
TORSDOF 17
ENDMDL
MODEL 3
REMARK VINA RESULT:     -11.5      2.651      3.573
REMARK SMILES C[C@@H](C(=O)NCCCNC(=O)c1ccc(-c2c3nc(c(-c4cc(S(=O)(=O)[O-])ccc4F)c4ccc([nH]4)c(-c4cc(S(=O)(=O)[O-])ccc4F)c4nc(c(-c5cc(S(=O)(=O)[O-])ccc5F)c5ccc2[nH]5)C=C4)C=C3)cc1)N(C)C(=O)NC[C@H]1C[N@@H+]2CCC[C@@H]2CO1
REMARK SMILES IDX 6 1 5 2 3 3 4 4 2 6 1 7 75 8 76 9 77 10 78 11 79 12 80 14
REMARK SMILES IDX 81 15 82 16 89 17 83 18 88 19 84 20 87 21 85 23 86 24 7 25
REMARK SMILES IDX 8 26 9 27 10 28 11 30 12 31 13 32 74 33 14 34 73 35 15 36
REMARK SMILES IDX 16 37 17 38 67 39 18 40 72 41 66 42 68 43 19 44 71 45 65 46
REMARK SMILES IDX 64 47 20 49 52 50 32 51 51 52 33 53 36 54 50 55 69 56 34 57
REMARK SMILES IDX 35 58 49 60 70 61 37 62 21 63 22 64 30 65 23 66 29 67 31 68
REMARK SMILES IDX 28 69 24 70 25 71 26 72 27 73 53 74 54 75 62 76 55 77 61 78
REMARK SMILES IDX 63 79 60 80 56 81 57 82 58 83 59 84 38 85 39 86 47 87 40 88
REMARK SMILES IDX 46 89 48 90 45 91 41 92 42 93 43 94 44 95
REMARK H PARENT 5 5 79 13 83 22 9 29 68 48 36 59
REMARK Flexibility Score: inf
ROOT
ATOM      1  C   UNL A   1      32.745  27.600  23.821  1.00  0.00     0.117 C 
ENDROOT
BRANCH   1   2
ATOM      2  N   UNL A   1      31.356  27.322  24.128  1.00  0.00    -0.354 N 
ATOM      3  C   UNL A   1      30.743  26.145  24.454  1.00  0.00     0.242 C 
ATOM      4  O   UNL A   1      29.584  26.229  24.871  1.00  0.00    -0.273 OA
ATOM      5  H   UNL A   1      30.761  28.106  24.096  1.00  0.00     0.163 HD
BRANCH   3   6
ATOM      6  C   UNL A   1      31.529  24.806  24.390  1.00  0.00     0.172 C 
ATOM      7  C   UNL A   1      30.857  23.714  23.551  1.00  0.00     0.042 C 
BRANCH   6   8
ATOM      8  N   UNL A   1      31.878  24.345  25.761  1.00  0.00    -0.316 N 
ATOM      9  C   UNL A   1      32.863  25.146  26.459  1.00  0.00     0.149 C 
BRANCH   8  10
ATOM     10  C   UNL A   1      31.203  23.265  26.262  1.00  0.00     0.317 C 
ATOM     11  O   UNL A   1      30.011  23.321  26.579  1.00  0.00    -0.249 OA
ATOM     12  N   UNL A   1      31.760  22.055  26.424  1.00  0.00    -0.335 N 
ATOM     13  H   UNL A   1      31.096  21.403  26.743  1.00  0.00     0.165 HD
BRANCH  12  14
ATOM     14  C   UNL A   1      33.062  21.435  26.260  1.00  0.00     0.155 C 
BRANCH  14  15
ATOM     15  C   UNL A   1      33.437  21.116  24.799  1.00  0.00     0.192 C 
ATOM     16  C   UNL A   1      34.573  20.070  24.659  1.00  0.00     0.296 C 
ATOM     17  O   UNL A   1      32.213  20.753  24.111  1.00  0.00    -0.364 OA
ATOM     18  N   UNL A   1      34.120  18.700  24.932  1.00  0.00    -0.328 N 
ATOM     19  C   UNL A   1      32.328  19.549  23.346  1.00  0.00     0.225 C 
ATOM     20  C   UNL A   1      35.136  17.701  24.583  1.00  0.00     0.262 C 
ATOM     21  C   UNL A   1      32.876  18.388  24.193  1.00  0.00     0.210 C 
ATOM     22  H   UNL A   1      33.944  18.656  25.936  1.00  0.00     0.348 HD
ATOM     23  C   UNL A   1      34.335  16.499  24.117  1.00  0.00     0.068 C 
ATOM     24  C   UNL A   1      33.182  17.141  23.368  1.00  0.00     0.073 C 
ENDBRANCH  14  15
ENDBRANCH  12  14
ENDBRANCH   8  10
ENDBRANCH   6   8
ENDBRANCH   3   6
ENDBRANCH   1   2
BRANCH   1  25
ATOM     25  C   UNL A   1      33.209  28.942  24.377  1.00  0.00     0.042 C 
BRANCH  25  26
ATOM     26  C   UNL A   1      33.009  29.095  25.881  1.00  0.00     0.118 C 
BRANCH  26  27
ATOM     27  N   UNL A   1      32.550  30.426  26.256  1.00  0.00    -0.352 N 
ATOM     28  C   UNL A   1      33.108  31.331  27.130  1.00  0.00     0.251 C 
ATOM     29  H   UNL A   1      31.719  30.723  25.820  1.00  0.00     0.163 HD
ATOM     30  O   UNL A   1      32.472  32.331  27.454  1.00  0.00    -0.269 OA
BRANCH  28  31
ATOM     31  C   UNL A   1      34.451  31.083  27.696  1.00  0.00     0.039 A 
ATOM     32  C   UNL A   1      35.357  32.143  27.798  1.00  0.00     0.014 A 
ATOM     33  C   UNL A   1      34.813  29.805  28.127  1.00  0.00     0.014 A 
ATOM     34  C   UNL A   1      36.597  31.939  28.412  1.00  0.00     0.010 A 
ATOM     35  C   UNL A   1      36.014  29.621  28.803  1.00  0.00     0.010 A 
ATOM     36  C   UNL A   1      36.918  30.686  28.958  1.00  0.00    -0.014 A 
BRANCH  36  37
ATOM     37  C   UNL A   1      38.191  30.437  29.683  1.00  0.00     0.031 A 
ATOM     38  C   UNL A   1      39.181  29.455  29.122  1.00  0.00     0.074 A 
ATOM     39  C   UNL A   1      38.396  30.987  30.895  1.00  0.00     0.049 A 
ATOM     40  N   UNL A   1      40.234  28.921  29.684  1.00  0.00    -0.248 NA
ATOM     41  C   UNL A   1      38.915  28.979  27.758  1.00  0.00     0.031 C 
ATOM     42  C   UNL A   1      37.496  31.932  31.559  1.00  0.00     0.029 A 
ATOM     43  N   UNL A   1      39.411  30.802  31.801  1.00  0.00    -0.354 N 
ATOM     44  C   UNL A   1      40.739  28.019  28.753  1.00  0.00     0.074 A 
ATOM     45  C   UNL A   1      39.838  28.042  27.619  1.00  0.00     0.031 C 
ATOM     46  C   UNL A   1      37.992  32.233  32.770  1.00  0.00     0.029 A 
ATOM     47  C   UNL A   1      39.214  31.464  32.991  1.00  0.00     0.049 A 
ATOM     48  H   UNL A   1      40.203  30.247  31.619  1.00  0.00     0.167 HD
ATOM     49  C   UNL A   1      41.858  27.255  28.833  1.00  0.00     0.034 A 
ATOM     50  C   UNL A   1      39.913  31.429  34.143  1.00  0.00     0.034 A 
ATOM     51  C   UNL A   1      42.745  27.257  29.972  1.00  0.00     0.049 A 
ATOM     52  C   UNL A   1      41.141  30.561  34.227  1.00  0.00     0.074 A 
ATOM     53  C   UNL A   1      43.936  26.571  30.141  1.00  0.00     0.029 A 
ATOM     54  N   UNL A   1      42.532  27.973  31.144  1.00  0.00    -0.354 N 
ATOM     55  N   UNL A   1      41.632  29.738  33.329  1.00  0.00    -0.248 NA
ATOM     56  C   UNL A   1      41.914  30.621  35.475  1.00  0.00     0.031 C 
ATOM     57  C   UNL A   1      44.405  26.820  31.436  1.00  0.00     0.029 A 
ATOM     58  C   UNL A   1      43.552  27.725  32.049  1.00  0.00     0.049 A 
ATOM     59  H   UNL A   1      41.767  28.572  31.307  1.00  0.00     0.167 HD
ATOM     60  C   UNL A   1      42.789  29.207  33.892  1.00  0.00     0.074 A 
ATOM     61  C   UNL A   1      42.921  29.800  35.207  1.00  0.00     0.031 C 
ATOM     62  C   UNL A   1      43.669  28.320  33.360  1.00  0.00     0.034 A 
BRANCH  49  63
ATOM     63  C   UNL A   1      42.147  26.333  27.669  1.00  0.00     0.023 A 
ATOM     64  C   UNL A   1      41.677  25.007  27.645  1.00  0.00     0.031 A 
ATOM     65  C   UNL A   1      42.963  26.757  26.606  1.00  0.00     0.131 A 
ATOM     66  C   UNL A   1      42.119  24.124  26.648  1.00  0.00     0.055 A 
ATOM     67  C   UNL A   1      43.317  25.900  25.561  1.00  0.00     0.041 A 
ATOM     68  F   UNL A   1      43.457  28.005  26.578  1.00  0.00    -0.206 F 
ATOM     69  C   UNL A   1      42.915  24.567  25.591  1.00  0.00     0.022 A 
BRANCH  66  70
ATOM     70  S   UNL A   1      41.804  22.351  26.869  1.00  0.00     0.124 S 
ATOM     71  O   UNL A   1      40.446  22.358  27.410  1.00  0.00    -0.237 OA
ATOM     72  O   UNL A   1      41.949  21.833  25.514  1.00  0.00    -0.237 OA
ATOM     73  O   UNL A   1      42.839  21.935  27.813  1.00  0.00    -0.744 OA
ENDBRANCH  66  70
ENDBRANCH  49  63
BRANCH  50  74
ATOM     74  C   UNL A   1      39.445  32.217  35.317  1.00  0.00     0.023 A 
ATOM     75  C   UNL A   1      39.893  33.527  35.539  1.00  0.00     0.031 A 
ATOM     76  C   UNL A   1      38.525  31.668  36.229  1.00  0.00     0.131 A 
ATOM     77  C   UNL A   1      39.440  34.239  36.661  1.00  0.00     0.055 A 
ATOM     78  C   UNL A   1      38.045  32.394  37.320  1.00  0.00     0.041 A 
ATOM     79  F   UNL A   1      38.055  30.422  36.053  1.00  0.00    -0.206 F 
ATOM     80  C   UNL A   1      38.510  33.686  37.545  1.00  0.00     0.022 A 
BRANCH  77  81
ATOM     81  S   UNL A   1      40.115  35.893  36.973  1.00  0.00     0.124 S 
ATOM     82  O   UNL A   1      41.544  35.619  37.063  1.00  0.00    -0.237 OA
ATOM     83  O   UNL A   1      39.675  36.628  35.792  1.00  0.00    -0.237 OA
ATOM     84  O   UNL A   1      39.474  36.292  38.224  1.00  0.00    -0.744 OA
ENDBRANCH  77  81
ENDBRANCH  50  74
BRANCH  62  85
ATOM     85  C   UNL A   1      44.892  27.984  34.177  1.00  0.00     0.023 A 
ATOM     86  C   UNL A   1      44.922  26.897  35.066  1.00  0.00     0.031 A 
ATOM     87  C   UNL A   1      46.060  28.755  34.030  1.00  0.00     0.131 A 
ATOM     88  C   UNL A   1      46.090  26.628  35.797  1.00  0.00     0.055 A 
ATOM     89  C   UNL A   1      47.232  28.453  34.722  1.00  0.00     0.041 A 
ATOM     90  F   UNL A   1      46.082  29.806  33.194  1.00  0.00    -0.206 F 
ATOM     91  C   UNL A   1      47.250  27.388  35.618  1.00  0.00     0.022 A 
BRANCH  88  92
ATOM     92  S   UNL A   1      46.067  25.296  37.029  1.00  0.00     0.124 S 
ATOM     93  O   UNL A   1      47.095  25.734  37.968  1.00  0.00    -0.237 OA
ATOM     94  O   UNL A   1      44.693  25.346  37.518  1.00  0.00    -0.237 OA
ATOM     95  O   UNL A   1      46.403  24.104  36.253  1.00  0.00    -0.744 OA
ENDBRANCH  88  92
ENDBRANCH  62  85
ENDBRANCH  36  37
ENDBRANCH  28  31
ENDBRANCH  26  27
ENDBRANCH  25  26
ENDBRANCH   1  25
TORSDOF 17
ENDMDL
