MODEL 1
REMARK VINA RESULT:     -13.1      0.000      0.000
REMARK SMILES Cc1cccc(-c2cc(OCC(=O)NCCCNC(=O)c3ccc(-c4c5nc(c(-c6cc(S(=O)(=O)[O-])ccc6F)c6ccc([nH]6)c(-c6cc(S(=O)(=O)[O-])ccc6F)c6nc(c(-c7cc(S(=O)(=O)[O-])ccc7F)c7ccc4[nH]7)C=C6)C=C5)cc3)nc(Nc3ccccc3C)n2)c1
REMARK SMILES IDX 15 1 14 2 12 3 13 4 11 6 10 7 9 8 7 9 8 10 94 11 85 12 84 13
REMARK SMILES IDX 6 14 1 15 2 16 3 17 95 18 4 19 5 20 86 21 87 23 88 24 92 25
REMARK SMILES IDX 89 26 91 27 93 28 90 29 16 30 17 31 18 32 19 33 20 35 21 36
REMARK SMILES IDX 22 37 83 38 23 39 82 40 24 41 25 42 26 43 76 44 27 45 81 46
REMARK SMILES IDX 75 47 77 48 28 49 80 50 74 51 73 52 29 54 61 55 41 56 60 57
REMARK SMILES IDX 42 58 45 59 59 60 78 61 43 62 44 63 58 65 79 66 46 67 30 68
REMARK SMILES IDX 31 69 39 70 32 71 38 72 40 73 37 74 33 75 34 76 35 77 36 78
REMARK SMILES IDX 62 79 63 80 71 81 64 82 70 83 72 84 69 85 65 86 66 87 67 88
REMARK SMILES IDX 68 89 47 90 48 91 56 92 49 93 55 94 57 95 54 96 50 97 51 98
REMARK SMILES IDX 52 99 53 100
REMARK H PARENT 14 5 86 22 18 34 77 53 45 64
REMARK Flexibility Score: inf
ROOT
ATOM      1  C   UNL A   1      41.534  19.599  26.926  1.00  0.00     0.117 C 
ENDROOT
BRANCH   1   2
ATOM      2  N   UNL A   1      40.455  19.101  26.086  1.00  0.00    -0.353 N 
ATOM      3  C   UNL A   1      39.325  19.746  25.678  1.00  0.00     0.258 C 
ATOM      4  O   UNL A   1      38.527  19.170  24.936  1.00  0.00    -0.271 OA
ATOM      5  H   UNL A   1      40.556  18.174  25.770  1.00  0.00     0.163 HD
BRANCH   3   6
ATOM      6  C   UNL A   1      39.055  21.187  26.141  1.00  0.00     0.331 C 
BRANCH   6   7
ATOM      7  O   UNL A   1      38.536  22.094  25.183  1.00  0.00    -0.467 OA
BRANCH   7   8
ATOM      8  C   UNL A   1      37.194  22.366  25.205  1.00  0.00     0.219 A 
ATOM      9  C   UNL A   1      35.264  23.670  25.051  1.00  0.00     0.080 A 
ATOM     10  C   UNL A   1      36.639  23.609  25.038  1.00  0.00     0.097 A 
ATOM     11  N   UNL A   1      34.504  22.586  25.259  1.00  0.00    -0.212 NA
ATOM     12  C   UNL A   1      35.116  21.406  25.406  1.00  0.00     0.231 A 
ATOM     13  N   UNL A   1      36.448  21.263  25.410  1.00  0.00    -0.177 NA
BRANCH   9  14
ATOM     14  C   UNL A   1      34.540  24.918  24.798  1.00  0.00     0.001 A 
ATOM     15  C   UNL A   1      33.437  28.024  26.732  1.00  0.00     0.044 C 
ATOM     16  C   UNL A   1      33.641  27.042  25.614  1.00  0.00    -0.050 A 
ATOM     17  C   UNL A   1      33.155  27.320  24.333  1.00  0.00     0.003 A 
ATOM     18  C   UNL A   1      34.318  25.837  25.840  1.00  0.00     0.013 A 
ATOM     19  C   UNL A   1      33.369  26.422  23.287  1.00  0.00     0.001 A 
ATOM     20  C   UNL A   1      34.068  25.235  23.516  1.00  0.00     0.010 A 
ENDBRANCH   9  14
BRANCH  12  21
ATOM     21  N   UNL A   1      34.350  20.258  25.607  1.00  0.00    -0.324 N 
ATOM     22  H   UNL A   1      34.039  20.093  26.527  1.00  0.00     0.170 HD
BRANCH  21  23
ATOM     23  C   UNL A   1      33.974  19.313  24.642  1.00  0.00     0.044 A 
ATOM     24  C   UNL A   1      34.711  18.122  24.547  1.00  0.00     0.026 A 
ATOM     25  C   UNL A   1      32.826  19.470  23.836  1.00  0.00    -0.027 A 
ATOM     26  C   UNL A   1      34.297  17.084  23.709  1.00  0.00     0.002 A 
ATOM     27  C   UNL A   1      32.414  18.414  23.006  1.00  0.00     0.005 A 
ATOM     28  C   UNL A   1      32.034  20.752  23.822  1.00  0.00     0.046 C 
ATOM     29  C   UNL A   1      33.140  17.226  22.949  1.00  0.00     0.000 A 
ENDBRANCH  21  23
ENDBRANCH  12  21
ENDBRANCH   7   8
ENDBRANCH   6   7
ENDBRANCH   3   6
ENDBRANCH   1   2
BRANCH   1  30
ATOM     30  C   UNL A   1      42.885  19.004  26.553  1.00  0.00     0.042 C 
BRANCH  30  31
ATOM     31  C   UNL A   1      43.390  19.469  25.193  1.00  0.00     0.118 C 
BRANCH  31  32
ATOM     32  N   UNL A   1      44.774  19.926  25.200  1.00  0.00    -0.352 N 
ATOM     33  C   UNL A   1      45.285  21.198  25.396  1.00  0.00     0.251 C 
ATOM     34  H   UNL A   1      45.446  19.225  25.040  1.00  0.00     0.163 HD
ATOM     35  O   UNL A   1      46.476  21.418  25.238  1.00  0.00    -0.269 OA
BRANCH  33  36
ATOM     36  C   UNL A   1      44.399  22.273  25.909  1.00  0.00     0.039 A 
ATOM     37  C   UNL A   1      44.228  23.412  25.109  1.00  0.00     0.014 A 
ATOM     38  C   UNL A   1      43.895  22.251  27.205  1.00  0.00     0.014 A 
ATOM     39  C   UNL A   1      43.754  24.591  25.680  1.00  0.00     0.010 A 
ATOM     40  C   UNL A   1      43.522  23.439  27.799  1.00  0.00     0.010 A 
ATOM     41  C   UNL A   1      43.501  24.618  27.050  1.00  0.00    -0.014 A 
BRANCH  41  42
ATOM     42  C   UNL A   1      43.351  25.845  27.818  1.00  0.00     0.031 A 
ATOM     43  C   UNL A   1      42.115  26.646  27.747  1.00  0.00     0.074 A 
ATOM     44  C   UNL A   1      44.312  26.178  28.705  1.00  0.00     0.049 A 
ATOM     45  N   UNL A   1      42.051  27.904  28.027  1.00  0.00    -0.248 NA
ATOM     46  C   UNL A   1      40.839  26.085  27.320  1.00  0.00     0.031 C 
ATOM     47  C   UNL A   1      44.233  27.161  29.780  1.00  0.00     0.029 A 
ATOM     48  N   UNL A   1      45.657  25.829  28.652  1.00  0.00    -0.354 N 
ATOM     49  C   UNL A   1      40.721  28.234  28.132  1.00  0.00     0.074 A 
ATOM     50  C   UNL A   1      40.007  27.092  27.607  1.00  0.00     0.031 C 
ATOM     51  C   UNL A   1      45.478  27.530  30.122  1.00  0.00     0.029 A 
ATOM     52  C   UNL A   1      46.387  26.908  29.174  1.00  0.00     0.049 A 
ATOM     53  H   UNL A   1      46.028  24.984  28.310  1.00  0.00     0.167 HD
ATOM     54  C   UNL A   1      40.354  29.365  28.799  1.00  0.00     0.034 A 
ATOM     55  C   UNL A   1      47.285  27.578  28.395  1.00  0.00     0.034 A 
ATOM     56  C   UNL A   1      41.513  30.108  29.290  1.00  0.00     0.049 A 
ATOM     57  C   UNL A   1      46.942  29.041  28.212  1.00  0.00     0.074 A 
ATOM     58  C   UNL A   1      42.105  30.202  30.540  1.00  0.00     0.029 A 
ATOM     59  N   UNL A   1      42.415  30.664  28.388  1.00  0.00    -0.354 N 
ATOM     60  N   UNL A   1      45.760  29.551  28.421  1.00  0.00    -0.248 NA
ATOM     61  C   UNL A   1      47.912  30.040  27.783  1.00  0.00     0.031 C 
ATOM     62  C   UNL A   1      43.392  30.776  30.376  1.00  0.00     0.029 A 
ATOM     63  C   UNL A   1      43.573  31.056  29.032  1.00  0.00     0.049 A 
ATOM     64  H   UNL A   1      42.250  30.764  27.422  1.00  0.00     0.167 HD
ATOM     65  C   UNL A   1      45.786  30.902  28.168  1.00  0.00     0.074 A 
ATOM     66  C   UNL A   1      47.165  31.157  27.790  1.00  0.00     0.031 C 
ATOM     67  C   UNL A   1      44.668  31.683  28.299  1.00  0.00     0.034 A 
BRANCH  54  68
ATOM     68  C   UNL A   1      38.941  29.600  29.283  1.00  0.00     0.023 A 
ATOM     69  C   UNL A   1      38.225  30.724  28.825  1.00  0.00     0.031 A 
ATOM     70  C   UNL A   1      38.269  28.791  30.218  1.00  0.00     0.131 A 
ATOM     71  C   UNL A   1      36.975  31.069  29.368  1.00  0.00     0.055 A 
ATOM     72  C   UNL A   1      37.053  29.165  30.807  1.00  0.00     0.041 A 
ATOM     73  F   UNL A   1      38.748  27.589  30.573  1.00  0.00    -0.206 F 
ATOM     74  C   UNL A   1      36.405  30.320  30.394  1.00  0.00     0.022 A 
BRANCH  71  75
ATOM     75  S   UNL A   1      36.095  32.510  28.705  1.00  0.00     0.124 S 
ATOM     76  O   UNL A   1      37.172  33.478  28.526  1.00  0.00    -0.237 OA
ATOM     77  O   UNL A   1      35.500  31.974  27.486  1.00  0.00    -0.237 OA
ATOM     78  O   UNL A   1      35.139  32.841  29.762  1.00  0.00    -0.744 OA
ENDBRANCH  71  75
ENDBRANCH  54  68
BRANCH  55  79
ATOM     79  C   UNL A   1      47.950  26.700  27.387  1.00  0.00     0.023 A 
ATOM     80  C   UNL A   1      47.665  26.960  26.027  1.00  0.00     0.031 A 
ATOM     81  C   UNL A   1      49.102  25.960  27.683  1.00  0.00     0.131 A 
ATOM     82  C   UNL A   1      48.604  26.651  25.034  1.00  0.00     0.055 A 
ATOM     83  C   UNL A   1      49.998  25.579  26.675  1.00  0.00     0.041 A 
ATOM     84  F   UNL A   1      49.446  25.707  28.955  1.00  0.00    -0.206 F 
ATOM     85  C   UNL A   1      49.777  25.964  25.350  1.00  0.00     0.022 A 
BRANCH  82  86
ATOM     86  S   UNL A   1      48.399  27.416  23.395  1.00  0.00     0.124 S 
ATOM     87  O   UNL A   1      49.633  28.180  23.258  1.00  0.00    -0.237 OA
ATOM     88  O   UNL A   1      48.266  26.255  22.514  1.00  0.00    -0.237 OA
ATOM     89  O   UNL A   1      47.179  28.208  23.527  1.00  0.00    -0.744 OA
ENDBRANCH  82  86
ENDBRANCH  55  79
BRANCH  67  90
ATOM     90  C   UNL A   1      44.515  33.130  27.859  1.00  0.00     0.023 A 
ATOM     91  C   UNL A   1      44.827  34.229  28.671  1.00  0.00     0.031 A 
ATOM     92  C   UNL A   1      44.094  33.456  26.543  1.00  0.00     0.131 A 
ATOM     93  C   UNL A   1      44.641  35.552  28.224  1.00  0.00     0.055 A 
ATOM     94  C   UNL A   1      43.981  34.770  26.075  1.00  0.00     0.041 A 
ATOM     95  F   UNL A   1      43.783  32.514  25.641  1.00  0.00    -0.206 F 
ATOM     96  C   UNL A   1      44.238  35.832  26.923  1.00  0.00     0.022 A 
BRANCH  93  97
ATOM     97  S   UNL A   1      44.882  36.898  29.414  1.00  0.00     0.124 S 
ATOM     98  O   UNL A   1      45.925  36.353  30.277  1.00  0.00    -0.237 OA
ATOM     99  O   UNL A   1      45.286  38.006  28.555  1.00  0.00    -0.237 OA
ATOM    100  O   UNL A   1      43.570  37.044  30.042  1.00  0.00    -0.744 OA
ENDBRANCH  93  97
ENDBRANCH  67  90
ENDBRANCH  41  42
ENDBRANCH  33  36
ENDBRANCH  31  32
ENDBRANCH  30  31
ENDBRANCH   1  30
TORSDOF 18
ENDMDL
MODEL 2
REMARK VINA RESULT:     -12.4      2.835      4.096
REMARK SMILES Cc1cccc(-c2cc(OCC(=O)NCCCNC(=O)c3ccc(-c4c5nc(c(-c6cc(S(=O)(=O)[O-])ccc6F)c6ccc([nH]6)c(-c6cc(S(=O)(=O)[O-])ccc6F)c6nc(c(-c7cc(S(=O)(=O)[O-])ccc7F)c7ccc4[nH]7)C=C6)C=C5)cc3)nc(Nc3ccccc3C)n2)c1
REMARK SMILES IDX 15 1 14 2 12 3 13 4 11 6 10 7 9 8 7 9 8 10 94 11 85 12 84 13
REMARK SMILES IDX 6 14 1 15 2 16 3 17 95 18 4 19 5 20 86 21 87 23 88 24 92 25
REMARK SMILES IDX 89 26 91 27 93 28 90 29 16 30 17 31 18 32 19 33 20 35 21 36
REMARK SMILES IDX 22 37 83 38 23 39 82 40 24 41 25 42 26 43 76 44 27 45 81 46
REMARK SMILES IDX 75 47 77 48 28 49 80 50 74 51 73 52 29 54 61 55 41 56 60 57
REMARK SMILES IDX 42 58 45 59 59 60 78 61 43 62 44 63 58 65 79 66 46 67 30 68
REMARK SMILES IDX 31 69 39 70 32 71 38 72 40 73 37 74 33 75 34 76 35 77 36 78
REMARK SMILES IDX 62 79 63 80 71 81 64 82 70 83 72 84 69 85 65 86 66 87 67 88
REMARK SMILES IDX 68 89 47 90 48 91 56 92 49 93 55 94 57 95 54 96 50 97 51 98
REMARK SMILES IDX 52 99 53 100
REMARK H PARENT 14 5 86 22 18 34 77 53 45 64
REMARK Flexibility Score: inf
ROOT
ATOM      1  C   UNL A   1      44.717  18.684  26.003  1.00  0.00     0.117 C 
ENDROOT
BRANCH   1   2
ATOM      2  N   UNL A   1      43.307  18.445  25.731  1.00  0.00    -0.353 N 
ATOM      3  C   UNL A   1      42.241  19.260  25.976  1.00  0.00     0.258 C 
ATOM      4  O   UNL A   1      41.109  18.900  25.648  1.00  0.00    -0.271 OA
ATOM      5  H   UNL A   1      43.095  17.578  25.315  1.00  0.00     0.163 HD
BRANCH   3   6
ATOM      6  C   UNL A   1      42.459  20.624  26.652  1.00  0.00     0.331 C 
BRANCH   6   7
ATOM      7  O   UNL A   1      41.493  21.044  27.601  1.00  0.00    -0.467 OA
BRANCH   7   8
ATOM      8  C   UNL A   1      40.622  22.038  27.246  1.00  0.00     0.219 A 
ATOM      9  C   UNL A   1      39.847  24.226  26.996  1.00  0.00     0.080 A 
ATOM     10  C   UNL A   1      40.823  23.378  27.466  1.00  0.00     0.097 A 
ATOM     11  N   UNL A   1      38.738  23.774  26.395  1.00  0.00    -0.212 NA
ATOM     12  C   UNL A   1      38.615  22.455  26.209  1.00  0.00     0.231 A 
ATOM     13  N   UNL A   1      39.517  21.563  26.640  1.00  0.00    -0.177 NA
BRANCH   9  14
ATOM     14  C   UNL A   1      39.976  25.682  27.086  1.00  0.00     0.001 A 
ATOM     15  C   UNL A   1      41.837  28.503  25.304  1.00  0.00     0.044 C 
ATOM     16  C   UNL A   1      40.947  27.773  26.267  1.00  0.00    -0.050 A 
ATOM     17  C   UNL A   1      40.232  28.478  27.241  1.00  0.00     0.003 A 
ATOM     18  C   UNL A   1      40.824  26.380  26.206  1.00  0.00     0.013 A 
ATOM     19  C   UNL A   1      39.384  27.804  28.119  1.00  0.00     0.001 A 
ATOM     20  C   UNL A   1      39.247  26.417  28.033  1.00  0.00     0.010 A 
ENDBRANCH   9  14
BRANCH  12  21
ATOM     21  N   UNL A   1      37.478  21.957  25.573  1.00  0.00    -0.324 N 
ATOM     22  H   UNL A   1      37.541  21.042  25.214  1.00  0.00     0.170 HD
BRANCH  21  23
ATOM     23  C   UNL A   1      36.255  22.617  25.389  1.00  0.00     0.044 A 
ATOM     24  C   UNL A   1      35.428  22.820  26.505  1.00  0.00     0.026 A 
ATOM     25  C   UNL A   1      35.873  23.172  24.149  1.00  0.00    -0.027 A 
ATOM     26  C   UNL A   1      34.271  23.596  26.413  1.00  0.00     0.002 A 
ATOM     27  C   UNL A   1      34.712  23.960  24.072  1.00  0.00     0.005 A 
ATOM     28  C   UNL A   1      36.664  22.926  22.891  1.00  0.00     0.046 C 
ATOM     29  C   UNL A   1      33.921  24.178  25.198  1.00  0.00     0.000 A 
ENDBRANCH  21  23
ENDBRANCH  12  21
ENDBRANCH   7   8
ENDBRANCH   6   7
ENDBRANCH   3   6
ENDBRANCH   1   2
BRANCH   1  30
ATOM     30  C   UNL A   1      45.570  18.630  24.742  1.00  0.00     0.042 C 
BRANCH  30  31
ATOM     31  C   UNL A   1      46.131  19.987  24.340  1.00  0.00     0.118 C 
BRANCH  31  32
ATOM     32  N   UNL A   1      45.151  20.875  23.726  1.00  0.00    -0.352 N 
ATOM     33  C   UNL A   1      44.726  22.131  24.123  1.00  0.00     0.251 C 
ATOM     34  H   UNL A   1      44.729  20.528  22.908  1.00  0.00     0.163 HD
ATOM     35  O   UNL A   1      43.795  22.678  23.552  1.00  0.00    -0.269 OA
BRANCH  33  36
ATOM     36  C   UNL A   1      45.477  22.862  25.174  1.00  0.00     0.039 A 
ATOM     37  C   UNL A   1      45.342  22.420  26.498  1.00  0.00     0.014 A 
ATOM     38  C   UNL A   1      46.150  24.049  24.902  1.00  0.00     0.014 A 
ATOM     39  C   UNL A   1      45.681  23.271  27.547  1.00  0.00     0.010 A 
ATOM     40  C   UNL A   1      46.393  24.932  25.933  1.00  0.00     0.010 A 
ATOM     41  C   UNL A   1      46.110  24.563  27.251  1.00  0.00    -0.014 A 
BRANCH  41  42
ATOM     42  C   UNL A   1      46.154  25.643  28.225  1.00  0.00     0.031 A 
ATOM     43  C   UNL A   1      44.934  26.378  28.608  1.00  0.00     0.074 A 
ATOM     44  C   UNL A   1      47.310  25.884  28.878  1.00  0.00     0.049 A 
ATOM     45  N   UNL A   1      44.933  27.571  29.101  1.00  0.00    -0.248 NA
ATOM     46  C   UNL A   1      43.597  25.823  28.437  1.00  0.00     0.031 C 
ATOM     47  C   UNL A   1      47.506  26.679  30.085  1.00  0.00     0.029 A 
ATOM     48  N   UNL A   1      48.598  25.621  28.423  1.00  0.00    -0.354 N 
ATOM     49  C   UNL A   1      43.673  27.808  29.597  1.00  0.00     0.074 A 
ATOM     50  C   UNL A   1      42.859  26.725  29.091  1.00  0.00     0.031 C 
ATOM     51  C   UNL A   1      48.793  27.056  30.152  1.00  0.00     0.029 A 
ATOM     52  C   UNL A   1      49.428  26.641  28.911  1.00  0.00     0.049 A 
ATOM     53  H   UNL A   1      48.876  24.861  27.861  1.00  0.00     0.167 HD
ATOM     54  C   UNL A   1      43.482  28.798  30.514  1.00  0.00     0.034 A 
ATOM     55  C   UNL A   1      50.083  27.474  28.051  1.00  0.00     0.034 A 
ATOM     56  C   UNL A   1      44.721  29.515  30.807  1.00  0.00     0.049 A 
ATOM     57  C   UNL A   1      49.688  28.926  28.208  1.00  0.00     0.074 A 
ATOM     58  C   UNL A   1      45.619  29.444  31.861  1.00  0.00     0.029 A 
ATOM     59  N   UNL A   1      45.348  30.254  29.809  1.00  0.00    -0.354 N 
ATOM     60  N   UNL A   1      48.596  29.333  28.796  1.00  0.00    -0.248 NA
ATOM     61  C   UNL A   1      50.500  30.031  27.716  1.00  0.00     0.031 C 
ATOM     62  C   UNL A   1      46.812  30.104  31.469  1.00  0.00     0.029 A 
ATOM     63  C   UNL A   1      46.631  30.602  30.190  1.00  0.00     0.049 A 
ATOM     64  H   UNL A   1      44.935  30.496  28.949  1.00  0.00     0.167 HD
ATOM     65  C   UNL A   1      48.541  30.706  28.773  1.00  0.00     0.074 A 
ATOM     66  C   UNL A   1      49.769  31.092  28.100  1.00  0.00     0.031 C 
ATOM     67  C   UNL A   1      47.487  31.395  29.314  1.00  0.00     0.034 A 
BRANCH  54  68
ATOM     68  C   UNL A   1      42.243  28.877  31.377  1.00  0.00     0.023 A 
ATOM     69  C   UNL A   1      41.104  29.558  30.902  1.00  0.00     0.031 A 
ATOM     70  C   UNL A   1      42.137  28.351  32.678  1.00  0.00     0.131 A 
ATOM     71  C   UNL A   1      39.992  29.794  31.729  1.00  0.00     0.055 A 
ATOM     72  C   UNL A   1      41.058  28.638  33.526  1.00  0.00     0.041 A 
ATOM     73  F   UNL A   1      43.060  27.509  33.168  1.00  0.00    -0.206 F 
ATOM     74  C   UNL A   1      39.982  29.379  33.057  1.00  0.00     0.022 A 
BRANCH  71  75
ATOM     75  S   UNL A   1      38.547  30.647  31.038  1.00  0.00     0.124 S 
ATOM     76  O   UNL A   1      37.557  29.577  30.968  1.00  0.00    -0.237 OA
ATOM     77  O   UNL A   1      38.302  31.689  32.028  1.00  0.00    -0.237 OA
ATOM     78  O   UNL A   1      39.025  31.130  29.742  1.00  0.00    -0.744 OA
ENDBRANCH  71  75
ENDBRANCH  54  68
BRANCH  55  79
ATOM     79  C   UNL A   1      50.469  26.803  26.774  1.00  0.00     0.023 A 
ATOM     80  C   UNL A   1      49.527  26.844  25.721  1.00  0.00     0.031 A 
ATOM     81  C   UNL A   1      51.803  26.528  26.447  1.00  0.00     0.131 A 
ATOM     82  C   UNL A   1      49.953  26.801  24.386  1.00  0.00     0.055 A 
ATOM     83  C   UNL A   1      52.211  26.402  25.112  1.00  0.00     0.041 A 
ATOM     84  F   UNL A   1      52.751  26.506  27.396  1.00  0.00    -0.206 F 
ATOM     85  C   UNL A   1      51.296  26.584  24.072  1.00  0.00     0.022 A 
BRANCH  82  86
ATOM     86  S   UNL A   1      48.779  27.321  23.097  1.00  0.00     0.124 S 
ATOM     87  O   UNL A   1      49.608  28.178  22.257  1.00  0.00    -0.237 OA
ATOM     88  O   UNL A   1      48.371  26.048  22.502  1.00  0.00    -0.237 OA
ATOM     89  O   UNL A   1      47.720  27.999  23.838  1.00  0.00    -0.744 OA
ENDBRANCH  82  86
ENDBRANCH  55  79
BRANCH  67  90
ATOM     90  C   UNL A   1      47.209  32.883  29.176  1.00  0.00     0.023 A 
ATOM     91  C   UNL A   1      46.684  33.475  28.019  1.00  0.00     0.031 A 
ATOM     92  C   UNL A   1      47.413  33.772  30.264  1.00  0.00     0.131 A 
ATOM     93  C   UNL A   1      46.472  34.864  27.933  1.00  0.00     0.055 A 
ATOM     94  C   UNL A   1      47.131  35.141  30.204  1.00  0.00     0.041 A 
ATOM     95  F   UNL A   1      47.887  33.352  31.447  1.00  0.00    -0.206 F 
ATOM     96  C   UNL A   1      46.672  35.701  29.025  1.00  0.00     0.022 A 
BRANCH  93  97
ATOM     97  S   UNL A   1      45.981  35.557  26.331  1.00  0.00     0.124 S 
ATOM     98  O   UNL A   1      44.535  35.679  26.487  1.00  0.00    -0.237 OA
ATOM     99  O   UNL A   1      46.722  36.813  26.293  1.00  0.00    -0.237 OA
ATOM    100  O   UNL A   1      46.418  34.547  25.369  1.00  0.00    -0.744 OA
ENDBRANCH  93  97
ENDBRANCH  67  90
ENDBRANCH  41  42
ENDBRANCH  33  36
ENDBRANCH  31  32
ENDBRANCH  30  31
ENDBRANCH   1  30
TORSDOF 18
ENDMDL
MODEL 3
REMARK VINA RESULT:     -12.1      1.461      2.258
REMARK SMILES Cc1cccc(-c2cc(OCC(=O)NCCCNC(=O)c3ccc(-c4c5nc(c(-c6cc(S(=O)(=O)[O-])ccc6F)c6ccc([nH]6)c(-c6cc(S(=O)(=O)[O-])ccc6F)c6nc(c(-c7cc(S(=O)(=O)[O-])ccc7F)c7ccc4[nH]7)C=C6)C=C5)cc3)nc(Nc3ccccc3C)n2)c1
REMARK SMILES IDX 15 1 14 2 12 3 13 4 11 6 10 7 9 8 7 9 8 10 94 11 85 12 84 13
REMARK SMILES IDX 6 14 1 15 2 16 3 17 95 18 4 19 5 20 86 21 87 23 88 24 92 25
REMARK SMILES IDX 89 26 91 27 93 28 90 29 16 30 17 31 18 32 19 33 20 35 21 36
REMARK SMILES IDX 22 37 83 38 23 39 82 40 24 41 25 42 26 43 76 44 27 45 81 46
REMARK SMILES IDX 75 47 77 48 28 49 80 50 74 51 73 52 29 54 61 55 41 56 60 57
REMARK SMILES IDX 42 58 45 59 59 60 78 61 43 62 44 63 58 65 79 66 46 67 30 68
REMARK SMILES IDX 31 69 39 70 32 71 38 72 40 73 37 74 33 75 34 76 35 77 36 78
REMARK SMILES IDX 62 79 63 80 71 81 64 82 70 83 72 84 69 85 65 86 66 87 67 88
REMARK SMILES IDX 68 89 47 90 48 91 56 92 49 93 55 94 57 95 54 96 50 97 51 98
REMARK SMILES IDX 52 99 53 100
REMARK H PARENT 14 5 86 22 18 34 77 53 45 64
REMARK Flexibility Score: inf
ROOT
ATOM      1  C   UNL A   1      37.849  21.037  25.682  1.00  0.00     0.117 C 
ENDROOT
BRANCH   1   2
ATOM      2  N   UNL A   1      37.473  21.620  24.403  1.00  0.00    -0.353 N 
ATOM      3  C   UNL A   1      37.026  22.882  24.140  1.00  0.00     0.258 C 
ATOM      4  O   UNL A   1      36.781  23.213  22.978  1.00  0.00    -0.271 OA
ATOM      5  H   UNL A   1      37.552  21.024  23.624  1.00  0.00     0.163 HD
BRANCH   3   6
ATOM      6  C   UNL A   1      36.837  23.884  25.291  1.00  0.00     0.331 C 
BRANCH   6   7
ATOM      7  O   UNL A   1      35.775  23.643  26.198  1.00  0.00    -0.467 OA
BRANCH   7   8
ATOM      8  C   UNL A   1      34.504  23.981  25.817  1.00  0.00     0.219 A 
ATOM      9  C   UNL A   1      32.732  25.398  25.269  1.00  0.00     0.080 A 
ATOM     10  C   UNL A   1      34.028  25.263  25.711  1.00  0.00     0.097 A 
ATOM     11  N   UNL A   1      31.957  24.339  24.997  1.00  0.00    -0.212 NA
ATOM     12  C   UNL A   1      32.493  23.119  25.116  1.00  0.00     0.231 A 
ATOM     13  N   UNL A   1      33.744  22.903  25.543  1.00  0.00    -0.177 NA
BRANCH   9  14
ATOM     14  C   UNL A   1      32.126  26.709  25.029  1.00  0.00     0.001 A 
ATOM     15  C   UNL A   1      29.215  28.194  23.047  1.00  0.00     0.044 C 
ATOM     16  C   UNL A   1      30.414  28.080  23.943  1.00  0.00    -0.050 A 
ATOM     17  C   UNL A   1      30.947  29.218  24.558  1.00  0.00     0.003 A 
ATOM     18  C   UNL A   1      31.017  26.837  24.173  1.00  0.00     0.013 A 
ATOM     19  C   UNL A   1      32.044  29.110  25.412  1.00  0.00     0.001 A 
ATOM     20  C   UNL A   1      32.621  27.862  25.656  1.00  0.00     0.010 A 
ENDBRANCH   9  14
BRANCH  12  21
ATOM     21  N   UNL A   1      31.716  21.998  24.824  1.00  0.00    -0.324 N 
ATOM     22  H   UNL A   1      30.740  22.124  24.844  1.00  0.00     0.170 HD
BRANCH  21  23
ATOM     23  C   UNL A   1      32.174  20.712  24.503  1.00  0.00     0.044 A 
ATOM     24  C   UNL A   1      32.574  19.863  25.547  1.00  0.00     0.026 A 
ATOM     25  C   UNL A   1      32.153  20.208  23.185  1.00  0.00    -0.027 A 
ATOM     26  C   UNL A   1      32.899  18.527  25.304  1.00  0.00     0.002 A 
ATOM     27  C   UNL A   1      32.471  18.859  22.956  1.00  0.00     0.005 A 
ATOM     28  C   UNL A   1      31.816  21.082  22.005  1.00  0.00     0.046 C 
ATOM     29  C   UNL A   1      32.834  18.022  24.010  1.00  0.00     0.000 A 
ENDBRANCH  21  23
ENDBRANCH  12  21
ENDBRANCH   7   8
ENDBRANCH   6   7
ENDBRANCH   3   6
ENDBRANCH   1   2
BRANCH   1  30
ATOM     30  C   UNL A   1      38.874  21.881  26.428  1.00  0.00     0.042 C 
BRANCH  30  31
ATOM     31  C   UNL A   1      40.178  22.057  25.662  1.00  0.00     0.118 C 
BRANCH  31  32
ATOM     32  N   UNL A   1      41.074  20.910  25.745  1.00  0.00    -0.352 N 
ATOM     33  C   UNL A   1      42.372  20.834  26.221  1.00  0.00     0.251 C 
ATOM     34  H   UNL A   1      40.700  20.063  25.412  1.00  0.00     0.163 HD
ATOM     35  O   UNL A   1      43.019  19.806  26.094  1.00  0.00    -0.269 OA
BRANCH  33  36
ATOM     36  C   UNL A   1      42.939  21.971  26.990  1.00  0.00     0.039 A 
ATOM     37  C   UNL A   1      42.744  21.979  28.379  1.00  0.00     0.014 A 
ATOM     38  C   UNL A   1      43.489  23.081  26.357  1.00  0.00     0.014 A 
ATOM     39  C   UNL A   1      42.890  23.169  29.088  1.00  0.00     0.010 A 
ATOM     40  C   UNL A   1      43.538  24.282  27.035  1.00  0.00     0.010 A 
ATOM     41  C   UNL A   1      43.188  24.336  28.387  1.00  0.00    -0.014 A 
BRANCH  41  42
ATOM     42  C   UNL A   1      43.021  25.673  28.936  1.00  0.00     0.031 A 
ATOM     43  C   UNL A   1      41.771  26.430  28.740  1.00  0.00     0.074 A 
ATOM     44  C   UNL A   1      43.981  26.169  29.744  1.00  0.00     0.049 A 
ATOM     45  N   UNL A   1      41.687  27.717  28.802  1.00  0.00    -0.248 NA
ATOM     46  C   UNL A   1      40.502  25.784  28.427  1.00  0.00     0.031 C 
ATOM     47  C   UNL A   1      43.893  27.320  30.636  1.00  0.00     0.029 A 
ATOM     48  N   UNL A   1      45.332  25.838  29.739  1.00  0.00    -0.354 N 
ATOM     49  C   UNL A   1      40.351  28.037  28.860  1.00  0.00     0.074 A 
ATOM     50  C   UNL A   1      39.655  26.810  28.545  1.00  0.00     0.031 C 
ATOM     51  C   UNL A   1      45.133  27.762  30.898  1.00  0.00     0.029 A 
ATOM     52  C   UNL A   1      46.046  27.002  30.061  1.00  0.00     0.049 A 
ATOM     53  H   UNL A   1      45.717  24.953  29.543  1.00  0.00     0.167 HD
ATOM     54  C   UNL A   1      39.969  29.260  29.327  1.00  0.00     0.034 A 
ATOM     55  C   UNL A   1      46.928  27.544  29.171  1.00  0.00     0.034 A 
ATOM     56  C   UNL A   1      41.117  30.094  29.674  1.00  0.00     0.049 A 
ATOM     57  C   UNL A   1      46.558  28.948  28.744  1.00  0.00     0.074 A 
ATOM     58  C   UNL A   1      41.715  30.411  30.884  1.00  0.00     0.029 A 
ATOM     59  N   UNL A   1      42.004  30.502  28.681  1.00  0.00    -0.354 N 
ATOM     60  N   UNL A   1      45.368  29.467  28.874  1.00  0.00    -0.248 NA
ATOM     61  C   UNL A   1      47.507  29.874  28.141  1.00  0.00     0.031 C 
ATOM     62  C   UNL A   1      42.991  30.969  30.612  1.00  0.00     0.029 A 
ATOM     63  C   UNL A   1      43.158  31.018  29.238  1.00  0.00     0.049 A 
ATOM     64  H   UNL A   1      41.831  30.433  27.715  1.00  0.00     0.167 HD
ATOM     65  C   UNL A   1      45.369  30.755  28.393  1.00  0.00     0.074 A 
ATOM     66  C   UNL A   1      46.741  30.964  27.964  1.00  0.00     0.031 C 
ATOM     67  C   UNL A   1      44.237  31.528  28.398  1.00  0.00     0.034 A 
BRANCH  54  68
ATOM     68  C   UNL A   1      38.555  29.550  29.777  1.00  0.00     0.023 A 
ATOM     69  C   UNL A   1      37.754  30.438  29.031  1.00  0.00     0.031 A 
ATOM     70  C   UNL A   1      37.961  29.030  30.942  1.00  0.00     0.131 A 
ATOM     71  C   UNL A   1      36.497  30.861  29.496  1.00  0.00     0.055 A 
ATOM     72  C   UNL A   1      36.737  29.496  31.441  1.00  0.00     0.041 A 
ATOM     73  F   UNL A   1      38.527  28.023  31.624  1.00  0.00    -0.206 F 
ATOM     74  C   UNL A   1      36.003  30.431  30.724  1.00  0.00     0.022 A 
BRANCH  71  75
ATOM     75  S   UNL A   1      35.507  31.978  28.465  1.00  0.00     0.124 S 
ATOM     76  O   UNL A   1      36.503  32.939  28.001  1.00  0.00    -0.237 OA
ATOM     77  O   UNL A   1      34.968  31.071  27.458  1.00  0.00    -0.237 OA
ATOM     78  O   UNL A   1      34.519  32.518  29.399  1.00  0.00    -0.744 OA
ENDBRANCH  71  75
ENDBRANCH  54  68
BRANCH  55  79
ATOM     79  C   UNL A   1      47.602  26.517  28.322  1.00  0.00     0.023 A 
ATOM     80  C   UNL A   1      47.255  26.495  26.952  1.00  0.00     0.031 A 
ATOM     81  C   UNL A   1      48.800  25.901  28.703  1.00  0.00     0.131 A 
ATOM     82  C   UNL A   1      48.174  26.041  25.996  1.00  0.00     0.055 A 
ATOM     83  C   UNL A   1      49.680  25.372  27.748  1.00  0.00     0.041 A 
ATOM     84  F   UNL A   1      49.201  25.915  29.983  1.00  0.00    -0.206 F 
ATOM     85  C   UNL A   1      49.392  25.481  26.385  1.00  0.00     0.022 A 
BRANCH  82  86
ATOM     86  S   UNL A   1      47.871  26.463  24.251  1.00  0.00     0.124 S 
ATOM     87  O   UNL A   1      48.988  27.352  23.953  1.00  0.00    -0.237 OA
ATOM     88  O   UNL A   1      47.903  25.156  23.595  1.00  0.00    -0.237 OA
ATOM     89  O   UNL A   1      46.554  27.092  24.265  1.00  0.00    -0.744 OA
ENDBRANCH  82  86
ENDBRANCH  55  79
BRANCH  67  90
ATOM     90  C   UNL A   1      44.056  32.876  27.719  1.00  0.00     0.023 A 
ATOM     91  C   UNL A   1      43.877  34.081  28.412  1.00  0.00     0.031 A 
ATOM     92  C   UNL A   1      44.123  33.000  26.306  1.00  0.00     0.131 A 
ATOM     93  C   UNL A   1      43.685  35.300  27.733  1.00  0.00     0.055 A 
ATOM     94  C   UNL A   1      44.008  34.223  25.635  1.00  0.00     0.041 A 
ATOM     95  F   UNL A   1      44.316  31.941  25.507  1.00  0.00    -0.206 F 
ATOM     96  C   UNL A   1      43.770  35.384  26.348  1.00  0.00     0.022 A 
BRANCH  93  97
ATOM     97  S   UNL A   1      43.262  36.766  28.711  1.00  0.00     0.124 S 
ATOM     98  O   UNL A   1      43.031  36.190  30.032  1.00  0.00    -0.237 OA
ATOM     99  O   UNL A   1      44.461  37.587  28.579  1.00  0.00    -0.237 OA
ATOM    100  O   UNL A   1      42.071  37.293  28.047  1.00  0.00    -0.744 OA
ENDBRANCH  93  97
ENDBRANCH  67  90
ENDBRANCH  41  42
ENDBRANCH  33  36
ENDBRANCH  31  32
ENDBRANCH  30  31
ENDBRANCH   1  30
TORSDOF 18
ENDMDL
