MODEL 1
REMARK VINA RESULT:     -12.3      0.000      0.000
REMARK SMILES O=C(CSc1ccc2ccccc2n1)NCc1ccc(C(=O)NCCCNC(=O)c2ccc(-c3c4nc(c(-c5cc(S(=O)(=O)[O-])ccc5F)c5ccc([nH]5)c(-c5cc(S(=O)(=O)[O-])ccc5F)c5nc(c(-c6cc(S(=O)(=O)[O-])ccc6F)c6ccc3[nH]6)C=C5)C=C4)cc2)cc1
REMARK SMILES IDX 24 1 23 2 21 3 22 4 20 6 17 7 18 8 94 9 19 10 93 11 16 12
REMARK SMILES IDX 15 13 1 14 2 15 3 17 4 18 5 19 6 20 14 21 7 22 13 23 8 24
REMARK SMILES IDX 12 25 9 26 11 27 10 28 25 29 26 30 27 31 28 32 29 34 30 35
REMARK SMILES IDX 31 36 92 37 32 38 91 39 33 40 34 41 35 42 85 43 36 44 90 45
REMARK SMILES IDX 84 46 86 47 37 48 89 49 83 50 82 51 38 53 70 54 50 55 69 56
REMARK SMILES IDX 51 57 54 58 68 59 87 60 52 61 53 62 67 64 88 65 55 66 39 67
REMARK SMILES IDX 40 68 48 69 41 70 47 71 49 72 46 73 42 74 43 75 44 76 45 77
REMARK SMILES IDX 71 78 72 79 80 80 73 81 79 82 81 83 78 84 74 85 75 86 76 87
REMARK SMILES IDX 77 88 56 89 57 90 65 91 58 92 64 93 66 94 63 95 59 96 60 97
REMARK SMILES IDX 61 98 62 99
REMARK H PARENT 23 5 15 16 27 33 86 52 54 63
REMARK Flexibility Score: inf
ROOT
ATOM      1  C   UNL A   1      31.559  30.697  25.667  1.00  0.00     0.118 C 
ENDROOT
BRANCH   1   2
ATOM      2  N   UNL A   1      30.427  30.762  24.761  1.00  0.00    -0.352 N 
ATOM      3  C   UNL A   1      30.068  29.985  23.689  1.00  0.00     0.251 C 
ATOM      4  O   UNL A   1      28.984  30.209  23.150  1.00  0.00    -0.269 OA
ATOM      5  H   UNL A   1      29.801  31.499  24.952  1.00  0.00     0.163 HD
BRANCH   3   6
ATOM      6  C   UNL A   1      30.902  28.859  23.189  1.00  0.00     0.039 A 
ATOM      7  C   UNL A   1      32.351  26.616  22.265  1.00  0.00    -0.029 A 
ATOM      8  C   UNL A   1      30.999  26.495  22.606  1.00  0.00     0.006 A 
ATOM      9  C   UNL A   1      32.961  27.873  22.374  1.00  0.00     0.006 A 
ATOM     10  C   UNL A   1      30.283  27.607  23.064  1.00  0.00     0.014 A 
ATOM     11  C   UNL A   1      32.235  28.987  22.797  1.00  0.00     0.014 A 
BRANCH   7  12
ATOM     12  C   UNL A   1      33.145  25.416  21.814  1.00  0.00     0.151 C 
BRANCH  12  13
ATOM     13  N   UNL A   1      32.530  24.186  22.257  1.00  0.00    -0.351 N 
ATOM     14  O   UNL A   1      34.476  22.979  22.375  1.00  0.00    -0.274 OA
ATOM     15  C   UNL A   1      33.253  23.042  22.491  1.00  0.00     0.230 C 
ATOM     16  H   UNL A   1      31.555  24.167  22.394  1.00  0.00     0.163 HD
BRANCH  15  17
ATOM     17  C   UNL A   1      32.429  21.816  22.835  1.00  0.00     0.176 C 
BRANCH  17  18
ATOM     18  S   UNL A   1      32.284  21.553  24.627  1.00  0.00    -0.096 SA
BRANCH  18  19
ATOM     19  C   UNL A   1      31.912  23.177  25.259  1.00  0.00     0.097 A 
ATOM     20  C   UNL A   1      30.653  23.596  25.664  1.00  0.00     0.036 A 
ATOM     21  N   UNL A   1      32.984  24.002  25.283  1.00  0.00    -0.241 NA
ATOM     22  C   UNL A   1      30.497  24.897  26.137  1.00  0.00     0.013 A 
ATOM     23  C   UNL A   1      32.829  25.266  25.713  1.00  0.00     0.072 A 
ATOM     24  C   UNL A   1      31.592  25.762  26.163  1.00  0.00     0.000 A 
ATOM     25  C   UNL A   1      33.920  26.126  25.712  1.00  0.00     0.029 A 
ATOM     26  C   UNL A   1      31.479  27.092  26.611  1.00  0.00     0.010 A 
ATOM     27  C   UNL A   1      33.812  27.451  26.144  1.00  0.00     0.002 A 
ATOM     28  C   UNL A   1      32.590  27.933  26.598  1.00  0.00     0.001 A 
ENDBRANCH  18  19
ENDBRANCH  17  18
ENDBRANCH  15  17
ENDBRANCH  12  13
ENDBRANCH   7  12
ENDBRANCH   3   6
ENDBRANCH   1   2
BRANCH   1  29
ATOM     29  C   UNL A   1      31.433  31.723  26.794  1.00  0.00     0.042 C 
BRANCH  29  30
ATOM     30  C   UNL A   1      32.772  32.287  27.258  1.00  0.00     0.118 C 
BRANCH  30  31
ATOM     31  N   UNL A   1      32.687  33.711  27.535  1.00  0.00    -0.352 N 
ATOM     32  C   UNL A   1      33.298  34.460  28.509  1.00  0.00     0.251 C 
ATOM     33  H   UNL A   1      32.100  34.218  26.929  1.00  0.00     0.163 HD
ATOM     34  O   UNL A   1      32.896  35.604  28.708  1.00  0.00    -0.269 OA
BRANCH  32  35
ATOM     35  C   UNL A   1      34.415  33.915  29.318  1.00  0.00     0.039 A 
ATOM     36  C   UNL A   1      35.713  34.355  29.038  1.00  0.00     0.014 A 
ATOM     37  C   UNL A   1      34.215  32.921  30.281  1.00  0.00     0.014 A 
ATOM     38  C   UNL A   1      36.802  33.811  29.727  1.00  0.00     0.010 A 
ATOM     39  C   UNL A   1      35.295  32.428  31.015  1.00  0.00     0.010 A 
ATOM     40  C   UNL A   1      36.603  32.849  30.727  1.00  0.00    -0.014 A 
BRANCH  40  41
ATOM     41  C   UNL A   1      37.755  32.222  31.428  1.00  0.00     0.031 A 
ATOM     42  C   UNL A   1      38.532  31.120  30.751  1.00  0.00     0.074 A 
ATOM     43  C   UNL A   1      38.079  32.612  32.676  1.00  0.00     0.049 A 
ATOM     44  N   UNL A   1      39.521  30.398  31.212  1.00  0.00    -0.248 NA
ATOM     45  C   UNL A   1      38.121  30.768  29.383  1.00  0.00     0.031 C 
ATOM     46  C   UNL A   1      37.384  33.648  33.444  1.00  0.00     0.029 A 
ATOM     47  N   UNL A   1      39.070  32.183  33.523  1.00  0.00    -0.354 N 
ATOM     48  C   UNL A   1      39.832  29.490  30.205  1.00  0.00     0.074 A 
ATOM     49  C   UNL A   1      38.895  29.724  29.127  1.00  0.00     0.031 C 
ATOM     50  C   UNL A   1      37.981  33.783  34.640  1.00  0.00     0.029 A 
ATOM     51  C   UNL A   1      39.074  32.822  34.741  1.00  0.00     0.049 A 
ATOM     52  H   UNL A   1      39.718  31.481  33.281  1.00  0.00     0.167 HD
ATOM     53  C   UNL A   1      40.818  28.559  30.174  1.00  0.00     0.034 A 
ATOM     54  C   UNL A   1      39.866  32.646  35.819  1.00  0.00     0.034 A 
ATOM     55  C   UNL A   1      41.767  28.362  31.244  1.00  0.00     0.049 A 
ATOM     56  C   UNL A   1      40.970  31.620  35.750  1.00  0.00     0.074 A 
ATOM     57  C   UNL A   1      42.836  27.485  31.297  1.00  0.00     0.029 A 
ATOM     58  N   UNL A   1      41.764  29.058  32.445  1.00  0.00    -0.354 N 
ATOM     59  N   UNL A   1      41.278  30.800  34.769  1.00  0.00    -0.248 NA
ATOM     60  C   UNL A   1      41.849  31.511  36.921  1.00  0.00     0.031 C 
ATOM     61  C   UNL A   1      43.447  27.612  32.550  1.00  0.00     0.029 A 
ATOM     62  C   UNL A   1      42.803  28.619  33.251  1.00  0.00     0.049 A 
ATOM     63  H   UNL A   1      41.119  29.761  32.689  1.00  0.00     0.167 HD
ATOM     64  C   UNL A   1      42.412  30.114  35.193  1.00  0.00     0.074 A 
ATOM     65  C   UNL A   1      42.741  30.624  36.508  1.00  0.00     0.031 C 
ATOM     66  C   UNL A   1      43.124  29.150  34.553  1.00  0.00     0.034 A 
BRANCH  53  67
ATOM     67  C   UNL A   1      40.903  27.667  28.959  1.00  0.00     0.023 A 
ATOM     68  C   UNL A   1      41.917  27.816  27.998  1.00  0.00     0.031 A 
ATOM     69  C   UNL A   1      39.949  26.653  28.757  1.00  0.00     0.131 A 
ATOM     70  C   UNL A   1      41.918  27.010  26.849  1.00  0.00     0.055 A 
ATOM     71  C   UNL A   1      40.000  25.803  27.650  1.00  0.00     0.041 A 
ATOM     72  F   UNL A   1      38.946  26.474  29.631  1.00  0.00    -0.206 F 
ATOM     73  C   UNL A   1      40.982  25.988  26.682  1.00  0.00     0.022 A 
BRANCH  70  74
ATOM     74  S   UNL A   1      43.092  27.392  25.520  1.00  0.00     0.124 S 
ATOM     75  O   UNL A   1      42.279  28.232  24.643  1.00  0.00    -0.237 OA
ATOM     76  O   UNL A   1      44.169  28.067  26.233  1.00  0.00    -0.237 OA
ATOM     77  O   UNL A   1      43.431  26.080  24.975  1.00  0.00    -0.744 OA
ENDBRANCH  70  74
ENDBRANCH  53  67
BRANCH  54  78
ATOM     78  C   UNL A   1      39.658  33.450  37.059  1.00  0.00     0.023 A 
ATOM     79  C   UNL A   1      38.974  32.914  38.162  1.00  0.00     0.031 A 
ATOM     80  C   UNL A   1      40.074  34.791  37.133  1.00  0.00     0.131 A 
ATOM     81  C   UNL A   1      38.667  33.729  39.261  1.00  0.00     0.055 A 
ATOM     82  C   UNL A   1      39.819  35.583  38.254  1.00  0.00     0.041 A 
ATOM     83  F   UNL A   1      40.739  35.354  36.111  1.00  0.00    -0.206 F 
ATOM     84  C   UNL A   1      39.093  35.058  39.319  1.00  0.00     0.022 A 
BRANCH  81  85
ATOM     85  S   UNL A   1      37.596  33.061  40.564  1.00  0.00     0.124 S 
ATOM     86  O   UNL A   1      36.369  32.779  39.826  1.00  0.00    -0.237 OA
ATOM     87  O   UNL A   1      38.357  31.899  41.012  1.00  0.00    -0.237 OA
ATOM     88  O   UNL A   1      37.507  34.157  41.527  1.00  0.00    -0.744 OA
ENDBRANCH  81  85
ENDBRANCH  54  78
BRANCH  66  89
ATOM     89  C   UNL A   1      44.370  28.649  35.240  1.00  0.00     0.023 A 
ATOM     90  C   UNL A   1      44.326  27.641  36.219  1.00  0.00     0.031 A 
ATOM     91  C   UNL A   1      45.620  29.211  34.923  1.00  0.00     0.131 A 
ATOM     92  C   UNL A   1      45.500  27.271  36.893  1.00  0.00     0.055 A 
ATOM     93  C   UNL A   1      46.793  28.795  35.554  1.00  0.00     0.041 A 
ATOM     94  F   UNL A   1      45.719  30.177  33.995  1.00  0.00    -0.206 F 
ATOM     95  C   UNL A   1      46.734  27.832  36.556  1.00  0.00     0.022 A 
BRANCH  92  96
ATOM     96  S   UNL A   1      45.375  26.123  38.291  1.00  0.00     0.124 S 
ATOM     97  O   UNL A   1      46.775  25.926  38.650  1.00  0.00    -0.237 OA
ATOM     98  O   UNL A   1      44.573  26.881  39.246  1.00  0.00    -0.237 OA
ATOM     99  O   UNL A   1      44.711  24.953  37.716  1.00  0.00    -0.744 OA
ENDBRANCH  92  96
ENDBRANCH  66  89
ENDBRANCH  40  41
ENDBRANCH  32  35
ENDBRANCH  30  31
ENDBRANCH  29  30
ENDBRANCH   1  29
TORSDOF 18
ENDMDL
MODEL 2
REMARK VINA RESULT:     -12.3      2.921      8.167
REMARK SMILES O=C(CSc1ccc2ccccc2n1)NCc1ccc(C(=O)NCCCNC(=O)c2ccc(-c3c4nc(c(-c5cc(S(=O)(=O)[O-])ccc5F)c5ccc([nH]5)c(-c5cc(S(=O)(=O)[O-])ccc5F)c5nc(c(-c6cc(S(=O)(=O)[O-])ccc6F)c6ccc3[nH]6)C=C5)C=C4)cc2)cc1
REMARK SMILES IDX 24 1 23 2 21 3 22 4 20 6 17 7 18 8 94 9 19 10 93 11 16 12
REMARK SMILES IDX 15 13 1 14 2 15 3 17 4 18 5 19 6 20 14 21 7 22 13 23 8 24
REMARK SMILES IDX 12 25 9 26 11 27 10 28 25 29 26 30 27 31 28 32 29 34 30 35
REMARK SMILES IDX 31 36 92 37 32 38 91 39 33 40 34 41 35 42 85 43 36 44 90 45
REMARK SMILES IDX 84 46 86 47 37 48 89 49 83 50 82 51 38 53 70 54 50 55 69 56
REMARK SMILES IDX 51 57 54 58 68 59 87 60 52 61 53 62 67 64 88 65 55 66 39 67
REMARK SMILES IDX 40 68 48 69 41 70 47 71 49 72 46 73 42 74 43 75 44 76 45 77
REMARK SMILES IDX 71 78 72 79 80 80 73 81 79 82 81 83 78 84 74 85 75 86 76 87
REMARK SMILES IDX 77 88 56 89 57 90 65 91 58 92 64 93 66 94 63 95 59 96 60 97
REMARK SMILES IDX 61 98 62 99
REMARK H PARENT 23 5 15 16 27 33 86 52 54 63
REMARK Flexibility Score: inf
ROOT
ATOM      1  C   UNL A   1      31.482  29.093  25.135  1.00  0.00     0.118 C 
ENDROOT
BRANCH   1   2
ATOM      2  N   UNL A   1      30.940  29.378  23.818  1.00  0.00    -0.352 N 
ATOM      3  C   UNL A   1      30.891  28.629  22.669  1.00  0.00     0.251 C 
ATOM      4  O   UNL A   1      30.272  29.087  21.707  1.00  0.00    -0.269 OA
ATOM      5  H   UNL A   1      30.532  30.270  23.735  1.00  0.00     0.163 HD
BRANCH   3   6
ATOM      6  C   UNL A   1      31.504  27.279  22.554  1.00  0.00     0.039 A 
ATOM      7  C   UNL A   1      32.818  24.791  22.290  1.00  0.00    -0.029 A 
ATOM      8  C   UNL A   1      33.527  25.988  22.133  1.00  0.00     0.006 A 
ATOM      9  C   UNL A   1      31.452  24.856  22.599  1.00  0.00     0.006 A 
ATOM     10  C   UNL A   1      32.875  27.219  22.264  1.00  0.00     0.014 A 
ATOM     11  C   UNL A   1      30.812  26.086  22.763  1.00  0.00     0.014 A 
BRANCH   7  12
ATOM     12  C   UNL A   1      33.499  23.458  22.108  1.00  0.00     0.151 C 
BRANCH  12  13
ATOM     13  N   UNL A   1      34.171  23.046  23.319  1.00  0.00    -0.351 N 
ATOM     14  O   UNL A   1      36.282  23.039  22.424  1.00  0.00    -0.274 OA
ATOM     15  C   UNL A   1      35.529  22.851  23.379  1.00  0.00     0.230 C 
ATOM     16  H   UNL A   1      33.634  22.898  24.131  1.00  0.00     0.163 HD
BRANCH  15  17
ATOM     17  C   UNL A   1      36.046  22.305  24.696  1.00  0.00     0.176 C 
BRANCH  17  18
ATOM     18  S   UNL A   1      36.177  23.586  25.978  1.00  0.00    -0.096 SA
BRANCH  18  19
ATOM     19  C   UNL A   1      34.546  24.304  26.019  1.00  0.00     0.097 A 
ATOM     20  C   UNL A   1      34.269  25.644  25.798  1.00  0.00     0.036 A 
ATOM     21  N   UNL A   1      33.575  23.411  26.323  1.00  0.00    -0.241 NA
ATOM     22  C   UNL A   1      32.947  26.078  25.862  1.00  0.00     0.013 A 
ATOM     23  C   UNL A   1      32.302  23.833  26.412  1.00  0.00     0.072 A 
ATOM     24  C   UNL A   1      31.934  25.171  26.179  1.00  0.00     0.000 A 
ATOM     25  C   UNL A   1      31.305  22.928  26.751  1.00  0.00     0.029 A 
ATOM     26  C   UNL A   1      30.586  25.565  26.278  1.00  0.00     0.010 A 
ATOM     27  C   UNL A   1      29.967  23.315  26.863  1.00  0.00     0.002 A 
ATOM     28  C   UNL A   1      29.607  24.636  26.622  1.00  0.00     0.001 A 
ENDBRANCH  18  19
ENDBRANCH  17  18
ENDBRANCH  15  17
ENDBRANCH  12  13
ENDBRANCH   7  12
ENDBRANCH   3   6
ENDBRANCH   1   2
BRANCH   1  29
ATOM     29  C   UNL A   1      32.904  29.637  25.282  1.00  0.00     0.042 C 
BRANCH  29  30
ATOM     30  C   UNL A   1      33.393  29.681  26.726  1.00  0.00     0.118 C 
BRANCH  30  31
ATOM     31  N   UNL A   1      33.434  31.040  27.238  1.00  0.00    -0.352 N 
ATOM     32  C   UNL A   1      34.311  31.630  28.112  1.00  0.00     0.251 C 
ATOM     33  H   UNL A   1      32.719  31.631  26.905  1.00  0.00     0.163 HD
ATOM     34  O   UNL A   1      34.016  32.722  28.592  1.00  0.00    -0.269 OA
BRANCH  32  35
ATOM     35  C   UNL A   1      35.589  30.976  28.485  1.00  0.00     0.039 A 
ATOM     36  C   UNL A   1      35.546  29.886  29.361  1.00  0.00     0.014 A 
ATOM     37  C   UNL A   1      36.826  31.471  28.058  1.00  0.00     0.014 A 
ATOM     38  C   UNL A   1      36.733  29.287  29.795  1.00  0.00     0.010 A 
ATOM     39  C   UNL A   1      38.006  30.831  28.438  1.00  0.00     0.010 A 
ATOM     40  C   UNL A   1      37.973  29.749  29.332  1.00  0.00    -0.014 A 
BRANCH  40  41
ATOM     41  C   UNL A   1      39.245  29.158  29.829  1.00  0.00     0.031 A 
ATOM     42  C   UNL A   1      39.927  29.759  31.032  1.00  0.00     0.074 A 
ATOM     43  C   UNL A   1      39.802  28.115  29.183  1.00  0.00     0.049 A 
ATOM     44  N   UNL A   1      41.071  29.441  31.582  1.00  0.00    -0.248 NA
ATOM     45  C   UNL A   1      39.242  30.885  31.686  1.00  0.00     0.031 C 
ATOM     46  C   UNL A   1      39.250  27.467  27.992  1.00  0.00     0.029 A 
ATOM     47  N   UNL A   1      40.957  27.418  29.432  1.00  0.00    -0.354 N 
ATOM     48  C   UNL A   1      41.256  30.343  32.626  1.00  0.00     0.074 A 
ATOM     49  C   UNL A   1      40.127  31.248  32.602  1.00  0.00     0.031 C 
ATOM     50  C   UNL A   1      40.058  26.459  27.625  1.00  0.00     0.029 A 
ATOM     51  C   UNL A   1      41.203  26.410  28.528  1.00  0.00     0.049 A 
ATOM     52  H   UNL A   1      41.556  27.621  30.187  1.00  0.00     0.167 HD
ATOM     53  C   UNL A   1      42.264  30.400  33.531  1.00  0.00     0.034 A 
ATOM     54  C   UNL A   1      42.239  25.551  28.436  1.00  0.00     0.034 A 
ATOM     55  C   UNL A   1      43.365  29.467  33.564  1.00  0.00     0.049 A 
ATOM     56  C   UNL A   1      43.336  25.621  29.470  1.00  0.00     0.074 A 
ATOM     57  C   UNL A   1      44.413  29.400  34.466  1.00  0.00     0.029 A 
ATOM     58  N   UNL A   1      43.557  28.434  32.657  1.00  0.00    -0.354 N 
ATOM     59  N   UNL A   1      43.470  26.454  30.479  1.00  0.00    -0.248 NA
ATOM     60  C   UNL A   1      44.407  24.622  29.369  1.00  0.00     0.031 C 
ATOM     61  C   UNL A   1      45.266  28.362  34.074  1.00  0.00     0.029 A 
ATOM     62  C   UNL A   1      44.713  27.736  32.969  1.00  0.00     0.049 A 
ATOM     63  H   UNL A   1      42.960  28.227  31.901  1.00  0.00     0.167 HD
ATOM     64  C   UNL A   1      44.617  26.045  31.154  1.00  0.00     0.074 A 
ATOM     65  C   UNL A   1      45.127  24.888  30.448  1.00  0.00     0.031 C 
ATOM     66  C   UNL A   1      45.197  26.575  32.262  1.00  0.00     0.034 A 
BRANCH  53  67
ATOM     67  C   UNL A   1      42.237  31.521  34.542  1.00  0.00     0.023 A 
ATOM     68  C   UNL A   1      41.310  31.546  35.598  1.00  0.00     0.031 A 
ATOM     69  C   UNL A   1      43.150  32.586  34.443  1.00  0.00     0.131 A 
ATOM     70  C   UNL A   1      41.275  32.642  36.474  1.00  0.00     0.055 A 
ATOM     71  C   UNL A   1      43.161  33.636  35.363  1.00  0.00     0.041 A 
ATOM     72  F   UNL A   1      44.047  32.627  33.444  1.00  0.00    -0.206 F 
ATOM     73  C   UNL A   1      42.211  33.674  36.380  1.00  0.00     0.022 A 
BRANCH  70  74
ATOM     74  S   UNL A   1      39.916  32.757  37.669  1.00  0.00     0.124 S 
ATOM     75  O   UNL A   1      40.629  32.627  38.938  1.00  0.00    -0.237 OA
ATOM     76  O   UNL A   1      39.353  34.072  37.384  1.00  0.00    -0.237 OA
ATOM     77  O   UNL A   1      39.060  31.624  37.325  1.00  0.00    -0.744 OA
ENDBRANCH  70  74
ENDBRANCH  53  67
BRANCH  54  78
ATOM     78  C   UNL A   1      42.302  24.547  27.334  1.00  0.00     0.023 A 
ATOM     79  C   UNL A   1      41.536  23.371  27.383  1.00  0.00     0.031 A 
ATOM     80  C   UNL A   1      43.185  24.712  26.252  1.00  0.00     0.131 A 
ATOM     81  C   UNL A   1      41.715  22.377  26.409  1.00  0.00     0.055 A 
ATOM     82  C   UNL A   1      43.315  23.746  25.252  1.00  0.00     0.041 A 
ATOM     83  F   UNL A   1      43.935  25.820  26.150  1.00  0.00    -0.206 F 
ATOM     84  C   UNL A   1      42.591  22.561  25.337  1.00  0.00     0.022 A 
BRANCH  81  85
ATOM     85  S   UNL A   1      40.870  20.786  26.629  1.00  0.00     0.124 S 
ATOM     86  O   UNL A   1      39.571  21.052  26.019  1.00  0.00    -0.237 OA
ATOM     87  O   UNL A   1      41.748  19.876  25.900  1.00  0.00    -0.237 OA
ATOM     88  O   UNL A   1      40.854  20.608  28.080  1.00  0.00    -0.744 OA
ENDBRANCH  81  85
ENDBRANCH  54  78
BRANCH  66  89
ATOM     89  C   UNL A   1      46.402  25.854  32.816  1.00  0.00     0.023 A 
ATOM     90  C   UNL A   1      46.281  24.803  33.740  1.00  0.00     0.031 A 
ATOM     91  C   UNL A   1      47.694  26.248  32.425  1.00  0.00     0.131 A 
ATOM     92  C   UNL A   1      47.433  24.225  34.294  1.00  0.00     0.055 A 
ATOM     93  C   UNL A   1      48.836  25.626  32.932  1.00  0.00     0.041 A 
ATOM     94  F   UNL A   1      47.867  27.246  31.543  1.00  0.00    -0.206 F 
ATOM     95  C   UNL A   1      48.709  24.620  33.884  1.00  0.00     0.022 A 
BRANCH  92  96
ATOM     96  S   UNL A   1      47.242  23.019  35.635  1.00  0.00     0.124 S 
ATOM     97  O   UNL A   1      47.236  23.876  36.816  1.00  0.00    -0.237 OA
ATOM     98  O   UNL A   1      45.972  22.382  35.303  1.00  0.00    -0.237 OA
ATOM     99  O   UNL A   1      48.420  22.162  35.498  1.00  0.00    -0.744 OA
ENDBRANCH  92  96
ENDBRANCH  66  89
ENDBRANCH  40  41
ENDBRANCH  32  35
ENDBRANCH  30  31
ENDBRANCH  29  30
ENDBRANCH   1  29
TORSDOF 18
ENDMDL
MODEL 3
REMARK VINA RESULT:     -12.2      5.494     11.427
REMARK SMILES O=C(CSc1ccc2ccccc2n1)NCc1ccc(C(=O)NCCCNC(=O)c2ccc(-c3c4nc(c(-c5cc(S(=O)(=O)[O-])ccc5F)c5ccc([nH]5)c(-c5cc(S(=O)(=O)[O-])ccc5F)c5nc(c(-c6cc(S(=O)(=O)[O-])ccc6F)c6ccc3[nH]6)C=C5)C=C4)cc2)cc1
REMARK SMILES IDX 24 1 23 2 21 3 22 4 20 6 17 7 18 8 94 9 19 10 93 11 16 12
REMARK SMILES IDX 15 13 1 14 2 15 3 17 4 18 5 19 6 20 14 21 7 22 13 23 8 24
REMARK SMILES IDX 12 25 9 26 11 27 10 28 25 29 26 30 27 31 28 32 29 34 30 35
REMARK SMILES IDX 31 36 92 37 32 38 91 39 33 40 34 41 35 42 85 43 36 44 90 45
REMARK SMILES IDX 84 46 86 47 37 48 89 49 83 50 82 51 38 53 70 54 50 55 69 56
REMARK SMILES IDX 51 57 54 58 68 59 87 60 52 61 53 62 67 64 88 65 55 66 39 67
REMARK SMILES IDX 40 68 48 69 41 70 47 71 49 72 46 73 42 74 43 75 44 76 45 77
REMARK SMILES IDX 71 78 72 79 80 80 73 81 79 82 81 83 78 84 74 85 75 86 76 87
REMARK SMILES IDX 77 88 56 89 57 90 65 91 58 92 64 93 66 94 63 95 59 96 60 97
REMARK SMILES IDX 61 98 62 99
REMARK H PARENT 23 5 15 16 27 33 86 52 54 63
REMARK Flexibility Score: inf
ROOT
ATOM      1  C   UNL A   1      36.664  20.064  25.034  1.00  0.00     0.118 C 
ENDROOT
BRANCH   1   2
ATOM      2  N   UNL A   1      35.701  19.030  24.699  1.00  0.00    -0.352 N 
ATOM      3  C   UNL A   1      34.329  19.027  24.690  1.00  0.00     0.251 C 
ATOM      4  O   UNL A   1      33.756  18.026  24.261  1.00  0.00    -0.269 OA
ATOM      5  H   UNL A   1      36.107  18.175  24.428  1.00  0.00     0.163 HD
BRANCH   3   6
ATOM      6  C   UNL A   1      33.514  20.193  25.126  1.00  0.00     0.039 A 
ATOM      7  C   UNL A   1      32.051  22.404  26.104  1.00  0.00    -0.029 A 
ATOM      8  C   UNL A   1      33.105  21.864  26.851  1.00  0.00     0.006 A 
ATOM      9  C   UNL A   1      31.753  21.838  24.858  1.00  0.00     0.006 A 
ATOM     10  C   UNL A   1      33.827  20.769  26.365  1.00  0.00     0.014 A 
ATOM     11  C   UNL A   1      32.499  20.767  24.360  1.00  0.00     0.014 A 
BRANCH   7  12
ATOM     12  C   UNL A   1      31.236  23.555  26.636  1.00  0.00     0.151 C 
BRANCH  12  13
ATOM     13  N   UNL A   1      30.637  24.311  25.560  1.00  0.00    -0.351 N 
ATOM     14  O   UNL A   1      30.424  26.267  26.737  1.00  0.00    -0.274 OA
ATOM     15  C   UNL A   1      30.258  25.624  25.702  1.00  0.00     0.230 C 
ATOM     16  H   UNL A   1      30.493  23.868  24.693  1.00  0.00     0.163 HD
BRANCH  15  17
ATOM     17  C   UNL A   1      29.538  26.221  24.508  1.00  0.00     0.176 C 
BRANCH  17  18
ATOM     18  S   UNL A   1      30.678  26.987  23.318  1.00  0.00    -0.096 SA
BRANCH  18  19
ATOM     19  C   UNL A   1      31.999  25.798  23.182  1.00  0.00     0.097 A 
ATOM     20  C   UNL A   1      32.140  24.892  22.142  1.00  0.00     0.036 A 
ATOM     21  N   UNL A   1      32.862  25.834  24.224  1.00  0.00    -0.241 NA
ATOM     22  C   UNL A   1      33.220  24.012  22.158  1.00  0.00     0.013 A 
ATOM     23  C   UNL A   1      33.889  24.968  24.254  1.00  0.00     0.072 A 
ATOM     24  C   UNL A   1      34.117  24.033  23.228  1.00  0.00     0.000 A 
ATOM     25  C   UNL A   1      34.761  24.981  25.335  1.00  0.00     0.029 A 
ATOM     26  C   UNL A   1      35.209  23.149  23.300  1.00  0.00     0.010 A 
ATOM     27  C   UNL A   1      35.841  24.098  25.419  1.00  0.00     0.002 A 
ATOM     28  C   UNL A   1      36.068  23.183  24.397  1.00  0.00     0.001 A 
ENDBRANCH  18  19
ENDBRANCH  17  18
ENDBRANCH  15  17
ENDBRANCH  12  13
ENDBRANCH   7  12
ENDBRANCH   3   6
ENDBRANCH   1   2
BRANCH   1  29
ATOM     29  C   UNL A   1      38.100  19.574  24.839  1.00  0.00     0.042 C 
BRANCH  29  30
ATOM     30  C   UNL A   1      39.082  20.144  25.857  1.00  0.00     0.118 C 
BRANCH  30  31
ATOM     31  N   UNL A   1      40.254  19.297  26.005  1.00  0.00    -0.352 N 
ATOM     32  C   UNL A   1      41.575  19.635  26.160  1.00  0.00     0.251 C 
ATOM     33  H   UNL A   1      40.072  18.330  25.992  1.00  0.00     0.163 HD
ATOM     34  O   UNL A   1      42.424  18.758  26.024  1.00  0.00    -0.269 OA
BRANCH  32  35
ATOM     35  C   UNL A   1      41.986  21.023  26.478  1.00  0.00     0.039 A 
ATOM     36  C   UNL A   1      42.149  21.926  25.422  1.00  0.00     0.014 A 
ATOM     37  C   UNL A   1      42.296  21.423  27.782  1.00  0.00     0.014 A 
ATOM     38  C   UNL A   1      42.606  23.224  25.672  1.00  0.00     0.010 A 
ATOM     39  C   UNL A   1      42.688  22.737  28.039  1.00  0.00     0.010 A 
ATOM     40  C   UNL A   1      42.873  23.644  26.983  1.00  0.00    -0.014 A 
BRANCH  40  41
ATOM     41  C   UNL A   1      43.413  25.003  27.258  1.00  0.00     0.031 A 
ATOM     42  C   UNL A   1      42.511  26.060  27.845  1.00  0.00     0.074 A 
ATOM     43  C   UNL A   1      44.691  25.296  26.951  1.00  0.00     0.049 A 
ATOM     44  N   UNL A   1      42.763  27.319  28.095  1.00  0.00    -0.248 NA
ATOM     45  C   UNL A   1      41.135  25.650  28.165  1.00  0.00     0.031 C 
ATOM     46  C   UNL A   1      45.652  24.364  26.354  1.00  0.00     0.029 A 
ATOM     47  N   UNL A   1      45.405  26.459  27.091  1.00  0.00    -0.354 N 
ATOM     48  C   UNL A   1      41.573  27.858  28.575  1.00  0.00     0.074 A 
ATOM     49  C   UNL A   1      40.588  26.798  28.537  1.00  0.00     0.031 C 
ATOM     50  C   UNL A   1      46.830  24.989  26.196  1.00  0.00     0.029 A 
ATOM     51  C   UNL A   1      46.703  26.372  26.643  1.00  0.00     0.049 A 
ATOM     52  H   UNL A   1      45.023  27.282  27.477  1.00  0.00     0.167 HD
ATOM     53  C   UNL A   1      41.328  29.114  29.024  1.00  0.00     0.034 A 
ATOM     54  C   UNL A   1      47.676  27.306  26.591  1.00  0.00     0.034 A 
ATOM     55  C   UNL A   1      42.331  30.150  29.089  1.00  0.00     0.049 A 
ATOM     56  C   UNL A   1      47.384  28.689  27.117  1.00  0.00     0.074 A 
ATOM     57  C   UNL A   1      42.206  31.442  29.572  1.00  0.00     0.029 A 
ATOM     58  N   UNL A   1      43.645  30.011  28.664  1.00  0.00    -0.354 N 
ATOM     59  N   UNL A   1      46.263  29.168  27.610  1.00  0.00    -0.248 NA
ATOM     60  C   UNL A   1      48.492  29.652  27.104  1.00  0.00     0.031 C 
ATOM     61  C   UNL A   1      43.428  32.099  29.390  1.00  0.00     0.029 A 
ATOM     62  C   UNL A   1      44.336  31.196  28.859  1.00  0.00     0.049 A 
ATOM     63  H   UNL A   1      44.030  29.190  28.279  1.00  0.00     0.167 HD
ATOM     64  C   UNL A   1      46.550  30.472  28.005  1.00  0.00     0.074 A 
ATOM     65  C   UNL A   1      47.949  30.698  27.706  1.00  0.00     0.031 C 
ATOM     66  C   UNL A   1      45.734  31.399  28.569  1.00  0.00     0.034 A 
BRANCH  53  67
ATOM     67  C   UNL A   1      39.918  29.444  29.452  1.00  0.00     0.023 A 
ATOM     68  C   UNL A   1      39.558  29.544  30.806  1.00  0.00     0.031 A 
ATOM     69  C   UNL A   1      38.917  29.657  28.487  1.00  0.00     0.131 A 
ATOM     70  C   UNL A   1      38.221  29.785  31.160  1.00  0.00     0.055 A 
ATOM     71  C   UNL A   1      37.605  29.973  28.845  1.00  0.00     0.041 A 
ATOM     72  F   UNL A   1      39.197  29.557  27.178  1.00  0.00    -0.206 F 
ATOM     73  C   UNL A   1      37.248  30.026  30.189  1.00  0.00     0.022 A 
BRANCH  70  74
ATOM     74  S   UNL A   1      37.750  29.665  32.907  1.00  0.00     0.124 S 
ATOM     75  O   UNL A   1      36.650  30.625  32.980  1.00  0.00    -0.237 OA
ATOM     76  O   UNL A   1      37.383  28.261  33.041  1.00  0.00    -0.237 OA
ATOM     77  O   UNL A   1      38.962  30.064  33.618  1.00  0.00    -0.744 OA
ENDBRANCH  70  74
ENDBRANCH  53  67
BRANCH  54  78
ATOM     78  C   UNL A   1      49.017  26.979  26.026  1.00  0.00     0.023 A 
ATOM     79  C   UNL A   1      49.375  27.390  24.731  1.00  0.00     0.031 A 
ATOM     80  C   UNL A   1      49.934  26.189  26.741  1.00  0.00     0.131 A 
ATOM     81  C   UNL A   1      50.583  26.955  24.166  1.00  0.00     0.055 A 
ATOM     82  C   UNL A   1      51.162  25.808  26.197  1.00  0.00     0.041 A 
ATOM     83  F   UNL A   1      49.648  25.775  27.986  1.00  0.00    -0.206 F 
ATOM     84  C   UNL A   1      51.484  26.175  24.894  1.00  0.00     0.022 A 
BRANCH  81  85
ATOM     85  S   UNL A   1      50.906  27.324  22.420  1.00  0.00     0.124 S 
ATOM     86  O   UNL A   1      49.766  26.691  21.765  1.00  0.00    -0.237 OA
ATOM     87  O   UNL A   1      50.918  28.784  22.418  1.00  0.00    -0.237 OA
ATOM     88  O   UNL A   1      52.200  26.691  22.171  1.00  0.00    -0.744 OA
ENDBRANCH  81  85
ENDBRANCH  54  78
BRANCH  66  89
ATOM     89  C   UNL A   1      46.362  32.713  28.966  1.00  0.00     0.023 A 
ATOM     90  C   UNL A   1      46.320  33.841  28.130  1.00  0.00     0.031 A 
ATOM     91  C   UNL A   1      47.035  32.823  30.197  1.00  0.00     0.131 A 
ATOM     92  C   UNL A   1      46.996  35.013  28.505  1.00  0.00     0.055 A 
ATOM     93  C   UNL A   1      47.653  34.011  30.591  1.00  0.00     0.041 A 
ATOM     94  F   UNL A   1      47.105  31.776  31.034  1.00  0.00    -0.206 F 
ATOM     95  C   UNL A   1      47.648  35.109  29.736  1.00  0.00     0.022 A 
BRANCH  92  96
ATOM     96  S   UNL A   1      47.099  36.376  27.313  1.00  0.00     0.124 S 
ATOM     97  O   UNL A   1      48.219  35.963  26.474  1.00  0.00    -0.237 OA
ATOM     98  O   UNL A   1      45.783  36.338  26.683  1.00  0.00    -0.237 OA
ATOM     99  O   UNL A   1      47.351  37.547  28.152  1.00  0.00    -0.744 OA
ENDBRANCH  92  96
ENDBRANCH  66  89
ENDBRANCH  40  41
ENDBRANCH  32  35
ENDBRANCH  30  31
ENDBRANCH  29  30
ENDBRANCH   1  29
TORSDOF 18
ENDMDL
