MODEL 1
REMARK VINA RESULT:     -13.7      0.000      0.000
REMARK SMILES Cc1n[nH]c(C[N@H+]2CCC[C@H](c3cccc(C(=O)NCCCNC(=O)c4ccc(-c5c6nc(c(-c7cc(S(=O)(=O)[O-])ccc7F)c7ccc([nH]7)c(-c7cc(S(=O)(=O)[O-])ccc7F)c7nc(c(-c8cc(S(=O)(=O)[O-])ccc8F)c8ccc5[nH]8)C=C7)C=C6)cc4)c3)C2)n1
REMARK SMILES IDX 21 1 20 2 19 3 17 4 18 5 16 7 12 8 13 9 89 10 14 11 15 12
REMARK SMILES IDX 11 13 7 14 8 15 90 16 9 18 10 19 6 20 5 21 1 22 2 23 3 24
REMARK SMILES IDX 91 25 4 26 22 28 23 29 24 30 25 32 26 33 27 34 88 35 28 36
REMARK SMILES IDX 87 37 29 38 30 39 31 40 81 41 32 42 86 43 80 44 82 45 33 46
REMARK SMILES IDX 85 47 79 48 78 49 34 51 66 52 46 53 65 54 47 55 50 56 64 57
REMARK SMILES IDX 83 58 48 59 49 60 63 62 84 63 51 64 35 65 36 66 44 67 37 68
REMARK SMILES IDX 43 69 45 70 42 71 38 72 39 73 40 74 41 75 67 76 68 77 76 78
REMARK SMILES IDX 69 79 75 80 77 81 74 82 70 83 71 84 72 85 73 86 52 87 53 88
REMARK SMILES IDX 61 89 54 90 60 91 62 92 59 93 55 94 56 95 57 96 58 97
REMARK H PARENT 19 6 7 17 4 27 23 31 82 50 50 61
REMARK Flexibility Score: inf
ROOT
ATOM      1  C   UNL A   1      34.228  30.636  27.262  1.00  0.00     0.042 C 
ENDROOT
BRANCH   1   2
ATOM      2  C   UNL A   1      33.185  29.845  26.452  1.00  0.00     0.118 C 
BRANCH   2   3
ATOM      3  N   UNL A   1      33.660  29.457  25.130  1.00  0.00    -0.352 N 
ATOM      4  C   UNL A   1      33.628  28.276  24.423  1.00  0.00     0.251 C 
ATOM      5  O   UNL A   1      33.971  28.320  23.240  1.00  0.00    -0.269 OA
ATOM      6  H   UNL A   1      34.094  30.192  24.641  1.00  0.00     0.163 HD
BRANCH   4   7
ATOM      7  C   UNL A   1      33.190  26.964  24.986  1.00  0.00     0.040 A 
ATOM      8  C   UNL A   1      33.564  24.598  25.535  1.00  0.00    -0.039 A 
ATOM      9  C   UNL A   1      32.294  24.541  26.113  1.00  0.00     0.004 A 
ATOM     10  C   UNL A   1      33.952  25.803  24.932  1.00  0.00     0.018 A 
ATOM     11  C   UNL A   1      31.472  25.671  26.123  1.00  0.00     0.001 A 
ATOM     12  C   UNL A   1      31.924  26.878  25.581  1.00  0.00     0.014 A 
BRANCH   8  13
ATOM     13  C   UNL A   1      34.558  23.443  25.479  1.00  0.00     0.074 C 
ATOM     14  N   UNL A   1      33.041  21.451  25.310  1.00  0.00    -0.328 N 
ATOM     15  C   UNL A   1      33.432  20.980  26.643  1.00  0.00     0.262 C 
ATOM     16  C   UNL A   1      34.125  22.216  24.660  1.00  0.00     0.270 C 
ATOM     17  H   UNL A   1      32.256  22.086  25.458  1.00  0.00     0.348 HD
ATOM     18  C   UNL A   1      33.879  22.132  27.544  1.00  0.00     0.062 C 
ATOM     19  C   UNL A   1      34.983  22.953  26.885  1.00  0.00     0.020 C 
BRANCH  14  20
ATOM     20  C   UNL A   1      32.538  20.377  24.436  1.00  0.00     0.340 C 
BRANCH  20  21
ATOM     21  C   UNL A   1      32.961  19.007  24.843  1.00  0.00     0.179 A 
ATOM     22  C   UNL A   1      32.529  15.610  25.649  1.00  0.00     0.092 C 
ATOM     23  C   UNL A   1      33.035  16.957  25.326  1.00  0.00     0.147 A 
ATOM     24  N   UNL A   1      34.281  17.201  24.901  1.00  0.00    -0.159 NA
ATOM     25  N   UNL A   1      32.218  18.050  25.363  1.00  0.00    -0.211 NA
ATOM     26  N   UNL A   1      34.213  18.513  24.617  1.00  0.00    -0.258 N 
ATOM     27  H   UNL A   1      34.970  19.050  24.288  1.00  0.00     0.192 HD
ENDBRANCH  20  21
ENDBRANCH  14  20
ENDBRANCH   8  13
ENDBRANCH   4   7
ENDBRANCH   2   3
ENDBRANCH   1   2
BRANCH   1  28
ATOM     28  C   UNL A   1      35.286  29.749  27.891  1.00  0.00     0.118 C 
BRANCH  28  29
ATOM     29  N   UNL A   1      35.527  30.095  29.294  1.00  0.00    -0.352 N 
ATOM     30  C   UNL A   1      36.514  29.633  30.152  1.00  0.00     0.251 C 
ATOM     31  H   UNL A   1      34.899  30.746  29.683  1.00  0.00     0.163 HD
ATOM     32  O   UNL A   1      36.385  29.742  31.356  1.00  0.00    -0.269 OA
BRANCH  30  33
ATOM     33  C   UNL A   1      37.705  28.994  29.563  1.00  0.00     0.039 A 
ATOM     34  C   UNL A   1      38.356  29.541  28.455  1.00  0.00     0.014 A 
ATOM     35  C   UNL A   1      38.212  27.872  30.207  1.00  0.00     0.014 A 
ATOM     36  C   UNL A   1      39.588  29.010  28.076  1.00  0.00     0.010 A 
ATOM     37  C   UNL A   1      39.501  27.487  29.959  1.00  0.00     0.010 A 
ATOM     38  C   UNL A   1      40.175  28.004  28.859  1.00  0.00    -0.014 A 
BRANCH  38  39
ATOM     39  C   UNL A   1      41.549  27.561  28.632  1.00  0.00     0.031 A 
ATOM     40  C   UNL A   1      41.672  26.315  27.831  1.00  0.00     0.074 A 
ATOM     41  C   UNL A   1      42.623  28.335  28.903  1.00  0.00     0.049 A 
ATOM     42  N   UNL A   1      42.049  25.152  28.244  1.00  0.00    -0.248 NA
ATOM     43  C   UNL A   1      41.161  26.309  26.449  1.00  0.00     0.031 C 
ATOM     44  C   UNL A   1      42.648  29.711  29.417  1.00  0.00     0.029 A 
ATOM     45  N   UNL A   1      43.938  28.098  28.650  1.00  0.00    -0.354 N 
ATOM     46  C   UNL A   1      42.080  24.333  27.121  1.00  0.00     0.074 A 
ATOM     47  C   UNL A   1      41.310  25.022  26.120  1.00  0.00     0.031 C 
ATOM     48  C   UNL A   1      43.862  30.260  29.195  1.00  0.00     0.029 A 
ATOM     49  C   UNL A   1      44.752  29.228  28.697  1.00  0.00     0.049 A 
ATOM     50  H   UNL A   1      44.287  27.198  28.451  1.00  0.00     0.167 HD
ATOM     51  C   UNL A   1      42.953  23.289  27.038  1.00  0.00     0.034 A 
ATOM     52  C   UNL A   1      46.060  29.322  28.336  1.00  0.00     0.034 A 
ATOM     53  C   UNL A   1      43.527  23.000  28.338  1.00  0.00     0.049 A 
ATOM     54  C   UNL A   1      46.612  27.946  28.405  1.00  0.00     0.074 A 
ATOM     55  C   UNL A   1      42.999  22.684  29.576  1.00  0.00     0.029 A 
ATOM     56  N   UNL A   1      44.813  23.432  28.589  1.00  0.00    -0.354 N 
ATOM     57  N   UNL A   1      46.708  27.275  29.522  1.00  0.00    -0.248 NA
ATOM     58  C   UNL A   1      46.567  27.128  27.200  1.00  0.00     0.031 C 
ATOM     59  C   UNL A   1      43.778  23.437  30.505  1.00  0.00     0.029 A 
ATOM     60  C   UNL A   1      44.798  24.081  29.800  1.00  0.00     0.049 A 
ATOM     61  H   UNL A   1      45.596  23.300  28.007  1.00  0.00     0.167 HD
ATOM     62  C   UNL A   1      46.278  25.995  29.209  1.00  0.00     0.074 A 
ATOM     63  C   UNL A   1      46.310  25.935  27.746  1.00  0.00     0.031 C 
ATOM     64  C   UNL A   1      45.655  25.204  30.136  1.00  0.00     0.034 A 
BRANCH  51  65
ATOM     65  C   UNL A   1      43.587  22.771  25.763  1.00  0.00     0.023 A 
ATOM     66  C   UNL A   1      43.697  21.372  25.629  1.00  0.00     0.031 A 
ATOM     67  C   UNL A   1      44.331  23.530  24.833  1.00  0.00     0.131 A 
ATOM     68  C   UNL A   1      44.599  20.797  24.717  1.00  0.00     0.055 A 
ATOM     69  C   UNL A   1      45.174  22.952  23.877  1.00  0.00     0.041 A 
ATOM     70  F   UNL A   1      44.365  24.867  24.844  1.00  0.00    -0.206 F 
ATOM     71  C   UNL A   1      45.342  21.579  23.839  1.00  0.00     0.022 A 
BRANCH  68  72
ATOM     72  S   UNL A   1      44.924  19.021  24.841  1.00  0.00     0.124 S 
ATOM     73  O   UNL A   1      43.763  18.565  25.600  1.00  0.00    -0.237 OA
ATOM     74  O   UNL A   1      44.972  18.627  23.438  1.00  0.00    -0.237 OA
ATOM     75  O   UNL A   1      46.198  18.959  25.553  1.00  0.00    -0.744 OA
ENDBRANCH  68  72
ENDBRANCH  51  65
BRANCH  52  76
ATOM     76  C   UNL A   1      46.739  30.472  27.674  1.00  0.00     0.023 A 
ATOM     77  C   UNL A   1      46.047  31.483  26.971  1.00  0.00     0.031 A 
ATOM     78  C   UNL A   1      48.109  30.716  27.936  1.00  0.00     0.131 A 
ATOM     79  C   UNL A   1      46.721  32.662  26.564  1.00  0.00     0.055 A 
ATOM     80  C   UNL A   1      48.768  31.878  27.530  1.00  0.00     0.041 A 
ATOM     81  F   UNL A   1      48.836  29.863  28.675  1.00  0.00    -0.206 F 
ATOM     82  C   UNL A   1      48.073  32.862  26.849  1.00  0.00     0.022 A 
BRANCH  79  83
ATOM     83  S   UNL A   1      45.819  34.011  25.731  1.00  0.00     0.124 S 
ATOM     84  O   UNL A   1      45.231  34.734  26.853  1.00  0.00    -0.237 OA
ATOM     85  O   UNL A   1      46.880  34.697  25.001  1.00  0.00    -0.237 OA
ATOM     86  O   UNL A   1      44.855  33.307  24.883  1.00  0.00    -0.744 OA
ENDBRANCH  79  83
ENDBRANCH  52  76
BRANCH  64  87
ATOM     87  C   UNL A   1      45.677  25.634  31.593  1.00  0.00     0.023 A 
ATOM     88  C   UNL A   1      46.767  25.460  32.478  1.00  0.00     0.031 A 
ATOM     89  C   UNL A   1      44.577  26.376  32.060  1.00  0.00     0.131 A 
ATOM     90  C   UNL A   1      46.722  26.012  33.776  1.00  0.00     0.055 A 
ATOM     91  C   UNL A   1      44.546  26.941  33.335  1.00  0.00     0.041 A 
ATOM     92  F   UNL A   1      43.520  26.603  31.262  1.00  0.00    -0.206 F 
ATOM     93  C   UNL A   1      45.616  26.756  34.200  1.00  0.00     0.022 A 
BRANCH  90  94
ATOM     94  S   UNL A   1      48.095  25.760  34.949  1.00  0.00     0.124 S 
ATOM     95  O   UNL A   1      47.640  26.434  36.159  1.00  0.00    -0.237 OA
ATOM     96  O   UNL A   1      48.186  24.303  35.023  1.00  0.00    -0.237 OA
ATOM     97  O   UNL A   1      49.231  26.404  34.285  1.00  0.00    -0.744 OA
ENDBRANCH  90  94
ENDBRANCH  64  87
ENDBRANCH  38  39
ENDBRANCH  30  33
ENDBRANCH  28  29
ENDBRANCH   1  28
TORSDOF 16
ENDMDL
MODEL 2
REMARK VINA RESULT:     -13.7      1.306      2.242
REMARK SMILES Cc1n[nH]c(C[N@H+]2CCC[C@H](c3cccc(C(=O)NCCCNC(=O)c4ccc(-c5c6nc(c(-c7cc(S(=O)(=O)[O-])ccc7F)c7ccc([nH]7)c(-c7cc(S(=O)(=O)[O-])ccc7F)c7nc(c(-c8cc(S(=O)(=O)[O-])ccc8F)c8ccc5[nH]8)C=C7)C=C6)cc4)c3)C2)n1
REMARK SMILES IDX 21 1 20 2 19 3 17 4 18 5 16 7 12 8 13 9 89 10 14 11 15 12
REMARK SMILES IDX 11 13 7 14 8 15 90 16 9 18 10 19 6 20 5 21 1 22 2 23 3 24
REMARK SMILES IDX 91 25 4 26 22 28 23 29 24 30 25 32 26 33 27 34 88 35 28 36
REMARK SMILES IDX 87 37 29 38 30 39 31 40 81 41 32 42 86 43 80 44 82 45 33 46
REMARK SMILES IDX 85 47 79 48 78 49 34 51 66 52 46 53 65 54 47 55 50 56 64 57
REMARK SMILES IDX 83 58 48 59 49 60 63 62 84 63 51 64 35 65 36 66 44 67 37 68
REMARK SMILES IDX 43 69 45 70 42 71 38 72 39 73 40 74 41 75 67 76 68 77 76 78
REMARK SMILES IDX 69 79 75 80 77 81 74 82 70 83 71 84 72 85 73 86 52 87 53 88
REMARK SMILES IDX 61 89 54 90 60 91 62 92 59 93 55 94 56 95 57 96 58 97
REMARK H PARENT 19 6 7 17 4 27 23 31 82 50 50 61
REMARK Flexibility Score: inf
ROOT
ATOM      1  C   UNL A   1      33.916  29.951  27.145  1.00  0.00     0.042 C 
ENDROOT
BRANCH   1   2
ATOM      2  C   UNL A   1      33.087  28.710  26.770  1.00  0.00     0.118 C 
BRANCH   2   3
ATOM      3  N   UNL A   1      33.249  28.312  25.377  1.00  0.00    -0.352 N 
ATOM      4  C   UNL A   1      32.936  27.168  24.678  1.00  0.00     0.251 C 
ATOM      5  O   UNL A   1      33.050  27.211  23.451  1.00  0.00    -0.269 OA
ATOM      6  H   UNL A   1      33.671  29.006  24.821  1.00  0.00     0.163 HD
BRANCH   4   7
ATOM      7  C   UNL A   1      32.454  25.900  25.301  1.00  0.00     0.040 A 
ATOM      8  C   UNL A   1      32.821  23.789  26.505  1.00  0.00    -0.039 A 
ATOM      9  C   UNL A   1      31.445  23.554  26.492  1.00  0.00     0.004 A 
ATOM     10  C   UNL A   1      33.292  24.938  25.851  1.00  0.00     0.018 A 
ATOM     11  C   UNL A   1      30.578  24.467  25.887  1.00  0.00     0.001 A 
ATOM     12  C   UNL A   1      31.077  25.640  25.313  1.00  0.00     0.014 A 
BRANCH   8  13
ATOM     13  C   UNL A   1      33.865  22.883  27.148  1.00  0.00     0.074 C 
ATOM     14  N   UNL A   1      35.409  22.413  25.226  1.00  0.00    -0.328 N 
ATOM     15  C   UNL A   1      35.021  20.999  25.197  1.00  0.00     0.262 C 
ATOM     16  C   UNL A   1      35.291  22.986  26.583  1.00  0.00     0.270 C 
ATOM     17  H   UNL A   1      34.742  22.898  24.624  1.00  0.00     0.348 HD
ATOM     18  C   UNL A   1      33.605  20.787  25.738  1.00  0.00     0.062 C 
ATOM     19  C   UNL A   1      33.451  21.391  27.131  1.00  0.00     0.020 C 
BRANCH  14  20
ATOM     20  C   UNL A   1      36.740  22.664  24.647  1.00  0.00     0.340 C 
BRANCH  20  21
ATOM     21  C   UNL A   1      37.870  22.105  25.443  1.00  0.00     0.179 A 
ATOM     22  C   UNL A   1      40.559  19.947  26.140  1.00  0.00     0.092 C 
ATOM     23  C   UNL A   1      39.539  21.011  26.121  1.00  0.00     0.147 A 
ATOM     24  N   UNL A   1      39.653  22.163  26.793  1.00  0.00    -0.159 NA
ATOM     25  N   UNL A   1      38.427  20.916  25.334  1.00  0.00    -0.211 NA
ATOM     26  N   UNL A   1      38.572  22.834  26.358  1.00  0.00    -0.258 N 
ATOM     27  H   UNL A   1      38.320  23.736  26.661  1.00  0.00     0.192 HD
ENDBRANCH  20  21
ENDBRANCH  14  20
ENDBRANCH   8  13
ENDBRANCH   4   7
ENDBRANCH   2   3
ENDBRANCH   1   2
BRANCH   1  28
ATOM     28  C   UNL A   1      35.312  29.606  27.630  1.00  0.00     0.118 C 
BRANCH  28  29
ATOM     29  N   UNL A   1      35.530  30.027  29.017  1.00  0.00    -0.352 N 
ATOM     30  C   UNL A   1      36.518  29.631  29.906  1.00  0.00     0.251 C 
ATOM     31  H   UNL A   1      34.883  30.682  29.366  1.00  0.00     0.163 HD
ATOM     32  O   UNL A   1      36.373  29.797  31.102  1.00  0.00    -0.269 OA
BRANCH  30  33
ATOM     33  C   UNL A   1      37.729  28.992  29.361  1.00  0.00     0.039 A 
ATOM     34  C   UNL A   1      38.410  29.527  28.266  1.00  0.00     0.014 A 
ATOM     35  C   UNL A   1      38.223  27.881  30.035  1.00  0.00     0.014 A 
ATOM     36  C   UNL A   1      39.656  28.999  27.931  1.00  0.00     0.010 A 
ATOM     37  C   UNL A   1      39.520  27.499  29.831  1.00  0.00     0.010 A 
ATOM     38  C   UNL A   1      40.224  28.006  28.744  1.00  0.00    -0.014 A 
BRANCH  38  39
ATOM     39  C   UNL A   1      41.607  27.568  28.565  1.00  0.00     0.031 A 
ATOM     40  C   UNL A   1      41.762  26.328  27.759  1.00  0.00     0.074 A 
ATOM     41  C   UNL A   1      42.669  28.342  28.881  1.00  0.00     0.049 A 
ATOM     42  N   UNL A   1      42.126  25.163  28.177  1.00  0.00    -0.248 NA
ATOM     43  C   UNL A   1      41.302  26.331  26.360  1.00  0.00     0.031 C 
ATOM     44  C   UNL A   1      42.671  29.714  29.406  1.00  0.00     0.029 A 
ATOM     45  N   UNL A   1      43.993  28.109  28.674  1.00  0.00    -0.354 N 
ATOM     46  C   UNL A   1      42.200  24.353  27.049  1.00  0.00     0.074 A 
ATOM     47  C   UNL A   1      41.466  25.048  26.027  1.00  0.00     0.031 C 
ATOM     48  C   UNL A   1      43.891  30.267  29.232  1.00  0.00     0.029 A 
ATOM     49  C   UNL A   1      44.801  29.241  28.759  1.00  0.00     0.049 A 
ATOM     50  H   UNL A   1      44.351  27.212  28.481  1.00  0.00     0.167 HD
ATOM     51  C   UNL A   1      43.079  23.311  26.991  1.00  0.00     0.034 A 
ATOM     52  C   UNL A   1      46.121  29.341  28.447  1.00  0.00     0.034 A 
ATOM     53  C   UNL A   1      43.605  23.013  28.308  1.00  0.00     0.049 A 
ATOM     54  C   UNL A   1      46.674  27.965  28.526  1.00  0.00     0.074 A 
ATOM     55  C   UNL A   1      43.033  22.686  29.524  1.00  0.00     0.029 A 
ATOM     56  N   UNL A   1      44.880  23.446  28.610  1.00  0.00    -0.354 N 
ATOM     57  N   UNL A   1      46.731  27.286  29.641  1.00  0.00    -0.248 NA
ATOM     58  C   UNL A   1      46.675  27.157  27.314  1.00  0.00     0.031 C 
ATOM     59  C   UNL A   1      43.775  23.434  30.487  1.00  0.00     0.029 A 
ATOM     60  C   UNL A   1      44.820  24.085  29.825  1.00  0.00     0.049 A 
ATOM     61  H   UNL A   1      45.684  23.320  28.056  1.00  0.00     0.167 HD
ATOM     62  C   UNL A   1      46.316  26.007  29.302  1.00  0.00     0.074 A 
ATOM     63  C   UNL A   1      46.400  25.958  27.841  1.00  0.00     0.031 C 
ATOM     64  C   UNL A   1      45.661  25.208  30.199  1.00  0.00     0.034 A 
BRANCH  51  65
ATOM     65  C   UNL A   1      43.760  22.804  25.735  1.00  0.00     0.023 A 
ATOM     66  C   UNL A   1      43.812  21.407  25.559  1.00  0.00     0.031 A 
ATOM     67  C   UNL A   1      44.591  23.556  24.875  1.00  0.00     0.131 A 
ATOM     68  C   UNL A   1      44.737  20.818  24.680  1.00  0.00     0.055 A 
ATOM     69  C   UNL A   1      45.459  22.969  23.949  1.00  0.00     0.041 A 
ATOM     70  F   UNL A   1      44.685  24.888  24.935  1.00  0.00    -0.206 F 
ATOM     71  C   UNL A   1      45.565  21.591  23.873  1.00  0.00     0.022 A 
BRANCH  68  72
ATOM     72  S   UNL A   1      44.972  19.025  24.760  1.00  0.00     0.124 S 
ATOM     73  O   UNL A   1      44.973  18.668  23.345  1.00  0.00    -0.237 OA
ATOM     74  O   UNL A   1      46.251  18.922  25.452  1.00  0.00    -0.237 OA
ATOM     75  O   UNL A   1      43.811  18.566  25.520  1.00  0.00    -0.744 OA
ENDBRANCH  68  72
ENDBRANCH  51  65
BRANCH  52  76
ATOM     76  C   UNL A   1      46.822  30.497  27.819  1.00  0.00     0.023 A 
ATOM     77  C   UNL A   1      46.157  31.494  27.072  1.00  0.00     0.031 A 
ATOM     78  C   UNL A   1      48.171  30.761  28.158  1.00  0.00     0.131 A 
ATOM     79  C   UNL A   1      46.837  32.682  26.698  1.00  0.00     0.055 A 
ATOM     80  C   UNL A   1      48.835  31.930  27.784  1.00  0.00     0.041 A 
ATOM     81  F   UNL A   1      48.866  29.922  28.942  1.00  0.00    -0.206 F 
ATOM     82  C   UNL A   1      48.167  32.902  27.059  1.00  0.00     0.022 A 
BRANCH  79  83
ATOM     83  S   UNL A   1      45.965  34.014  25.807  1.00  0.00     0.124 S 
ATOM     84  O   UNL A   1      47.031  34.600  25.002  1.00  0.00    -0.237 OA
ATOM     85  O   UNL A   1      44.931  33.284  25.082  1.00  0.00    -0.237 OA
ATOM     86  O   UNL A   1      45.464  34.874  26.881  1.00  0.00    -0.744 OA
ENDBRANCH  79  83
ENDBRANCH  52  76
BRANCH  64  87
ATOM     87  C   UNL A   1      45.628  25.627  31.660  1.00  0.00     0.023 A 
ATOM     88  C   UNL A   1      46.681  25.436  32.586  1.00  0.00     0.031 A 
ATOM     89  C   UNL A   1      44.518  26.376  32.089  1.00  0.00     0.131 A 
ATOM     90  C   UNL A   1      46.588  25.979  33.885  1.00  0.00     0.055 A 
ATOM     91  C   UNL A   1      44.440  26.931  33.365  1.00  0.00     0.041 A 
ATOM     92  F   UNL A   1      43.495  26.618  31.251  1.00  0.00    -0.206 F 
ATOM     93  C   UNL A   1      45.474  26.730  34.271  1.00  0.00     0.022 A 
BRANCH  90  94
ATOM     94  S   UNL A   1      47.911  25.705  35.110  1.00  0.00     0.124 S 
ATOM     95  O   UNL A   1      49.082  25.413  34.291  1.00  0.00    -0.237 OA
ATOM     96  O   UNL A   1      47.938  26.972  35.837  1.00  0.00    -0.237 OA
ATOM     97  O   UNL A   1      47.419  24.569  35.893  1.00  0.00    -0.744 OA
ENDBRANCH  90  94
ENDBRANCH  64  87
ENDBRANCH  38  39
ENDBRANCH  30  33
ENDBRANCH  28  29
ENDBRANCH   1  28
TORSDOF 16
ENDMDL
MODEL 3
REMARK VINA RESULT:     -13.5      1.657      2.144
REMARK SMILES Cc1n[nH]c(C[N@H+]2CCC[C@H](c3cccc(C(=O)NCCCNC(=O)c4ccc(-c5c6nc(c(-c7cc(S(=O)(=O)[O-])ccc7F)c7ccc([nH]7)c(-c7cc(S(=O)(=O)[O-])ccc7F)c7nc(c(-c8cc(S(=O)(=O)[O-])ccc8F)c8ccc5[nH]8)C=C7)C=C6)cc4)c3)C2)n1
REMARK SMILES IDX 21 1 20 2 19 3 17 4 18 5 16 7 12 8 13 9 89 10 14 11 15 12
REMARK SMILES IDX 11 13 7 14 8 15 90 16 9 18 10 19 6 20 5 21 1 22 2 23 3 24
REMARK SMILES IDX 91 25 4 26 22 28 23 29 24 30 25 32 26 33 27 34 88 35 28 36
REMARK SMILES IDX 87 37 29 38 30 39 31 40 81 41 32 42 86 43 80 44 82 45 33 46
REMARK SMILES IDX 85 47 79 48 78 49 34 51 66 52 46 53 65 54 47 55 50 56 64 57
REMARK SMILES IDX 83 58 48 59 49 60 63 62 84 63 51 64 35 65 36 66 44 67 37 68
REMARK SMILES IDX 43 69 45 70 42 71 38 72 39 73 40 74 41 75 67 76 68 77 76 78
REMARK SMILES IDX 69 79 75 80 77 81 74 82 70 83 71 84 72 85 73 86 52 87 53 88
REMARK SMILES IDX 61 89 54 90 60 91 62 92 59 93 55 94 56 95 57 96 58 97
REMARK H PARENT 19 6 7 17 4 27 23 31 82 50 50 61
REMARK Flexibility Score: inf
ROOT
ATOM      1  C   UNL A   1      33.744  29.785  26.863  1.00  0.00     0.042 C 
ENDROOT
BRANCH   1   2
ATOM      2  C   UNL A   1      33.426  29.069  25.539  1.00  0.00     0.118 C 
BRANCH   2   3
ATOM      3  N   UNL A   1      32.332  29.689  24.801  1.00  0.00    -0.352 N 
ATOM      4  C   UNL A   1      31.205  29.191  24.185  1.00  0.00     0.251 C 
ATOM      5  O   UNL A   1      30.376  30.011  23.785  1.00  0.00    -0.269 OA
ATOM      6  H   UNL A   1      32.418  30.666  24.727  1.00  0.00     0.163 HD
BRANCH   4   7
ATOM      7  C   UNL A   1      30.918  27.739  23.992  1.00  0.00     0.040 A 
ATOM      8  C   UNL A   1      31.619  25.405  23.671  1.00  0.00    -0.039 A 
ATOM      9  C   UNL A   1      30.280  25.012  23.677  1.00  0.00     0.004 A 
ATOM     10  C   UNL A   1      31.896  26.777  23.771  1.00  0.00     0.018 A 
ATOM     11  C   UNL A   1      29.266  25.962  23.827  1.00  0.00     0.001 A 
ATOM     12  C   UNL A   1      29.584  27.312  24.003  1.00  0.00     0.014 A 
BRANCH   8  13
ATOM     13  C   UNL A   1      32.812  24.467  23.534  1.00  0.00     0.074 C 
ATOM     14  N   UNL A   1      32.819  23.301  25.757  1.00  0.00    -0.328 N 
ATOM     15  C   UNL A   1      34.083  23.938  26.142  1.00  0.00     0.262 C 
ATOM     16  C   UNL A   1      32.714  23.133  24.293  1.00  0.00     0.270 C 
ATOM     17  H   UNL A   1      32.083  23.943  26.051  1.00  0.00     0.348 HD
ATOM     18  C   UNL A   1      34.277  25.283  25.441  1.00  0.00     0.062 C 
ATOM     19  C   UNL A   1      34.150  25.141  23.927  1.00  0.00     0.020 C 
BRANCH  14  20
ATOM     20  C   UNL A   1      32.565  22.034  26.466  1.00  0.00     0.340 C 
BRANCH  20  21
ATOM     21  C   UNL A   1      32.908  20.813  25.682  1.00  0.00     0.179 A 
ATOM     22  C   UNL A   1      32.484  18.352  23.205  1.00  0.00     0.092 C 
ATOM     23  C   UNL A   1      32.960  19.239  24.283  1.00  0.00     0.147 A 
ATOM     24  N   UNL A   1      34.247  19.362  24.631  1.00  0.00    -0.159 NA
ATOM     25  N   UNL A   1      32.105  20.067  24.951  1.00  0.00    -0.211 NA
ATOM     26  N   UNL A   1      34.185  20.356  25.533  1.00  0.00    -0.258 N 
ATOM     27  H   UNL A   1      34.962  20.710  26.024  1.00  0.00     0.192 HD
ENDBRANCH  20  21
ENDBRANCH  14  20
ENDBRANCH   8  13
ENDBRANCH   4   7
ENDBRANCH   2   3
ENDBRANCH   1   2
BRANCH   1  28
ATOM     28  C   UNL A   1      35.059  29.338  27.476  1.00  0.00     0.118 C 
BRANCH  28  29
ATOM     29  N   UNL A   1      35.309  29.985  28.766  1.00  0.00    -0.352 N 
ATOM     30  C   UNL A   1      36.362  29.798  29.649  1.00  0.00     0.251 C 
ATOM     31  H   UNL A   1      34.635  30.646  29.046  1.00  0.00     0.163 HD
ATOM     32  O   UNL A   1      36.261  30.141  30.811  1.00  0.00    -0.269 OA
BRANCH  30  33
ATOM     33  C   UNL A   1      37.590  29.157  29.143  1.00  0.00     0.039 A 
ATOM     34  C   UNL A   1      38.204  29.583  27.963  1.00  0.00     0.014 A 
ATOM     35  C   UNL A   1      38.166  28.169  29.931  1.00  0.00     0.014 A 
ATOM     36  C   UNL A   1      39.466  29.081  27.649  1.00  0.00     0.010 A 
ATOM     37  C   UNL A   1      39.476  27.832  29.727  1.00  0.00     0.010 A 
ATOM     38  C   UNL A   1      40.115  28.231  28.558  1.00  0.00    -0.014 A 
BRANCH  38  39
ATOM     39  C   UNL A   1      41.514  27.846  28.382  1.00  0.00     0.031 A 
ATOM     40  C   UNL A   1      41.715  26.571  27.643  1.00  0.00     0.074 A 
ATOM     41  C   UNL A   1      42.543  28.683  28.638  1.00  0.00     0.049 A 
ATOM     42  N   UNL A   1      42.137  25.448  28.120  1.00  0.00    -0.248 NA
ATOM     43  C   UNL A   1      41.237  26.475  26.254  1.00  0.00     0.031 C 
ATOM     44  C   UNL A   1      42.490  30.081  29.086  1.00  0.00     0.029 A 
ATOM     45  N   UNL A   1      43.874  28.498  28.424  1.00  0.00    -0.354 N 
ATOM     46  C   UNL A   1      42.232  24.581  27.038  1.00  0.00     0.074 A 
ATOM     47  C   UNL A   1      41.454  25.184  25.990  1.00  0.00     0.031 C 
ATOM     48  C   UNL A   1      43.681  30.677  28.863  1.00  0.00     0.029 A 
ATOM     49  C   UNL A   1      44.631  29.668  28.434  1.00  0.00     0.049 A 
ATOM     50  H   UNL A   1      44.270  27.609  28.275  1.00  0.00     0.167 HD
ATOM     51  C   UNL A   1      43.157  23.577  27.023  1.00  0.00     0.034 A 
ATOM     52  C   UNL A   1      45.941  29.809  28.096  1.00  0.00     0.034 A 
ATOM     53  C   UNL A   1      43.713  23.378  28.347  1.00  0.00     0.049 A 
ATOM     54  C   UNL A   1      46.556  28.466  28.242  1.00  0.00     0.074 A 
ATOM     55  C   UNL A   1      43.172  23.094  29.588  1.00  0.00     0.029 A 
ATOM     56  N   UNL A   1      44.971  23.883  28.604  1.00  0.00    -0.354 N 
ATOM     57  N   UNL A   1      46.659  27.853  29.392  1.00  0.00    -0.248 NA
ATOM     58  C   UNL A   1      46.578  27.592  27.077  1.00  0.00     0.031 C 
ATOM     59  C   UNL A   1      43.893  23.927  30.496  1.00  0.00     0.029 A 
ATOM     60  C   UNL A   1      44.898  24.586  29.782  1.00  0.00     0.049 A 
ATOM     61  H   UNL A   1      45.773  23.763  28.046  1.00  0.00     0.167 HD
ATOM     62  C   UNL A   1      46.298  26.540  29.131  1.00  0.00     0.074 A 
ATOM     63  C   UNL A   1      46.366  26.414  27.674  1.00  0.00     0.031 C 
ATOM     64  C   UNL A   1      45.692  25.765  30.081  1.00  0.00     0.034 A 
BRANCH  51  65
ATOM     65  C   UNL A   1      43.844  23.032  25.787  1.00  0.00     0.023 A 
ATOM     66  C   UNL A   1      43.846  21.632  25.626  1.00  0.00     0.031 A 
ATOM     67  C   UNL A   1      44.721  23.742  24.938  1.00  0.00     0.131 A 
ATOM     68  C   UNL A   1      44.765  20.999  24.772  1.00  0.00     0.055 A 
ATOM     69  C   UNL A   1      45.585  23.113  24.036  1.00  0.00     0.041 A 
ATOM     70  F   UNL A   1      44.865  25.071  24.987  1.00  0.00    -0.206 F 
ATOM     71  C   UNL A   1      45.639  21.732  23.975  1.00  0.00     0.022 A 
BRANCH  68  72
ATOM     72  S   UNL A   1      44.929  19.199  24.874  1.00  0.00     0.124 S 
ATOM     73  O   UNL A   1      46.180  19.062  25.613  1.00  0.00    -0.237 OA
ATOM     74  O   UNL A   1      43.713  18.829  25.590  1.00  0.00    -0.237 OA
ATOM     75  O   UNL A   1      44.981  18.785  23.474  1.00  0.00    -0.744 OA
ENDBRANCH  68  72
ENDBRANCH  51  65
BRANCH  52  76
ATOM     76  C   UNL A   1      46.580  30.959  27.394  1.00  0.00     0.023 A 
ATOM     77  C   UNL A   1      45.848  32.023  26.823  1.00  0.00     0.031 A 
ATOM     78  C   UNL A   1      47.982  31.138  27.486  1.00  0.00     0.131 A 
ATOM     79  C   UNL A   1      46.516  33.192  26.376  1.00  0.00     0.055 A 
ATOM     80  C   UNL A   1      48.633  32.290  27.040  1.00  0.00     0.041 A 
ATOM     81  F   UNL A   1      48.759  30.228  28.093  1.00  0.00    -0.206 F 
ATOM     82  C   UNL A   1      47.900  33.328  26.491  1.00  0.00     0.022 A 
BRANCH  79  83
ATOM     83  S   UNL A   1      45.574  34.608  25.715  1.00  0.00     0.124 S 
ATOM     84  O   UNL A   1      45.266  34.172  24.357  1.00  0.00    -0.237 OA
ATOM     85  O   UNL A   1      44.449  34.696  26.639  1.00  0.00    -0.237 OA
ATOM     86  O   UNL A   1      46.521  35.721  25.801  1.00  0.00    -0.744 OA
ENDBRANCH  79  83
ENDBRANCH  52  76
BRANCH  64  87
ATOM     87  C   UNL A   1      45.659  26.263  31.517  1.00  0.00     0.023 A 
ATOM     88  C   UNL A   1      44.536  26.843  32.152  1.00  0.00     0.031 A 
ATOM     89  C   UNL A   1      46.792  26.009  32.311  1.00  0.00     0.131 A 
ATOM     90  C   UNL A   1      44.582  27.154  33.527  1.00  0.00     0.055 A 
ATOM     91  C   UNL A   1      46.825  26.295  33.675  1.00  0.00     0.041 A 
ATOM     92  F   UNL A   1      47.883  25.434  31.777  1.00  0.00    -0.206 F 
ATOM     93  C   UNL A   1      45.722  26.874  34.288  1.00  0.00     0.022 A 
BRANCH  90  94
ATOM     94  S   UNL A   1      43.164  27.945  34.356  1.00  0.00     0.124 S 
ATOM     95  O   UNL A   1      42.176  28.082  33.291  1.00  0.00    -0.237 OA
ATOM     96  O   UNL A   1      42.839  26.989  35.412  1.00  0.00    -0.237 OA
ATOM     97  O   UNL A   1      43.717  29.214  34.838  1.00  0.00    -0.744 OA
ENDBRANCH  90  94
ENDBRANCH  64  87
ENDBRANCH  38  39
ENDBRANCH  30  33
ENDBRANCH  28  29
ENDBRANCH   1  28
TORSDOF 16
ENDMDL
