MODEL 1
REMARK VINA RESULT:     -12.5      0.000      0.000
REMARK SMILES Cc1ccccc1-c1nc(CC(=O)NCCCNC(=O)c2ccc(-c3c4nc(c(-c5cc(S(=O)(=O)[O-])ccc5F)c5ccc([nH]5)c(-c5cc(S(=O)(=O)[O-])ccc5F)c5nc(c(-c6cc(S(=O)(=O)[O-])ccc6F)c6ccc3[nH]6)C=C5)C=C4)cc2)cs1
REMARK SMILES IDX 16 1 15 2 14 3 12 4 13 5 11 7 10 8 8 9 9 10 85 11 84 12 7 13
REMARK SMILES IDX 1 14 2 15 3 16 4 17 6 18 5 19 17 20 18 21 19 22 20 24 21 25
REMARK SMILES IDX 22 26 83 27 23 28 82 29 24 30 25 31 26 32 76 33 27 34 81 35
REMARK SMILES IDX 75 36 77 37 28 38 80 39 74 40 73 41 29 43 61 44 41 45 60 46
REMARK SMILES IDX 42 47 45 48 59 49 78 50 43 51 44 52 58 54 79 55 46 56 30 57
REMARK SMILES IDX 31 58 39 59 32 60 38 61 40 62 37 63 33 64 34 65 35 66 36 67
REMARK SMILES IDX 62 68 63 69 71 70 64 71 70 72 72 73 69 74 65 75 66 76 67 77
REMARK SMILES IDX 68 78 47 79 48 80 56 81 49 82 55 83 57 84 54 85 50 86 51 87
REMARK SMILES IDX 52 88 53 89
REMARK H PARENT 14 6 18 23 77 42 45 53
REMARK Flexibility Score: inf
ROOT
ATOM      1  C   UNL A   1      37.556  21.588  24.965  1.00  0.00     0.042 C 
ENDROOT
BRANCH   1   2
ATOM      2  C   UNL A   1      36.055  21.403  25.171  1.00  0.00     0.117 C 
BRANCH   2   3
ATOM      3  N   UNL A   1      35.610  21.889  26.472  1.00  0.00    -0.356 N 
ATOM      4  C   UNL A   1      34.336  22.058  26.938  1.00  0.00     0.226 C 
ATOM      5  O   UNL A   1      34.161  22.544  28.057  1.00  0.00    -0.275 OA
ATOM      6  H   UNL A   1      36.327  22.127  27.104  1.00  0.00     0.163 HD
BRANCH   4   7
ATOM      7  C   UNL A   1      33.149  21.652  26.083  1.00  0.00     0.157 C 
BRANCH   7   8
ATOM      8  C   UNL A   1      32.495  22.831  25.445  1.00  0.00     0.061 A 
ATOM      9  C   UNL A   1      32.570  24.848  24.516  1.00  0.00     0.123 A 
ATOM     10  N   UNL A   1      33.304  23.838  24.936  1.00  0.00    -0.241 NA
ATOM     11  S   UNL A   1      30.868  24.595  24.594  1.00  0.00    -0.122 S 
ATOM     12  C   UNL A   1      31.138  23.062  25.311  1.00  0.00     0.091 A 
BRANCH   9  13
ATOM     13  C   UNL A   1      33.113  26.115  24.008  1.00  0.00     0.013 A 
ATOM     14  C   UNL A   1      33.269  27.109  26.365  1.00  0.00     0.045 C 
ATOM     15  C   UNL A   1      33.438  27.183  24.870  1.00  0.00    -0.041 A 
ATOM     16  C   UNL A   1      33.894  28.395  24.321  1.00  0.00     0.004 A 
ATOM     17  C   UNL A   1      34.039  28.548  22.942  1.00  0.00     0.000 A 
ATOM     18  C   UNL A   1      33.262  26.291  22.619  1.00  0.00     0.011 A 
ATOM     19  C   UNL A   1      33.724  27.496  22.090  1.00  0.00     0.001 A 
ENDBRANCH   9  13
ENDBRANCH   7   8
ENDBRANCH   4   7
ENDBRANCH   2   3
ENDBRANCH   1   2
BRANCH   1  20
ATOM     20  C   UNL A   1      38.150  22.729  25.778  1.00  0.00     0.118 C 
BRANCH  20  21
ATOM     21  N   UNL A   1      39.482  22.461  26.313  1.00  0.00    -0.352 N 
ATOM     22  C   UNL A   1      40.383  23.344  26.888  1.00  0.00     0.251 C 
ATOM     23  H   UNL A   1      39.780  21.526  26.259  1.00  0.00     0.163 HD
ATOM     24  O   UNL A   1      41.494  22.969  27.228  1.00  0.00    -0.269 OA
BRANCH  22  25
ATOM     25  C   UNL A   1      39.954  24.739  27.151  1.00  0.00     0.039 A 
ATOM     26  C   UNL A   1      40.433  25.760  26.321  1.00  0.00     0.014 A 
ATOM     27  C   UNL A   1      39.239  25.048  28.303  1.00  0.00     0.014 A 
ATOM     28  C   UNL A   1      40.377  27.086  26.758  1.00  0.00     0.010 A 
ATOM     29  C   UNL A   1      39.290  26.335  28.789  1.00  0.00     0.010 A 
ATOM     30  C   UNL A   1      39.892  27.352  28.038  1.00  0.00    -0.014 A 
BRANCH  30  31
ATOM     31  C   UNL A   1      40.081  28.612  28.750  1.00  0.00     0.031 A 
ATOM     32  C   UNL A   1      39.036  29.661  28.735  1.00  0.00     0.074 A 
ATOM     33  C   UNL A   1      41.118  28.716  29.609  1.00  0.00     0.049 A 
ATOM     34  N   UNL A   1      39.203  30.868  29.157  1.00  0.00    -0.248 NA
ATOM     35  C   UNL A   1      37.701  29.434  28.194  1.00  0.00     0.031 C 
ATOM     36  C   UNL A   1      41.250  29.642  30.731  1.00  0.00     0.029 A 
ATOM     37  N   UNL A   1      42.377  28.134  29.489  1.00  0.00    -0.354 N 
ATOM     38  C   UNL A   1      37.965  31.464  29.244  1.00  0.00     0.074 A 
ATOM     39  C   UNL A   1      37.076  30.557  28.561  1.00  0.00     0.031 C 
ATOM     40  C   UNL A   1      42.548  29.753  31.054  1.00  0.00     0.029 A 
ATOM     41  C   UNL A   1      43.302  29.040  30.040  1.00  0.00     0.049 A 
ATOM     42  H   UNL A   1      42.581  27.257  29.094  1.00  0.00     0.167 HD
ATOM     43  C   UNL A   1      37.820  32.587  30.006  1.00  0.00     0.034 A 
ATOM     44  C   UNL A   1      44.281  29.598  29.270  1.00  0.00     0.034 A 
ATOM     45  C   UNL A   1      39.114  33.055  30.514  1.00  0.00     0.049 A 
ATOM     46  C   UNL A   1      44.216  31.107  29.198  1.00  0.00     0.074 A 
ATOM     47  C   UNL A   1      39.733  32.972  31.750  1.00  0.00     0.029 A 
ATOM     48  N   UNL A   1      40.083  33.491  29.617  1.00  0.00    -0.354 N 
ATOM     49  N   UNL A   1      43.162  31.814  29.497  1.00  0.00    -0.248 NA
ATOM     50  C   UNL A   1      45.340  31.934  28.776  1.00  0.00     0.031 C 
ATOM     51  C   UNL A   1      41.099  33.322  31.580  1.00  0.00     0.029 A 
ATOM     52  C   UNL A   1      41.302  33.642  30.248  1.00  0.00     0.049 A 
ATOM     53  H   UNL A   1      39.923  33.667  28.663  1.00  0.00     0.167 HD
ATOM     54  C   UNL A   1      43.427  33.149  29.305  1.00  0.00     0.074 A 
ATOM     55  C   UNL A   1      44.815  33.168  28.874  1.00  0.00     0.031 C 
ATOM     56  C   UNL A   1      42.471  34.107  29.511  1.00  0.00     0.034 A 
BRANCH  43  57
ATOM     57  C   UNL A   1      36.499  33.110  30.543  1.00  0.00     0.023 A 
ATOM     58  C   UNL A   1      35.662  33.861  29.686  1.00  0.00     0.031 A 
ATOM     59  C   UNL A   1      36.020  32.969  31.859  1.00  0.00     0.131 A 
ATOM     60  C   UNL A   1      34.502  34.505  30.155  1.00  0.00     0.055 A 
ATOM     61  C   UNL A   1      34.892  33.648  32.343  1.00  0.00     0.041 A 
ATOM     62  F   UNL A   1      36.578  32.120  32.730  1.00  0.00    -0.206 F 
ATOM     63  C   UNL A   1      34.132  34.434  31.493  1.00  0.00     0.022 A 
BRANCH  60  64
ATOM     64  S   UNL A   1      33.478  35.447  28.990  1.00  0.00     0.124 S 
ATOM     65  O   UNL A   1      32.814  36.406  29.865  1.00  0.00    -0.237 OA
ATOM     66  O   UNL A   1      34.474  35.987  28.071  1.00  0.00    -0.237 OA
ATOM     67  O   UNL A   1      32.599  34.429  28.413  1.00  0.00    -0.744 OA
ENDBRANCH  60  64
ENDBRANCH  43  57
BRANCH  44  68
ATOM     68  C   UNL A   1      44.745  28.700  28.175  1.00  0.00     0.023 A 
ATOM     69  C   UNL A   1      45.613  27.647  28.531  1.00  0.00     0.031 A 
ATOM     70  C   UNL A   1      44.053  28.602  26.959  1.00  0.00     0.131 A 
ATOM     71  C   UNL A   1      45.647  26.472  27.766  1.00  0.00     0.055 A 
ATOM     72  C   UNL A   1      44.141  27.451  26.165  1.00  0.00     0.041 A 
ATOM     73  F   UNL A   1      43.187  29.555  26.586  1.00  0.00    -0.206 F 
ATOM     74  C   UNL A   1      44.907  26.362  26.588  1.00  0.00     0.022 A 
BRANCH  71  75
ATOM     75  S   UNL A   1      46.468  25.017  28.478  1.00  0.00     0.124 S 
ATOM     76  O   UNL A   1      47.320  24.579  27.378  1.00  0.00    -0.237 OA
ATOM     77  O   UNL A   1      47.159  25.586  29.634  1.00  0.00    -0.237 OA
ATOM     78  O   UNL A   1      45.362  24.124  28.808  1.00  0.00    -0.744 OA
ENDBRANCH  71  75
ENDBRANCH  44  68
BRANCH  56  79
ATOM     79  C   UNL A   1      42.557  35.577  29.129  1.00  0.00     0.023 A 
ATOM     80  C   UNL A   1      43.360  36.514  29.795  1.00  0.00     0.031 A 
ATOM     81  C   UNL A   1      41.857  36.083  28.002  1.00  0.00     0.131 A 
ATOM     82  C   UNL A   1      43.391  37.869  29.408  1.00  0.00     0.055 A 
ATOM     83  C   UNL A   1      41.942  37.413  27.574  1.00  0.00     0.041 A 
ATOM     84  F   UNL A   1      41.065  35.306  27.248  1.00  0.00    -0.206 F 
ATOM     85  C   UNL A   1      42.701  38.322  28.288  1.00  0.00     0.022 A 
BRANCH  82  86
ATOM     86  S   UNL A   1      44.315  39.035  30.442  1.00  0.00     0.124 S 
ATOM     87  O   UNL A   1      43.939  40.319  29.858  1.00  0.00    -0.237 OA
ATOM     88  O   UNL A   1      43.780  38.766  31.773  1.00  0.00    -0.237 OA
ATOM     89  O   UNL A   1      45.710  38.646  30.243  1.00  0.00    -0.744 OA
ENDBRANCH  82  86
ENDBRANCH  56  79
ENDBRANCH  30  31
ENDBRANCH  22  25
ENDBRANCH  20  21
ENDBRANCH   1  20
TORSDOF 15
ENDMDL
MODEL 2
REMARK VINA RESULT:     -11.8      2.569      3.753
REMARK SMILES Cc1ccccc1-c1nc(CC(=O)NCCCNC(=O)c2ccc(-c3c4nc(c(-c5cc(S(=O)(=O)[O-])ccc5F)c5ccc([nH]5)c(-c5cc(S(=O)(=O)[O-])ccc5F)c5nc(c(-c6cc(S(=O)(=O)[O-])ccc6F)c6ccc3[nH]6)C=C5)C=C4)cc2)cs1
REMARK SMILES IDX 16 1 15 2 14 3 12 4 13 5 11 7 10 8 8 9 9 10 85 11 84 12 7 13
REMARK SMILES IDX 1 14 2 15 3 16 4 17 6 18 5 19 17 20 18 21 19 22 20 24 21 25
REMARK SMILES IDX 22 26 83 27 23 28 82 29 24 30 25 31 26 32 76 33 27 34 81 35
REMARK SMILES IDX 75 36 77 37 28 38 80 39 74 40 73 41 29 43 61 44 41 45 60 46
REMARK SMILES IDX 42 47 45 48 59 49 78 50 43 51 44 52 58 54 79 55 46 56 30 57
REMARK SMILES IDX 31 58 39 59 32 60 38 61 40 62 37 63 33 64 34 65 35 66 36 67
REMARK SMILES IDX 62 68 63 69 71 70 64 71 70 72 72 73 69 74 65 75 66 76 67 77
REMARK SMILES IDX 68 78 47 79 48 80 56 81 49 82 55 83 57 84 54 85 50 86 51 87
REMARK SMILES IDX 52 88 53 89
REMARK H PARENT 14 6 18 23 77 42 45 53
REMARK Flexibility Score: inf
ROOT
ATOM      1  C   UNL A   1      39.227  23.169  25.916  1.00  0.00     0.042 C 
ENDROOT
BRANCH   1   2
ATOM      2  C   UNL A   1      37.840  23.797  25.999  1.00  0.00     0.117 C 
BRANCH   2   3
ATOM      3  N   UNL A   1      36.838  22.864  26.501  1.00  0.00    -0.356 N 
ATOM      4  C   UNL A   1      35.777  22.306  25.843  1.00  0.00     0.226 C 
ATOM      5  O   UNL A   1      34.997  21.580  26.464  1.00  0.00    -0.275 OA
ATOM      6  H   UNL A   1      36.940  22.599  27.444  1.00  0.00     0.163 HD
BRANCH   4   7
ATOM      7  C   UNL A   1      35.562  22.580  24.366  1.00  0.00     0.157 C 
BRANCH   7   8
ATOM      8  C   UNL A   1      34.748  23.809  24.143  1.00  0.00     0.061 A 
ATOM      9  C   UNL A   1      33.729  25.645  24.872  1.00  0.00     0.123 A 
ATOM     10  N   UNL A   1      34.560  24.679  25.208  1.00  0.00    -0.241 NA
ATOM     11  S   UNL A   1      33.224  25.632  23.226  1.00  0.00    -0.122 S 
ATOM     12  C   UNL A   1      34.118  24.192  22.972  1.00  0.00     0.091 A 
BRANCH   9  13
ATOM     13  C   UNL A   1      33.243  26.680  25.794  1.00  0.00     0.013 A 
ATOM     14  C   UNL A   1      30.985  25.502  26.083  1.00  0.00     0.045 C 
ATOM     15  C   UNL A   1      31.953  26.622  26.361  1.00  0.00    -0.041 A 
ATOM     16  C   UNL A   1      31.517  27.675  27.186  1.00  0.00     0.004 A 
ATOM     17  C   UNL A   1      32.346  28.763  27.458  1.00  0.00     0.000 A 
ATOM     18  C   UNL A   1      34.063  27.789  26.076  1.00  0.00     0.011 A 
ATOM     19  C   UNL A   1      33.620  28.822  26.903  1.00  0.00     0.001 A 
ENDBRANCH   9  13
ENDBRANCH   7   8
ENDBRANCH   4   7
ENDBRANCH   2   3
ENDBRANCH   1   2
BRANCH   1  20
ATOM     20  C   UNL A   1      39.356  21.861  26.683  1.00  0.00     0.118 C 
BRANCH  20  21
ATOM     21  N   UNL A   1      40.322  20.922  26.121  1.00  0.00    -0.352 N 
ATOM     22  C   UNL A   1      41.705  21.008  26.094  1.00  0.00     0.251 C 
ATOM     23  H   UNL A   1      39.939  20.118  25.704  1.00  0.00     0.163 HD
ATOM     24  O   UNL A   1      42.373  20.162  25.520  1.00  0.00    -0.269 OA
BRANCH  22  25
ATOM     25  C   UNL A   1      42.371  22.106  26.836  1.00  0.00     0.039 A 
ATOM     26  C   UNL A   1      42.249  22.148  28.231  1.00  0.00     0.014 A 
ATOM     27  C   UNL A   1      42.950  23.167  26.150  1.00  0.00     0.014 A 
ATOM     28  C   UNL A   1      42.514  23.340  28.909  1.00  0.00     0.010 A 
ATOM     29  C   UNL A   1      43.095  24.374  26.797  1.00  0.00     0.010 A 
ATOM     30  C   UNL A   1      42.841  24.476  28.170  1.00  0.00    -0.014 A 
BRANCH  30  31
ATOM     31  C   UNL A   1      42.814  25.840  28.690  1.00  0.00     0.031 A 
ATOM     32  C   UNL A   1      41.635  26.711  28.485  1.00  0.00     0.074 A 
ATOM     33  C   UNL A   1      43.780  26.218  29.555  1.00  0.00     0.049 A 
ATOM     34  N   UNL A   1      41.609  27.978  28.725  1.00  0.00    -0.248 NA
ATOM     35  C   UNL A   1      40.375  26.215  27.943  1.00  0.00     0.031 C 
ATOM     36  C   UNL A   1      43.722  27.305  30.529  1.00  0.00     0.029 A 
ATOM     37  N   UNL A   1      45.112  25.815  29.563  1.00  0.00    -0.354 N 
ATOM     38  C   UNL A   1      40.296  28.392  28.683  1.00  0.00     0.074 A 
ATOM     39  C   UNL A   1      39.580  27.275  28.117  1.00  0.00     0.031 C 
ATOM     40  C   UNL A   1      44.973  27.650  30.871  1.00  0.00     0.029 A 
ATOM     41  C   UNL A   1      45.871  26.917  29.999  1.00  0.00     0.049 A 
ATOM     42  H   UNL A   1      45.458  24.930  29.311  1.00  0.00     0.167 HD
ATOM     43  C   UNL A   1      39.956  29.580  29.263  1.00  0.00     0.034 A 
ATOM     44  C   UNL A   1      46.801  27.495  29.185  1.00  0.00     0.034 A 
ATOM     45  C   UNL A   1      41.142  30.301  29.734  1.00  0.00     0.049 A 
ATOM     46  C   UNL A   1      46.530  28.952  28.884  1.00  0.00     0.074 A 
ATOM     47  C   UNL A   1      41.702  30.489  30.986  1.00  0.00     0.029 A 
ATOM     48  N   UNL A   1      42.087  30.739  28.812  1.00  0.00    -0.354 N 
ATOM     49  N   UNL A   1      45.372  29.532  29.041  1.00  0.00    -0.248 NA
ATOM     50  C   UNL A   1      47.546  29.865  28.378  1.00  0.00     0.031 C 
ATOM     51  C   UNL A   1      43.012  31.007  30.808  1.00  0.00     0.029 A 
ATOM     52  C   UNL A   1      43.237  31.158  29.451  1.00  0.00     0.049 A 
ATOM     53  H   UNL A   1      41.953  30.750  27.837  1.00  0.00     0.167 HD
ATOM     54  C   UNL A   1      45.458  30.849  28.658  1.00  0.00     0.074 A 
ATOM     55  C   UNL A   1      46.849  31.010  28.272  1.00  0.00     0.031 C 
ATOM     56  C   UNL A   1      44.367  31.677  28.688  1.00  0.00     0.034 A 
BRANCH  43  57
ATOM     57  C   UNL A   1      38.548  29.976  29.673  1.00  0.00     0.023 A 
ATOM     58  C   UNL A   1      38.012  31.193  29.193  1.00  0.00     0.031 A 
ATOM     59  C   UNL A   1      37.705  29.266  30.550  1.00  0.00     0.131 A 
ATOM     60  C   UNL A   1      36.780  31.696  29.653  1.00  0.00     0.055 A 
ATOM     61  C   UNL A   1      36.501  29.786  31.046  1.00  0.00     0.041 A 
ATOM     62  F   UNL A   1      37.968  28.008  30.923  1.00  0.00    -0.206 F 
ATOM     63  C   UNL A   1      36.037  31.015  30.610  1.00  0.00     0.022 A 
BRANCH  60  64
ATOM     64  S   UNL A   1      36.160  33.264  28.983  1.00  0.00     0.124 S 
ATOM     65  O   UNL A   1      37.337  34.122  29.060  1.00  0.00    -0.237 OA
ATOM     66  O   UNL A   1      35.723  32.879  27.646  1.00  0.00    -0.237 OA
ATOM     67  O   UNL A   1      35.079  33.621  29.903  1.00  0.00    -0.744 OA
ENDBRANCH  60  64
ENDBRANCH  43  57
BRANCH  44  68
ATOM     68  C   UNL A   1      47.443  26.525  28.252  1.00  0.00     0.023 A 
ATOM     69  C   UNL A   1      47.166  26.676  26.878  1.00  0.00     0.031 A 
ATOM     70  C   UNL A   1      48.579  25.790  28.620  1.00  0.00     0.131 A 
ATOM     71  C   UNL A   1      48.094  26.243  25.920  1.00  0.00     0.055 A 
ATOM     72  C   UNL A   1      49.471  25.304  27.655  1.00  0.00     0.041 A 
ATOM     73  F   UNL A   1      48.912  25.644  29.910  1.00  0.00    -0.206 F 
ATOM     74  C   UNL A   1      49.253  25.565  26.301  1.00  0.00     0.022 A 
BRANCH  71  75
ATOM     75  S   UNL A   1      47.878  26.811  24.209  1.00  0.00     0.124 S 
ATOM     76  O   UNL A   1      48.064  25.577  23.452  1.00  0.00    -0.237 OA
ATOM     77  O   UNL A   1      46.519  27.350  24.230  1.00  0.00    -0.237 OA
ATOM     78  O   UNL A   1      48.928  27.812  24.042  1.00  0.00    -0.744 OA
ENDBRANCH  71  75
ENDBRANCH  44  68
BRANCH  56  79
ATOM     79  C   UNL A   1      44.266  33.073  28.092  1.00  0.00     0.023 A 
ATOM     80  C   UNL A   1      44.198  34.248  28.855  1.00  0.00     0.031 A 
ATOM     81  C   UNL A   1      44.300  33.273  26.686  1.00  0.00     0.131 A 
ATOM     82  C   UNL A   1      44.090  35.516  28.250  1.00  0.00     0.055 A 
ATOM     83  C   UNL A   1      44.264  34.538  26.086  1.00  0.00     0.041 A 
ATOM     84  F   UNL A   1      44.386  32.250  25.824  1.00  0.00    -0.206 F 
ATOM     85  C   UNL A   1      44.143  35.671  26.869  1.00  0.00     0.022 A 
BRANCH  82  86
ATOM     86  S   UNL A   1      43.825  36.955  29.319  1.00  0.00     0.124 S 
ATOM     87  O   UNL A   1      45.062  37.706  29.124  1.00  0.00    -0.237 OA
ATOM     88  O   UNL A   1      42.625  37.555  28.744  1.00  0.00    -0.237 OA
ATOM     89  O   UNL A   1      43.654  36.374  30.648  1.00  0.00    -0.744 OA
ENDBRANCH  82  86
ENDBRANCH  56  79
ENDBRANCH  30  31
ENDBRANCH  22  25
ENDBRANCH  20  21
ENDBRANCH   1  20
TORSDOF 15
ENDMDL
MODEL 3
REMARK VINA RESULT:     -11.8      4.405      9.863
REMARK SMILES Cc1ccccc1-c1nc(CC(=O)NCCCNC(=O)c2ccc(-c3c4nc(c(-c5cc(S(=O)(=O)[O-])ccc5F)c5ccc([nH]5)c(-c5cc(S(=O)(=O)[O-])ccc5F)c5nc(c(-c6cc(S(=O)(=O)[O-])ccc6F)c6ccc3[nH]6)C=C5)C=C4)cc2)cs1
REMARK SMILES IDX 16 1 15 2 14 3 12 4 13 5 11 7 10 8 8 9 9 10 85 11 84 12 7 13
REMARK SMILES IDX 1 14 2 15 3 16 4 17 6 18 5 19 17 20 18 21 19 22 20 24 21 25
REMARK SMILES IDX 22 26 83 27 23 28 82 29 24 30 25 31 26 32 76 33 27 34 81 35
REMARK SMILES IDX 75 36 77 37 28 38 80 39 74 40 73 41 29 43 61 44 41 45 60 46
REMARK SMILES IDX 42 47 45 48 59 49 78 50 43 51 44 52 58 54 79 55 46 56 30 57
REMARK SMILES IDX 31 58 39 59 32 60 38 61 40 62 37 63 33 64 34 65 35 66 36 67
REMARK SMILES IDX 62 68 63 69 71 70 64 71 70 72 72 73 69 74 65 75 66 76 67 77
REMARK SMILES IDX 68 78 47 79 48 80 56 81 49 82 55 83 57 84 54 85 50 86 51 87
REMARK SMILES IDX 52 88 53 89
REMARK H PARENT 14 6 18 23 77 42 45 53
REMARK Flexibility Score: inf
ROOT
ATOM      1  C   UNL A   1      34.511  31.148  28.021  1.00  0.00     0.042 C 
ENDROOT
BRANCH   1   2
ATOM      2  C   UNL A   1      33.830  30.197  27.041  1.00  0.00     0.117 C 
BRANCH   2   3
ATOM      3  N   UNL A   1      32.718  29.477  27.650  1.00  0.00    -0.356 N 
ATOM      4  C   UNL A   1      32.304  28.191  27.435  1.00  0.00     0.226 C 
ATOM      5  O   UNL A   1      31.293  27.779  28.007  1.00  0.00    -0.275 OA
ATOM      6  H   UNL A   1      32.192  29.987  28.309  1.00  0.00     0.163 HD
BRANCH   4   7
ATOM      7  C   UNL A   1      33.083  27.284  26.499  1.00  0.00     0.157 C 
BRANCH   7   8
ATOM      8  C   UNL A   1      32.460  27.217  25.146  1.00  0.00     0.061 A 
ATOM      9  C   UNL A   1      30.984  27.900  23.632  1.00  0.00     0.123 A 
ATOM     10  N   UNL A   1      31.511  28.172  24.808  1.00  0.00    -0.241 NA
ATOM     11  S   UNL A   1      31.682  26.555  22.814  1.00  0.00    -0.122 S 
ATOM     12  C   UNL A   1      32.703  26.276  24.161  1.00  0.00     0.091 A 
BRANCH   9  13
ATOM     13  C   UNL A   1      29.884  28.657  23.020  1.00  0.00     0.013 A 
ATOM     14  C   UNL A   1      28.130  26.995  23.874  1.00  0.00     0.045 C 
ATOM     15  C   UNL A   1      28.542  28.234  23.125  1.00  0.00    -0.041 A 
ATOM     16  C   UNL A   1      27.538  28.964  22.463  1.00  0.00     0.004 A 
ATOM     17  C   UNL A   1      27.850  30.102  21.720  1.00  0.00     0.000 A 
ATOM     18  C   UNL A   1      30.179  29.805  22.260  1.00  0.00     0.011 A 
ATOM     19  C   UNL A   1      29.171  30.524  21.617  1.00  0.00     0.001 A 
ENDBRANCH   9  13
ENDBRANCH   7   8
ENDBRANCH   4   7
ENDBRANCH   2   3
ENDBRANCH   1   2
BRANCH   1  20
ATOM     20  C   UNL A   1      34.420  32.613  27.618  1.00  0.00     0.118 C 
BRANCH  20  21
ATOM     21  N   UNL A   1      33.671  33.451  28.550  1.00  0.00    -0.352 N 
ATOM     22  C   UNL A   1      34.061  33.939  29.788  1.00  0.00     0.251 C 
ATOM     23  H   UNL A   1      32.766  33.704  28.259  1.00  0.00     0.163 HD
ATOM     24  O   UNL A   1      33.283  34.578  30.480  1.00  0.00    -0.269 OA
BRANCH  22  25
ATOM     25  C   UNL A   1      35.461  33.737  30.231  1.00  0.00     0.039 A 
ATOM     26  C   UNL A   1      36.501  34.090  29.361  1.00  0.00     0.014 A 
ATOM     27  C   UNL A   1      35.733  33.048  31.407  1.00  0.00     0.014 A 
ATOM     28  C   UNL A   1      37.779  33.567  29.570  1.00  0.00     0.010 A 
ATOM     29  C   UNL A   1      36.958  32.435  31.547  1.00  0.00     0.010 A 
ATOM     30  C   UNL A   1      37.973  32.661  30.610  1.00  0.00    -0.014 A 
BRANCH  30  31
ATOM     31  C   UNL A   1      39.137  31.789  30.744  1.00  0.00     0.031 A 
ATOM     32  C   UNL A   1      39.129  30.415  30.193  1.00  0.00     0.074 A 
ATOM     33  C   UNL A   1      40.299  32.328  31.173  1.00  0.00     0.049 A 
ATOM     34  N   UNL A   1      40.022  29.519  30.444  1.00  0.00    -0.248 NA
ATOM     35  C   UNL A   1      38.066  29.922  29.324  1.00  0.00     0.031 C 
ATOM     36  C   UNL A   1      41.648  31.813  30.958  1.00  0.00     0.029 A 
ATOM     37  N   UNL A   1      40.463  33.357  32.097  1.00  0.00    -0.354 N 
ATOM     38  C   UNL A   1      39.844  28.480  29.558  1.00  0.00     0.074 A 
ATOM     39  C   UNL A   1      38.569  28.746  28.938  1.00  0.00     0.031 C 
ATOM     40  C   UNL A   1      42.470  32.345  31.876  1.00  0.00     0.029 A 
ATOM     41  C   UNL A   1      41.641  33.080  32.814  1.00  0.00     0.049 A 
ATOM     42  H   UNL A   1      39.868  34.130  32.224  1.00  0.00     0.167 HD
ATOM     43  C   UNL A   1      40.864  27.595  29.358  1.00  0.00     0.034 A 
ATOM     44  C   UNL A   1      41.606  32.851  34.159  1.00  0.00     0.034 A 
ATOM     45  C   UNL A   1      41.977  27.852  30.276  1.00  0.00     0.049 A 
ATOM     46  C   UNL A   1      42.117  31.484  34.560  1.00  0.00     0.074 A 
ATOM     47  C   UNL A   1      43.214  28.456  30.120  1.00  0.00     0.029 A 
ATOM     48  N   UNL A   1      41.785  27.699  31.644  1.00  0.00    -0.354 N 
ATOM     49  N   UNL A   1      42.231  30.473  33.744  1.00  0.00    -0.248 NA
ATOM     50  C   UNL A   1      42.534  31.155  35.917  1.00  0.00     0.031 C 
ATOM     51  C   UNL A   1      43.747  28.702  31.413  1.00  0.00     0.029 A 
ATOM     52  C   UNL A   1      42.847  28.227  32.351  1.00  0.00     0.049 A 
ATOM     53  H   UNL A   1      40.998  27.272  32.054  1.00  0.00     0.167 HD
ATOM     54  C   UNL A   1      42.702  29.377  34.427  1.00  0.00     0.074 A 
ATOM     55  C   UNL A   1      42.897  29.868  35.780  1.00  0.00     0.031 C 
ATOM     56  C   UNL A   1      42.877  28.168  33.808  1.00  0.00     0.034 A 
BRANCH  43  57
ATOM     57  C   UNL A   1      40.997  26.680  28.153  1.00  0.00     0.023 A 
ATOM     58  C   UNL A   1      41.183  25.295  28.364  1.00  0.00     0.031 A 
ATOM     59  C   UNL A   1      41.007  27.078  26.802  1.00  0.00     0.131 A 
ATOM     60  C   UNL A   1      41.468  24.412  27.304  1.00  0.00     0.055 A 
ATOM     61  C   UNL A   1      41.338  26.212  25.749  1.00  0.00     0.041 A 
ATOM     62  F   UNL A   1      40.637  28.306  26.421  1.00  0.00    -0.206 F 
ATOM     63  C   UNL A   1      41.585  24.872  25.998  1.00  0.00     0.022 A 
BRANCH  60  64
ATOM     64  S   UNL A   1      41.690  22.647  27.658  1.00  0.00     0.124 S 
ATOM     65  O   UNL A   1      42.280  22.669  28.992  1.00  0.00    -0.237 OA
ATOM     66  O   UNL A   1      40.326  22.138  27.560  1.00  0.00    -0.237 OA
ATOM     67  O   UNL A   1      42.590  22.199  26.595  1.00  0.00    -0.744 OA
ENDBRANCH  60  64
ENDBRANCH  43  57
BRANCH  44  68
ATOM     68  C   UNL A   1      40.523  33.605  34.852  1.00  0.00     0.023 A 
ATOM     69  C   UNL A   1      39.515  32.848  35.484  1.00  0.00     0.031 A 
ATOM     70  C   UNL A   1      40.691  34.940  35.245  1.00  0.00     0.131 A 
ATOM     71  C   UNL A   1      38.823  33.375  36.583  1.00  0.00     0.055 A 
ATOM     72  C   UNL A   1      39.951  35.482  36.304  1.00  0.00     0.041 A 
ATOM     73  F   UNL A   1      41.657  35.697  34.705  1.00  0.00    -0.206 F 
ATOM     74  C   UNL A   1      39.042  34.687  37.006  1.00  0.00     0.022 A 
BRANCH  71  75
ATOM     75  S   UNL A   1      37.836  32.234  37.593  1.00  0.00     0.124 S 
ATOM     76  O   UNL A   1      38.493  32.330  38.892  1.00  0.00    -0.237 OA
ATOM     77  O   UNL A   1      36.499  32.821  37.508  1.00  0.00    -0.237 OA
ATOM     78  O   UNL A   1      37.983  30.952  36.910  1.00  0.00    -0.744 OA
ENDBRANCH  71  75
ENDBRANCH  44  68
BRANCH  56  79
ATOM     79  C   UNL A   1      43.174  26.835  34.480  1.00  0.00     0.023 A 
ATOM     80  C   UNL A   1      44.467  26.364  34.748  1.00  0.00     0.031 A 
ATOM     81  C   UNL A   1      42.124  25.999  34.943  1.00  0.00     0.131 A 
ATOM     82  C   UNL A   1      44.686  25.114  35.360  1.00  0.00     0.055 A 
ATOM     83  C   UNL A   1      42.341  24.789  35.614  1.00  0.00     0.041 A 
ATOM     84  F   UNL A   1      40.833  26.322  34.781  1.00  0.00    -0.206 F 
ATOM     85  C   UNL A   1      43.630  24.330  35.814  1.00  0.00     0.022 A 
BRANCH  82  86
ATOM     86  S   UNL A   1      46.390  24.514  35.499  1.00  0.00     0.124 S 
ATOM     87  O   UNL A   1      46.780  24.388  34.098  1.00  0.00    -0.237 OA
ATOM     88  O   UNL A   1      47.041  25.590  36.241  1.00  0.00    -0.237 OA
ATOM     89  O   UNL A   1      46.256  23.252  36.223  1.00  0.00    -0.744 OA
ENDBRANCH  82  86
ENDBRANCH  56  79
ENDBRANCH  30  31
ENDBRANCH  22  25
ENDBRANCH  20  21
ENDBRANCH   1  20
TORSDOF 15
ENDMDL
