MODEL 1
REMARK VINA RESULT:     -12.5      0.000      0.000
REMARK SMILES CC(=O)c1cccc(-c2ccc(C(=O)NCCCNC(=O)c3ccc(-c4c5nc(c(-c6cc(S(=O)(=O)[O-])ccc6F)c6ccc([nH]6)c(-c6cc(S(=O)(=O)[O-])ccc6F)c6nc(c(-c7cc(S(=O)(=O)[O-])ccc7F)c7ccc4[nH]7)C=C6)C=C5)cc3)cc2F)c1
REMARK SMILES IDX 17 1 16 2 15 3 13 4 14 5 12 7 9 8 10 9 86 10 11 11 85 12
REMARK SMILES IDX 87 13 8 14 4 15 5 16 88 17 6 18 7 19 2 20 1 21 3 22 18 23
REMARK SMILES IDX 19 24 20 25 21 27 22 28 23 29 84 30 24 31 83 32 25 33 26 34
REMARK SMILES IDX 27 35 77 36 28 37 82 38 76 39 78 40 29 41 81 42 75 43 74 44
REMARK SMILES IDX 30 46 62 47 42 48 61 49 43 50 46 51 60 52 79 53 44 54 45 55
REMARK SMILES IDX 59 57 80 58 47 59 31 60 32 61 40 62 33 63 39 64 41 65 38 66
REMARK SMILES IDX 34 67 35 68 36 69 37 70 63 71 64 72 72 73 65 74 71 75 73 76
REMARK SMILES IDX 70 77 66 78 67 79 68 80 69 81 48 82 49 83 57 84 50 85 56 86
REMARK SMILES IDX 58 87 55 88 51 89 52 90 53 91 54 92
REMARK H PARENT 15 6 19 26 78 45 46 56
REMARK Flexibility Score: inf
ROOT
ATOM      1  C   UNL A   1      35.994  21.806  24.370  1.00  0.00     0.042 C 
ENDROOT
BRANCH   1   2
ATOM      2  C   UNL A   1      34.476  21.731  24.527  1.00  0.00     0.118 C 
BRANCH   2   3
ATOM      3  N   UNL A   1      34.100  21.557  25.920  1.00  0.00    -0.352 N 
ATOM      4  C   UNL A   1      33.426  22.357  26.805  1.00  0.00     0.251 C 
ATOM      5  O   UNL A   1      33.191  21.905  27.925  1.00  0.00    -0.269 OA
ATOM      6  H   UNL A   1      34.385  20.695  26.302  1.00  0.00     0.163 HD
BRANCH   4   7
ATOM      7  C   UNL A   1      32.917  23.712  26.458  1.00  0.00     0.042 A 
ATOM      8  C   UNL A   1      32.127  26.364  25.856  1.00  0.00     0.018 A 
ATOM      9  C   UNL A   1      33.473  25.991  25.775  1.00  0.00     0.012 A 
ATOM     10  C   UNL A   1      31.193  25.375  26.191  1.00  0.00     0.131 A 
ATOM     11  C   UNL A   1      33.862  24.679  26.080  1.00  0.00     0.014 A 
ATOM     12  C   UNL A   1      31.569  24.062  26.456  1.00  0.00     0.053 A 
ATOM     13  F   UNL A   1      29.889  25.684  26.266  1.00  0.00    -0.206 F 
BRANCH   8  14
ATOM     14  C   UNL A   1      31.682  27.732  25.588  1.00  0.00    -0.015 A 
ATOM     15  C   UNL A   1      30.606  29.344  24.111  1.00  0.00     0.018 A 
ATOM     16  C   UNL A   1      31.053  30.388  24.928  1.00  0.00     0.012 A 
ATOM     17  C   UNL A   1      30.920  28.021  24.442  1.00  0.00     0.020 A 
ATOM     18  C   UNL A   1      31.777  30.110  26.086  1.00  0.00     0.001 A 
ATOM     19  C   UNL A   1      32.085  28.790  26.417  1.00  0.00     0.009 A 
BRANCH  15  20
ATOM     20  C   UNL A   1      29.828  29.685  22.889  1.00  0.00     0.159 C 
ATOM     21  C   UNL A   1      28.895  30.866  22.937  1.00  0.00     0.093 C 
ATOM     22  O   UNL A   1      30.003  29.043  21.855  1.00  0.00    -0.295 OA
ENDBRANCH  15  20
ENDBRANCH   8  14
ENDBRANCH   4   7
ENDBRANCH   2   3
ENDBRANCH   1   2
BRANCH   1  23
ATOM     23  C   UNL A   1      36.732  21.885  25.704  1.00  0.00     0.118 C 
BRANCH  23  24
ATOM     24  N   UNL A   1      37.743  20.843  25.825  1.00  0.00    -0.352 N 
ATOM     25  C   UNL A   1      39.090  20.950  26.070  1.00  0.00     0.251 C 
ATOM     26  H   UNL A   1      37.410  19.923  25.715  1.00  0.00     0.163 HD
ATOM     27  O   UNL A   1      39.815  19.980  25.876  1.00  0.00    -0.269 OA
BRANCH  25  28
ATOM     28  C   UNL A   1      39.661  22.228  26.549  1.00  0.00     0.039 A 
ATOM     29  C   UNL A   1      40.636  22.203  27.549  1.00  0.00     0.014 A 
ATOM     30  C   UNL A   1      39.218  23.448  26.031  1.00  0.00     0.014 A 
ATOM     31  C   UNL A   1      41.219  23.399  27.978  1.00  0.00     0.010 A 
ATOM     32  C   UNL A   1      39.848  24.630  26.408  1.00  0.00     0.010 A 
ATOM     33  C   UNL A   1      40.858  24.618  27.382  1.00  0.00    -0.014 A 
BRANCH  33  34
ATOM     34  C   UNL A   1      41.537  25.890  27.745  1.00  0.00     0.031 A 
ATOM     35  C   UNL A   1      40.791  26.952  28.505  1.00  0.00     0.074 A 
ATOM     36  C   UNL A   1      42.796  26.114  27.321  1.00  0.00     0.049 A 
ATOM     37  N   UNL A   1      41.166  28.167  28.813  1.00  0.00    -0.248 NA
ATOM     38  C   UNL A   1      39.432  26.611  28.951  1.00  0.00     0.031 C 
ATOM     39  C   UNL A   1      43.608  25.168  26.553  1.00  0.00     0.029 A 
ATOM     40  N   UNL A   1      43.609  27.211  27.458  1.00  0.00    -0.354 N 
ATOM     41  C   UNL A   1      40.089  28.740  29.480  1.00  0.00     0.074 A 
ATOM     42  C   UNL A   1      39.026  27.757  29.477  1.00  0.00     0.031 C 
ATOM     43  C   UNL A   1      44.807  25.718  26.304  1.00  0.00     0.029 A 
ATOM     44  C   UNL A   1      44.831  27.074  26.841  1.00  0.00     0.049 A 
ATOM     45  H   UNL A   1      43.343  28.020  27.952  1.00  0.00     0.167 HD
ATOM     46  C   UNL A   1      40.003  29.965  30.054  1.00  0.00     0.034 A 
ATOM     47  C   UNL A   1      45.847  27.949  26.701  1.00  0.00     0.034 A 
ATOM     48  C   UNL A   1      41.076  30.930  30.048  1.00  0.00     0.049 A 
ATOM     49  C   UNL A   1      45.707  29.324  27.303  1.00  0.00     0.074 A 
ATOM     50  C   UNL A   1      41.117  32.178  30.645  1.00  0.00     0.029 A 
ATOM     51  N   UNL A   1      42.295  30.761  29.401  1.00  0.00    -0.354 N 
ATOM     52  N   UNL A   1      44.699  29.835  27.972  1.00  0.00    -0.248 NA
ATOM     53  C   UNL A   1      46.843  30.240  27.137  1.00  0.00     0.031 C 
ATOM     54  C   UNL A   1      42.324  32.793  30.296  1.00  0.00     0.029 A 
ATOM     55  C   UNL A   1      43.076  31.897  29.552  1.00  0.00     0.049 A 
ATOM     56  H   UNL A   1      42.565  29.953  28.909  1.00  0.00     0.167 HD
ATOM     57  C   UNL A   1      45.093  31.122  28.330  1.00  0.00     0.074 A 
ATOM     58  C   UNL A   1      46.436  31.301  27.818  1.00  0.00     0.031 C 
ATOM     59  C   UNL A   1      44.409  32.068  29.022  1.00  0.00     0.034 A 
BRANCH  46  60
ATOM     60  C   UNL A   1      38.693  30.338  30.709  1.00  0.00     0.023 A 
ATOM     61  C   UNL A   1      37.653  30.950  29.987  1.00  0.00     0.031 A 
ATOM     62  C   UNL A   1      38.487  30.100  32.080  1.00  0.00     0.131 A 
ATOM     63  C   UNL A   1      36.490  31.370  30.650  1.00  0.00     0.055 A 
ATOM     64  C   UNL A   1      37.292  30.443  32.716  1.00  0.00     0.041 A 
ATOM     65  F   UNL A   1      39.450  29.538  32.828  1.00  0.00    -0.206 F 
ATOM     66  C   UNL A   1      36.291  31.096  32.005  1.00  0.00     0.022 A 
BRANCH  63  67
ATOM     67  S   UNL A   1      35.308  32.411  29.750  1.00  0.00     0.124 S 
ATOM     68  O   UNL A   1      36.174  33.480  29.257  1.00  0.00    -0.237 OA
ATOM     69  O   UNL A   1      34.787  31.496  28.742  1.00  0.00    -0.237 OA
ATOM     70  O   UNL A   1      34.355  32.817  30.780  1.00  0.00    -0.744 OA
ENDBRANCH  63  67
ENDBRANCH  46  60
BRANCH  47  71
ATOM     71  C   UNL A   1      47.074  27.570  25.943  1.00  0.00     0.023 A 
ATOM     72  C   UNL A   1      47.204  27.877  24.579  1.00  0.00     0.031 A 
ATOM     73  C   UNL A   1      48.118  26.856  26.558  1.00  0.00     0.131 A 
ATOM     74  C   UNL A   1      48.327  27.431  23.864  1.00  0.00     0.055 A 
ATOM     75  C   UNL A   1      49.260  26.466  25.857  1.00  0.00     0.041 A 
ATOM     76  F   UNL A   1      48.047  26.537  27.862  1.00  0.00    -0.206 F 
ATOM     77  C   UNL A   1      49.362  26.740  24.497  1.00  0.00     0.022 A 
BRANCH  74  78
ATOM     78  S   UNL A   1      48.368  27.683  22.069  1.00  0.00     0.124 S 
ATOM     79  O   UNL A   1      47.050  28.254  21.820  1.00  0.00    -0.237 OA
ATOM     80  O   UNL A   1      49.500  28.593  21.918  1.00  0.00    -0.237 OA
ATOM     81  O   UNL A   1      48.578  26.337  21.542  1.00  0.00    -0.744 OA
ENDBRANCH  74  78
ENDBRANCH  47  71
BRANCH  59  82
ATOM     82  C   UNL A   1      45.124  33.368  29.298  1.00  0.00     0.023 A 
ATOM     83  C   UNL A   1      45.066  34.451  28.403  1.00  0.00     0.031 A 
ATOM     84  C   UNL A   1      45.878  33.524  30.476  1.00  0.00     0.131 A 
ATOM     85  C   UNL A   1      45.789  35.622  28.676  1.00  0.00     0.055 A 
ATOM     86  C   UNL A   1      46.542  34.714  30.771  1.00  0.00     0.041 A 
ATOM     87  F   UNL A   1      45.973  32.521  31.365  1.00  0.00    -0.206 F 
ATOM     88  C   UNL A   1      46.511  35.768  29.863  1.00  0.00     0.022 A 
BRANCH  85  89
ATOM     89  S   UNL A   1      45.844  36.925  27.415  1.00  0.00     0.124 S 
ATOM     90  O   UNL A   1      44.452  37.361  27.368  1.00  0.00    -0.237 OA
ATOM     91  O   UNL A   1      46.792  37.876  27.988  1.00  0.00    -0.237 OA
ATOM     92  O   UNL A   1      46.315  36.227  26.220  1.00  0.00    -0.744 OA
ENDBRANCH  85  89
ENDBRANCH  59  82
ENDBRANCH  33  34
ENDBRANCH  25  28
ENDBRANCH  23  24
ENDBRANCH   1  23
TORSDOF 15
ENDMDL
MODEL 2
REMARK VINA RESULT:     -12.5      5.804     11.090
REMARK SMILES CC(=O)c1cccc(-c2ccc(C(=O)NCCCNC(=O)c3ccc(-c4c5nc(c(-c6cc(S(=O)(=O)[O-])ccc6F)c6ccc([nH]6)c(-c6cc(S(=O)(=O)[O-])ccc6F)c6nc(c(-c7cc(S(=O)(=O)[O-])ccc7F)c7ccc4[nH]7)C=C6)C=C5)cc3)cc2F)c1
REMARK SMILES IDX 17 1 16 2 15 3 13 4 14 5 12 7 9 8 10 9 86 10 11 11 85 12
REMARK SMILES IDX 87 13 8 14 4 15 5 16 88 17 6 18 7 19 2 20 1 21 3 22 18 23
REMARK SMILES IDX 19 24 20 25 21 27 22 28 23 29 84 30 24 31 83 32 25 33 26 34
REMARK SMILES IDX 27 35 77 36 28 37 82 38 76 39 78 40 29 41 81 42 75 43 74 44
REMARK SMILES IDX 30 46 62 47 42 48 61 49 43 50 46 51 60 52 79 53 44 54 45 55
REMARK SMILES IDX 59 57 80 58 47 59 31 60 32 61 40 62 33 63 39 64 41 65 38 66
REMARK SMILES IDX 34 67 35 68 36 69 37 70 63 71 64 72 72 73 65 74 71 75 73 76
REMARK SMILES IDX 70 77 66 78 67 79 68 80 69 81 48 82 49 83 57 84 50 85 56 86
REMARK SMILES IDX 58 87 55 88 51 89 52 90 53 91 54 92
REMARK H PARENT 15 6 19 26 78 45 46 56
REMARK Flexibility Score: inf
ROOT
ATOM      1  C   UNL A   1      31.696  31.929  26.530  1.00  0.00     0.042 C 
ENDROOT
BRANCH   1   2
ATOM      2  C   UNL A   1      31.946  30.475  26.135  1.00  0.00     0.118 C 
BRANCH   2   3
ATOM      3  N   UNL A   1      31.129  30.091  24.996  1.00  0.00    -0.352 N 
ATOM      4  C   UNL A   1      31.036  28.933  24.270  1.00  0.00     0.251 C 
ATOM      5  O   UNL A   1      30.187  28.878  23.381  1.00  0.00    -0.269 OA
ATOM      6  H   UNL A   1      30.524  30.803  24.685  1.00  0.00     0.163 HD
BRANCH   4   7
ATOM      7  C   UNL A   1      31.867  27.728  24.543  1.00  0.00     0.042 A 
ATOM      8  C   UNL A   1      33.499  25.437  24.866  1.00  0.00     0.018 A 
ATOM      9  C   UNL A   1      33.799  26.386  23.883  1.00  0.00     0.012 A 
ATOM     10  C   UNL A   1      32.407  25.688  25.706  1.00  0.00     0.131 A 
ATOM     11  C   UNL A   1      32.985  27.515  23.720  1.00  0.00     0.014 A 
ATOM     12  C   UNL A   1      31.620  26.828  25.575  1.00  0.00     0.053 A 
ATOM     13  F   UNL A   1      32.091  24.813  26.673  1.00  0.00    -0.206 F 
BRANCH   8  14
ATOM     14  C   UNL A   1      34.296  24.222  25.043  1.00  0.00    -0.015 A 
ATOM     15  C   UNL A   1      34.443  21.790  25.096  1.00  0.00     0.018 A 
ATOM     16  C   UNL A   1      35.731  21.882  25.633  1.00  0.00     0.012 A 
ATOM     17  C   UNL A   1      33.730  22.958  24.802  1.00  0.00     0.020 A 
ATOM     18  C   UNL A   1      36.316  23.130  25.841  1.00  0.00     0.001 A 
ATOM     19  C   UNL A   1      35.605  24.293  25.543  1.00  0.00     0.009 A 
BRANCH  15  20
ATOM     20  C   UNL A   1      33.860  20.438  24.881  1.00  0.00     0.159 C 
ATOM     21  C   UNL A   1      32.362  20.288  24.906  1.00  0.00     0.093 C 
ATOM     22  O   UNL A   1      34.598  19.489  24.627  1.00  0.00    -0.295 OA
ENDBRANCH  15  20
ENDBRANCH   8  14
ENDBRANCH   4   7
ENDBRANCH   2   3
ENDBRANCH   1   2
BRANCH   1  23
ATOM     23  C   UNL A   1      32.784  32.499  27.439  1.00  0.00     0.118 C 
BRANCH  23  24
ATOM     24  N   UNL A   1      32.574  33.914  27.710  1.00  0.00    -0.352 N 
ATOM     25  C   UNL A   1      33.140  34.718  28.670  1.00  0.00     0.251 C 
ATOM     26  H   UNL A   1      31.929  34.363  27.118  1.00  0.00     0.163 HD
ATOM     27  O   UNL A   1      32.642  35.814  28.905  1.00  0.00    -0.269 OA
BRANCH  25  28
ATOM     28  C   UNL A   1      34.329  34.258  29.420  1.00  0.00     0.039 A 
ATOM     29  C   UNL A   1      34.151  33.632  30.656  1.00  0.00     0.014 A 
ATOM     30  C   UNL A   1      35.617  34.467  28.918  1.00  0.00     0.014 A 
ATOM     31  C   UNL A   1      35.262  33.151  31.355  1.00  0.00     0.010 A 
ATOM     32  C   UNL A   1      36.714  33.926  29.580  1.00  0.00     0.010 A 
ATOM     33  C   UNL A   1      36.548  33.257  30.802  1.00  0.00    -0.014 A 
BRANCH  33  34
ATOM     34  C   UNL A   1      37.733  32.661  31.475  1.00  0.00     0.031 A 
ATOM     35  C   UNL A   1      38.455  31.503  30.843  1.00  0.00     0.074 A 
ATOM     36  C   UNL A   1      38.104  33.114  32.688  1.00  0.00     0.049 A 
ATOM     37  N   UNL A   1      39.429  30.774  31.323  1.00  0.00    -0.248 NA
ATOM     38  C   UNL A   1      37.998  31.092  29.507  1.00  0.00     0.031 C 
ATOM     39  C   UNL A   1      37.461  34.214  33.411  1.00  0.00     0.029 A 
ATOM     40  N   UNL A   1      39.099  32.699  33.537  1.00  0.00    -0.354 N 
ATOM     41  C   UNL A   1      39.698  29.813  30.355  1.00  0.00     0.074 A 
ATOM     42  C   UNL A   1      38.741  30.018  29.287  1.00  0.00     0.031 C 
ATOM     43  C   UNL A   1      38.089  34.397  34.583  1.00  0.00     0.029 A 
ATOM     44  C   UNL A   1      39.139  33.395  34.724  1.00  0.00     0.049 A 
ATOM     45  H   UNL A   1      39.726  31.972  33.318  1.00  0.00     0.167 HD
ATOM     46  C   UNL A   1      40.664  28.861  30.350  1.00  0.00     0.034 A 
ATOM     47  C   UNL A   1      39.917  33.228  35.813  1.00  0.00     0.034 A 
ATOM     48  C   UNL A   1      41.610  28.676  31.424  1.00  0.00     0.049 A 
ATOM     49  C   UNL A   1      40.948  32.129  35.806  1.00  0.00     0.074 A 
ATOM     50  C   UNL A   1      42.662  27.781  31.501  1.00  0.00     0.029 A 
ATOM     51  N   UNL A   1      41.612  29.390  32.617  1.00  0.00    -0.354 N 
ATOM     52  N   UNL A   1      41.221  31.257  34.862  1.00  0.00    -0.248 NA
ATOM     53  C   UNL A   1      41.780  31.993  37.008  1.00  0.00     0.031 C 
ATOM     54  C   UNL A   1      43.249  27.898  32.766  1.00  0.00     0.029 A 
ATOM     55  C   UNL A   1      42.620  28.928  33.449  1.00  0.00     0.049 A 
ATOM     56  H   UNL A   1      40.988  30.120  32.838  1.00  0.00     0.167 HD
ATOM     57  C   UNL A   1      42.276  30.489  35.348  1.00  0.00     0.074 A 
ATOM     58  C   UNL A   1      42.600  31.012  36.659  1.00  0.00     0.031 C 
ATOM     59  C   UNL A   1      42.922  29.449  34.762  1.00  0.00     0.034 A 
BRANCH  46  60
ATOM     60  C   UNL A   1      40.722  27.931  29.161  1.00  0.00     0.023 A 
ATOM     61  C   UNL A   1      41.659  28.109  28.128  1.00  0.00     0.031 A 
ATOM     62  C   UNL A   1      39.814  26.863  29.046  1.00  0.00     0.131 A 
ATOM     63  C   UNL A   1      41.618  27.285  26.994  1.00  0.00     0.055 A 
ATOM     64  C   UNL A   1      39.835  25.992  27.954  1.00  0.00     0.041 A 
ATOM     65  F   UNL A   1      38.882  26.653  29.989  1.00  0.00    -0.206 F 
ATOM     66  C   UNL A   1      40.731  26.210  26.912  1.00  0.00     0.022 A 
BRANCH  63  67
ATOM     67  S   UNL A   1      42.642  27.729  25.563  1.00  0.00     0.124 S 
ATOM     68  O   UNL A   1      41.941  28.906  25.055  1.00  0.00    -0.237 OA
ATOM     69  O   UNL A   1      43.944  27.974  26.172  1.00  0.00    -0.237 OA
ATOM     70  O   UNL A   1      42.564  26.548  24.706  1.00  0.00    -0.744 OA
ENDBRANCH  63  67
ENDBRANCH  46  60
BRANCH  47  71
ATOM     71  C   UNL A   1      39.739  34.101  37.010  1.00  0.00     0.023 A 
ATOM     72  C   UNL A   1      39.130  33.611  38.175  1.00  0.00     0.031 A 
ATOM     73  C   UNL A   1      40.137  35.449  36.992  1.00  0.00     0.131 A 
ATOM     74  C   UNL A   1      38.891  34.475  39.256  1.00  0.00     0.055 A 
ATOM     75  C   UNL A   1      39.951  36.290  38.091  1.00  0.00     0.041 A 
ATOM     76  F   UNL A   1      40.727  35.969  35.902  1.00  0.00    -0.206 F 
ATOM     77  C   UNL A   1      39.311  35.807  39.228  1.00  0.00     0.022 A 
BRANCH  74  78
ATOM     78  S   UNL A   1      37.935  33.855  40.667  1.00  0.00     0.124 S 
ATOM     79  O   UNL A   1      36.846  33.152  40.000  1.00  0.00    -0.237 OA
ATOM     80  O   UNL A   1      38.915  33.017  41.351  1.00  0.00    -0.237 OA
ATOM     81  O   UNL A   1      37.552  35.072  41.379  1.00  0.00    -0.744 OA
ENDBRANCH  74  78
ENDBRANCH  47  71
BRANCH  59  82
ATOM     82  C   UNL A   1      44.071  28.836  35.525  1.00  0.00     0.023 A 
ATOM     83  C   UNL A   1      43.887  27.741  36.388  1.00  0.00     0.031 A 
ATOM     84  C   UNL A   1      45.370  29.359  35.387  1.00  0.00     0.131 A 
ATOM     85  C   UNL A   1      44.975  27.237  37.117  1.00  0.00     0.055 A 
ATOM     86  C   UNL A   1      46.458  28.812  36.067  1.00  0.00     0.041 A 
ATOM     87  F   UNL A   1      45.602  30.407  34.580  1.00  0.00    -0.206 F 
ATOM     88  C   UNL A   1      46.263  27.752  36.947  1.00  0.00     0.022 A 
BRANCH  85  89
ATOM     89  S   UNL A   1      44.670  25.950  38.359  1.00  0.00     0.124 S 
ATOM     90  O   UNL A   1      46.007  25.728  38.900  1.00  0.00    -0.237 OA
ATOM     91  O   UNL A   1      43.719  26.600  39.256  1.00  0.00    -0.237 OA
ATOM     92  O   UNL A   1      44.125  24.842  37.578  1.00  0.00    -0.744 OA
ENDBRANCH  85  89
ENDBRANCH  59  82
ENDBRANCH  33  34
ENDBRANCH  25  28
ENDBRANCH  23  24
ENDBRANCH   1  23
TORSDOF 15
ENDMDL
MODEL 3
REMARK VINA RESULT:     -12.5      4.253     10.555
REMARK SMILES CC(=O)c1cccc(-c2ccc(C(=O)NCCCNC(=O)c3ccc(-c4c5nc(c(-c6cc(S(=O)(=O)[O-])ccc6F)c6ccc([nH]6)c(-c6cc(S(=O)(=O)[O-])ccc6F)c6nc(c(-c7cc(S(=O)(=O)[O-])ccc7F)c7ccc4[nH]7)C=C6)C=C5)cc3)cc2F)c1
REMARK SMILES IDX 17 1 16 2 15 3 13 4 14 5 12 7 9 8 10 9 86 10 11 11 85 12
REMARK SMILES IDX 87 13 8 14 4 15 5 16 88 17 6 18 7 19 2 20 1 21 3 22 18 23
REMARK SMILES IDX 19 24 20 25 21 27 22 28 23 29 84 30 24 31 83 32 25 33 26 34
REMARK SMILES IDX 27 35 77 36 28 37 82 38 76 39 78 40 29 41 81 42 75 43 74 44
REMARK SMILES IDX 30 46 62 47 42 48 61 49 43 50 46 51 60 52 79 53 44 54 45 55
REMARK SMILES IDX 59 57 80 58 47 59 31 60 32 61 40 62 33 63 39 64 41 65 38 66
REMARK SMILES IDX 34 67 35 68 36 69 37 70 63 71 64 72 72 73 65 74 71 75 73 76
REMARK SMILES IDX 70 77 66 78 67 79 68 80 69 81 48 82 49 83 57 84 50 85 56 86
REMARK SMILES IDX 58 87 55 88 51 89 52 90 53 91 54 92
REMARK H PARENT 15 6 19 26 78 45 46 56
REMARK Flexibility Score: inf
ROOT
ATOM      1  C   UNL A   1      41.258  20.039  26.205  1.00  0.00     0.042 C 
ENDROOT
BRANCH   1   2
ATOM      2  C   UNL A   1      42.729  20.369  25.955  1.00  0.00     0.118 C 
BRANCH   2   3
ATOM      3  N   UNL A   1      42.871  21.614  25.219  1.00  0.00    -0.352 N 
ATOM      4  C   UNL A   1      43.249  22.876  25.596  1.00  0.00     0.251 C 
ATOM      5  O   UNL A   1      43.344  23.734  24.719  1.00  0.00    -0.269 OA
ATOM      6  H   UNL A   1      42.653  21.535  24.262  1.00  0.00     0.163 HD
BRANCH   4   7
ATOM      7  C   UNL A   1      43.607  23.239  26.994  1.00  0.00     0.042 A 
ATOM      8  C   UNL A   1      44.095  23.992  29.680  1.00  0.00     0.018 A 
ATOM      9  C   UNL A   1      42.817  23.586  29.281  1.00  0.00     0.012 A 
ATOM     10  C   UNL A   1      45.120  23.960  28.726  1.00  0.00     0.131 A 
ATOM     11  C   UNL A   1      42.576  23.221  27.949  1.00  0.00     0.014 A 
ATOM     12  C   UNL A   1      44.895  23.560  27.412  1.00  0.00     0.053 A 
ATOM     13  F   UNL A   1      46.365  24.326  29.068  1.00  0.00    -0.206 F 
BRANCH   8  14
ATOM     14  C   UNL A   1      44.381  24.422  31.050  1.00  0.00    -0.015 A 
ATOM     15  C   UNL A   1      44.420  23.950  33.440  1.00  0.00     0.018 A 
ATOM     16  C   UNL A   1      44.668  25.301  33.701  1.00  0.00     0.012 A 
ATOM     17  C   UNL A   1      44.279  23.514  32.118  1.00  0.00     0.020 A 
ATOM     18  C   UNL A   1      44.808  26.204  32.648  1.00  0.00     0.001 A 
ATOM     19  C   UNL A   1      44.671  25.766  31.330  1.00  0.00     0.009 A 
BRANCH  15  20
ATOM     20  C   UNL A   1      44.287  23.019  34.593  1.00  0.00     0.159 C 
ATOM     21  C   UNL A   1      45.321  21.937  34.768  1.00  0.00     0.093 C 
ATOM     22  O   UNL A   1      43.383  23.183  35.409  1.00  0.00    -0.295 OA
ENDBRANCH  15  20
ENDBRANCH   8  14
ENDBRANCH   4   7
ENDBRANCH   2   3
ENDBRANCH   1   2
BRANCH   1  23
ATOM     23  C   UNL A   1      40.492  21.179  26.872  1.00  0.00     0.118 C 
BRANCH  23  24
ATOM     24  N   UNL A   1      39.282  21.519  26.137  1.00  0.00    -0.352 N 
ATOM     25  C   UNL A   1      38.580  22.699  26.098  1.00  0.00     0.251 C 
ATOM     26  H   UNL A   1      38.910  20.794  25.584  1.00  0.00     0.163 HD
ATOM     27  O   UNL A   1      37.446  22.709  25.629  1.00  0.00    -0.269 OA
BRANCH  25  28
ATOM     28  C   UNL A   1      39.181  23.942  26.629  1.00  0.00     0.039 A 
ATOM     29  C   UNL A   1      39.959  24.735  25.783  1.00  0.00     0.014 A 
ATOM     30  C   UNL A   1      38.998  24.310  27.965  1.00  0.00     0.014 A 
ATOM     31  C   UNL A   1      40.494  25.936  26.259  1.00  0.00     0.010 A 
ATOM     32  C   UNL A   1      39.472  25.538  28.416  1.00  0.00     0.010 A 
ATOM     33  C   UNL A   1      40.220  26.366  27.567  1.00  0.00    -0.014 A 
BRANCH  33  34
ATOM     34  C   UNL A   1      40.689  27.687  28.062  1.00  0.00     0.031 A 
ATOM     35  C   UNL A   1      42.161  27.960  28.205  1.00  0.00     0.074 A 
ATOM     36  C   UNL A   1      39.786  28.605  28.457  1.00  0.00     0.049 A 
ATOM     37  N   UNL A   1      42.764  28.998  28.725  1.00  0.00    -0.248 NA
ATOM     38  C   UNL A   1      43.074  26.912  27.725  1.00  0.00     0.031 C 
ATOM     39  C   UNL A   1      38.332  28.441  28.392  1.00  0.00     0.029 A 
ATOM     40  N   UNL A   1      39.953  29.852  29.006  1.00  0.00    -0.354 N 
ATOM     41  C   UNL A   1      44.126  28.726  28.645  1.00  0.00     0.074 A 
ATOM     42  C   UNL A   1      44.254  27.399  28.080  1.00  0.00     0.031 C 
ATOM     43  C   UNL A   1      37.742  29.550  28.863  1.00  0.00     0.029 A 
ATOM     44  C   UNL A   1      38.769  30.481  29.319  1.00  0.00     0.049 A 
ATOM     45  H   UNL A   1      40.835  30.259  29.161  1.00  0.00     0.167 HD
ATOM     46  C   UNL A   1      45.169  29.518  28.994  1.00  0.00     0.034 A 
ATOM     47  C   UNL A   1      38.536  31.662  29.926  1.00  0.00     0.034 A 
ATOM     48  C   UNL A   1      45.020  30.840  29.553  1.00  0.00     0.049 A 
ATOM     49  C   UNL A   1      39.713  32.501  30.354  1.00  0.00     0.074 A 
ATOM     50  C   UNL A   1      46.006  31.750  29.893  1.00  0.00     0.029 A 
ATOM     51  N   UNL A   1      43.805  31.439  29.869  1.00  0.00    -0.354 N 
ATOM     52  N   UNL A   1      40.996  32.251  30.229  1.00  0.00    -0.248 NA
ATOM     53  C   UNL A   1      39.412  33.785  31.000  1.00  0.00     0.031 C 
ATOM     54  C   UNL A   1      45.395  32.861  30.483  1.00  0.00     0.029 A 
ATOM     55  C   UNL A   1      44.021  32.686  30.435  1.00  0.00     0.049 A 
ATOM     56  H   UNL A   1      42.920  31.036  29.712  1.00  0.00     0.167 HD
ATOM     57  C   UNL A   1      41.653  33.360  30.755  1.00  0.00     0.074 A 
ATOM     58  C   UNL A   1      40.624  34.286  31.182  1.00  0.00     0.031 C 
ATOM     59  C   UNL A   1      42.985  33.594  30.871  1.00  0.00     0.034 A 
BRANCH  46  60
ATOM     60  C   UNL A   1      46.562  28.960  28.809  1.00  0.00     0.023 A 
ATOM     61  C   UNL A   1      47.177  28.914  27.546  1.00  0.00     0.031 A 
ATOM     62  C   UNL A   1      47.276  28.447  29.906  1.00  0.00     0.131 A 
ATOM     63  C   UNL A   1      48.430  28.300  27.398  1.00  0.00     0.055 A 
ATOM     64  C   UNL A   1      48.560  27.916  29.766  1.00  0.00     0.041 A 
ATOM     65  F   UNL A   1      46.734  28.444  31.134  1.00  0.00    -0.206 F 
ATOM     66  C   UNL A   1      49.138  27.825  28.504  1.00  0.00     0.022 A 
BRANCH  63  67
ATOM     67  S   UNL A   1      49.054  27.998  25.722  1.00  0.00     0.124 S 
ATOM     68  O   UNL A   1      47.884  28.322  24.910  1.00  0.00    -0.237 OA
ATOM     69  O   UNL A   1      50.173  28.929  25.630  1.00  0.00    -0.237 OA
ATOM     70  O   UNL A   1      49.418  26.583  25.741  1.00  0.00    -0.744 OA
ENDBRANCH  63  67
ENDBRANCH  46  60
BRANCH  47  71
ATOM     71  C   UNL A   1      37.140  32.114  30.192  1.00  0.00     0.023 A 
ATOM     72  C   UNL A   1      36.395  32.775  29.202  1.00  0.00     0.031 A 
ATOM     73  C   UNL A   1      36.543  31.932  31.452  1.00  0.00     0.131 A 
ATOM     74  C   UNL A   1      35.117  33.272  29.503  1.00  0.00     0.055 A 
ATOM     75  C   UNL A   1      35.249  32.376  31.729  1.00  0.00     0.041 A 
ATOM     76  F   UNL A   1      37.211  31.304  32.435  1.00  0.00    -0.206 F 
ATOM     77  C   UNL A   1      34.533  33.064  30.755  1.00  0.00     0.022 A 
BRANCH  74  78
ATOM     78  S   UNL A   1      34.265  34.282  28.261  1.00  0.00     0.124 S 
ATOM     79  O   UNL A   1      33.994  35.504  29.008  1.00  0.00    -0.237 OA
ATOM     80  O   UNL A   1      35.273  34.383  27.210  1.00  0.00    -0.237 OA
ATOM     81  O   UNL A   1      33.090  33.482  27.920  1.00  0.00    -0.744 OA
ENDBRANCH  74  78
ENDBRANCH  47  71
BRANCH  59  82
ATOM     82  C   UNL A   1      43.400  34.925  31.450  1.00  0.00     0.023 A 
ATOM     83  C   UNL A   1      43.614  35.099  32.828  1.00  0.00     0.031 A 
ATOM     84  C   UNL A   1      43.584  36.036  30.607  1.00  0.00     0.131 A 
ATOM     85  C   UNL A   1      43.949  36.366  33.328  1.00  0.00     0.055 A 
ATOM     86  C   UNL A   1      43.979  37.278  31.104  1.00  0.00     0.041 A 
ATOM     87  F   UNL A   1      43.389  35.928  29.282  1.00  0.00    -0.206 F 
ATOM     88  C   UNL A   1      44.152  37.452  32.473  1.00  0.00     0.022 A 
BRANCH  85  89
ATOM     89  S   UNL A   1      44.033  36.600  35.126  1.00  0.00     0.124 S 
ATOM     90  O   UNL A   1      45.471  36.553  35.371  1.00  0.00    -0.237 OA
ATOM     91  O   UNL A   1      43.397  37.902  35.302  1.00  0.00    -0.237 OA
ATOM     92  O   UNL A   1      43.277  35.466  35.655  1.00  0.00    -0.744 OA
ENDBRANCH  85  89
ENDBRANCH  59  82
ENDBRANCH  33  34
ENDBRANCH  25  28
ENDBRANCH  23  24
ENDBRANCH   1  23
TORSDOF 15
ENDMDL
