MODEL 1
REMARK VINA RESULT:     -13.5      0.000      0.000
REMARK SMILES O=C(NCCCNC(=O)[C@H]1Cc2[nH]cnc2[C@@H](c2ccc(Cl)cc2)[NH2+]1)c1ccc(-c2c3nc(c(-c4cc(S(=O)(=O)[O-])ccc4F)c4ccc([nH]4)c(-c4cc(S(=O)(=O)[O-])ccc4F)c4nc(c(-c5cc(S(=O)(=O)[O-])ccc5F)c5ccc2[nH]5)C=C4)C=C3)cc1
REMARK SMILES IDX 4 1 3 2 1 3 2 4 26 6 27 7 88 8 28 9 87 10 29 11 30 12 31 13
REMARK SMILES IDX 81 14 32 15 86 16 80 17 82 18 33 19 85 20 79 21 78 22 34 24
REMARK SMILES IDX 66 25 46 26 65 27 47 28 50 29 64 30 83 31 48 32 49 33 63 35
REMARK SMILES IDX 84 36 51 37 35 38 36 39 44 40 37 41 43 42 45 43 42 44 38 45
REMARK SMILES IDX 39 46 40 47 41 48 67 49 68 50 76 51 69 52 75 53 77 54 74 55
REMARK SMILES IDX 70 56 71 57 72 58 73 59 52 60 53 61 61 62 54 63 60 64 62 65
REMARK SMILES IDX 59 66 55 67 56 68 57 69 58 70 5 71 6 72 7 73 8 74 9 76 10 77
REMARK SMILES IDX 11 78 25 79 12 80 17 81 13 84 16 85 14 86 15 88 18 89 19 90
REMARK SMILES IDX 24 91 20 92 23 93 21 94 22 95
REMARK H PARENT 3 5 82 23 50 34 7 75 25 82 25 83 13 87
REMARK Flexibility Score: inf
ROOT
ATOM      1  C   UNL A   1      34.233  30.800  27.335  1.00  0.00     0.118 C 
ENDROOT
BRANCH   1   2
ATOM      2  N   UNL A   1      34.286  31.558  28.571  1.00  0.00    -0.352 N 
ATOM      3  O   UNL A   1      34.866  32.545  30.446  1.00  0.00    -0.269 OA
ATOM      4  C   UNL A   1      35.211  31.761  29.556  1.00  0.00     0.251 C 
ATOM      5  H   UNL A   1      33.449  32.047  28.741  1.00  0.00     0.163 HD
BRANCH   4   6
ATOM      6  C   UNL A   1      36.540  31.096  29.661  1.00  0.00     0.039 A 
ATOM      7  C   UNL A   1      37.774  31.736  29.796  1.00  0.00     0.014 A 
ATOM      8  C   UNL A   1      36.522  29.689  29.605  1.00  0.00     0.014 A 
ATOM      9  C   UNL A   1      38.958  30.995  29.799  1.00  0.00     0.010 A 
ATOM     10  C   UNL A   1      37.697  28.946  29.622  1.00  0.00     0.010 A 
ATOM     11  C   UNL A   1      38.923  29.600  29.689  1.00  0.00    -0.014 A 
BRANCH  11  12
ATOM     12  C   UNL A   1      40.168  28.842  29.852  1.00  0.00     0.031 A 
ATOM     13  C   UNL A   1      40.566  28.612  31.274  1.00  0.00     0.074 A 
ATOM     14  C   UNL A   1      40.810  28.217  28.840  1.00  0.00     0.049 A 
ATOM     15  N   UNL A   1      41.662  28.948  31.871  1.00  0.00    -0.248 NA
ATOM     16  C   UNL A   1      39.556  28.036  32.179  1.00  0.00     0.031 C 
ATOM     17  C   UNL A   1      40.378  28.108  27.445  1.00  0.00     0.029 A 
ATOM     18  N   UNL A   1      41.934  27.440  28.871  1.00  0.00    -0.354 N 
ATOM     19  C   UNL A   1      41.573  28.437  33.167  1.00  0.00     0.074 A 
ATOM     20  C   UNL A   1      40.202  28.049  33.344  1.00  0.00     0.031 C 
ATOM     21  C   UNL A   1      41.091  27.138  26.829  1.00  0.00     0.029 A 
ATOM     22  C   UNL A   1      42.110  26.641  27.741  1.00  0.00     0.049 A 
ATOM     23  H   UNL A   1      42.566  27.444  29.626  1.00  0.00     0.167 HD
ATOM     24  C   UNL A   1      42.686  28.174  33.911  1.00  0.00     0.034 A 
ATOM     25  C   UNL A   1      42.977  25.601  27.582  1.00  0.00     0.034 A 
ATOM     26  C   UNL A   1      43.827  28.907  33.410  1.00  0.00     0.049 A 
ATOM     27  C   UNL A   1      44.049  25.769  28.592  1.00  0.00     0.074 A 
ATOM     28  C   UNL A   1      44.108  30.246  33.214  1.00  0.00     0.029 A 
ATOM     29  N   UNL A   1      44.781  28.230  32.684  1.00  0.00    -0.354 N 
ATOM     30  N   UNL A   1      44.897  26.759  28.582  1.00  0.00    -0.248 NA
ATOM     31  C   UNL A   1      43.885  25.108  29.878  1.00  0.00     0.031 C 
ATOM     32  C   UNL A   1      44.842  30.291  31.993  1.00  0.00     0.029 A 
ATOM     33  C   UNL A   1      45.034  28.978  31.562  1.00  0.00     0.049 A 
ATOM     34  H   UNL A   1      45.202  27.371  32.924  1.00  0.00     0.167 HD
ATOM     35  C   UNL A   1      45.036  27.125  29.910  1.00  0.00     0.074 A 
ATOM     36  C   UNL A   1      44.467  26.013  30.671  1.00  0.00     0.031 C 
ATOM     37  C   UNL A   1      45.341  28.408  30.265  1.00  0.00     0.034 A 
BRANCH  24  38
ATOM     38  C   UNL A   1      42.840  26.977  34.836  1.00  0.00     0.023 A 
ATOM     39  C   UNL A   1      43.645  25.917  34.372  1.00  0.00     0.031 A 
ATOM     40  C   UNL A   1      42.027  26.675  35.952  1.00  0.00     0.131 A 
ATOM     41  C   UNL A   1      43.497  24.615  34.880  1.00  0.00     0.055 A 
ATOM     42  C   UNL A   1      41.937  25.392  36.502  1.00  0.00     0.041 A 
ATOM     43  F   UNL A   1      41.216  27.568  36.527  1.00  0.00    -0.206 F 
ATOM     44  C   UNL A   1      42.638  24.341  35.938  1.00  0.00     0.022 A 
BRANCH  41  45
ATOM     45  S   UNL A   1      44.281  23.256  33.976  1.00  0.00     0.124 S 
ATOM     46  O   UNL A   1      45.593  23.824  33.683  1.00  0.00    -0.237 OA
ATOM     47  O   UNL A   1      44.247  22.184  34.963  1.00  0.00    -0.237 OA
ATOM     48  O   UNL A   1      43.407  23.071  32.820  1.00  0.00    -0.744 OA
ENDBRANCH  41  45
ENDBRANCH  24  38
BRANCH  25  49
ATOM     49  C   UNL A   1      42.734  24.323  26.848  1.00  0.00     0.023 A 
ATOM     50  C   UNL A   1      43.660  23.751  25.944  1.00  0.00     0.031 A 
ATOM     51  C   UNL A   1      41.643  23.509  27.227  1.00  0.00     0.131 A 
ATOM     52  C   UNL A   1      43.464  22.433  25.457  1.00  0.00     0.055 A 
ATOM     53  C   UNL A   1      41.452  22.213  26.741  1.00  0.00     0.041 A 
ATOM     54  F   UNL A   1      40.762  23.915  28.154  1.00  0.00    -0.206 F 
ATOM     55  C   UNL A   1      42.367  21.666  25.859  1.00  0.00     0.022 A 
BRANCH  52  56
ATOM     56  S   UNL A   1      44.685  21.650  24.348  1.00  0.00     0.124 S 
ATOM     57  O   UNL A   1      44.389  22.284  23.065  1.00  0.00    -0.237 OA
ATOM     58  O   UNL A   1      45.951  22.003  24.970  1.00  0.00    -0.237 OA
ATOM     59  O   UNL A   1      44.345  20.225  24.416  1.00  0.00    -0.744 OA
ENDBRANCH  52  56
ENDBRANCH  25  49
BRANCH  37  60
ATOM     60  C   UNL A   1      45.819  29.366  29.194  1.00  0.00     0.023 A 
ATOM     61  C   UNL A   1      44.976  30.152  28.376  1.00  0.00     0.031 A 
ATOM     62  C   UNL A   1      47.206  29.580  29.098  1.00  0.00     0.131 A 
ATOM     63  C   UNL A   1      45.534  31.103  27.497  1.00  0.00     0.055 A 
ATOM     64  C   UNL A   1      47.753  30.532  28.239  1.00  0.00     0.041 A 
ATOM     65  F   UNL A   1      48.057  28.889  29.874  1.00  0.00    -0.206 F 
ATOM     66  C   UNL A   1      46.919  31.294  27.431  1.00  0.00     0.022 A 
BRANCH  63  67
ATOM     67  S   UNL A   1      44.470  32.116  26.417  1.00  0.00     0.124 S 
ATOM     68  O   UNL A   1      45.366  32.535  25.347  1.00  0.00    -0.237 OA
ATOM     69  O   UNL A   1      43.415  31.177  26.042  1.00  0.00    -0.237 OA
ATOM     70  O   UNL A   1      44.025  33.198  27.298  1.00  0.00    -0.744 OA
ENDBRANCH  63  67
ENDBRANCH  37  60
ENDBRANCH  11  12
ENDBRANCH   4   6
ENDBRANCH   1   2
BRANCH   1  71
ATOM     71  C   UNL A   1      32.983  29.929  27.190  1.00  0.00     0.042 C 
BRANCH  71  72
ATOM     72  C   UNL A   1      31.902  30.572  26.320  1.00  0.00     0.118 C 
BRANCH  72  73
ATOM     73  N   UNL A   1      31.842  29.994  24.989  1.00  0.00    -0.351 N 
ATOM     74  C   UNL A   1      31.672  28.739  24.506  1.00  0.00     0.278 C 
ATOM     75  H   UNL A   1      31.948  30.665  24.277  1.00  0.00     0.163 HD
ATOM     76  O   UNL A   1      31.557  28.665  23.269  1.00  0.00    -0.268 OA
BRANCH  74  77
ATOM     77  C   UNL A   1      31.562  27.429  25.327  1.00  0.00     0.279 C 
ATOM     78  C   UNL A   1      30.295  26.565  25.182  1.00  0.00     0.131 C 
ATOM     79  N   UNL A   1      32.811  26.634  25.094  1.00  0.00    -0.324 N 
ATOM     80  C   UNL A   1      30.478  25.333  25.978  1.00  0.00     0.051 A 
ATOM     81  C   UNL A   1      33.010  25.538  26.091  1.00  0.00     0.266 C 
ATOM     82  H   UNL A   1      33.610  27.265  25.143  1.00  0.00     0.347 HD
ATOM     83  H   UNL A   1      32.721  26.195  24.178  1.00  0.00     0.347 HD
ATOM     84  N   UNL A   1      29.547  24.402  26.319  1.00  0.00    -0.348 N 
ATOM     85  C   UNL A   1      31.700  24.839  26.376  1.00  0.00     0.124 A 
ATOM     86  C   UNL A   1      30.222  23.411  26.982  1.00  0.00     0.197 A 
ATOM     87  H   UNL A   1      28.581  24.432  26.127  1.00  0.00     0.167 HD
ATOM     88  N   UNL A   1      31.509  23.677  27.091  1.00  0.00    -0.235 NA
BRANCH  81  89
ATOM     89  C   UNL A   1      34.052  24.553  25.552  1.00  0.00     0.016 A 
ATOM     90  C   UNL A   1      34.722  23.724  26.479  1.00  0.00     0.012 A 
ATOM     91  C   UNL A   1      34.430  24.442  24.202  1.00  0.00     0.012 A 
ATOM     92  C   UNL A   1      35.709  22.819  26.070  1.00  0.00     0.021 A 
ATOM     93  C   UNL A   1      35.399  23.521  23.785  1.00  0.00     0.021 A 
ATOM     94  C   UNL A   1      36.034  22.715  24.722  1.00  0.00     0.041 A 
ATOM     95  Cl  UNL A   1      37.232  21.587  24.214  1.00  0.00    -0.084 Cl
ENDBRANCH  81  89
ENDBRANCH  74  77
ENDBRANCH  72  73
ENDBRANCH  71  72
ENDBRANCH   1  71
TORSDOF 14
ENDMDL
MODEL 2
REMARK VINA RESULT:     -13.3      2.543      7.197
REMARK SMILES O=C(NCCCNC(=O)[C@H]1Cc2[nH]cnc2[C@@H](c2ccc(Cl)cc2)[NH2+]1)c1ccc(-c2c3nc(c(-c4cc(S(=O)(=O)[O-])ccc4F)c4ccc([nH]4)c(-c4cc(S(=O)(=O)[O-])ccc4F)c4nc(c(-c5cc(S(=O)(=O)[O-])ccc5F)c5ccc2[nH]5)C=C4)C=C3)cc1
REMARK SMILES IDX 4 1 3 2 1 3 2 4 26 6 27 7 88 8 28 9 87 10 29 11 30 12 31 13
REMARK SMILES IDX 81 14 32 15 86 16 80 17 82 18 33 19 85 20 79 21 78 22 34 24
REMARK SMILES IDX 66 25 46 26 65 27 47 28 50 29 64 30 83 31 48 32 49 33 63 35
REMARK SMILES IDX 84 36 51 37 35 38 36 39 44 40 37 41 43 42 45 43 42 44 38 45
REMARK SMILES IDX 39 46 40 47 41 48 67 49 68 50 76 51 69 52 75 53 77 54 74 55
REMARK SMILES IDX 70 56 71 57 72 58 73 59 52 60 53 61 61 62 54 63 60 64 62 65
REMARK SMILES IDX 59 66 55 67 56 68 57 69 58 70 5 71 6 72 7 73 8 74 9 76 10 77
REMARK SMILES IDX 11 78 25 79 12 80 17 81 13 84 16 85 14 86 15 88 18 89 19 90
REMARK SMILES IDX 24 91 20 92 23 93 21 94 22 95
REMARK H PARENT 3 5 82 23 50 34 7 75 25 82 25 83 13 87
REMARK Flexibility Score: inf
ROOT
ATOM      1  C   UNL A   1      34.702  28.948  26.874  1.00  0.00     0.118 C 
ENDROOT
BRANCH   1   2
ATOM      2  N   UNL A   1      34.930  29.651  28.122  1.00  0.00    -0.352 N 
ATOM      3  O   UNL A   1      35.779  30.619  29.901  1.00  0.00    -0.269 OA
ATOM      4  C   UNL A   1      36.014  29.923  28.908  1.00  0.00     0.251 C 
ATOM      5  H   UNL A   1      34.099  30.025  28.493  1.00  0.00     0.163 HD
BRANCH   4   6
ATOM      6  C   UNL A   1      37.401  29.424  28.692  1.00  0.00     0.039 A 
ATOM      7  C   UNL A   1      38.220  29.709  27.598  1.00  0.00     0.014 A 
ATOM      8  C   UNL A   1      37.905  28.576  29.698  1.00  0.00     0.014 A 
ATOM      9  C   UNL A   1      39.474  29.106  27.476  1.00  0.00     0.010 A 
ATOM     10  C   UNL A   1      39.159  27.985  29.590  1.00  0.00     0.010 A 
ATOM     11  C   UNL A   1      39.936  28.225  28.461  1.00  0.00    -0.014 A 
BRANCH  11  12
ATOM     12  C   UNL A   1      41.315  27.731  28.384  1.00  0.00     0.031 A 
ATOM     13  C   UNL A   1      41.460  26.422  27.677  1.00  0.00     0.074 A 
ATOM     14  C   UNL A   1      42.399  28.461  28.725  1.00  0.00     0.049 A 
ATOM     15  N   UNL A   1      41.963  25.316  28.118  1.00  0.00    -0.248 NA
ATOM     16  C   UNL A   1      40.852  26.300  26.340  1.00  0.00     0.031 C 
ATOM     17  C   UNL A   1      42.431  29.861  29.155  1.00  0.00     0.029 A 
ATOM     18  N   UNL A   1      43.725  28.138  28.646  1.00  0.00    -0.354 N 
ATOM     19  C   UNL A   1      41.936  24.421  27.047  1.00  0.00     0.074 A 
ATOM     20  C   UNL A   1      41.091  25.022  26.053  1.00  0.00     0.031 C 
ATOM     21  C   UNL A   1      43.698  30.326  29.074  1.00  0.00     0.029 A 
ATOM     22  C   UNL A   1      44.587  29.233  28.708  1.00  0.00     0.049 A 
ATOM     23  H   UNL A   1      44.045  27.211  28.553  1.00  0.00     0.167 HD
ATOM     24  C   UNL A   1      42.788  23.358  26.981  1.00  0.00     0.034 A 
ATOM     25  C   UNL A   1      45.918  29.265  28.416  1.00  0.00     0.034 A 
ATOM     26  C   UNL A   1      43.314  23.035  28.288  1.00  0.00     0.049 A 
ATOM     27  C   UNL A   1      46.419  27.874  28.513  1.00  0.00     0.074 A 
ATOM     28  C   UNL A   1      42.748  22.681  29.499  1.00  0.00     0.029 A 
ATOM     29  N   UNL A   1      44.609  23.396  28.588  1.00  0.00    -0.354 N 
ATOM     30  N   UNL A   1      46.461  27.202  29.631  1.00  0.00    -0.248 NA
ATOM     31  C   UNL A   1      46.429  27.065  27.304  1.00  0.00     0.031 C 
ATOM     32  C   UNL A   1      43.538  23.349  30.480  1.00  0.00     0.029 A 
ATOM     33  C   UNL A   1      44.579  24.001  29.820  1.00  0.00     0.049 A 
ATOM     34  H   UNL A   1      45.404  23.249  28.026  1.00  0.00     0.167 HD
ATOM     35  C   UNL A   1      46.063  25.919  29.292  1.00  0.00     0.074 A 
ATOM     36  C   UNL A   1      46.151  25.869  27.833  1.00  0.00     0.031 C 
ATOM     37  C   UNL A   1      45.435  25.109  30.194  1.00  0.00     0.034 A 
BRANCH  24  38
ATOM     38  C   UNL A   1      43.444  22.858  25.703  1.00  0.00     0.023 A 
ATOM     39  C   UNL A   1      43.546  21.460  25.549  1.00  0.00     0.031 A 
ATOM     40  C   UNL A   1      44.236  23.623  24.818  1.00  0.00     0.131 A 
ATOM     41  C   UNL A   1      44.506  20.891  24.695  1.00  0.00     0.055 A 
ATOM     42  C   UNL A   1      45.140  23.050  23.917  1.00  0.00     0.041 A 
ATOM     43  F   UNL A   1      44.248  24.959  24.819  1.00  0.00    -0.206 F 
ATOM     44  C   UNL A   1      45.315  21.678  23.884  1.00  0.00     0.022 A 
BRANCH  41  45
ATOM     45  S   UNL A   1      44.827  19.115  24.843  1.00  0.00     0.124 S 
ATOM     46  O   UNL A   1      46.097  19.110  25.561  1.00  0.00    -0.237 OA
ATOM     47  O   UNL A   1      43.660  18.663  25.592  1.00  0.00    -0.237 OA
ATOM     48  O   UNL A   1      44.891  18.667  23.454  1.00  0.00    -0.744 OA
ENDBRANCH  41  45
ENDBRANCH  24  38
BRANCH  25  49
ATOM     49  C   UNL A   1      46.671  30.363  27.737  1.00  0.00     0.023 A 
ATOM     50  C   UNL A   1      46.049  31.455  27.088  1.00  0.00     0.031 A 
ATOM     51  C   UNL A   1      48.067  30.463  27.935  1.00  0.00     0.131 A 
ATOM     52  C   UNL A   1      46.819  32.568  26.663  1.00  0.00     0.055 A 
ATOM     53  C   UNL A   1      48.821  31.560  27.511  1.00  0.00     0.041 A 
ATOM     54  F   UNL A   1      48.740  29.531  28.627  1.00  0.00    -0.206 F 
ATOM     55  C   UNL A   1      48.198  32.622  26.880  1.00  0.00     0.022 A 
BRANCH  52  56
ATOM     56  S   UNL A   1      46.025  34.019  25.891  1.00  0.00     0.124 S 
ATOM     57  O   UNL A   1      44.917  33.412  25.155  1.00  0.00    -0.237 OA
ATOM     58  O   UNL A   1      45.670  34.836  27.040  1.00  0.00    -0.237 OA
ATOM     59  O   UNL A   1      47.083  34.579  25.045  1.00  0.00    -0.744 OA
ENDBRANCH  52  56
ENDBRANCH  25  49
BRANCH  37  60
ATOM     60  C   UNL A   1      45.438  25.507  31.655  1.00  0.00     0.023 A 
ATOM     61  C   UNL A   1      46.468  25.202  32.575  1.00  0.00     0.031 A 
ATOM     62  C   UNL A   1      44.400  26.349  32.094  1.00  0.00     0.131 A 
ATOM     63  C   UNL A   1      46.425  25.731  33.881  1.00  0.00     0.055 A 
ATOM     64  C   UNL A   1      44.369  26.882  33.380  1.00  0.00     0.041 A 
ATOM     65  F   UNL A   1      43.411  26.703  31.256  1.00  0.00    -0.206 F 
ATOM     66  C   UNL A   1      45.379  26.570  34.281  1.00  0.00     0.022 A 
BRANCH  63  67
ATOM     67  S   UNL A   1      47.730  25.338  35.092  1.00  0.00     0.124 S 
ATOM     68  O   UNL A   1      48.848  26.176  34.677  1.00  0.00    -0.237 OA
ATOM     69  O   UNL A   1      47.100  25.693  36.363  1.00  0.00    -0.237 OA
ATOM     70  O   UNL A   1      47.943  23.901  34.908  1.00  0.00    -0.744 OA
ENDBRANCH  63  67
ENDBRANCH  37  60
ENDBRANCH  11  12
ENDBRANCH   4   6
ENDBRANCH   1   2
BRANCH   1  71
ATOM     71  C   UNL A   1      33.398  29.330  26.170  1.00  0.00     0.042 C 
BRANCH  71  72
ATOM     72  C   UNL A   1      32.746  28.159  25.435  1.00  0.00     0.118 C 
BRANCH  72  73
ATOM     73  N   UNL A   1      33.204  28.039  24.062  1.00  0.00    -0.351 N 
ATOM     74  C   UNL A   1      33.369  27.003  23.204  1.00  0.00     0.278 C 
ATOM     75  H   UNL A   1      33.450  28.905  23.665  1.00  0.00     0.163 HD
ATOM     76  O   UNL A   1      33.678  27.328  22.044  1.00  0.00    -0.268 OA
BRANCH  74  77
ATOM     77  C   UNL A   1      33.165  25.497  23.509  1.00  0.00     0.279 C 
ATOM     78  C   UNL A   1      32.711  24.562  22.372  1.00  0.00     0.131 C 
ATOM     79  N   UNL A   1      34.406  24.993  24.184  1.00  0.00    -0.324 N 
ATOM     80  C   UNL A   1      32.694  23.177  22.886  1.00  0.00     0.051 A 
ATOM     81  C   UNL A   1      34.219  23.673  24.860  1.00  0.00     0.266 C 
ATOM     82  H   UNL A   1      34.694  25.677  24.883  1.00  0.00     0.347 HD
ATOM     83  H   UNL A   1      35.111  24.863  23.458  1.00  0.00     0.347 HD
ATOM     84  N   UNL A   1      32.153  22.069  22.311  1.00  0.00    -0.348 N 
ATOM     85  C   UNL A   1      33.390  22.750  23.995  1.00  0.00     0.124 A 
ATOM     86  C   UNL A   1      32.471  21.018  23.131  1.00  0.00     0.197 A 
ATOM     87  H   UNL A   1      31.636  22.029  21.474  1.00  0.00     0.167 HD
ATOM     88  N   UNL A   1      33.158  21.406  24.188  1.00  0.00    -0.235 NA
BRANCH  81  89
ATOM     89  C   UNL A   1      35.591  23.062  25.156  1.00  0.00     0.016 A 
ATOM     90  C   UNL A   1      36.531  23.850  25.857  1.00  0.00     0.012 A 
ATOM     91  C   UNL A   1      36.009  21.784  24.740  1.00  0.00     0.012 A 
ATOM     92  C   UNL A   1      37.817  23.375  26.140  1.00  0.00     0.021 A 
ATOM     93  C   UNL A   1      37.286  21.297  25.043  1.00  0.00     0.021 A 
ATOM     94  C   UNL A   1      38.184  22.095  25.741  1.00  0.00     0.041 A 
ATOM     95  Cl  UNL A   1      39.758  21.501  26.107  1.00  0.00    -0.084 Cl
ENDBRANCH  81  89
ENDBRANCH  74  77
ENDBRANCH  72  73
ENDBRANCH  71  72
ENDBRANCH   1  71
TORSDOF 14
ENDMDL
MODEL 3
REMARK VINA RESULT:     -13.3      3.805      9.549
REMARK SMILES O=C(NCCCNC(=O)[C@H]1Cc2[nH]cnc2[C@@H](c2ccc(Cl)cc2)[NH2+]1)c1ccc(-c2c3nc(c(-c4cc(S(=O)(=O)[O-])ccc4F)c4ccc([nH]4)c(-c4cc(S(=O)(=O)[O-])ccc4F)c4nc(c(-c5cc(S(=O)(=O)[O-])ccc5F)c5ccc2[nH]5)C=C4)C=C3)cc1
REMARK SMILES IDX 4 1 3 2 1 3 2 4 26 6 27 7 88 8 28 9 87 10 29 11 30 12 31 13
REMARK SMILES IDX 81 14 32 15 86 16 80 17 82 18 33 19 85 20 79 21 78 22 34 24
REMARK SMILES IDX 66 25 46 26 65 27 47 28 50 29 64 30 83 31 48 32 49 33 63 35
REMARK SMILES IDX 84 36 51 37 35 38 36 39 44 40 37 41 43 42 45 43 42 44 38 45
REMARK SMILES IDX 39 46 40 47 41 48 67 49 68 50 76 51 69 52 75 53 77 54 74 55
REMARK SMILES IDX 70 56 71 57 72 58 73 59 52 60 53 61 61 62 54 63 60 64 62 65
REMARK SMILES IDX 59 66 55 67 56 68 57 69 58 70 5 71 6 72 7 73 8 74 9 76 10 77
REMARK SMILES IDX 11 78 25 79 12 80 17 81 13 84 16 85 14 86 15 88 18 89 19 90
REMARK SMILES IDX 24 91 20 92 23 93 21 94 22 95
REMARK H PARENT 3 5 82 23 50 34 7 75 25 82 25 83 13 87
REMARK Flexibility Score: inf
ROOT
ATOM      1  C   UNL A   1      37.845  22.807  25.827  1.00  0.00     0.118 C 
ENDROOT
BRANCH   1   2
ATOM      2  N   UNL A   1      39.063  22.358  26.474  1.00  0.00    -0.352 N 
ATOM      3  O   UNL A   1      40.892  22.153  27.673  1.00  0.00    -0.269 OA
ATOM      4  C   UNL A   1      40.001  22.920  27.293  1.00  0.00     0.251 C 
ATOM      5  H   UNL A   1      39.263  21.415  26.273  1.00  0.00     0.163 HD
BRANCH   4   6
ATOM      6  C   UNL A   1      40.057  24.349  27.710  1.00  0.00     0.039 A 
ATOM      7  C   UNL A   1      39.097  25.326  27.440  1.00  0.00     0.014 A 
ATOM      8  C   UNL A   1      41.205  24.726  28.436  1.00  0.00     0.014 A 
ATOM      9  C   UNL A   1      39.313  26.654  27.817  1.00  0.00     0.010 A 
ATOM     10  C   UNL A   1      41.417  26.043  28.827  1.00  0.00     0.010 A 
ATOM     11  C   UNL A   1      40.483  27.018  28.491  1.00  0.00    -0.014 A 
BRANCH  11  12
ATOM     12  C   UNL A   1      40.610  28.384  29.010  1.00  0.00     0.031 A 
ATOM     13  C   UNL A   1      41.752  29.157  28.434  1.00  0.00     0.074 A 
ATOM     14  C   UNL A   1      39.679  28.989  29.780  1.00  0.00     0.049 A 
ATOM     15  N   UNL A   1      42.743  29.715  29.050  1.00  0.00    -0.248 NA
ATOM     16  C   UNL A   1      41.867  29.211  26.966  1.00  0.00     0.031 C 
ATOM     17  C   UNL A   1      38.373  28.460  30.180  1.00  0.00     0.029 A 
ATOM     18  N   UNL A   1      39.654  30.264  30.274  1.00  0.00    -0.354 N 
ATOM     19  C   UNL A   1      43.488  30.375  28.071  1.00  0.00     0.074 A 
ATOM     20  C   UNL A   1      43.005  29.885  26.811  1.00  0.00     0.031 C 
ATOM     21  C   UNL A   1      37.604  29.469  30.647  1.00  0.00     0.029 A 
ATOM     22  C   UNL A   1      38.394  30.690  30.697  1.00  0.00     0.049 A 
ATOM     23  H   UNL A   1      40.455  30.832  30.329  1.00  0.00     0.167 HD
ATOM     24  C   UNL A   1      44.294  31.432  28.376  1.00  0.00     0.034 A 
ATOM     25  C   UNL A   1      38.001  31.959  31.000  1.00  0.00     0.034 A 
ATOM     26  C   UNL A   1      44.625  31.441  29.783  1.00  0.00     0.049 A 
ATOM     27  C   UNL A   1      39.228  32.734  31.304  1.00  0.00     0.074 A 
ATOM     28  C   UNL A   1      45.243  30.548  30.638  1.00  0.00     0.029 A 
ATOM     29  N   UNL A   1      43.992  32.346  30.606  1.00  0.00    -0.354 N 
ATOM     30  N   UNL A   1      39.992  32.495  32.333  1.00  0.00    -0.248 NA
ATOM     31  C   UNL A   1      39.865  33.459  30.215  1.00  0.00     0.031 C 
ATOM     32  C   UNL A   1      44.518  30.650  31.861  1.00  0.00     0.029 A 
ATOM     33  C   UNL A   1      43.558  31.650  31.706  1.00  0.00     0.049 A 
ATOM     34  H   UNL A   1      43.873  33.309  30.437  1.00  0.00     0.167 HD
ATOM     35  C   UNL A   1      41.285  32.636  31.859  1.00  0.00     0.074 A 
ATOM     36  C   UNL A   1      41.145  33.326  30.577  1.00  0.00     0.031 C 
ATOM     37  C   UNL A   1      42.323  31.939  32.409  1.00  0.00     0.034 A 
BRANCH  24  38
ATOM     38  C   UNL A   1      44.466  32.664  27.501  1.00  0.00     0.023 A 
ATOM     39  C   UNL A   1      43.825  33.843  27.933  1.00  0.00     0.031 A 
ATOM     40  C   UNL A   1      44.924  32.680  26.164  1.00  0.00     0.131 A 
ATOM     41  C   UNL A   1      43.512  34.873  27.030  1.00  0.00     0.055 A 
ATOM     42  C   UNL A   1      44.674  33.741  25.287  1.00  0.00     0.041 A 
ATOM     43  F   UNL A   1      45.565  31.652  25.600  1.00  0.00    -0.206 F 
ATOM     44  C   UNL A   1      43.923  34.826  25.703  1.00  0.00     0.022 A 
BRANCH  41  45
ATOM     45  S   UNL A   1      42.363  36.162  27.576  1.00  0.00     0.124 S 
ATOM     46  O   UNL A   1      42.891  36.477  28.900  1.00  0.00    -0.237 OA
ATOM     47  O   UNL A   1      42.548  37.180  26.548  1.00  0.00    -0.237 OA
ATOM     48  O   UNL A   1      41.068  35.486  27.563  1.00  0.00    -0.744 OA
ENDBRANCH  41  45
ENDBRANCH  24  38
BRANCH  25  49
ATOM     49  C   UNL A   1      36.681  32.595  30.705  1.00  0.00     0.023 A 
ATOM     50  C   UNL A   1      36.001  33.443  31.610  1.00  0.00     0.031 A 
ATOM     51  C   UNL A   1      36.177  32.552  29.385  1.00  0.00     0.131 A 
ATOM     52  C   UNL A   1      34.870  34.185  31.182  1.00  0.00     0.055 A 
ATOM     53  C   UNL A   1      35.062  33.283  28.971  1.00  0.00     0.041 A 
ATOM     54  F   UNL A   1      36.807  31.860  28.423  1.00  0.00    -0.206 F 
ATOM     55  C   UNL A   1      34.407  34.109  29.866  1.00  0.00     0.022 A 
BRANCH  52  56
ATOM     56  S   UNL A   1      34.022  35.340  32.314  1.00  0.00     0.124 S 
ATOM     57  O   UNL A   1      32.959  34.505  32.870  1.00  0.00    -0.237 OA
ATOM     58  O   UNL A   1      35.086  35.729  33.226  1.00  0.00    -0.237 OA
ATOM     59  O   UNL A   1      33.556  36.409  31.426  1.00  0.00    -0.744 OA
ENDBRANCH  52  56
ENDBRANCH  25  49
BRANCH  37  60
ATOM     60  C   UNL A   1      42.108  31.234  33.731  1.00  0.00     0.023 A 
ATOM     61  C   UNL A   1      41.960  29.836  33.888  1.00  0.00     0.031 A 
ATOM     62  C   UNL A   1      42.190  32.016  34.896  1.00  0.00     0.131 A 
ATOM     63  C   UNL A   1      41.891  29.277  35.180  1.00  0.00     0.055 A 
ATOM     64  C   UNL A   1      42.136  31.458  36.172  1.00  0.00     0.041 A 
ATOM     65  F   UNL A   1      42.366  33.346  34.812  1.00  0.00    -0.206 F 
ATOM     66  C   UNL A   1      41.981  30.086  36.319  1.00  0.00     0.022 A 
BRANCH  63  67
ATOM     67  S   UNL A   1      41.681  27.480  35.411  1.00  0.00     0.124 S 
ATOM     68  O   UNL A   1      43.027  26.951  35.229  1.00  0.00    -0.237 OA
ATOM     69  O   UNL A   1      41.135  27.397  36.765  1.00  0.00    -0.237 OA
ATOM     70  O   UNL A   1      40.732  27.111  34.358  1.00  0.00    -0.744 OA
ENDBRANCH  63  67
ENDBRANCH  37  60
ENDBRANCH  11  12
ENDBRANCH   4   6
ENDBRANCH   1   2
BRANCH   1  71
ATOM     71  C   UNL A   1      37.419  21.951  24.633  1.00  0.00     0.042 C 
BRANCH  71  72
ATOM     72  C   UNL A   1      36.844  20.595  25.040  1.00  0.00     0.118 C 
BRANCH  72  73
ATOM     73  N   UNL A   1      35.541  20.709  25.672  1.00  0.00    -0.351 N 
ATOM     74  C   UNL A   1      34.448  21.482  25.459  1.00  0.00     0.278 C 
ATOM     75  H   UNL A   1      35.425  20.085  26.424  1.00  0.00     0.163 HD
ATOM     76  O   UNL A   1      33.458  21.193  26.155  1.00  0.00    -0.268 OA
BRANCH  74  77
ATOM     77  C   UNL A   1      34.301  22.627  24.424  1.00  0.00     0.279 C 
ATOM     78  C   UNL A   1      33.321  22.448  23.250  1.00  0.00     0.131 C 
ATOM     79  N   UNL A   1      34.043  23.897  25.178  1.00  0.00    -0.324 N 
ATOM     80  C   UNL A   1      33.286  23.706  22.476  1.00  0.00     0.051 A 
ATOM     81  C   UNL A   1      34.245  25.128  24.354  1.00  0.00     0.266 C 
ATOM     82  H   UNL A   1      34.678  23.934  25.976  1.00  0.00     0.347 HD
ATOM     83  H   UNL A   1      33.064  23.883  25.465  1.00  0.00     0.347 HD
ATOM     84  N   UNL A   1      32.740  23.929  21.250  1.00  0.00    -0.348 N 
ATOM     85  C   UNL A   1      33.676  24.932  22.966  1.00  0.00     0.124 A 
ATOM     86  C   UNL A   1      32.888  25.268  21.003  1.00  0.00     0.197 A 
ATOM     87  H   UNL A   1      32.323  23.262  20.658  1.00  0.00     0.167 HD
ATOM     88  N   UNL A   1      33.508  25.888  21.989  1.00  0.00    -0.235 NA
BRANCH  81  89
ATOM     89  C   UNL A   1      33.584  26.316  25.056  1.00  0.00     0.016 A 
ATOM     90  C   UNL A   1      34.139  27.599  24.854  1.00  0.00     0.012 A 
ATOM     91  C   UNL A   1      32.486  26.224  25.932  1.00  0.00     0.012 A 
ATOM     92  C   UNL A   1      33.612  28.732  25.485  1.00  0.00     0.021 A 
ATOM     93  C   UNL A   1      31.940  27.358  26.545  1.00  0.00     0.021 A 
ATOM     94  C   UNL A   1      32.506  28.606  26.319  1.00  0.00     0.041 A 
ATOM     95  Cl  UNL A   1      31.842  30.001  27.079  1.00  0.00    -0.084 Cl
ENDBRANCH  81  89
ENDBRANCH  74  77
ENDBRANCH  72  73
ENDBRANCH  71  72
ENDBRANCH   1  71
TORSDOF 14
ENDMDL
