MODEL 1
REMARK VINA RESULT:     -12.1      0.000      0.000
REMARK SMILES O=C(NCCCNC(=O)c1cc2cnc(Cl)cc2[nH]1)c1ccc(-c2c3nc(c(-c4cc(S(=O)(=O)[O-])ccc4F)c4ccc([nH]4)c(-c4cc(S(=O)(=O)[O-])ccc4F)c4nc(c(-c5cc(S(=O)(=O)[O-])ccc5F)c5ccc2[nH]5)C=C4)C=C3)cc1
REMARK SMILES IDX 1 1 2 2 3 3 20 5 21 6 82 7 22 8 81 9 23 10 24 11 25 12 75 13
REMARK SMILES IDX 26 14 80 15 74 16 76 17 27 18 79 19 73 20 72 21 28 23 60 24
REMARK SMILES IDX 40 25 59 26 41 27 44 28 58 29 77 30 42 31 43 32 57 34 78 35
REMARK SMILES IDX 45 36 29 37 30 38 38 39 31 40 37 41 39 42 36 43 32 44 33 45
REMARK SMILES IDX 34 46 35 47 61 48 62 49 70 50 63 51 69 52 71 53 68 54 64 55
REMARK SMILES IDX 65 56 66 57 67 58 46 59 47 60 55 61 48 62 54 63 56 64 53 65
REMARK SMILES IDX 49 66 50 67 51 68 52 69 4 70 5 71 6 72 7 73 8 74 9 76 10 77
REMARK SMILES IDX 11 78 19 79 12 80 18 81 13 83 17 84 14 85 15 86 16 87
REMARK H PARENT 3 4 76 22 44 33 7 75 19 82
REMARK Flexibility Score: inf
ROOT
ATOM      1  O   UNL A   1      38.684  22.492  25.789  1.00  0.00    -0.269 OA
ATOM      2  C   UNL A   1      39.678  22.505  26.506  1.00  0.00     0.251 C 
ATOM      3  N   UNL A   1      40.524  21.402  26.579  1.00  0.00    -0.352 N 
ATOM      4  H   UNL A   1      40.402  20.717  25.883  1.00  0.00     0.163 HD
ENDROOT
BRANCH   2   5
ATOM      5  C   UNL A   1      40.015  23.688  27.319  1.00  0.00     0.039 A 
ATOM      6  C   UNL A   1      41.284  23.946  27.838  1.00  0.00     0.014 A 
ATOM      7  C   UNL A   1      39.009  24.630  27.446  1.00  0.00     0.014 A 
ATOM      8  C   UNL A   1      41.520  25.203  28.397  1.00  0.00     0.010 A 
ATOM      9  C   UNL A   1      39.354  25.932  27.627  1.00  0.00     0.010 A 
ATOM     10  C   UNL A   1      40.543  26.207  28.263  1.00  0.00    -0.014 A 
BRANCH  10  11
ATOM     11  C   UNL A   1      40.712  27.563  28.770  1.00  0.00     0.031 A 
ATOM     12  C   UNL A   1      41.847  28.305  28.177  1.00  0.00     0.074 A 
ATOM     13  C   UNL A   1      39.825  28.169  29.596  1.00  0.00     0.049 A 
ATOM     14  N   UNL A   1      42.989  28.543  28.729  1.00  0.00    -0.248 NA
ATOM     15  C   UNL A   1      41.782  28.662  26.754  1.00  0.00     0.031 C 
ATOM     16  C   UNL A   1      38.490  27.726  30.034  1.00  0.00     0.029 A 
ATOM     17  N   UNL A   1      39.914  29.398  30.167  1.00  0.00    -0.354 N 
ATOM     18  C   UNL A   1      43.714  29.283  27.802  1.00  0.00     0.074 A 
ATOM     19  C   UNL A   1      43.009  29.146  26.551  1.00  0.00     0.031 C 
ATOM     20  C   UNL A   1      37.812  28.764  30.570  1.00  0.00     0.029 A 
ATOM     21  C   UNL A   1      38.732  29.870  30.720  1.00  0.00     0.049 A 
ATOM     22  H   UNL A   1      40.752  29.913  30.187  1.00  0.00     0.167 HD
ATOM     23  C   UNL A   1      44.706  30.130  28.202  1.00  0.00     0.034 A 
ATOM     24  C   UNL A   1      38.515  31.090  31.268  1.00  0.00     0.034 A 
ATOM     25  C   UNL A   1      45.043  29.909  29.585  1.00  0.00     0.049 A 
ATOM     26  C   UNL A   1      39.841  31.656  31.612  1.00  0.00     0.074 A 
ATOM     27  C   UNL A   1      45.550  28.841  30.299  1.00  0.00     0.029 A 
ATOM     28  N   UNL A   1      44.469  30.746  30.515  1.00  0.00    -0.354 N 
ATOM     29  N   UNL A   1      40.613  31.179  32.551  1.00  0.00    -0.248 NA
ATOM     30  C   UNL A   1      40.510  32.449  30.594  1.00  0.00     0.031 C 
ATOM     31  C   UNL A   1      44.844  28.858  31.536  1.00  0.00     0.029 A 
ATOM     32  C   UNL A   1      44.004  29.976  31.550  1.00  0.00     0.049 A 
ATOM     33  H   UNL A   1      44.404  31.726  30.448  1.00  0.00     0.167 HD
ATOM     34  C   UNL A   1      41.885  31.209  32.000  1.00  0.00     0.074 A 
ATOM     35  C   UNL A   1      41.773  32.089  30.836  1.00  0.00     0.031 C 
ATOM     36  C   UNL A   1      42.839  30.297  32.355  1.00  0.00     0.034 A 
BRANCH  23  37
ATOM     37  C   UNL A   1      45.114  31.379  27.459  1.00  0.00     0.023 A 
ATOM     38  C   UNL A   1      44.284  32.507  27.332  1.00  0.00     0.031 A 
ATOM     39  C   UNL A   1      46.450  31.552  27.040  1.00  0.00     0.131 A 
ATOM     40  C   UNL A   1      44.762  33.722  26.823  1.00  0.00     0.055 A 
ATOM     41  C   UNL A   1      46.946  32.783  26.594  1.00  0.00     0.041 A 
ATOM     42  F   UNL A   1      47.333  30.543  27.110  1.00  0.00    -0.206 F 
ATOM     43  C   UNL A   1      46.101  33.878  26.485  1.00  0.00     0.022 A 
BRANCH  40  44
ATOM     44  S   UNL A   1      43.636  35.128  26.609  1.00  0.00     0.124 S 
ATOM     45  O   UNL A   1      44.563  36.254  26.594  1.00  0.00    -0.237 OA
ATOM     46  O   UNL A   1      43.004  34.808  25.331  1.00  0.00    -0.237 OA
ATOM     47  O   UNL A   1      42.757  35.041  27.771  1.00  0.00    -0.744 OA
ENDBRANCH  40  44
ENDBRANCH  23  37
BRANCH  24  48
ATOM     48  C   UNL A   1      37.338  31.950  31.006  1.00  0.00     0.023 A 
ATOM     49  C   UNL A   1      36.669  32.566  32.082  1.00  0.00     0.031 A 
ATOM     50  C   UNL A   1      36.674  31.906  29.770  1.00  0.00     0.131 A 
ATOM     51  C   UNL A   1      35.361  33.042  31.925  1.00  0.00     0.055 A 
ATOM     52  C   UNL A   1      35.374  32.403  29.610  1.00  0.00     0.041 A 
ATOM     53  F   UNL A   1      37.244  31.306  28.713  1.00  0.00    -0.206 F 
ATOM     54  C   UNL A   1      34.705  32.959  30.696  1.00  0.00     0.022 A 
BRANCH  51  55
ATOM     55  S   UNL A   1      34.443  33.683  33.354  1.00  0.00     0.124 S 
ATOM     56  O   UNL A   1      35.238  33.192  34.476  1.00  0.00    -0.237 OA
ATOM     57  O   UNL A   1      34.503  35.122  33.122  1.00  0.00    -0.237 OA
ATOM     58  O   UNL A   1      33.125  33.072  33.216  1.00  0.00    -0.744 OA
ENDBRANCH  51  55
ENDBRANCH  24  48
BRANCH  36  59
ATOM     59  C   UNL A   1      42.582  29.382  33.537  1.00  0.00     0.023 A 
ATOM     60  C   UNL A   1      43.240  29.702  34.738  1.00  0.00     0.031 A 
ATOM     61  C   UNL A   1      41.945  28.129  33.465  1.00  0.00     0.131 A 
ATOM     62  C   UNL A   1      43.304  28.773  35.784  1.00  0.00     0.055 A 
ATOM     63  C   UNL A   1      41.948  27.232  34.540  1.00  0.00     0.041 A 
ATOM     64  F   UNL A   1      41.376  27.693  32.335  1.00  0.00    -0.206 F 
ATOM     65  C   UNL A   1      42.649  27.543  35.700  1.00  0.00     0.022 A 
BRANCH  62  66
ATOM     66  S   UNL A   1      44.384  29.078  37.205  1.00  0.00     0.124 S 
ATOM     67  O   UNL A   1      44.238  27.847  37.974  1.00  0.00    -0.237 OA
ATOM     68  O   UNL A   1      45.686  29.270  36.569  1.00  0.00    -0.237 OA
ATOM     69  O   UNL A   1      43.821  30.274  37.827  1.00  0.00    -0.744 OA
ENDBRANCH  62  66
ENDBRANCH  36  59
ENDBRANCH  10  11
ENDBRANCH   2   5
BRANCH   3  70
ATOM     70  C   UNL A   1      41.581  21.133  27.573  1.00  0.00     0.118 C 
BRANCH  70  71
ATOM     71  C   UNL A   1      42.250  19.782  27.431  1.00  0.00     0.042 C 
BRANCH  71  72
ATOM     72  C   UNL A   1      42.113  19.229  26.013  1.00  0.00     0.118 C 
BRANCH  72  73
ATOM     73  N   UNL A   1      43.343  18.677  25.451  1.00  0.00    -0.351 N 
ATOM     74  C   UNL A   1      44.511  19.274  25.035  1.00  0.00     0.267 C 
ATOM     75  H   UNL A   1      43.334  17.697  25.350  1.00  0.00     0.163 HD
ATOM     76  O   UNL A   1      45.375  18.570  24.529  1.00  0.00    -0.268 OA
BRANCH  74  77
ATOM     77  C   UNL A   1      44.657  20.697  25.204  1.00  0.00     0.105 A 
ATOM     78  C   UNL A   1      44.107  21.722  24.450  1.00  0.00     0.043 A 
ATOM     79  N   UNL A   1      45.462  21.306  26.133  1.00  0.00    -0.350 N 
ATOM     80  C   UNL A   1      44.356  22.947  25.133  1.00  0.00     0.019 A 
ATOM     81  C   UNL A   1      45.155  22.637  26.231  1.00  0.00     0.051 A 
ATOM     82  H   UNL A   1      46.162  20.851  26.655  1.00  0.00     0.167 HD
ATOM     83  C   UNL A   1      43.952  24.276  24.958  1.00  0.00     0.123 A 
ATOM     84  C   UNL A   1      45.513  23.579  27.188  1.00  0.00     0.067 A 
ATOM     85  N   UNL A   1      44.286  25.221  25.874  1.00  0.00    -0.244 NA
ATOM     86  C   UNL A   1      45.018  24.850  26.945  1.00  0.00     0.131 A 
ATOM     87  Cl  UNL A   1      45.316  26.111  28.074  1.00  0.00    -0.062 Cl
ENDBRANCH  74  77
ENDBRANCH  72  73
ENDBRANCH  71  72
ENDBRANCH  70  71
ENDBRANCH   3  70
TORSDOF 13
ENDMDL
MODEL 2
REMARK VINA RESULT:     -12.0      3.743     11.315
REMARK SMILES O=C(NCCCNC(=O)c1cc2cnc(Cl)cc2[nH]1)c1ccc(-c2c3nc(c(-c4cc(S(=O)(=O)[O-])ccc4F)c4ccc([nH]4)c(-c4cc(S(=O)(=O)[O-])ccc4F)c4nc(c(-c5cc(S(=O)(=O)[O-])ccc5F)c5ccc2[nH]5)C=C4)C=C3)cc1
REMARK SMILES IDX 1 1 2 2 3 3 20 5 21 6 82 7 22 8 81 9 23 10 24 11 25 12 75 13
REMARK SMILES IDX 26 14 80 15 74 16 76 17 27 18 79 19 73 20 72 21 28 23 60 24
REMARK SMILES IDX 40 25 59 26 41 27 44 28 58 29 77 30 42 31 43 32 57 34 78 35
REMARK SMILES IDX 45 36 29 37 30 38 38 39 31 40 37 41 39 42 36 43 32 44 33 45
REMARK SMILES IDX 34 46 35 47 61 48 62 49 70 50 63 51 69 52 71 53 68 54 64 55
REMARK SMILES IDX 65 56 66 57 67 58 46 59 47 60 55 61 48 62 54 63 56 64 53 65
REMARK SMILES IDX 49 66 50 67 51 68 52 69 4 70 5 71 6 72 7 73 8 74 9 76 10 77
REMARK SMILES IDX 11 78 19 79 12 80 18 81 13 83 17 84 14 85 15 86 16 87
REMARK H PARENT 3 4 76 22 44 33 7 75 19 82
REMARK Flexibility Score: inf
ROOT
ATOM      1  O   UNL A   1      33.828  30.913  27.769  1.00  0.00    -0.269 OA
ATOM      2  C   UNL A   1      34.650  31.742  28.143  1.00  0.00     0.251 C 
ATOM      3  N   UNL A   1      34.272  33.056  28.409  1.00  0.00    -0.352 N 
ATOM      4  H   UNL A   1      33.305  33.220  28.485  1.00  0.00     0.163 HD
ENDROOT
BRANCH   2   5
ATOM      5  C   UNL A   1      36.068  31.381  28.324  1.00  0.00     0.039 A 
ATOM      6  C   UNL A   1      36.924  32.004  29.232  1.00  0.00     0.014 A 
ATOM      7  C   UNL A   1      36.495  30.273  27.614  1.00  0.00     0.014 A 
ATOM      8  C   UNL A   1      38.172  31.422  29.460  1.00  0.00     0.010 A 
ATOM      9  C   UNL A   1      37.513  29.528  28.120  1.00  0.00     0.010 A 
ATOM     10  C   UNL A   1      38.449  30.157  28.910  1.00  0.00    -0.014 A 
BRANCH  10  11
ATOM     11  C   UNL A   1      39.702  29.445  29.126  1.00  0.00     0.031 A 
ATOM     12  C   UNL A   1      39.953  29.052  30.531  1.00  0.00     0.074 A 
ATOM     13  C   UNL A   1      40.510  29.027  28.121  1.00  0.00     0.049 A 
ATOM     14  N   UNL A   1      40.765  29.617  31.359  1.00  0.00    -0.248 NA
ATOM     15  C   UNL A   1      39.076  28.045  31.143  1.00  0.00     0.031 C 
ATOM     16  C   UNL A   1      40.281  29.032  26.665  1.00  0.00     0.029 A 
ATOM     17  N   UNL A   1      41.716  28.411  28.214  1.00  0.00    -0.354 N 
ATOM     18  C   UNL A   1      40.672  28.891  32.541  1.00  0.00     0.074 A 
ATOM     19  C   UNL A   1      39.485  28.083  32.413  1.00  0.00     0.031 C 
ATOM     20  C   UNL A   1      41.178  28.227  26.055  1.00  0.00     0.029 A 
ATOM     21  C   UNL A   1      42.170  27.839  27.034  1.00  0.00     0.049 A 
ATOM     22  H   UNL A   1      42.228  28.374  29.053  1.00  0.00     0.167 HD
ATOM     23  C   UNL A   1      41.709  28.854  33.426  1.00  0.00     0.034 A 
ATOM     24  C   UNL A   1      43.287  27.091  26.865  1.00  0.00     0.034 A 
ATOM     25  C   UNL A   1      42.698  29.851  33.099  1.00  0.00     0.049 A 
ATOM     26  C   UNL A   1      44.183  27.378  28.010  1.00  0.00     0.074 A 
ATOM     27  C   UNL A   1      42.695  31.229  33.029  1.00  0.00     0.029 A 
ATOM     28  N   UNL A   1      43.793  29.438  32.375  1.00  0.00    -0.354 N 
ATOM     29  N   UNL A   1      44.770  28.528  28.201  1.00  0.00    -0.248 NA
ATOM     30  C   UNL A   1      44.040  26.543  29.191  1.00  0.00     0.031 C 
ATOM     31  C   UNL A   1      43.493  31.541  31.891  1.00  0.00     0.029 A 
ATOM     32  C   UNL A   1      44.007  30.349  31.372  1.00  0.00     0.049 A 
ATOM     33  H   UNL A   1      44.329  28.630  32.547  1.00  0.00     0.167 HD
ATOM     34  C   UNL A   1      44.645  28.757  29.563  1.00  0.00     0.074 A 
ATOM     35  C   UNL A   1      44.277  27.460  30.133  1.00  0.00     0.031 C 
ATOM     36  C   UNL A   1      44.563  30.023  30.071  1.00  0.00     0.034 A 
BRANCH  23  37
ATOM     37  C   UNL A   1      41.999  27.700  34.355  1.00  0.00     0.023 A 
ATOM     38  C   UNL A   1      42.731  26.564  33.968  1.00  0.00     0.031 A 
ATOM     39  C   UNL A   1      41.730  27.815  35.734  1.00  0.00     0.131 A 
ATOM     40  C   UNL A   1      43.163  25.611  34.900  1.00  0.00     0.055 A 
ATOM     41  C   UNL A   1      42.217  26.899  36.676  1.00  0.00     0.041 A 
ATOM     42  F   UNL A   1      41.034  28.856  36.220  1.00  0.00    -0.206 F 
ATOM     43  C   UNL A   1      42.941  25.790  36.261  1.00  0.00     0.022 A 
BRANCH  40  44
ATOM     44  S   UNL A   1      44.041  24.124  34.347  1.00  0.00     0.124 S 
ATOM     45  O   UNL A   1      43.096  23.070  34.697  1.00  0.00    -0.237 OA
ATOM     46  O   UNL A   1      44.196  24.388  32.918  1.00  0.00    -0.237 OA
ATOM     47  O   UNL A   1      45.280  24.152  35.118  1.00  0.00    -0.744 OA
ENDBRANCH  40  44
ENDBRANCH  23  37
BRANCH  24  48
ATOM     48  C   UNL A   1      43.361  25.818  26.110  1.00  0.00     0.023 A 
ATOM     49  C   UNL A   1      42.499  24.755  26.446  1.00  0.00     0.031 A 
ATOM     50  C   UNL A   1      44.472  25.521  25.304  1.00  0.00     0.131 A 
ATOM     51  C   UNL A   1      42.795  23.447  26.045  1.00  0.00     0.055 A 
ATOM     52  C   UNL A   1      44.754  24.215  24.886  1.00  0.00     0.041 A 
ATOM     53  F   UNL A   1      45.348  26.483  24.974  1.00  0.00    -0.206 F 
ATOM     54  C   UNL A   1      43.923  23.167  25.272  1.00  0.00     0.022 A 
BRANCH  51  55
ATOM     55  S   UNL A   1      41.774  22.060  26.618  1.00  0.00     0.124 S 
ATOM     56  O   UNL A   1      40.421  22.578  26.435  1.00  0.00    -0.237 OA
ATOM     57  O   UNL A   1      42.171  21.001  25.697  1.00  0.00    -0.237 OA
ATOM     58  O   UNL A   1      42.185  21.882  28.007  1.00  0.00    -0.744 OA
ENDBRANCH  51  55
ENDBRANCH  24  48
BRANCH  36  59
ATOM     59  C   UNL A   1      44.844  31.203  29.161  1.00  0.00     0.023 A 
ATOM     60  C   UNL A   1      46.121  31.786  29.258  1.00  0.00     0.031 A 
ATOM     61  C   UNL A   1      43.873  31.899  28.418  1.00  0.00     0.131 A 
ATOM     62  C   UNL A   1      46.377  33.039  28.688  1.00  0.00     0.055 A 
ATOM     63  C   UNL A   1      44.153  33.118  27.786  1.00  0.00     0.041 A 
ATOM     64  F   UNL A   1      42.605  31.477  28.347  1.00  0.00    -0.206 F 
ATOM     65  C   UNL A   1      45.405  33.704  27.938  1.00  0.00     0.022 A 
BRANCH  62  66
ATOM     66  S   UNL A   1      47.924  33.905  29.055  1.00  0.00     0.124 S 
ATOM     67  O   UNL A   1      48.900  32.820  29.022  1.00  0.00    -0.237 OA
ATOM     68  O   UNL A   1      48.013  34.861  27.953  1.00  0.00    -0.237 OA
ATOM     69  O   UNL A   1      47.694  34.499  30.369  1.00  0.00    -0.744 OA
ENDBRANCH  62  66
ENDBRANCH  36  59
ENDBRANCH  10  11
ENDBRANCH   2   5
BRANCH   3  70
ATOM     70  C   UNL A   1      35.145  34.232  28.589  1.00  0.00     0.118 C 
BRANCH  70  71
ATOM     71  C   UNL A   1      34.446  35.566  28.428  1.00  0.00     0.042 C 
BRANCH  71  72
ATOM     72  C   UNL A   1      33.050  35.551  29.049  1.00  0.00     0.118 C 
BRANCH  72  73
ATOM     73  N   UNL A   1      32.823  36.573  30.068  1.00  0.00    -0.351 N 
ATOM     74  C   UNL A   1      33.224  36.664  31.382  1.00  0.00     0.267 C 
ATOM     75  H   UNL A   1      32.285  37.336  29.758  1.00  0.00     0.163 HD
ATOM     76  O   UNL A   1      32.830  37.614  32.045  1.00  0.00    -0.268 OA
BRANCH  74  77
ATOM     77  C   UNL A   1      34.076  35.632  31.917  1.00  0.00     0.105 A 
ATOM     78  C   UNL A   1      33.768  34.311  32.201  1.00  0.00     0.043 A 
ATOM     79  N   UNL A   1      35.373  35.811  32.326  1.00  0.00    -0.350 N 
ATOM     80  C   UNL A   1      34.985  33.634  32.499  1.00  0.00     0.019 A 
ATOM     81  C   UNL A   1      35.989  34.600  32.500  1.00  0.00     0.051 A 
ATOM     82  H   UNL A   1      35.802  36.685  32.475  1.00  0.00     0.167 HD
ATOM     83  C   UNL A   1      35.344  32.301  32.727  1.00  0.00     0.123 A 
ATOM     84  C   UNL A   1      37.334  34.283  32.654  1.00  0.00     0.067 A 
ATOM     85  N   UNL A   1      36.649  31.958  32.883  1.00  0.00    -0.244 NA
ATOM     86  C   UNL A   1      37.582  32.931  32.821  1.00  0.00     0.131 A 
ATOM     87  Cl  UNL A   1      39.201  32.372  32.956  1.00  0.00    -0.062 Cl
ENDBRANCH  74  77
ENDBRANCH  72  73
ENDBRANCH  71  72
ENDBRANCH  70  71
ENDBRANCH   3  70
TORSDOF 13
ENDMDL
MODEL 3
REMARK VINA RESULT:     -11.7      4.691      9.009
REMARK SMILES O=C(NCCCNC(=O)c1cc2cnc(Cl)cc2[nH]1)c1ccc(-c2c3nc(c(-c4cc(S(=O)(=O)[O-])ccc4F)c4ccc([nH]4)c(-c4cc(S(=O)(=O)[O-])ccc4F)c4nc(c(-c5cc(S(=O)(=O)[O-])ccc5F)c5ccc2[nH]5)C=C4)C=C3)cc1
REMARK SMILES IDX 1 1 2 2 3 3 20 5 21 6 82 7 22 8 81 9 23 10 24 11 25 12 75 13
REMARK SMILES IDX 26 14 80 15 74 16 76 17 27 18 79 19 73 20 72 21 28 23 60 24
REMARK SMILES IDX 40 25 59 26 41 27 44 28 58 29 77 30 42 31 43 32 57 34 78 35
REMARK SMILES IDX 45 36 29 37 30 38 38 39 31 40 37 41 39 42 36 43 32 44 33 45
REMARK SMILES IDX 34 46 35 47 61 48 62 49 70 50 63 51 69 52 71 53 68 54 64 55
REMARK SMILES IDX 65 56 66 57 67 58 46 59 47 60 55 61 48 62 54 63 56 64 53 65
REMARK SMILES IDX 49 66 50 67 51 68 52 69 4 70 5 71 6 72 7 73 8 74 9 76 10 77
REMARK SMILES IDX 11 78 19 79 12 80 18 81 13 83 17 84 14 85 15 86 16 87
REMARK H PARENT 3 4 76 22 44 33 7 75 19 82
REMARK Flexibility Score: inf
ROOT
ATOM      1  O   UNL A   1      40.765  18.829  25.722  1.00  0.00    -0.269 OA
ATOM      2  C   UNL A   1      40.199  19.910  25.841  1.00  0.00     0.251 C 
ATOM      3  N   UNL A   1      38.881  20.078  25.426  1.00  0.00    -0.352 N 
ATOM      4  H   UNL A   1      38.379  19.253  25.237  1.00  0.00     0.163 HD
ENDROOT
BRANCH   2   5
ATOM      5  C   UNL A   1      40.892  21.072  26.429  1.00  0.00     0.039 A 
ATOM      6  C   UNL A   1      41.547  22.051  25.683  1.00  0.00     0.014 A 
ATOM      7  C   UNL A   1      40.752  21.218  27.797  1.00  0.00     0.014 A 
ATOM      8  C   UNL A   1      41.967  23.207  26.345  1.00  0.00     0.010 A 
ATOM      9  C   UNL A   1      40.810  22.468  28.328  1.00  0.00     0.010 A 
ATOM     10  C   UNL A   1      41.567  23.416  27.677  1.00  0.00    -0.014 A 
BRANCH  10  11
ATOM     11  C   UNL A   1      41.913  24.609  28.440  1.00  0.00     0.031 A 
ATOM     12  C   UNL A   1      40.926  25.708  28.346  1.00  0.00     0.074 A 
ATOM     13  C   UNL A   1      42.962  24.673  29.296  1.00  0.00     0.049 A 
ATOM     14  N   UNL A   1      41.036  26.789  27.649  1.00  0.00    -0.248 NA
ATOM     15  C   UNL A   1      39.597  25.507  28.937  1.00  0.00     0.031 C 
ATOM     16  C   UNL A   1      43.857  23.603  29.770  1.00  0.00     0.029 A 
ATOM     17  N   UNL A   1      43.402  25.742  30.007  1.00  0.00    -0.354 N 
ATOM     18  C   UNL A   1      39.878  27.519  27.893  1.00  0.00     0.074 A 
ATOM     19  C   UNL A   1      38.957  26.600  28.515  1.00  0.00     0.031 C 
ATOM     20  C   UNL A   1      44.540  24.021  30.858  1.00  0.00     0.029 A 
ATOM     21  C   UNL A   1      44.305  25.440  31.016  1.00  0.00     0.049 A 
ATOM     22  H   UNL A   1      43.104  26.661  29.820  1.00  0.00     0.167 HD
ATOM     23  C   UNL A   1      39.865  28.877  27.765  1.00  0.00     0.034 A 
ATOM     24  C   UNL A   1      44.829  26.293  31.928  1.00  0.00     0.034 A 
ATOM     25  C   UNL A   1      41.056  29.341  27.100  1.00  0.00     0.049 A 
ATOM     26  C   UNL A   1      44.664  27.664  31.389  1.00  0.00     0.074 A 
ATOM     27  C   UNL A   1      41.605  29.144  25.849  1.00  0.00     0.029 A 
ATOM     28  N   UNL A   1      42.081  29.802  27.894  1.00  0.00    -0.354 N 
ATOM     29  N   UNL A   1      45.301  28.114  30.343  1.00  0.00    -0.248 NA
ATOM     30  C   UNL A   1      43.437  28.367  31.726  1.00  0.00     0.031 C 
ATOM     31  C   UNL A   1      43.007  29.038  26.075  1.00  0.00     0.029 A 
ATOM     32  C   UNL A   1      43.253  29.255  27.434  1.00  0.00     0.049 A 
ATOM     33  H   UNL A   1      41.991  30.416  28.658  1.00  0.00     0.167 HD
ATOM     34  C   UNL A   1      44.343  28.824  29.635  1.00  0.00     0.074 A 
ATOM     35  C   UNL A   1      43.246  29.027  30.581  1.00  0.00     0.031 C 
ATOM     36  C   UNL A   1      44.393  28.930  28.273  1.00  0.00     0.034 A 
BRANCH  23  37
ATOM     37  C   UNL A   1      38.963  29.800  28.549  1.00  0.00     0.023 A 
ATOM     38  C   UNL A   1      37.763  30.324  28.036  1.00  0.00     0.031 A 
ATOM     39  C   UNL A   1      39.181  30.004  29.927  1.00  0.00     0.131 A 
ATOM     40  C   UNL A   1      36.847  31.004  28.850  1.00  0.00     0.055 A 
ATOM     41  C   UNL A   1      38.237  30.623  30.755  1.00  0.00     0.041 A 
ATOM     42  F   UNL A   1      40.295  29.552  30.526  1.00  0.00    -0.206 F 
ATOM     43  C   UNL A   1      37.060  31.125  30.219  1.00  0.00     0.022 A 
BRANCH  40  44
ATOM     44  S   UNL A   1      35.348  31.726  28.132  1.00  0.00     0.124 S 
ATOM     45  O   UNL A   1      34.529  31.960  29.316  1.00  0.00    -0.237 OA
ATOM     46  O   UNL A   1      35.879  32.922  27.482  1.00  0.00    -0.237 OA
ATOM     47  O   UNL A   1      34.871  30.689  27.221  1.00  0.00    -0.744 OA
ENDBRANCH  40  44
ENDBRANCH  23  37
BRANCH  24  48
ATOM     48  C   UNL A   1      44.946  26.030  33.381  1.00  0.00     0.023 A 
ATOM     49  C   UNL A   1      43.782  25.868  34.159  1.00  0.00     0.031 A 
ATOM     50  C   UNL A   1      46.152  26.266  34.062  1.00  0.00     0.131 A 
ATOM     51  C   UNL A   1      43.832  26.014  35.550  1.00  0.00     0.055 A 
ATOM     52  C   UNL A   1      46.203  26.390  35.456  1.00  0.00     0.041 A 
ATOM     53  F   UNL A   1      47.291  26.460  33.378  1.00  0.00    -0.206 F 
ATOM     54  C   UNL A   1      45.035  26.281  36.205  1.00  0.00     0.022 A 
BRANCH  51  55
ATOM     55  S   UNL A   1      42.305  25.969  36.531  1.00  0.00     0.124 S 
ATOM     56  O   UNL A   1      41.463  26.938  35.835  1.00  0.00    -0.237 OA
ATOM     57  O   UNL A   1      41.906  24.573  36.390  1.00  0.00    -0.237 OA
ATOM     58  O   UNL A   1      42.742  26.374  37.863  1.00  0.00    -0.744 OA
ENDBRANCH  51  55
ENDBRANCH  24  48
BRANCH  36  59
ATOM     59  C   UNL A   1      45.637  28.464  27.541  1.00  0.00     0.023 A 
ATOM     60  C   UNL A   1      45.599  27.170  26.991  1.00  0.00     0.031 A 
ATOM     61  C   UNL A   1      46.886  29.113  27.577  1.00  0.00     0.131 A 
ATOM     62  C   UNL A   1      46.776  26.543  26.563  1.00  0.00     0.055 A 
ATOM     63  C   UNL A   1      48.049  28.512  27.080  1.00  0.00     0.041 A 
ATOM     64  F   UNL A   1      47.043  30.303  28.167  1.00  0.00    -0.206 F 
ATOM     65  C   UNL A   1      48.001  27.212  26.588  1.00  0.00     0.022 A 
BRANCH  62  66
ATOM     66  S   UNL A   1      46.762  24.787  26.123  1.00  0.00     0.124 S 
ATOM     67  O   UNL A   1      45.449  24.361  26.598  1.00  0.00    -0.237 OA
ATOM     68  O   UNL A   1      46.919  24.831  24.670  1.00  0.00    -0.237 OA
ATOM     69  O   UNL A   1      47.900  24.231  26.849  1.00  0.00    -0.744 OA
ENDBRANCH  62  66
ENDBRANCH  36  59
ENDBRANCH  10  11
ENDBRANCH   2   5
BRANCH   3  70
ATOM     70  C   UNL A   1      38.145  21.342  25.234  1.00  0.00     0.118 C 
BRANCH  70  71
ATOM     71  C   UNL A   1      36.666  21.174  24.954  1.00  0.00     0.042 C 
BRANCH  71  72
ATOM     72  C   UNL A   1      35.814  21.573  26.159  1.00  0.00     0.118 C 
BRANCH  72  73
ATOM     73  N   UNL A   1      34.682  22.441  25.847  1.00  0.00    -0.351 N 
ATOM     74  C   UNL A   1      33.457  22.184  25.274  1.00  0.00     0.267 C 
ATOM     75  H   UNL A   1      34.822  23.385  26.090  1.00  0.00     0.163 HD
ATOM     76  O   UNL A   1      32.706  23.126  25.060  1.00  0.00    -0.268 OA
BRANCH  74  77
ATOM     77  C   UNL A   1      33.123  20.821  24.944  1.00  0.00     0.105 A 
ATOM     78  C   UNL A   1      33.016  20.231  23.695  1.00  0.00     0.043 A 
ATOM     79  N   UNL A   1      32.761  19.854  25.847  1.00  0.00    -0.350 N 
ATOM     80  C   UNL A   1      32.883  18.827  23.886  1.00  0.00     0.019 A 
ATOM     81  C   UNL A   1      32.797  18.617  25.261  1.00  0.00     0.051 A 
ATOM     82  H   UNL A   1      32.511  20.024  26.784  1.00  0.00     0.167 HD
ATOM     83  C   UNL A   1      32.869  17.711  23.041  1.00  0.00     0.123 A 
ATOM     84  C   UNL A   1      32.761  17.347  25.825  1.00  0.00     0.067 A 
ATOM     85  N   UNL A   1      32.834  16.456  23.560  1.00  0.00    -0.244 NA
ATOM     86  C   UNL A   1      32.804  16.315  24.902  1.00  0.00     0.131 A 
ATOM     87  Cl  UNL A   1      32.837  14.686  25.446  1.00  0.00    -0.062 Cl
ENDBRANCH  74  77
ENDBRANCH  72  73
ENDBRANCH  71  72
ENDBRANCH  70  71
ENDBRANCH   3  70
TORSDOF 13
ENDMDL
