MODEL 1
REMARK VINA RESULT:     -12.1      0.000      0.000
REMARK SMILES O=C1C[N@@H+](Cc2ccc(C(=O)NCCCNC(=O)c3ccc(-c4c5nc(c(-c6cc(S(=O)(=O)[O-])ccc6F)c6ccc([nH]6)c(-c6cc(S(=O)(=O)[O-])ccc6F)c6nc(c(-c7cc(S(=O)(=O)[O-])ccc7F)c7ccc4[nH]7)C=C6)C=C5)cc3)cc2)CCN1
REMARK SMILES IDX 14 1 13 2 12 3 10 4 11 5 9 7 6 8 7 9 83 10 8 11 82 12 5 13
REMARK SMILES IDX 4 14 1 15 2 16 3 17 86 18 85 19 84 21 15 23 16 24 17 25
REMARK SMILES IDX 18 27 19 28 20 29 81 30 21 31 80 32 22 33 23 34 24 35 74 36
REMARK SMILES IDX 25 37 79 38 73 39 75 40 26 41 78 42 72 43 71 44 27 46 59 47
REMARK SMILES IDX 39 48 58 49 40 50 43 51 57 52 76 53 41 54 42 55 56 57 77 58
REMARK SMILES IDX 44 59 28 60 29 61 37 62 30 63 36 64 38 65 35 66 31 67 32 68
REMARK SMILES IDX 33 69 34 70 60 71 61 72 69 73 62 74 68 75 70 76 67 77 63 78
REMARK SMILES IDX 64 79 65 80 66 81 45 82 46 83 54 84 47 85 53 86 55 87 52 88
REMARK SMILES IDX 48 89 49 90 50 91 51 92
REMARK H PARENT 12 6 86 20 4 22 16 26 75 45 43 56
REMARK Flexibility Score: inf
ROOT
ATOM      1  C   UNL A   1      31.527  31.636  26.499  1.00  0.00     0.042 C 
ENDROOT
BRANCH   1   2
ATOM      2  C   UNL A   1      31.777  30.288  25.828  1.00  0.00     0.118 C 
BRANCH   2   3
ATOM      3  N   UNL A   1      30.960  30.119  24.635  1.00  0.00    -0.352 N 
ATOM      4  C   UNL A   1      30.668  28.993  23.905  1.00  0.00     0.251 C 
ATOM      5  O   UNL A   1      29.844  29.057  22.997  1.00  0.00    -0.269 OA
ATOM      6  H   UNL A   1      30.551  30.948  24.296  1.00  0.00     0.163 HD
BRANCH   4   7
ATOM      7  C   UNL A   1      31.271  27.688  24.251  1.00  0.00     0.039 A 
ATOM      8  C   UNL A   1      32.423  25.312  25.186  1.00  0.00     0.006 A 
ATOM      9  C   UNL A   1      31.098  25.632  25.512  1.00  0.00     0.010 A 
ATOM     10  C   UNL A   1      33.119  26.132  24.285  1.00  0.00     0.010 A 
ATOM     11  C   UNL A   1      30.525  26.816  25.047  1.00  0.00     0.014 A 
ATOM     12  C   UNL A   1      32.543  27.311  23.814  1.00  0.00     0.014 A 
BRANCH   8  13
ATOM     13  C   UNL A   1      33.109  24.127  25.819  1.00  0.00     0.299 C 
BRANCH  13  14
ATOM     14  N   UNL A   1      33.785  23.192  24.915  1.00  0.00    -0.322 N 
ATOM     15  O   UNL A   1      32.069  19.980  25.191  1.00  0.00    -0.269 OA
ATOM     16  C   UNL A   1      32.981  20.807  25.239  1.00  0.00     0.275 C 
ATOM     17  C   UNL A   1      32.951  22.090  24.406  1.00  0.00     0.363 C 
ATOM     18  N   UNL A   1      34.111  20.527  25.955  1.00  0.00    -0.346 N 
ATOM     19  C   UNL A   1      35.147  21.496  26.229  1.00  0.00     0.177 C 
ATOM     20  H   UNL A   1      34.224  19.614  26.303  1.00  0.00     0.163 HD
ATOM     21  C   UNL A   1      35.116  22.731  25.315  1.00  0.00     0.284 C 
ATOM     22  H   UNL A   1      33.956  23.811  24.122  1.00  0.00     0.348 HD
ENDBRANCH  13  14
ENDBRANCH   8  13
ENDBRANCH   4   7
ENDBRANCH   2   3
ENDBRANCH   1   2
BRANCH   1  23
ATOM     23  C   UNL A   1      32.759  32.221  27.184  1.00  0.00     0.118 C 
BRANCH  23  24
ATOM     24  N   UNL A   1      32.588  33.626  27.523  1.00  0.00    -0.352 N 
ATOM     25  C   UNL A   1      33.207  34.387  28.485  1.00  0.00     0.251 C 
ATOM     26  H   UNL A   1      31.926  34.106  26.976  1.00  0.00     0.163 HD
ATOM     27  O   UNL A   1      32.756  35.501  28.737  1.00  0.00    -0.269 OA
BRANCH  25  28
ATOM     28  C   UNL A   1      34.381  33.873  29.230  1.00  0.00     0.039 A 
ATOM     29  C   UNL A   1      34.167  32.955  30.263  1.00  0.00     0.014 A 
ATOM     30  C   UNL A   1      35.678  34.313  28.953  1.00  0.00     0.014 A 
ATOM     31  C   UNL A   1      35.254  32.435  30.972  1.00  0.00     0.010 A 
ATOM     32  C   UNL A   1      36.766  33.737  29.609  1.00  0.00     0.010 A 
ATOM     33  C   UNL A   1      36.567  32.794  30.628  1.00  0.00    -0.014 A 
BRANCH  33  34
ATOM     34  C   UNL A   1      37.735  32.184  31.321  1.00  0.00     0.031 A 
ATOM     35  C   UNL A   1      38.500  31.058  30.682  1.00  0.00     0.074 A 
ATOM     36  C   UNL A   1      38.063  32.604  32.559  1.00  0.00     0.049 A 
ATOM     37  N   UNL A   1      39.508  30.368  31.153  1.00  0.00    -0.248 NA
ATOM     38  C   UNL A   1      38.052  30.631  29.349  1.00  0.00     0.031 C 
ATOM     39  C   UNL A   1      37.360  33.648  33.308  1.00  0.00     0.029 A 
ATOM     40  N   UNL A   1      39.059  32.199  33.412  1.00  0.00    -0.354 N 
ATOM     41  C   UNL A   1      39.803  29.413  30.186  1.00  0.00     0.074 A 
ATOM     42  C   UNL A   1      38.826  29.579  29.129  1.00  0.00     0.031 C 
ATOM     43  C   UNL A   1      37.956  33.812  34.499  1.00  0.00     0.029 A 
ATOM     44  C   UNL A   1      39.053  32.857  34.620  1.00  0.00     0.049 A 
ATOM     45  H   UNL A   1      39.715  31.503  33.182  1.00  0.00     0.167 HD
ATOM     46  C   UNL A   1      40.805  28.497  30.171  1.00  0.00     0.034 A 
ATOM     47  C   UNL A   1      39.830  32.701  35.710  1.00  0.00     0.034 A 
ATOM     48  C   UNL A   1      41.774  28.356  31.233  1.00  0.00     0.049 A 
ATOM     49  C   UNL A   1      40.936  31.680  35.677  1.00  0.00     0.074 A 
ATOM     50  C   UNL A   1      42.879  27.523  31.285  1.00  0.00     0.029 A 
ATOM     51  N   UNL A   1      41.746  29.048  32.437  1.00  0.00    -0.354 N 
ATOM     52  N   UNL A   1      41.253  30.838  34.720  1.00  0.00    -0.248 NA
ATOM     53  C   UNL A   1      41.796  31.598  36.863  1.00  0.00     0.031 C 
ATOM     54  C   UNL A   1      43.469  27.652  32.549  1.00  0.00     0.029 A 
ATOM     55  C   UNL A   1      42.786  28.630  33.257  1.00  0.00     0.049 A 
ATOM     56  H   UNL A   1      41.083  29.737  32.676  1.00  0.00     0.167 HD
ATOM     57  C   UNL A   1      42.364  30.139  35.183  1.00  0.00     0.074 A 
ATOM     58  C   UNL A   1      42.671  30.674  36.495  1.00  0.00     0.031 C 
ATOM     59  C   UNL A   1      43.068  29.148  34.575  1.00  0.00     0.034 A 
BRANCH  46  60
ATOM     60  C   UNL A   1      40.873  27.557  28.986  1.00  0.00     0.023 A 
ATOM     61  C   UNL A   1      41.839  27.705  27.975  1.00  0.00     0.031 A 
ATOM     62  C   UNL A   1      39.932  26.522  28.845  1.00  0.00     0.131 A 
ATOM     63  C   UNL A   1      41.785  26.898  26.828  1.00  0.00     0.055 A 
ATOM     64  C   UNL A   1      39.940  25.662  27.744  1.00  0.00     0.041 A 
ATOM     65  F   UNL A   1      38.972  26.340  29.767  1.00  0.00    -0.206 F 
ATOM     66  C   UNL A   1      40.857  25.860  26.717  1.00  0.00     0.022 A 
BRANCH  63  67
ATOM     67  S   UNL A   1      42.828  27.337  25.411  1.00  0.00     0.124 S 
ATOM     68  O   UNL A   1      42.827  26.092  24.645  1.00  0.00    -0.237 OA
ATOM     69  O   UNL A   1      42.099  28.452  24.818  1.00  0.00    -0.237 OA
ATOM     70  O   UNL A   1      44.111  27.681  26.022  1.00  0.00    -0.744 OA
ENDBRANCH  63  67
ENDBRANCH  46  60
BRANCH  47  71
ATOM     71  C   UNL A   1      39.572  33.520  36.930  1.00  0.00     0.023 A 
ATOM     72  C   UNL A   1      38.890  32.990  38.036  1.00  0.00     0.031 A 
ATOM     73  C   UNL A   1      40.007  34.857  37.000  1.00  0.00     0.131 A 
ATOM     74  C   UNL A   1      38.638  33.801  39.154  1.00  0.00     0.055 A 
ATOM     75  C   UNL A   1      39.795  35.643  38.132  1.00  0.00     0.041 A 
ATOM     76  F   UNL A   1      40.672  35.409  35.972  1.00  0.00    -0.206 F 
ATOM     77  C   UNL A   1      39.098  35.118  39.215  1.00  0.00     0.022 A 
BRANCH  74  78
ATOM     78  S   UNL A   1      37.647  33.123  40.515  1.00  0.00     0.124 S 
ATOM     79  O   UNL A   1      36.375  32.856  39.854  1.00  0.00    -0.237 OA
ATOM     80  O   UNL A   1      38.427  31.953  40.905  1.00  0.00    -0.237 OA
ATOM     81  O   UNL A   1      37.628  34.208  41.494  1.00  0.00    -0.744 OA
ENDBRANCH  74  78
ENDBRANCH  47  71
BRANCH  59  82
ATOM     82  C   UNL A   1      44.260  28.600  35.324  1.00  0.00     0.023 A 
ATOM     83  C   UNL A   1      44.134  27.558  36.260  1.00  0.00     0.031 A 
ATOM     84  C   UNL A   1      45.541  29.140  35.109  1.00  0.00     0.131 A 
ATOM     85  C   UNL A   1      45.253  27.131  36.989  1.00  0.00     0.055 A 
ATOM     86  C   UNL A   1      46.665  28.665  35.789  1.00  0.00     0.041 A 
ATOM     87  F   UNL A   1      45.724  30.140  34.232  1.00  0.00    -0.206 F 
ATOM     88  C   UNL A   1      46.522  27.665  36.746  1.00  0.00     0.022 A 
BRANCH  85  89
ATOM     89  S   UNL A   1      45.014  25.939  38.336  1.00  0.00     0.124 S 
ATOM     90  O   UNL A   1      43.847  26.488  39.020  1.00  0.00    -0.237 OA
ATOM     91  O   UNL A   1      44.802  24.690  37.615  1.00  0.00    -0.237 OA
ATOM     92  O   UNL A   1      46.265  26.016  39.088  1.00  0.00    -0.744 OA
ENDBRANCH  85  89
ENDBRANCH  59  82
ENDBRANCH  33  34
ENDBRANCH  25  28
ENDBRANCH  23  24
ENDBRANCH   1  23
TORSDOF 15
ENDMDL
MODEL 2
REMARK VINA RESULT:     -12.1      3.407      8.632
REMARK SMILES O=C1C[N@@H+](Cc2ccc(C(=O)NCCCNC(=O)c3ccc(-c4c5nc(c(-c6cc(S(=O)(=O)[O-])ccc6F)c6ccc([nH]6)c(-c6cc(S(=O)(=O)[O-])ccc6F)c6nc(c(-c7cc(S(=O)(=O)[O-])ccc7F)c7ccc4[nH]7)C=C6)C=C5)cc3)cc2)CCN1
REMARK SMILES IDX 14 1 13 2 12 3 10 4 11 5 9 7 6 8 7 9 83 10 8 11 82 12 5 13
REMARK SMILES IDX 4 14 1 15 2 16 3 17 86 18 85 19 84 21 15 23 16 24 17 25
REMARK SMILES IDX 18 27 19 28 20 29 81 30 21 31 80 32 22 33 23 34 24 35 74 36
REMARK SMILES IDX 25 37 79 38 73 39 75 40 26 41 78 42 72 43 71 44 27 46 59 47
REMARK SMILES IDX 39 48 58 49 40 50 43 51 57 52 76 53 41 54 42 55 56 57 77 58
REMARK SMILES IDX 44 59 28 60 29 61 37 62 30 63 36 64 38 65 35 66 31 67 32 68
REMARK SMILES IDX 33 69 34 70 60 71 61 72 69 73 62 74 68 75 70 76 67 77 63 78
REMARK SMILES IDX 64 79 65 80 66 81 45 82 46 83 54 84 47 85 53 86 55 87 52 88
REMARK SMILES IDX 48 89 49 90 50 91 51 92
REMARK H PARENT 12 6 86 20 4 22 16 26 75 45 43 56
REMARK Flexibility Score: inf
ROOT
ATOM      1  C   UNL A   1      33.231  28.955  24.922  1.00  0.00     0.042 C 
ENDROOT
BRANCH   1   2
ATOM      2  C   UNL A   1      31.763  29.357  25.035  1.00  0.00     0.118 C 
BRANCH   2   3
ATOM      3  N   UNL A   1      31.204  29.732  23.745  1.00  0.00    -0.352 N 
ATOM      4  C   UNL A   1      30.685  28.956  22.737  1.00  0.00     0.251 C 
ATOM      5  O   UNL A   1      30.144  29.495  21.776  1.00  0.00    -0.269 OA
ATOM      6  H   UNL A   1      31.197  30.700  23.565  1.00  0.00     0.163 HD
BRANCH   4   7
ATOM      7  C   UNL A   1      30.698  27.481  22.833  1.00  0.00     0.039 A 
ATOM      8  C   UNL A   1      30.807  24.720  23.298  1.00  0.00     0.006 A 
ATOM      9  C   UNL A   1      29.806  25.500  23.895  1.00  0.00     0.010 A 
ATOM     10  C   UNL A   1      31.670  25.319  22.369  1.00  0.00     0.010 A 
ATOM     11  C   UNL A   1      29.753  26.874  23.665  1.00  0.00     0.014 A 
ATOM     12  C   UNL A   1      31.612  26.691  22.132  1.00  0.00     0.014 A 
BRANCH   8  13
ATOM     13  C   UNL A   1      30.981  23.269  23.671  1.00  0.00     0.299 C 
BRANCH  13  14
ATOM     14  N   UNL A   1      32.343  22.824  23.983  1.00  0.00    -0.322 N 
ATOM     15  O   UNL A   1      32.137  19.320  24.993  1.00  0.00    -0.269 OA
ATOM     16  C   UNL A   1      32.368  20.529  25.064  1.00  0.00     0.275 C 
ATOM     17  C   UNL A   1      32.591  21.383  23.814  1.00  0.00     0.363 C 
ATOM     18  N   UNL A   1      32.557  21.111  26.286  1.00  0.00    -0.346 N 
ATOM     19  C   UNL A   1      32.644  22.538  26.490  1.00  0.00     0.177 C 
ATOM     20  H   UNL A   1      32.638  20.523  27.072  1.00  0.00     0.163 HD
ATOM     21  C   UNL A   1      32.942  23.342  25.215  1.00  0.00     0.284 C 
ATOM     22  H   UNL A   1      32.853  23.292  23.234  1.00  0.00     0.348 HD
ENDBRANCH  13  14
ENDBRANCH   8  13
ENDBRANCH   4   7
ENDBRANCH   2   3
ENDBRANCH   1   2
BRANCH   1  23
ATOM     23  C   UNL A   1      34.047  29.240  26.180  1.00  0.00     0.118 C 
BRANCH  23  24
ATOM     24  N   UNL A   1      33.799  30.572  26.709  1.00  0.00    -0.352 N 
ATOM     25  C   UNL A   1      34.435  31.257  27.716  1.00  0.00     0.251 C 
ATOM     26  H   UNL A   1      33.061  31.058  26.278  1.00  0.00     0.163 HD
ATOM     27  O   UNL A   1      33.923  32.290  28.142  1.00  0.00    -0.269 OA
BRANCH  25  28
ATOM     28  C   UNL A   1      35.701  30.757  28.303  1.00  0.00     0.039 A 
ATOM     29  C   UNL A   1      35.633  29.798  29.319  1.00  0.00     0.014 A 
ATOM     30  C   UNL A   1      36.945  31.247  27.896  1.00  0.00     0.014 A 
ATOM     31  C   UNL A   1      36.809  29.290  29.880  1.00  0.00     0.010 A 
ATOM     32  C   UNL A   1      38.117  30.684  28.402  1.00  0.00     0.010 A 
ATOM     33  C   UNL A   1      38.063  29.702  29.402  1.00  0.00    -0.014 A 
BRANCH  33  34
ATOM     34  C   UNL A   1      39.319  29.106  29.934  1.00  0.00     0.031 A 
ATOM     35  C   UNL A   1      40.016  29.723  31.116  1.00  0.00     0.074 A 
ATOM     36  C   UNL A   1      39.864  28.044  29.309  1.00  0.00     0.049 A 
ATOM     37  N   UNL A   1      41.142  29.378  31.686  1.00  0.00    -0.248 NA
ATOM     38  C   UNL A   1      39.378  30.905  31.714  1.00  0.00     0.031 C 
ATOM     39  C   UNL A   1      39.312  27.393  28.119  1.00  0.00     0.029 A 
ATOM     40  N   UNL A   1      41.007  27.333  29.575  1.00  0.00    -0.354 N 
ATOM     41  C   UNL A   1      41.360  30.309  32.697  1.00  0.00     0.074 A 
ATOM     42  C   UNL A   1      40.276  31.265  32.619  1.00  0.00     0.031 C 
ATOM     43  C   UNL A   1      40.107  26.371  27.769  1.00  0.00     0.029 A 
ATOM     44  C   UNL A   1      41.247  26.318  28.678  1.00  0.00     0.049 A 
ATOM     45  H   UNL A   1      41.599  27.531  30.335  1.00  0.00     0.167 HD
ATOM     46  C   UNL A   1      42.359  30.350  33.616  1.00  0.00     0.034 A 
ATOM     47  C   UNL A   1      42.276  25.453  28.583  1.00  0.00     0.034 A 
ATOM     48  C   UNL A   1      43.426  29.378  33.680  1.00  0.00     0.049 A 
ATOM     49  C   UNL A   1      43.376  25.514  29.609  1.00  0.00     0.074 A 
ATOM     50  C   UNL A   1      44.440  29.273  34.618  1.00  0.00     0.029 A 
ATOM     51  N   UNL A   1      43.632  28.355  32.762  1.00  0.00    -0.354 N 
ATOM     52  N   UNL A   1      43.525  26.352  30.611  1.00  0.00    -0.248 NA
ATOM     53  C   UNL A   1      44.437  24.506  29.502  1.00  0.00     0.031 C 
ATOM     54  C   UNL A   1      45.301  28.243  34.222  1.00  0.00     0.029 A 
ATOM     55  C   UNL A   1      44.780  27.644  33.085  1.00  0.00     0.049 A 
ATOM     56  H   UNL A   1      43.048  28.163  31.993  1.00  0.00     0.167 HD
ATOM     57  C   UNL A   1      44.689  25.957  31.264  1.00  0.00     0.074 A 
ATOM     58  C   UNL A   1      45.188  24.796  30.556  1.00  0.00     0.031 C 
ATOM     59  C   UNL A   1      45.287  26.504  32.355  1.00  0.00     0.034 A 
BRANCH  46  60
ATOM     60  C   UNL A   1      42.359  31.504  34.594  1.00  0.00     0.023 A 
ATOM     61  C   UNL A   1      41.507  31.530  35.713  1.00  0.00     0.031 A 
ATOM     62  C   UNL A   1      43.194  32.616  34.383  1.00  0.00     0.131 A 
ATOM     63  C   UNL A   1      41.440  32.677  36.520  1.00  0.00     0.055 A 
ATOM     64  C   UNL A   1      43.189  33.717  35.243  1.00  0.00     0.041 A 
ATOM     65  F   UNL A   1      44.017  32.662  33.323  1.00  0.00    -0.206 F 
ATOM     66  C   UNL A   1      42.294  33.761  36.307  1.00  0.00     0.022 A 
BRANCH  63  67
ATOM     67  S   UNL A   1      40.103  32.801  37.739  1.00  0.00     0.124 S 
ATOM     68  O   UNL A   1      39.193  31.750  37.287  1.00  0.00    -0.237 OA
ATOM     69  O   UNL A   1      40.798  32.547  38.995  1.00  0.00    -0.237 OA
ATOM     70  O   UNL A   1      39.604  34.164  37.564  1.00  0.00    -0.744 OA
ENDBRANCH  63  67
ENDBRANCH  46  60
BRANCH  47  71
ATOM     71  C   UNL A   1      42.321  24.471  27.462  1.00  0.00     0.023 A 
ATOM     72  C   UNL A   1      41.603  23.266  27.515  1.00  0.00     0.031 A 
ATOM     73  C   UNL A   1      43.095  24.729  26.315  1.00  0.00     0.131 A 
ATOM     74  C   UNL A   1      41.696  22.351  26.455  1.00  0.00     0.055 A 
ATOM     75  C   UNL A   1      43.146  23.837  25.244  1.00  0.00     0.041 A 
ATOM     76  F   UNL A   1      43.794  25.870  26.210  1.00  0.00    -0.206 F 
ATOM     77  C   UNL A   1      42.450  22.634  25.314  1.00  0.00     0.022 A 
BRANCH  74  78
ATOM     78  S   UNL A   1      40.854  20.751  26.610  1.00  0.00     0.124 S 
ATOM     79  O   UNL A   1      40.802  20.580  28.057  1.00  0.00    -0.237 OA
ATOM     80  O   UNL A   1      39.581  21.012  25.947  1.00  0.00    -0.237 OA
ATOM     81  O   UNL A   1      41.742  19.830  25.903  1.00  0.00    -0.744 OA
ENDBRANCH  74  78
ENDBRANCH  47  71
BRANCH  59  82
ATOM     82  C   UNL A   1      46.539  25.826  32.860  1.00  0.00     0.023 A 
ATOM     83  C   UNL A   1      47.798  26.071  32.285  1.00  0.00     0.031 A 
ATOM     84  C   UNL A   1      46.467  24.908  33.923  1.00  0.00     0.131 A 
ATOM     85  C   UNL A   1      48.923  25.363  32.733  1.00  0.00     0.055 A 
ATOM     86  C   UNL A   1      47.602  24.254  34.410  1.00  0.00     0.041 A 
ATOM     87  F   UNL A   1      45.292  24.628  34.508  1.00  0.00    -0.206 F 
ATOM     88  C   UNL A   1      48.836  24.470  33.805  1.00  0.00     0.022 A 
BRANCH  85  89
ATOM     89  S   UNL A   1      50.485  25.545  31.828  1.00  0.00     0.124 S 
ATOM     90  O   UNL A   1      51.374  26.067  32.862  1.00  0.00    -0.237 OA
ATOM     91  O   UNL A   1      50.752  24.180  31.387  1.00  0.00    -0.237 OA
ATOM     92  O   UNL A   1      50.155  26.488  30.761  1.00  0.00    -0.744 OA
ENDBRANCH  85  89
ENDBRANCH  59  82
ENDBRANCH  33  34
ENDBRANCH  25  28
ENDBRANCH  23  24
ENDBRANCH   1  23
TORSDOF 15
ENDMDL
MODEL 3
REMARK VINA RESULT:     -11.9      2.895      8.421
REMARK SMILES O=C1C[N@@H+](Cc2ccc(C(=O)NCCCNC(=O)c3ccc(-c4c5nc(c(-c6cc(S(=O)(=O)[O-])ccc6F)c6ccc([nH]6)c(-c6cc(S(=O)(=O)[O-])ccc6F)c6nc(c(-c7cc(S(=O)(=O)[O-])ccc7F)c7ccc4[nH]7)C=C6)C=C5)cc3)cc2)CCN1
REMARK SMILES IDX 14 1 13 2 12 3 10 4 11 5 9 7 6 8 7 9 83 10 8 11 82 12 5 13
REMARK SMILES IDX 4 14 1 15 2 16 3 17 86 18 85 19 84 21 15 23 16 24 17 25
REMARK SMILES IDX 18 27 19 28 20 29 81 30 21 31 80 32 22 33 23 34 24 35 74 36
REMARK SMILES IDX 25 37 79 38 73 39 75 40 26 41 78 42 72 43 71 44 27 46 59 47
REMARK SMILES IDX 39 48 58 49 40 50 43 51 57 52 76 53 41 54 42 55 56 57 77 58
REMARK SMILES IDX 44 59 28 60 29 61 37 62 30 63 36 64 38 65 35 66 31 67 32 68
REMARK SMILES IDX 33 69 34 70 60 71 61 72 69 73 62 74 68 75 70 76 67 77 63 78
REMARK SMILES IDX 64 79 65 80 66 81 45 82 46 83 54 84 47 85 53 86 55 87 52 88
REMARK SMILES IDX 48 89 49 90 50 91 51 92
REMARK H PARENT 12 6 86 20 4 22 16 26 75 45 43 56
REMARK Flexibility Score: inf
ROOT
ATOM      1  C   UNL A   1      32.964  29.531  25.153  1.00  0.00     0.042 C 
ENDROOT
BRANCH   1   2
ATOM      2  C   UNL A   1      31.449  29.710  25.100  1.00  0.00     0.118 C 
BRANCH   2   3
ATOM      3  N   UNL A   1      30.930  29.520  23.755  1.00  0.00    -0.352 N 
ATOM      4  C   UNL A   1      30.617  28.370  23.071  1.00  0.00     0.251 C 
ATOM      5  O   UNL A   1      30.065  28.446  21.977  1.00  0.00    -0.269 OA
ATOM      6  H   UNL A   1      30.777  30.353  23.251  1.00  0.00     0.163 HD
BRANCH   4   7
ATOM      7  C   UNL A   1      30.865  27.042  23.672  1.00  0.00     0.039 A 
ATOM      8  C   UNL A   1      31.263  24.410  24.546  1.00  0.00     0.006 A 
ATOM      9  C   UNL A   1      32.153  24.996  23.635  1.00  0.00     0.010 A 
ATOM     10  C   UNL A   1      30.249  25.199  25.108  1.00  0.00     0.010 A 
ATOM     11  C   UNL A   1      31.954  26.306  23.198  1.00  0.00     0.014 A 
ATOM     12  C   UNL A   1      30.055  26.512  24.678  1.00  0.00     0.014 A 
BRANCH   8  13
ATOM     13  C   UNL A   1      31.366  22.946  24.893  1.00  0.00     0.299 C 
BRANCH  13  14
ATOM     14  N   UNL A   1      32.653  22.293  24.634  1.00  0.00    -0.322 N 
ATOM     15  O   UNL A   1      32.119  18.690  24.918  1.00  0.00    -0.269 OA
ATOM     16  C   UNL A   1      32.579  19.809  25.152  1.00  0.00     0.275 C 
ATOM     17  C   UNL A   1      32.570  20.922  24.102  1.00  0.00     0.363 C 
ATOM     18  N   UNL A   1      33.227  20.040  26.333  1.00  0.00    -0.346 N 
ATOM     19  C   UNL A   1      33.632  21.352  26.783  1.00  0.00     0.177 C 
ATOM     20  H   UNL A   1      33.430  19.268  26.909  1.00  0.00     0.163 HD
ATOM     21  C   UNL A   1      33.677  22.415  25.674  1.00  0.00     0.284 C 
ATOM     22  H   UNL A   1      32.993  22.877  23.870  1.00  0.00     0.348 HD
ENDBRANCH  13  14
ENDBRANCH   8  13
ENDBRANCH   4   7
ENDBRANCH   2   3
ENDBRANCH   1   2
BRANCH   1  23
ATOM     23  C   UNL A   1      33.546  29.614  26.562  1.00  0.00     0.118 C 
BRANCH  23  24
ATOM     24  N   UNL A   1      33.535  30.971  27.086  1.00  0.00    -0.352 N 
ATOM     25  C   UNL A   1      34.353  31.568  28.014  1.00  0.00     0.251 C 
ATOM     26  H   UNL A   1      32.833  31.552  26.716  1.00  0.00     0.163 HD
ATOM     27  O   UNL A   1      34.031  32.664  28.466  1.00  0.00    -0.269 OA
BRANCH  25  28
ATOM     28  C   UNL A   1      35.588  30.901  28.490  1.00  0.00     0.039 A 
ATOM     29  C   UNL A   1      36.818  31.332  27.983  1.00  0.00     0.014 A 
ATOM     30  C   UNL A   1      35.548  29.835  29.392  1.00  0.00     0.014 A 
ATOM     31  C   UNL A   1      38.003  30.738  28.425  1.00  0.00     0.010 A 
ATOM     32  C   UNL A   1      36.734  29.295  29.890  1.00  0.00     0.010 A 
ATOM     33  C   UNL A   1      37.975  29.738  29.410  1.00  0.00    -0.014 A 
BRANCH  33  34
ATOM     34  C   UNL A   1      39.236  29.158  29.948  1.00  0.00     0.031 A 
ATOM     35  C   UNL A   1      39.912  29.773  31.143  1.00  0.00     0.074 A 
ATOM     36  C   UNL A   1      39.806  28.112  29.317  1.00  0.00     0.049 A 
ATOM     37  N   UNL A   1      41.038  29.441  31.720  1.00  0.00    -0.248 NA
ATOM     38  C   UNL A   1      39.248  30.937  31.747  1.00  0.00     0.031 C 
ATOM     39  C   UNL A   1      39.276  27.464  28.115  1.00  0.00     0.029 A 
ATOM     40  N   UNL A   1      40.958  27.417  29.586  1.00  0.00    -0.354 N 
ATOM     41  C   UNL A   1      41.231  30.365  32.743  1.00  0.00     0.074 A 
ATOM     42  C   UNL A   1      40.131  31.304  32.665  1.00  0.00     0.031 C 
ATOM     43  C   UNL A   1      40.091  26.459  27.761  1.00  0.00     0.029 A 
ATOM     44  C   UNL A   1      41.224  26.417  28.681  1.00  0.00     0.049 A 
ATOM     45  H   UNL A   1      41.540  27.617  30.354  1.00  0.00     0.167 HD
ATOM     46  C   UNL A   1      42.220  30.413  33.672  1.00  0.00     0.034 A 
ATOM     47  C   UNL A   1      42.268  25.570  28.586  1.00  0.00     0.034 A 
ATOM     48  C   UNL A   1      43.303  29.459  33.736  1.00  0.00     0.049 A 
ATOM     49  C   UNL A   1      43.357  25.639  29.624  1.00  0.00     0.074 A 
ATOM     50  C   UNL A   1      44.309  29.362  34.682  1.00  0.00     0.029 A 
ATOM     51  N   UNL A   1      43.535  28.450  32.810  1.00  0.00    -0.354 N 
ATOM     52  N   UNL A   1      43.483  26.468  30.636  1.00  0.00    -0.248 NA
ATOM     53  C   UNL A   1      44.437  24.651  29.517  1.00  0.00     0.031 C 
ATOM     54  C   UNL A   1      45.192  28.350  34.283  1.00  0.00     0.029 A 
ATOM     55  C   UNL A   1      44.692  27.755  33.135  1.00  0.00     0.049 A 
ATOM     56  H   UNL A   1      42.961  28.256  32.033  1.00  0.00     0.167 HD
ATOM     57  C   UNL A   1      44.647  26.086  31.296  1.00  0.00     0.074 A 
ATOM     58  C   UNL A   1      45.172  24.941  30.580  1.00  0.00     0.031 C 
ATOM     59  C   UNL A   1      45.225  26.632  32.399  1.00  0.00     0.034 A 
BRANCH  46  60
ATOM     60  C   UNL A   1      42.190  31.557  34.662  1.00  0.00     0.023 A 
ATOM     61  C   UNL A   1      41.298  31.576  35.749  1.00  0.00     0.031 A 
ATOM     62  C   UNL A   1      43.040  32.665  34.494  1.00  0.00     0.131 A 
ATOM     63  C   UNL A   1      41.209  32.714  36.565  1.00  0.00     0.055 A 
ATOM     64  C   UNL A   1      43.011  33.756  35.366  1.00  0.00     0.041 A 
ATOM     65  F   UNL A   1      43.902  32.716  33.467  1.00  0.00    -0.206 F 
ATOM     66  C   UNL A   1      42.077  33.795  36.397  1.00  0.00     0.022 A 
BRANCH  63  67
ATOM     67  S   UNL A   1      39.827  32.834  37.735  1.00  0.00     0.124 S 
ATOM     68  O   UNL A   1      39.000  31.699  37.333  1.00  0.00    -0.237 OA
ATOM     69  O   UNL A   1      40.497  32.712  39.025  1.00  0.00    -0.237 OA
ATOM     70  O   UNL A   1      39.249  34.147  37.451  1.00  0.00    -0.744 OA
ENDBRANCH  63  67
ENDBRANCH  46  60
BRANCH  47  71
ATOM     71  C   UNL A   1      42.341  24.601  27.456  1.00  0.00     0.023 A 
ATOM     72  C   UNL A   1      41.613  23.401  27.473  1.00  0.00     0.031 A 
ATOM     73  C   UNL A   1      43.150  24.867  26.335  1.00  0.00     0.131 A 
ATOM     74  C   UNL A   1      41.732  22.497  26.405  1.00  0.00     0.055 A 
ATOM     75  C   UNL A   1      43.227  23.988  25.256  1.00  0.00     0.041 A 
ATOM     76  F   UNL A   1      43.859  26.005  26.266  1.00  0.00    -0.206 F 
ATOM     77  C   UNL A   1      42.522  22.789  25.290  1.00  0.00     0.022 A 
BRANCH  74  78
ATOM     78  S   UNL A   1      40.876  20.901  26.515  1.00  0.00     0.124 S 
ATOM     79  O   UNL A   1      40.875  20.662  27.954  1.00  0.00    -0.237 OA
ATOM     80  O   UNL A   1      39.582  21.209  25.914  1.00  0.00    -0.237 OA
ATOM     81  O   UNL A   1      41.725  20.005  25.733  1.00  0.00    -0.744 OA
ENDBRANCH  74  78
ENDBRANCH  47  71
BRANCH  59  82
ATOM     82  C   UNL A   1      46.484  25.970  32.908  1.00  0.00     0.023 A 
ATOM     83  C   UNL A   1      46.443  24.909  33.830  1.00  0.00     0.031 A 
ATOM     84  C   UNL A   1      47.744  26.418  32.475  1.00  0.00     0.131 A 
ATOM     85  C   UNL A   1      47.638  24.375  34.336  1.00  0.00     0.055 A 
ATOM     86  C   UNL A   1      48.930  25.838  32.930  1.00  0.00     0.041 A 
ATOM     87  F   UNL A   1      47.847  27.431  31.599  1.00  0.00    -0.206 F 
ATOM     88  C   UNL A   1      48.881  24.819  33.878  1.00  0.00     0.022 A 
BRANCH  85  89
ATOM     89  S   UNL A   1      47.549  23.160  35.681  1.00  0.00     0.124 S 
ATOM     90  O   UNL A   1      46.192  22.644  35.532  1.00  0.00    -0.237 OA
ATOM     91  O   UNL A   1      48.624  22.236  35.340  1.00  0.00    -0.237 OA
ATOM     92  O   UNL A   1      47.778  23.961  36.882  1.00  0.00    -0.744 OA
ENDBRANCH  85  89
ENDBRANCH  59  82
ENDBRANCH  33  34
ENDBRANCH  25  28
ENDBRANCH  23  24
ENDBRANCH   1  23
TORSDOF 15
ENDMDL
