MODEL 1
REMARK VINA RESULT:     -11.3      0.000      0.000
REMARK SMILES CC(C)[NH2+][C@@]1(C(=O)NCCCNC(=O)c2ccc(-c3c4nc(c(-c5cc(S(=O)(=O)[O-])ccc5F)c5ccc([nH]5)c(-c5cc(S(=O)(=O)[O-])ccc5F)c5nc(c(-c6cc(S(=O)(=O)[O-])ccc6F)c6ccc3[nH]6)C=C5)C=C4)cc2)CCC[C@H](SC2CCCCC2)C1
REMARK SMILES IDX 10 1 9 2 8 3 6 4 7 5 5 7 78 8 89 9 79 10 81 11 80 12 4 13
REMARK SMILES IDX 2 16 1 17 3 18 82 19 83 20 84 21 88 22 85 23 87 24 86 25
REMARK SMILES IDX 11 26 12 27 13 28 14 30 15 31 16 32 77 33 17 34 76 35 18 36
REMARK SMILES IDX 19 37 20 38 70 39 21 40 75 41 69 42 71 43 22 44 74 45 68 46
REMARK SMILES IDX 67 47 23 49 55 50 35 51 54 52 36 53 39 54 53 55 72 56 37 57
REMARK SMILES IDX 38 58 52 60 73 61 40 62 24 63 25 64 33 65 26 66 32 67 34 68
REMARK SMILES IDX 31 69 27 70 28 71 29 72 30 73 56 74 57 75 65 76 58 77 64 78
REMARK SMILES IDX 66 79 63 80 59 81 60 82 61 83 62 84 41 85 42 86 50 87 43 88
REMARK SMILES IDX 49 89 51 90 48 91 44 92 45 93 46 94 47 95
REMARK H PARENT 8 6 4 14 4 15 12 29 71 48 39 59
REMARK Flexibility Score: inf
ROOT
ATOM      1  C   UNL A   1      32.879  29.966  25.362  1.00  0.00     0.042 C 
ENDROOT
BRANCH   1   2
ATOM      2  C   UNL A   1      33.627  28.654  25.560  1.00  0.00     0.118 C 
BRANCH   2   3
ATOM      3  N   UNL A   1      33.641  27.884  24.323  1.00  0.00    -0.351 N 
ATOM      4  C   UNL A   1      33.038  26.757  23.872  1.00  0.00     0.281 C 
ATOM      5  O   UNL A   1      33.633  26.258  22.894  1.00  0.00    -0.268 OA
ATOM      6  H   UNL A   1      34.234  28.282  23.646  1.00  0.00     0.163 HD
BRANCH   4   7
ATOM      7  C   UNL A   1      31.706  26.018  24.418  1.00  0.00     0.176 C 
ATOM      8  C   UNL A   1      31.821  25.534  25.875  1.00  0.00     0.079 C 
ATOM      9  C   UNL A   1      31.272  24.955  23.352  1.00  0.00     0.093 C 
ATOM     10  C   UNL A   1      32.042  24.038  26.053  1.00  0.00     0.008 C 
ATOM     11  C   UNL A   1      31.265  23.441  23.726  1.00  0.00     0.053 C 
ATOM     12  C   UNL A   1      31.064  23.239  25.216  1.00  0.00     0.015 C 
BRANCH   7  13
ATOM     13  N   UNL A   1      30.740  27.174  24.361  1.00  0.00    -0.332 N 
ATOM     14  H   UNL A   1      29.999  26.934  25.020  1.00  0.00     0.347 HD
ATOM     15  H   UNL A   1      31.387  27.947  24.513  1.00  0.00     0.347 HD
BRANCH  13  16
ATOM     16  C   UNL A   1      30.049  27.659  23.175  1.00  0.00     0.176 C 
ATOM     17  C   UNL A   1      28.546  27.650  23.498  1.00  0.00     0.075 C 
ATOM     18  C   UNL A   1      30.417  29.056  22.680  1.00  0.00     0.075 C 
ENDBRANCH  13  16
ENDBRANCH   7  13
BRANCH  11  19
ATOM     19  S   UNL A   1      32.671  22.678  22.829  1.00  0.00    -0.155 SA
BRANCH  19  20
ATOM     20  C   UNL A   1      34.166  22.503  23.885  1.00  0.00     0.047 C 
ATOM     21  C   UNL A   1      34.430  21.269  24.754  1.00  0.00     0.014 C 
ATOM     22  C   UNL A   1      35.421  22.923  23.121  1.00  0.00     0.014 C 
ATOM     23  C   UNL A   1      35.583  21.509  25.731  1.00  0.00     0.001 C 
ATOM     24  C   UNL A   1      36.555  23.172  24.114  1.00  0.00     0.001 C 
ATOM     25  C   UNL A   1      36.840  21.964  24.997  1.00  0.00     0.000 C 
ENDBRANCH  19  20
ENDBRANCH  11  19
ENDBRANCH   4   7
ENDBRANCH   2   3
ENDBRANCH   1   2
BRANCH   1  26
ATOM     26  C   UNL A   1      31.880  30.433  26.418  1.00  0.00     0.118 C 
BRANCH  26  27
ATOM     27  N   UNL A   1      31.927  31.867  26.645  1.00  0.00    -0.352 N 
ATOM     28  C   UNL A   1      32.776  32.719  27.315  1.00  0.00     0.251 C 
ATOM     29  H   UNL A   1      31.177  32.341  26.220  1.00  0.00     0.163 HD
ATOM     30  O   UNL A   1      32.393  33.892  27.378  1.00  0.00    -0.269 OA
BRANCH  28  31
ATOM     31  C   UNL A   1      34.077  32.361  27.976  1.00  0.00     0.039 A 
ATOM     32  C   UNL A   1      34.104  31.156  28.710  1.00  0.00     0.014 A 
ATOM     33  C   UNL A   1      35.231  33.143  28.002  1.00  0.00     0.014 A 
ATOM     34  C   UNL A   1      35.248  30.734  29.411  1.00  0.00     0.010 A 
ATOM     35  C   UNL A   1      36.399  32.695  28.659  1.00  0.00     0.010 A 
ATOM     36  C   UNL A   1      36.424  31.487  29.377  1.00  0.00    -0.014 A 
BRANCH  36  37
ATOM     37  C   UNL A   1      37.667  31.047  30.088  1.00  0.00     0.031 A 
ATOM     38  C   UNL A   1      38.547  29.973  29.507  1.00  0.00     0.074 A 
ATOM     39  C   UNL A   1      38.003  31.570  31.286  1.00  0.00     0.049 A 
ATOM     40  N   UNL A   1      39.602  29.396  30.027  1.00  0.00    -0.248 NA
ATOM     41  C   UNL A   1      38.202  29.498  28.160  1.00  0.00     0.031 C 
ATOM     42  C   UNL A   1      37.299  32.661  31.947  1.00  0.00     0.029 A 
ATOM     43  N   UNL A   1      38.998  31.243  32.178  1.00  0.00    -0.354 N 
ATOM     44  C   UNL A   1      40.061  28.501  29.067  1.00  0.00     0.074 A 
ATOM     45  C   UNL A   1      39.131  28.574  27.957  1.00  0.00     0.031 C 
ATOM     46  C   UNL A   1      37.825  32.870  33.163  1.00  0.00     0.029 A 
ATOM     47  C   UNL A   1      38.912  31.922  33.375  1.00  0.00     0.049 A 
ATOM     48  H   UNL A   1      39.705  30.586  31.980  1.00  0.00     0.167 HD
ATOM     49  C   UNL A   1      41.167  27.715  29.097  1.00  0.00     0.034 A 
ATOM     50  C   UNL A   1      39.605  31.791  34.523  1.00  0.00     0.034 A 
ATOM     51  C   UNL A   1      42.087  27.638  30.208  1.00  0.00     0.049 A 
ATOM     52  C   UNL A   1      40.737  30.803  34.592  1.00  0.00     0.074 A 
ATOM     53  C   UNL A   1      43.266  26.916  30.302  1.00  0.00     0.029 A 
ATOM     54  N   UNL A   1      41.925  28.282  31.427  1.00  0.00    -0.354 N 
ATOM     55  N   UNL A   1      41.181  29.996  33.658  1.00  0.00    -0.248 NA
ATOM     56  C   UNL A   1      41.473  30.723  35.861  1.00  0.00     0.031 C 
ATOM     57  C   UNL A   1      43.774  27.062  31.599  1.00  0.00     0.029 A 
ATOM     58  C   UNL A   1      42.951  27.931  32.295  1.00  0.00     0.049 A 
ATOM     59  H   UNL A   1      41.188  28.898  31.645  1.00  0.00     0.167 HD
ATOM     60  C   UNL A   1      42.271  29.336  34.216  1.00  0.00     0.074 A 
ATOM     61  C   UNL A   1      42.418  29.843  35.565  1.00  0.00     0.031 C 
ATOM     62  C   UNL A   1      43.082  28.407  33.653  1.00  0.00     0.034 A 
BRANCH  49  63
ATOM     63  C   UNL A   1      41.424  26.844  27.890  1.00  0.00     0.023 A 
ATOM     64  C   UNL A   1      41.056  25.487  27.870  1.00  0.00     0.031 A 
ATOM     65  C   UNL A   1      42.056  27.375  26.752  1.00  0.00     0.131 A 
ATOM     66  C   UNL A   1      41.387  24.691  26.763  1.00  0.00     0.055 A 
ATOM     67  C   UNL A   1      42.316  26.594  25.625  1.00  0.00     0.041 A 
ATOM     68  F   UNL A   1      42.442  28.660  26.723  1.00  0.00    -0.206 F 
ATOM     69  C   UNL A   1      41.994  25.240  25.631  1.00  0.00     0.022 A 
BRANCH  66  70
ATOM     70  S   UNL A   1      41.127  22.899  26.877  1.00  0.00     0.124 S 
ATOM     71  O   UNL A   1      39.675  22.802  26.750  1.00  0.00    -0.237 OA
ATOM     72  O   UNL A   1      41.903  22.394  25.755  1.00  0.00    -0.237 OA
ATOM     73  O   UNL A   1      41.650  22.562  28.202  1.00  0.00    -0.744 OA
ENDBRANCH  66  70
ENDBRANCH  49  63
BRANCH  50  74
ATOM     74  C   UNL A   1      39.225  32.589  35.725  1.00  0.00     0.023 A 
ATOM     75  C   UNL A   1      39.700  33.895  35.914  1.00  0.00     0.031 A 
ATOM     76  C   UNL A   1      38.414  32.027  36.728  1.00  0.00     0.131 A 
ATOM     77  C   UNL A   1      39.393  34.584  37.098  1.00  0.00     0.055 A 
ATOM     78  C   UNL A   1      38.078  32.732  37.885  1.00  0.00     0.041 A 
ATOM     79  F   UNL A   1      37.934  30.781  36.593  1.00  0.00    -0.206 F 
ATOM     80  C   UNL A   1      38.578  34.015  38.079  1.00  0.00     0.022 A 
BRANCH  77  81
ATOM     81  S   UNL A   1      40.134  36.217  37.370  1.00  0.00     0.124 S 
ATOM     82  O   UNL A   1      40.027  36.818  36.046  1.00  0.00    -0.237 OA
ATOM     83  O   UNL A   1      39.264  36.775  38.401  1.00  0.00    -0.237 OA
ATOM     84  O   UNL A   1      41.493  35.906  37.808  1.00  0.00    -0.744 OA
ENDBRANCH  77  81
ENDBRANCH  50  74
BRANCH  62  85
ATOM     85  C   UNL A   1      44.224  27.898  34.497  1.00  0.00     0.023 A 
ATOM     86  C   UNL A   1      44.094  26.747  35.293  1.00  0.00     0.031 A 
ATOM     87  C   UNL A   1      45.448  28.589  34.528  1.00  0.00     0.131 A 
ATOM     88  C   UNL A   1      45.151  26.349  36.127  1.00  0.00     0.055 A 
ATOM     89  C   UNL A   1      46.516  28.158  35.317  1.00  0.00     0.041 A 
ATOM     90  F   UNL A   1      45.626  29.699  33.793  1.00  0.00    -0.206 F 
ATOM     91  C   UNL A   1      46.367  27.038  36.131  1.00  0.00     0.022 A 
BRANCH  88  92
ATOM     92  S   UNL A   1      44.891  24.962  37.267  1.00  0.00     0.124 S 
ATOM     93  O   UNL A   1      43.822  25.471  38.121  1.00  0.00    -0.237 OA
ATOM     94  O   UNL A   1      44.522  23.877  36.363  1.00  0.00    -0.237 OA
ATOM     95  O   UNL A   1      46.189  24.808  37.922  1.00  0.00    -0.744 OA
ENDBRANCH  88  92
ENDBRANCH  62  85
ENDBRANCH  36  37
ENDBRANCH  28  31
ENDBRANCH  26  27
ENDBRANCH   1  26
TORSDOF 17
ENDMDL
MODEL 2
REMARK VINA RESULT:     -11.3      1.624      2.001
REMARK SMILES CC(C)[NH2+][C@@]1(C(=O)NCCCNC(=O)c2ccc(-c3c4nc(c(-c5cc(S(=O)(=O)[O-])ccc5F)c5ccc([nH]5)c(-c5cc(S(=O)(=O)[O-])ccc5F)c5nc(c(-c6cc(S(=O)(=O)[O-])ccc6F)c6ccc3[nH]6)C=C5)C=C4)cc2)CCC[C@H](SC2CCCCC2)C1
REMARK SMILES IDX 10 1 9 2 8 3 6 4 7 5 5 7 78 8 89 9 79 10 81 11 80 12 4 13
REMARK SMILES IDX 2 16 1 17 3 18 82 19 83 20 84 21 88 22 85 23 87 24 86 25
REMARK SMILES IDX 11 26 12 27 13 28 14 30 15 31 16 32 77 33 17 34 76 35 18 36
REMARK SMILES IDX 19 37 20 38 70 39 21 40 75 41 69 42 71 43 22 44 74 45 68 46
REMARK SMILES IDX 67 47 23 49 55 50 35 51 54 52 36 53 39 54 53 55 72 56 37 57
REMARK SMILES IDX 38 58 52 60 73 61 40 62 24 63 25 64 33 65 26 66 32 67 34 68
REMARK SMILES IDX 31 69 27 70 28 71 29 72 30 73 56 74 57 75 65 76 58 77 64 78
REMARK SMILES IDX 66 79 63 80 59 81 60 82 61 83 62 84 41 85 42 86 50 87 43 88
REMARK SMILES IDX 49 89 51 90 48 91 44 92 45 93 46 94 47 95
REMARK H PARENT 8 6 4 14 4 15 12 29 71 48 39 59
REMARK Flexibility Score: inf
ROOT
ATOM      1  C   UNL A   1      32.270  30.827  27.319  1.00  0.00     0.042 C 
ENDROOT
BRANCH   1   2
ATOM      2  C   UNL A   1      31.970  29.460  26.719  1.00  0.00     0.118 C 
BRANCH   2   3
ATOM      3  N   UNL A   1      32.576  29.339  25.399  1.00  0.00    -0.351 N 
ATOM      4  C   UNL A   1      32.365  28.577  24.299  1.00  0.00     0.281 C 
ATOM      5  O   UNL A   1      33.358  28.546  23.543  1.00  0.00    -0.268 OA
ATOM      6  H   UNL A   1      33.323  29.968  25.275  1.00  0.00     0.163 HD
BRANCH   4   7
ATOM      7  C   UNL A   1      31.046  27.746  23.865  1.00  0.00     0.176 C 
ATOM      8  C   UNL A   1      30.502  26.827  24.972  1.00  0.00     0.079 C 
ATOM      9  C   UNL A   1      31.327  27.087  22.471  1.00  0.00     0.093 C 
ATOM     10  C   UNL A   1      30.804  25.344  24.800  1.00  0.00     0.008 C 
ATOM     11  C   UNL A   1      31.339  25.533  22.339  1.00  0.00     0.053 C 
ATOM     12  C   UNL A   1      30.470  24.879  23.397  1.00  0.00     0.015 C 
BRANCH   7  13
ATOM     13  N   UNL A   1      30.086  28.892  23.665  1.00  0.00    -0.332 N 
ATOM     14  H   UNL A   1      29.457  28.855  24.467  1.00  0.00     0.347 HD
ATOM     15  H   UNL A   1      30.751  29.650  23.517  1.00  0.00     0.347 HD
BRANCH  13  16
ATOM     16  C   UNL A   1      29.219  29.096  22.513  1.00  0.00     0.176 C 
ATOM     17  C   UNL A   1      27.783  28.800  22.977  1.00  0.00     0.075 C 
ATOM     18  C   UNL A   1      29.231  30.481  21.872  1.00  0.00     0.075 C 
ENDBRANCH  13  16
ENDBRANCH   7  13
BRANCH  11  19
ATOM     19  S   UNL A   1      33.090  25.046  22.093  1.00  0.00    -0.155 SA
BRANCH  19  20
ATOM     20  C   UNL A   1      33.793  24.188  23.559  1.00  0.00     0.047 C 
ATOM     21  C   UNL A   1      34.612  22.897  23.453  1.00  0.00     0.014 C 
ATOM     22  C   UNL A   1      34.453  25.187  24.508  1.00  0.00     0.014 C 
ATOM     23  C   UNL A   1      34.827  22.255  24.826  1.00  0.00     0.001 C 
ATOM     24  C   UNL A   1      34.644  24.533  25.875  1.00  0.00     0.001 C 
ATOM     25  C   UNL A   1      35.452  23.244  25.803  1.00  0.00     0.000 C 
ENDBRANCH  19  20
ENDBRANCH  11  19
ENDBRANCH   4   7
ENDBRANCH   2   3
ENDBRANCH   1   2
BRANCH   1  26
ATOM     26  C   UNL A   1      32.320  32.055  26.414  1.00  0.00     0.118 C 
BRANCH  26  27
ATOM     27  N   UNL A   1      32.288  33.305  27.155  1.00  0.00    -0.352 N 
ATOM     28  C   UNL A   1      33.071  33.877  28.132  1.00  0.00     0.251 C 
ATOM     29  H   UNL A   1      31.530  33.877  26.897  1.00  0.00     0.163 HD
ATOM     30  O   UNL A   1      32.629  34.931  28.603  1.00  0.00    -0.269 OA
BRANCH  28  31
ATOM     31  C   UNL A   1      34.366  33.346  28.677  1.00  0.00     0.039 A 
ATOM     32  C   UNL A   1      34.275  32.447  29.762  1.00  0.00     0.014 A 
ATOM     33  C   UNL A   1      35.647  33.718  28.271  1.00  0.00     0.014 A 
ATOM     34  C   UNL A   1      35.415  31.915  30.390  1.00  0.00     0.010 A 
ATOM     35  C   UNL A   1      36.794  33.142  28.863  1.00  0.00     0.010 A 
ATOM     36  C   UNL A   1      36.696  32.237  29.934  1.00  0.00    -0.014 A 
BRANCH  36  37
ATOM     37  C   UNL A   1      37.928  31.661  30.563  1.00  0.00     0.031 A 
ATOM     38  C   UNL A   1      38.687  30.548  29.891  1.00  0.00     0.074 A 
ATOM     39  C   UNL A   1      38.360  32.096  31.765  1.00  0.00     0.049 A 
ATOM     40  N   UNL A   1      39.712  29.862  30.332  1.00  0.00    -0.248 NA
ATOM     41  C   UNL A   1      38.243  30.170  28.543  1.00  0.00     0.031 C 
ATOM     42  C   UNL A   1      37.782  33.208  32.507  1.00  0.00     0.029 A 
ATOM     43  N   UNL A   1      39.364  31.645  32.591  1.00  0.00    -0.354 N 
ATOM     44  C   UNL A   1      40.050  28.980  29.312  1.00  0.00     0.074 A 
ATOM     45  C   UNL A   1      39.081  29.183  28.254  1.00  0.00     0.031 C 
ATOM     46  C   UNL A   1      38.378  33.313  33.705  1.00  0.00     0.029 A 
ATOM     47  C   UNL A   1      39.389  32.269  33.821  1.00  0.00     0.049 A 
ATOM     48  H   UNL A   1      40.003  30.943  32.330  1.00  0.00     0.167 HD
ATOM     49  C   UNL A   1      41.086  28.105  29.252  1.00  0.00     0.034 A 
ATOM     50  C   UNL A   1      40.119  32.027  34.926  1.00  0.00     0.034 A 
ATOM     51  C   UNL A   1      42.046  27.899  30.312  1.00  0.00     0.049 A 
ATOM     52  C   UNL A   1      41.166  30.946  34.895  1.00  0.00     0.074 A 
ATOM     53  C   UNL A   1      43.162  27.079  30.316  1.00  0.00     0.029 A 
ATOM     54  N   UNL A   1      41.993  28.493  31.566  1.00  0.00    -0.354 N 
ATOM     55  N   UNL A   1      41.497  30.152  33.905  1.00  0.00    -0.248 NA
ATOM     56  C   UNL A   1      41.949  30.744  36.121  1.00  0.00     0.031 C 
ATOM     57  C   UNL A   1      43.738  27.119  31.592  1.00  0.00     0.029 A 
ATOM     58  C   UNL A   1      43.023  28.017  32.366  1.00  0.00     0.049 A 
ATOM     59  H   UNL A   1      41.322  29.157  31.847  1.00  0.00     0.167 HD
ATOM     60  C   UNL A   1      42.552  29.378  34.380  1.00  0.00     0.074 A 
ATOM     61  C   UNL A   1      42.802  29.805  35.741  1.00  0.00     0.031 C 
ATOM     62  C   UNL A   1      43.255  28.414  33.736  1.00  0.00     0.034 A 
BRANCH  49  63
ATOM     63  C   UNL A   1      41.214  27.276  27.997  1.00  0.00     0.023 A 
ATOM     64  C   UNL A   1      40.832  25.923  27.965  1.00  0.00     0.031 A 
ATOM     65  C   UNL A   1      41.737  27.842  26.821  1.00  0.00     0.131 A 
ATOM     66  C   UNL A   1      41.043  25.164  26.805  1.00  0.00     0.055 A 
ATOM     67  C   UNL A   1      41.877  27.100  25.648  1.00  0.00     0.041 A 
ATOM     68  F   UNL A   1      42.132  29.125  26.799  1.00  0.00    -0.206 F 
ATOM     69  C   UNL A   1      41.542  25.749  25.639  1.00  0.00     0.022 A 
BRANCH  66  70
ATOM     70  S   UNL A   1      40.777  23.372  26.882  1.00  0.00     0.124 S 
ATOM     71  O   UNL A   1      41.219  23.065  28.241  1.00  0.00    -0.237 OA
ATOM     72  O   UNL A   1      39.348  23.252  26.632  1.00  0.00    -0.237 OA
ATOM     73  O   UNL A   1      41.644  22.852  25.824  1.00  0.00    -0.744 OA
ENDBRANCH  66  70
ENDBRANCH  49  63
BRANCH  50  74
ATOM     74  C   UNL A   1      39.863  32.793  36.179  1.00  0.00     0.023 A 
ATOM     75  C   UNL A   1      38.923  32.355  37.123  1.00  0.00     0.031 A 
ATOM     76  C   UNL A   1      40.531  34.007  36.423  1.00  0.00     0.131 A 
ATOM     77  C   UNL A   1      38.645  33.147  38.250  1.00  0.00     0.055 A 
ATOM     78  C   UNL A   1      40.282  34.769  37.566  1.00  0.00     0.041 A 
ATOM     79  F   UNL A   1      41.442  34.467  35.551  1.00  0.00    -0.206 F 
ATOM     80  C   UNL A   1      39.324  34.345  38.482  1.00  0.00     0.022 A 
BRANCH  77  81
ATOM     81  S   UNL A   1      37.327  32.619  39.379  1.00  0.00     0.124 S 
ATOM     82  O   UNL A   1      36.159  32.643  38.506  1.00  0.00    -0.237 OA
ATOM     83  O   UNL A   1      37.793  31.299  39.791  1.00  0.00    -0.237 OA
ATOM     84  O   UNL A   1      37.347  33.638  40.426  1.00  0.00    -0.744 OA
ENDBRANCH  77  81
ENDBRANCH  50  74
BRANCH  62  85
ATOM     85  C   UNL A   1      44.387  27.772  34.499  1.00  0.00     0.023 A 
ATOM     86  C   UNL A   1      44.218  26.552  35.177  1.00  0.00     0.031 A 
ATOM     87  C   UNL A   1      45.642  28.403  34.575  1.00  0.00     0.131 A 
ATOM     88  C   UNL A   1      45.271  26.026  35.943  1.00  0.00     0.055 A 
ATOM     89  C   UNL A   1      46.702  27.847  35.292  1.00  0.00     0.041 A 
ATOM     90  F   UNL A   1      45.857  29.573  33.952  1.00  0.00    -0.206 F 
ATOM     91  C   UNL A   1      46.516  26.657  35.992  1.00  0.00     0.022 A 
BRANCH  88  92
ATOM     92  S   UNL A   1      44.967  24.542  36.942  1.00  0.00     0.124 S 
ATOM     93  O   UNL A   1      46.324  24.097  37.241  1.00  0.00    -0.237 OA
ATOM     94  O   UNL A   1      44.207  25.072  38.070  1.00  0.00    -0.237 OA
ATOM     95  O   UNL A   1      44.212  23.671  36.043  1.00  0.00    -0.744 OA
ENDBRANCH  88  92
ENDBRANCH  62  85
ENDBRANCH  36  37
ENDBRANCH  28  31
ENDBRANCH  26  27
ENDBRANCH   1  26
TORSDOF 17
ENDMDL
MODEL 3
REMARK VINA RESULT:     -11.2      5.186      8.715
REMARK SMILES CC(C)[NH2+][C@@]1(C(=O)NCCCNC(=O)c2ccc(-c3c4nc(c(-c5cc(S(=O)(=O)[O-])ccc5F)c5ccc([nH]5)c(-c5cc(S(=O)(=O)[O-])ccc5F)c5nc(c(-c6cc(S(=O)(=O)[O-])ccc6F)c6ccc3[nH]6)C=C5)C=C4)cc2)CCC[C@H](SC2CCCCC2)C1
REMARK SMILES IDX 10 1 9 2 8 3 6 4 7 5 5 7 78 8 89 9 79 10 81 11 80 12 4 13
REMARK SMILES IDX 2 16 1 17 3 18 82 19 83 20 84 21 88 22 85 23 87 24 86 25
REMARK SMILES IDX 11 26 12 27 13 28 14 30 15 31 16 32 77 33 17 34 76 35 18 36
REMARK SMILES IDX 19 37 20 38 70 39 21 40 75 41 69 42 71 43 22 44 74 45 68 46
REMARK SMILES IDX 67 47 23 49 55 50 35 51 54 52 36 53 39 54 53 55 72 56 37 57
REMARK SMILES IDX 38 58 52 60 73 61 40 62 24 63 25 64 33 65 26 66 32 67 34 68
REMARK SMILES IDX 31 69 27 70 28 71 29 72 30 73 56 74 57 75 65 76 58 77 64 78
REMARK SMILES IDX 66 79 63 80 59 81 60 82 61 83 62 84 41 85 42 86 50 87 43 88
REMARK SMILES IDX 49 89 51 90 48 91 44 92 45 93 46 94 47 95
REMARK H PARENT 8 6 4 14 4 15 12 29 71 48 39 59
REMARK Flexibility Score: inf
ROOT
ATOM      1  C   UNL A   1      37.463  20.016  25.346  1.00  0.00     0.042 C 
ENDROOT
BRANCH   1   2
ATOM      2  C   UNL A   1      36.988  21.442  25.594  1.00  0.00     0.118 C 
BRANCH   2   3
ATOM      3  N   UNL A   1      35.825  21.446  26.472  1.00  0.00    -0.351 N 
ATOM      4  C   UNL A   1      34.492  21.636  26.320  1.00  0.00     0.281 C 
ATOM      5  O   UNL A   1      33.927  21.927  27.394  1.00  0.00    -0.268 OA
ATOM      6  H   UNL A   1      36.067  21.264  27.408  1.00  0.00     0.163 HD
BRANCH   4   7
ATOM      7  C   UNL A   1      33.588  21.535  24.981  1.00  0.00     0.176 C 
ATOM      8  C   UNL A   1      34.161  22.319  23.788  1.00  0.00     0.079 C 
ATOM      9  C   UNL A   1      32.102  21.835  25.378  1.00  0.00     0.093 C 
ATOM     10  C   UNL A   1      33.467  23.639  23.477  1.00  0.00     0.008 C 
ATOM     11  C   UNL A   1      31.377  23.078  24.777  1.00  0.00     0.053 C 
ATOM     12  C   UNL A   1      31.963  23.467  23.433  1.00  0.00     0.015 C 
BRANCH   7  13
ATOM     13  N   UNL A   1      33.720  20.058  24.704  1.00  0.00    -0.332 N 
ATOM     14  H   UNL A   1      34.130  19.998  23.772  1.00  0.00     0.347 HD
ATOM     15  H   UNL A   1      34.214  19.769  25.547  1.00  0.00     0.347 HD
BRANCH  13  16
ATOM     16  C   UNL A   1      32.638  19.084  24.706  1.00  0.00     0.176 C 
ATOM     17  C   UNL A   1      32.472  18.598  23.256  1.00  0.00     0.075 C 
ATOM     18  C   UNL A   1      32.810  17.857  25.598  1.00  0.00     0.075 C 
ENDBRANCH  13  16
ENDBRANCH   7  13
BRANCH  11  19
ATOM     19  S   UNL A   1      31.207  24.290  26.143  1.00  0.00    -0.155 SA
BRANCH  19  20
ATOM     20  C   UNL A   1      31.403  26.026  25.570  1.00  0.00     0.047 C 
ATOM     21  C   UNL A   1      30.389  26.717  24.653  1.00  0.00     0.014 C 
ATOM     22  C   UNL A   1      31.815  26.936  26.727  1.00  0.00     0.014 C 
ATOM     23  C   UNL A   1      30.935  28.040  24.111  1.00  0.00     0.001 C 
ATOM     24  C   UNL A   1      32.370  28.243  26.165  1.00  0.00     0.001 C 
ATOM     25  C   UNL A   1      31.387  28.954  25.244  1.00  0.00     0.000 C 
ENDBRANCH  19  20
ENDBRANCH  11  19
ENDBRANCH   4   7
ENDBRANCH   2   3
ENDBRANCH   1   2
BRANCH   1  26
ATOM     26  C   UNL A   1      38.924  19.758  24.987  1.00  0.00     0.118 C 
BRANCH  26  27
ATOM     27  N   UNL A   1      39.720  19.336  26.126  1.00  0.00    -0.352 N 
ATOM     28  C   UNL A   1      40.606  19.956  26.977  1.00  0.00     0.251 C 
ATOM     29  H   UNL A   1      39.596  18.384  26.340  1.00  0.00     0.163 HD
ATOM     30  O   UNL A   1      41.183  19.202  27.768  1.00  0.00    -0.269 OA
BRANCH  28  31
ATOM     31  C   UNL A   1      40.944  21.420  27.020  1.00  0.00     0.039 A 
ATOM     32  C   UNL A   1      41.726  21.857  28.110  1.00  0.00     0.014 A 
ATOM     33  C   UNL A   1      40.491  22.396  26.134  1.00  0.00     0.014 A 
ATOM     34  C   UNL A   1      42.071  23.210  28.287  1.00  0.00     0.010 A 
ATOM     35  C   UNL A   1      40.882  23.747  26.278  1.00  0.00     0.010 A 
ATOM     36  C   UNL A   1      41.673  24.175  27.358  1.00  0.00    -0.014 A 
BRANCH  36  37
ATOM     37  C   UNL A   1      42.051  25.617  27.504  1.00  0.00     0.031 A 
ATOM     38  C   UNL A   1      43.397  26.110  27.044  1.00  0.00     0.074 A 
ATOM     39  C   UNL A   1      41.214  26.498  28.090  1.00  0.00     0.049 A 
ATOM     40  N   UNL A   1      43.934  27.297  27.179  1.00  0.00    -0.248 NA
ATOM     41  C   UNL A   1      44.240  25.145  26.325  1.00  0.00     0.031 C 
ATOM     42  C   UNL A   1      39.856  26.197  28.523  1.00  0.00     0.029 A 
ATOM     43  N   UNL A   1      41.381  27.814  28.452  1.00  0.00    -0.354 N 
ATOM     44  C   UNL A   1      45.171  27.232  26.549  1.00  0.00     0.074 A 
ATOM     45  C   UNL A   1      45.325  25.868  26.082  1.00  0.00     0.031 C 
ATOM     46  C   UNL A   1      39.335  27.259  29.156  1.00  0.00     0.029 A 
ATOM     47  C   UNL A   1      40.326  28.327  29.177  1.00  0.00     0.049 A 
ATOM     48  H   UNL A   1      42.179  28.341  28.215  1.00  0.00     0.167 HD
ATOM     49  C   UNL A   1      46.080  28.221  26.354  1.00  0.00     0.034 A 
ATOM     50  C   UNL A   1      40.171  29.506  29.809  1.00  0.00     0.034 A 
ATOM     51  C   UNL A   1      45.928  29.577  26.828  1.00  0.00     0.049 A 
ATOM     52  C   UNL A   1      41.257  30.542  29.710  1.00  0.00     0.074 A 
ATOM     53  C   UNL A   1      46.768  30.659  26.625  1.00  0.00     0.029 A 
ATOM     54  N   UNL A   1      44.885  30.035  27.621  1.00  0.00    -0.354 N 
ATOM     55  N   UNL A   1      42.402  30.475  29.074  1.00  0.00    -0.248 NA
ATOM     56  C   UNL A   1      41.022  31.820  30.398  1.00  0.00     0.031 C 
ATOM     57  C   UNL A   1      46.274  31.748  27.355  1.00  0.00     0.029 A 
ATOM     58  C   UNL A   1      45.088  31.367  27.958  1.00  0.00     0.049 A 
ATOM     59  H   UNL A   1      44.112  29.494  27.903  1.00  0.00     0.167 HD
ATOM     60  C   UNL A   1      43.008  31.714  29.256  1.00  0.00     0.074 A 
ATOM     61  C   UNL A   1      42.101  32.509  30.058  1.00  0.00     0.031 C 
ATOM     62  C   UNL A   1      44.203  32.153  28.787  1.00  0.00     0.034 A 
BRANCH  49  63
ATOM     63  C   UNL A   1      47.345  27.856  25.615  1.00  0.00     0.023 A 
ATOM     64  C   UNL A   1      47.441  27.973  24.217  1.00  0.00     0.031 A 
ATOM     65  C   UNL A   1      48.464  27.372  26.316  1.00  0.00     0.131 A 
ATOM     66  C   UNL A   1      48.604  27.545  23.558  1.00  0.00     0.055 A 
ATOM     67  C   UNL A   1      49.644  27.017  25.661  1.00  0.00     0.041 A 
ATOM     68  F   UNL A   1      48.423  27.226  27.649  1.00  0.00    -0.206 F 
ATOM     69  C   UNL A   1      49.714  27.089  24.273  1.00  0.00     0.022 A 
BRANCH  66  70
ATOM     70  S   UNL A   1      48.595  27.473  21.746  1.00  0.00     0.124 S 
ATOM     71  O   UNL A   1      47.333  28.138  21.430  1.00  0.00    -0.237 OA
ATOM     72  O   UNL A   1      49.806  28.198  21.394  1.00  0.00    -0.237 OA
ATOM     73  O   UNL A   1      48.619  26.038  21.462  1.00  0.00    -0.744 OA
ENDBRANCH  66  70
ENDBRANCH  49  63
BRANCH  50  74
ATOM     74  C   UNL A   1      38.954  29.765  30.630  1.00  0.00     0.023 A 
ATOM     75  C   UNL A   1      37.941  30.626  30.184  1.00  0.00     0.031 A 
ATOM     76  C   UNL A   1      38.814  29.183  31.904  1.00  0.00     0.131 A 
ATOM     77  C   UNL A   1      36.851  30.914  31.020  1.00  0.00     0.055 A 
ATOM     78  C   UNL A   1      37.708  29.440  32.715  1.00  0.00     0.041 A 
ATOM     79  F   UNL A   1      39.756  28.350  32.375  1.00  0.00    -0.206 F 
ATOM     80  C   UNL A   1      36.723  30.320  32.278  1.00  0.00     0.022 A 
BRANCH  77  81
ATOM     81  S   UNL A   1      35.630  32.137  30.467  1.00  0.00     0.124 S 
ATOM     82  O   UNL A   1      35.109  31.512  29.257  1.00  0.00    -0.237 OA
ATOM     83  O   UNL A   1      34.718  32.189  31.606  1.00  0.00    -0.237 OA
ATOM     84  O   UNL A   1      36.427  33.343  30.256  1.00  0.00    -0.744 OA
ENDBRANCH  77  81
ENDBRANCH  50  74
BRANCH  62  85
ATOM     85  C   UNL A   1      44.581  33.577  29.111  1.00  0.00     0.023 A 
ATOM     86  C   UNL A   1      44.154  34.651  28.311  1.00  0.00     0.031 A 
ATOM     87  C   UNL A   1      45.401  33.861  30.217  1.00  0.00     0.131 A 
ATOM     88  C   UNL A   1      44.592  35.954  28.597  1.00  0.00     0.055 A 
ATOM     89  C   UNL A   1      45.788  35.165  30.530  1.00  0.00     0.041 A 
ATOM     90  F   UNL A   1      45.843  32.873  31.012  1.00  0.00    -0.206 F 
ATOM     91  C   UNL A   1      45.393  36.220  29.711  1.00  0.00     0.022 A 
BRANCH  88  92
ATOM     92  S   UNL A   1      44.165  37.292  27.448  1.00  0.00     0.124 S 
ATOM     93  O   UNL A   1      45.419  37.480  26.725  1.00  0.00    -0.237 OA
ATOM     94  O   UNL A   1      43.069  36.709  26.681  1.00  0.00    -0.237 OA
ATOM     95  O   UNL A   1      43.785  38.394  28.330  1.00  0.00    -0.744 OA
ENDBRANCH  88  92
ENDBRANCH  62  85
ENDBRANCH  36  37
ENDBRANCH  28  31
ENDBRANCH  26  27
ENDBRANCH   1  26
TORSDOF 17
ENDMDL
