MODEL 1
REMARK VINA RESULT:     -12.6      0.000      0.000
REMARK SMILES Cc1cccc(CS(=O)(=O)c2ccc(C(=O)NCCCNC(=O)c3ccc(-c4c5nc(c(-c6cc(S(=O)(=O)[O-])ccc6F)c6ccc([nH]6)c(-c6cc(S(=O)(=O)[O-])ccc6F)c6nc(c(-c7cc(S(=O)(=O)[O-])ccc7F)c7ccc4[nH]7)C=C6)C=C5)cc3)cc2F)n1
REMARK SMILES IDX 19 1 18 2 17 3 15 4 16 5 14 7 11 8 12 9 88 10 13 11 87 12
REMARK SMILES IDX 89 13 8 14 9 15 10 16 7 17 6 18 1 19 2 20 3 21 90 22 4 23
REMARK SMILES IDX 5 24 20 25 21 26 22 27 23 29 24 30 25 31 86 32 26 33 85 34
REMARK SMILES IDX 27 35 28 36 29 37 79 38 30 39 84 40 78 41 80 42 31 43 83 44
REMARK SMILES IDX 77 45 76 46 32 48 64 49 44 50 63 51 45 52 48 53 62 54 81 55
REMARK SMILES IDX 46 56 47 57 61 59 82 60 49 61 33 62 34 63 42 64 35 65 41 66
REMARK SMILES IDX 43 67 40 68 36 69 37 70 38 71 39 72 65 73 66 74 74 75 67 76
REMARK SMILES IDX 73 77 75 78 72 79 68 80 69 81 70 82 71 83 50 84 51 85 59 86
REMARK SMILES IDX 52 87 58 88 60 89 57 90 53 91 54 92 55 93 56 94
REMARK H PARENT 17 6 21 28 80 47 48 58
REMARK Flexibility Score: inf
ROOT
ATOM      1  C   UNL A   1      33.477  28.766  23.900  1.00  0.00     0.042 C 
ENDROOT
BRANCH   1   2
ATOM      2  C   UNL A   1      32.303  28.460  22.971  1.00  0.00     0.118 C 
BRANCH   2   3
ATOM      3  N   UNL A   1      32.730  27.643  21.849  1.00  0.00    -0.352 N 
ATOM      4  C   UNL A   1      32.954  26.299  21.728  1.00  0.00     0.251 C 
ATOM      5  O   UNL A   1      33.276  25.856  20.625  1.00  0.00    -0.269 OA
ATOM      6  H   UNL A   1      32.889  28.151  21.021  1.00  0.00     0.163 HD
BRANCH   4   7
ATOM      7  C   UNL A   1      32.757  25.342  22.846  1.00  0.00     0.042 A 
ATOM      8  C   UNL A   1      32.189  23.508  24.904  1.00  0.00     0.103 A 
ATOM      9  C   UNL A   1      31.238  23.775  23.917  1.00  0.00     0.024 A 
ATOM     10  C   UNL A   1      33.413  24.167  24.859  1.00  0.00     0.142 A 
ATOM     11  C   UNL A   1      31.532  24.661  22.878  1.00  0.00     0.015 A 
ATOM     12  C   UNL A   1      33.705  25.068  23.831  1.00  0.00     0.054 A 
ATOM     13  F   UNL A   1      34.350  23.989  25.798  1.00  0.00    -0.206 F 
BRANCH   8  14
ATOM     14  S   UNL A   1      31.785  22.431  26.256  1.00  0.00     0.186 S 
ATOM     15  O   UNL A   1      30.497  21.834  25.922  1.00  0.00    -0.223 OA
ATOM     16  O   UNL A   1      31.894  23.191  27.482  1.00  0.00    -0.223 OA
BRANCH  14  17
ATOM     17  C   UNL A   1      33.067  21.194  26.353  1.00  0.00     0.198 C 
BRANCH  17  18
ATOM     18  C   UNL A   1      32.886  20.106  25.340  1.00  0.00     0.056 A 
ATOM     19  C   UNL A   1      32.538  16.450  25.503  1.00  0.00     0.067 C 
ATOM     20  C   UNL A   1      32.651  17.823  24.914  1.00  0.00     0.038 A 
ATOM     21  C   UNL A   1      32.463  18.050  23.559  1.00  0.00     0.023 A 
ATOM     22  N   UNL A   1      32.883  18.830  25.787  1.00  0.00    -0.257 NA
ATOM     23  C   UNL A   1      32.525  19.359  23.091  1.00  0.00     0.004 A 
ATOM     24  C   UNL A   1      32.739  20.403  23.988  1.00  0.00     0.025 A 
ENDBRANCH  17  18
ENDBRANCH  14  17
ENDBRANCH   8  14
ENDBRANCH   4   7
ENDBRANCH   2   3
ENDBRANCH   1   2
BRANCH   1  25
ATOM     25  C   UNL A   1      33.065  28.920  25.362  1.00  0.00     0.118 C 
BRANCH  25  26
ATOM     26  N   UNL A   1      32.575  30.261  25.648  1.00  0.00    -0.352 N 
ATOM     27  C   UNL A   1      32.904  31.117  26.668  1.00  0.00     0.251 C 
ATOM     28  H   UNL A   1      31.904  30.604  25.014  1.00  0.00     0.163 HD
ATOM     29  O   UNL A   1      32.192  32.094  26.881  1.00  0.00    -0.269 OA
BRANCH  27  30
ATOM     30  C   UNL A   1      34.099  30.869  27.505  1.00  0.00     0.039 A 
ATOM     31  C   UNL A   1      34.319  29.581  28.002  1.00  0.00     0.014 A 
ATOM     32  C   UNL A   1      34.976  31.906  27.838  1.00  0.00     0.014 A 
ATOM     33  C   UNL A   1      35.444  29.324  28.789  1.00  0.00     0.010 A 
ATOM     34  C   UNL A   1      36.134  31.633  28.563  1.00  0.00     0.010 A 
ATOM     35  C   UNL A   1      36.377  30.341  29.050  1.00  0.00    -0.014 A 
BRANCH  35  36
ATOM     36  C   UNL A   1      37.610  30.070  29.833  1.00  0.00     0.031 A 
ATOM     37  C   UNL A   1      38.718  29.245  29.238  1.00  0.00     0.074 A 
ATOM     38  C   UNL A   1      37.709  30.529  31.098  1.00  0.00     0.049 A 
ATOM     39  N   UNL A   1      39.828  28.831  29.793  1.00  0.00    -0.248 NA
ATOM     40  C   UNL A   1      38.547  28.807  27.843  1.00  0.00     0.031 C 
ATOM     41  C   UNL A   1      36.690  31.323  31.788  1.00  0.00     0.029 A 
ATOM     42  N   UNL A   1      38.710  30.398  32.026  1.00  0.00    -0.354 N 
ATOM     43  C   UNL A   1      40.481  28.080  28.823  1.00  0.00     0.074 A 
ATOM     44  C   UNL A   1      39.620  28.051  27.661  1.00  0.00     0.031 C 
ATOM     45  C   UNL A   1      37.135  31.638  33.015  1.00  0.00     0.029 A 
ATOM     46  C   UNL A   1      38.444  31.027  33.221  1.00  0.00     0.049 A 
ATOM     47  H   UNL A   1      39.542  29.900  31.854  1.00  0.00     0.167 HD
ATOM     48  C   UNL A   1      41.698  27.486  28.891  1.00  0.00     0.034 A 
ATOM     49  C   UNL A   1      39.166  31.097  34.356  1.00  0.00     0.034 A 
ATOM     50  C   UNL A   1      42.556  27.544  30.046  1.00  0.00     0.049 A 
ATOM     51  C   UNL A   1      40.499  30.401  34.418  1.00  0.00     0.074 A 
ATOM     52  C   UNL A   1      43.827  27.016  30.198  1.00  0.00     0.029 A 
ATOM     53  N   UNL A   1      42.238  28.167  31.244  1.00  0.00    -0.354 N 
ATOM     54  N   UNL A   1      41.101  29.695  33.488  1.00  0.00    -0.248 NA
ATOM     55  C   UNL A   1      41.249  30.507  35.676  1.00  0.00     0.031 C 
ATOM     56  C   UNL A   1      44.250  27.266  31.506  1.00  0.00     0.029 A 
ATOM     57  C   UNL A   1      43.276  28.012  32.149  1.00  0.00     0.049 A 
ATOM     58  H   UNL A   1      41.398  28.649  31.425  1.00  0.00     0.167 HD
ATOM     59  C   UNL A   1      42.312  29.293  34.044  1.00  0.00     0.074 A 
ATOM     60  C   UNL A   1      42.356  29.835  35.387  1.00  0.00     0.031 C 
ATOM     61  C   UNL A   1      43.299  28.547  33.489  1.00  0.00     0.034 A 
BRANCH  48  62
ATOM     62  C   UNL A   1      42.170  26.712  27.688  1.00  0.00     0.023 A 
ATOM     63  C   UNL A   1      41.904  25.341  27.544  1.00  0.00     0.031 A 
ATOM     64  C   UNL A   1      42.867  27.363  26.654  1.00  0.00     0.131 A 
ATOM     65  C   UNL A   1      42.365  24.655  26.410  1.00  0.00     0.055 A 
ATOM     66  C   UNL A   1      43.268  26.690  25.499  1.00  0.00     0.041 A 
ATOM     67  F   UNL A   1      43.164  28.670  26.748  1.00  0.00    -0.206 F 
ATOM     68  C   UNL A   1      43.022  25.325  25.375  1.00  0.00     0.022 A 
BRANCH  65  69
ATOM     69  S   UNL A   1      42.154  22.856  26.337  1.00  0.00     0.124 S 
ATOM     70  O   UNL A   1      40.713  22.721  26.529  1.00  0.00    -0.237 OA
ATOM     71  O   UNL A   1      42.655  22.529  25.008  1.00  0.00    -0.237 OA
ATOM     72  O   UNL A   1      42.973  22.370  27.447  1.00  0.00    -0.744 OA
ENDBRANCH  65  69
ENDBRANCH  48  62
BRANCH  49  73
ATOM     73  C   UNL A   1      38.638  31.850  35.528  1.00  0.00     0.023 A 
ATOM     74  C   UNL A   1      38.066  31.177  36.618  1.00  0.00     0.031 A 
ATOM     75  C   UNL A   1      38.710  33.253  35.577  1.00  0.00     0.131 A 
ATOM     76  C   UNL A   1      37.568  31.910  37.707  1.00  0.00     0.055 A 
ATOM     77  C   UNL A   1      38.249  33.975  36.679  1.00  0.00     0.041 A 
ATOM     78  F   UNL A   1      39.258  33.941  34.562  1.00  0.00    -0.206 F 
ATOM     79  C   UNL A   1      37.668  33.302  37.750  1.00  0.00     0.022 A 
BRANCH  76  80
ATOM     80  S   UNL A   1      36.759  31.016  39.061  1.00  0.00     0.124 S 
ATOM     81  O   UNL A   1      36.522  29.710  38.454  1.00  0.00    -0.237 OA
ATOM     82  O   UNL A   1      37.773  31.063  40.108  1.00  0.00    -0.237 OA
ATOM     83  O   UNL A   1      35.560  31.810  39.323  1.00  0.00    -0.744 OA
ENDBRANCH  76  80
ENDBRANCH  49  73
BRANCH  61  84
ATOM     84  C   UNL A   1      44.530  28.295  34.317  1.00  0.00     0.023 A 
ATOM     85  C   UNL A   1      44.647  27.157  35.132  1.00  0.00     0.031 A 
ATOM     86  C   UNL A   1      45.622  29.179  34.242  1.00  0.00     0.131 A 
ATOM     87  C   UNL A   1      45.825  26.944  35.863  1.00  0.00     0.055 A 
ATOM     88  C   UNL A   1      46.808  28.936  34.935  1.00  0.00     0.041 A 
ATOM     89  F   UNL A   1      45.559  30.277  33.474  1.00  0.00    -0.206 F 
ATOM     90  C   UNL A   1      46.913  27.816  35.753  1.00  0.00     0.022 A 
BRANCH  87  91
ATOM     91  S   UNL A   1      45.910  25.522  36.983  1.00  0.00     0.124 S 
ATOM     92  O   UNL A   1      44.507  25.325  37.329  1.00  0.00    -0.237 OA
ATOM     93  O   UNL A   1      46.510  24.491  36.141  1.00  0.00    -0.237 OA
ATOM     94  O   UNL A   1      46.758  25.996  38.076  1.00  0.00    -0.744 OA
ENDBRANCH  87  91
ENDBRANCH  61  84
ENDBRANCH  35  36
ENDBRANCH  27  30
ENDBRANCH  25  26
ENDBRANCH   1  25
TORSDOF 16
ENDMDL
MODEL 2
REMARK VINA RESULT:     -12.4      2.501      3.352
REMARK SMILES Cc1cccc(CS(=O)(=O)c2ccc(C(=O)NCCCNC(=O)c3ccc(-c4c5nc(c(-c6cc(S(=O)(=O)[O-])ccc6F)c6ccc([nH]6)c(-c6cc(S(=O)(=O)[O-])ccc6F)c6nc(c(-c7cc(S(=O)(=O)[O-])ccc7F)c7ccc4[nH]7)C=C6)C=C5)cc3)cc2F)n1
REMARK SMILES IDX 19 1 18 2 17 3 15 4 16 5 14 7 11 8 12 9 88 10 13 11 87 12
REMARK SMILES IDX 89 13 8 14 9 15 10 16 7 17 6 18 1 19 2 20 3 21 90 22 4 23
REMARK SMILES IDX 5 24 20 25 21 26 22 27 23 29 24 30 25 31 86 32 26 33 85 34
REMARK SMILES IDX 27 35 28 36 29 37 79 38 30 39 84 40 78 41 80 42 31 43 83 44
REMARK SMILES IDX 77 45 76 46 32 48 64 49 44 50 63 51 45 52 48 53 62 54 81 55
REMARK SMILES IDX 46 56 47 57 61 59 82 60 49 61 33 62 34 63 42 64 35 65 41 66
REMARK SMILES IDX 43 67 40 68 36 69 37 70 38 71 39 72 65 73 66 74 74 75 67 76
REMARK SMILES IDX 73 77 75 78 72 79 68 80 69 81 70 82 71 83 50 84 51 85 59 86
REMARK SMILES IDX 52 87 58 88 60 89 57 90 53 91 54 92 55 93 56 94
REMARK H PARENT 17 6 21 28 80 47 48 58
REMARK Flexibility Score: inf
ROOT
ATOM      1  C   UNL A   1      31.398  31.736  26.515  1.00  0.00     0.042 C 
ENDROOT
BRANCH   1   2
ATOM      2  C   UNL A   1      31.617  30.464  25.698  1.00  0.00     0.118 C 
BRANCH   2   3
ATOM      3  N   UNL A   1      30.720  30.419  24.557  1.00  0.00    -0.352 N 
ATOM      4  C   UNL A   1      30.454  29.439  23.640  1.00  0.00     0.251 C 
ATOM      5  O   UNL A   1      29.598  29.658  22.783  1.00  0.00    -0.269 OA
ATOM      6  H   UNL A   1      30.209  31.249  24.416  1.00  0.00     0.163 HD
BRANCH   4   7
ATOM      7  C   UNL A   1      31.098  28.102  23.676  1.00  0.00     0.042 A 
ATOM      8  C   UNL A   1      32.458  25.640  23.613  1.00  0.00     0.103 A 
ATOM      9  C   UNL A   1      32.986  26.752  22.953  1.00  0.00     0.024 A 
ATOM     10  C   UNL A   1      31.251  25.765  24.291  1.00  0.00     0.142 A 
ATOM     11  C   UNL A   1      32.326  27.981  23.012  1.00  0.00     0.015 A 
ATOM     12  C   UNL A   1      30.579  26.990  24.338  1.00  0.00     0.054 A 
ATOM     13  F   UNL A   1      30.671  24.728  24.907  1.00  0.00    -0.206 F 
BRANCH   8  14
ATOM     14  S   UNL A   1      33.267  24.065  23.481  1.00  0.00     0.186 S 
ATOM     15  O   UNL A   1      34.493  24.305  22.727  1.00  0.00    -0.223 OA
ATOM     16  O   UNL A   1      32.311  23.113  22.955  1.00  0.00    -0.223 OA
BRANCH  14  17
ATOM     17  C   UNL A   1      33.624  23.508  25.137  1.00  0.00     0.198 C 
BRANCH  17  18
ATOM     18  C   UNL A   1      35.064  23.136  25.315  1.00  0.00     0.056 A 
ATOM     19  C   UNL A   1      37.005  20.040  24.915  1.00  0.00     0.067 C 
ATOM     20  C   UNL A   1      36.699  21.472  25.232  1.00  0.00     0.038 A 
ATOM     21  C   UNL A   1      37.702  22.381  25.529  1.00  0.00     0.023 A 
ATOM     22  N   UNL A   1      35.398  21.837  25.150  1.00  0.00    -0.257 NA
ATOM     23  C   UNL A   1      37.350  23.708  25.755  1.00  0.00     0.004 A 
ATOM     24  C   UNL A   1      36.015  24.095  25.649  1.00  0.00     0.025 A 
ENDBRANCH  17  18
ENDBRANCH  14  17
ENDBRANCH   8  14
ENDBRANCH   4   7
ENDBRANCH   2   3
ENDBRANCH   1   2
BRANCH   1  25
ATOM     25  C   UNL A   1      32.697  32.361  27.018  1.00  0.00     0.118 C 
BRANCH  25  26
ATOM     26  N   UNL A   1      32.508  33.744  27.430  1.00  0.00    -0.352 N 
ATOM     27  C   UNL A   1      33.070  34.434  28.475  1.00  0.00     0.251 C 
ATOM     28  H   UNL A   1      31.881  34.263  26.876  1.00  0.00     0.163 HD
ATOM     29  O   UNL A   1      32.585  35.512  28.808  1.00  0.00    -0.269 OA
BRANCH  27  30
ATOM     30  C   UNL A   1      34.241  33.887  29.196  1.00  0.00     0.039 A 
ATOM     31  C   UNL A   1      34.027  33.042  30.288  1.00  0.00     0.014 A 
ATOM     32  C   UNL A   1      35.544  34.240  28.830  1.00  0.00     0.014 A 
ATOM     33  C   UNL A   1      35.119  32.511  30.978  1.00  0.00     0.010 A 
ATOM     34  C   UNL A   1      36.631  33.654  29.474  1.00  0.00     0.010 A 
ATOM     35  C   UNL A   1      36.430  32.788  30.558  1.00  0.00    -0.014 A 
BRANCH  35  36
ATOM     36  C   UNL A   1      37.602  32.182  31.242  1.00  0.00     0.031 A 
ATOM     37  C   UNL A   1      38.353  31.051  30.595  1.00  0.00     0.074 A 
ATOM     38  C   UNL A   1      37.956  32.622  32.467  1.00  0.00     0.049 A 
ATOM     39  N   UNL A   1      39.343  30.340  31.071  1.00  0.00    -0.248 NA
ATOM     40  C   UNL A   1      37.923  30.650  29.246  1.00  0.00     0.031 C 
ATOM     41  C   UNL A   1      37.289  33.699  33.201  1.00  0.00     0.029 A 
ATOM     42  N   UNL A   1      38.962  32.222  33.309  1.00  0.00    -0.354 N 
ATOM     43  C   UNL A   1      39.647  29.405  30.088  1.00  0.00     0.074 A 
ATOM     44  C   UNL A   1      38.703  29.605  29.010  1.00  0.00     0.031 C 
ATOM     45  C   UNL A   1      37.927  33.898  34.366  1.00  0.00     0.029 A 
ATOM     46  C   UNL A   1      39.014  32.930  34.487  1.00  0.00     0.049 A 
ATOM     47  H   UNL A   1      39.591  31.495  33.090  1.00  0.00     0.167 HD
ATOM     48  C   UNL A   1      40.636  28.479  30.079  1.00  0.00     0.034 A 
ATOM     49  C   UNL A   1      39.834  32.810  35.549  1.00  0.00     0.034 A 
ATOM     50  C   UNL A   1      41.585  28.307  31.149  1.00  0.00     0.049 A 
ATOM     51  C   UNL A   1      40.904  31.751  35.529  1.00  0.00     0.074 A 
ATOM     52  C   UNL A   1      42.654  27.430  31.216  1.00  0.00     0.029 A 
ATOM     53  N   UNL A   1      41.585  29.025  32.336  1.00  0.00    -0.354 N 
ATOM     54  N   UNL A   1      41.176  30.876  34.589  1.00  0.00    -0.248 NA
ATOM     55  C   UNL A   1      41.774  31.660  36.708  1.00  0.00     0.031 C 
ATOM     56  C   UNL A   1      43.260  27.574  32.467  1.00  0.00     0.029 A 
ATOM     57  C   UNL A   1      42.616  28.591  33.153  1.00  0.00     0.049 A 
ATOM     58  H   UNL A   1      40.946  29.739  32.565  1.00  0.00     0.167 HD
ATOM     59  C   UNL A   1      42.265  30.146  35.055  1.00  0.00     0.074 A 
ATOM     60  C   UNL A   1      42.601  30.683  36.358  1.00  0.00     0.031 C 
ATOM     61  C   UNL A   1      42.929  29.128  34.455  1.00  0.00     0.034 A 
BRANCH  48  62
ATOM     62  C   UNL A   1      40.738  27.571  28.882  1.00  0.00     0.023 A 
ATOM     63  C   UNL A   1      41.681  27.797  27.865  1.00  0.00     0.031 A 
ATOM     64  C   UNL A   1      39.904  26.444  28.773  1.00  0.00     0.131 A 
ATOM     65  C   UNL A   1      41.742  26.930  26.764  1.00  0.00     0.055 A 
ATOM     66  C   UNL A   1      40.012  25.550  27.706  1.00  0.00     0.041 A 
ATOM     67  F   UNL A   1      38.973  26.190  29.707  1.00  0.00    -0.206 F 
ATOM     68  C   UNL A   1      40.932  25.793  26.690  1.00  0.00     0.022 A 
BRANCH  65  69
ATOM     69  S   UNL A   1      42.848  27.346  25.390  1.00  0.00     0.124 S 
ATOM     70  O   UNL A   1      42.856  26.098  24.631  1.00  0.00    -0.237 OA
ATOM     71  O   UNL A   1      42.168  28.471  24.761  1.00  0.00    -0.237 OA
ATOM     72  O   UNL A   1      44.109  27.673  26.053  1.00  0.00    -0.744 OA
ENDBRANCH  65  69
ENDBRANCH  48  62
BRANCH  49  73
ATOM     73  C   UNL A   1      39.670  33.714  36.721  1.00  0.00     0.023 A 
ATOM     74  C   UNL A   1      39.127  33.241  37.925  1.00  0.00     0.031 A 
ATOM     75  C   UNL A   1      40.067  35.061  36.656  1.00  0.00     0.131 A 
ATOM     76  C   UNL A   1      38.975  34.114  39.013  1.00  0.00     0.055 A 
ATOM     77  C   UNL A   1      39.951  35.916  37.754  1.00  0.00     0.041 A 
ATOM     78  F   UNL A   1      40.603  35.557  35.530  1.00  0.00    -0.206 F 
ATOM     79  C   UNL A   1      39.396  35.445  38.939  1.00  0.00     0.022 A 
BRANCH  76  80
ATOM     80  S   UNL A   1      38.190  33.494  40.525  1.00  0.00     0.124 S 
ATOM     81  O   UNL A   1      36.844  33.184  40.055  1.00  0.00    -0.237 OA
ATOM     82  O   UNL A   1      39.033  32.351  40.861  1.00  0.00    -0.237 OA
ATOM     83  O   UNL A   1      38.286  34.625  41.446  1.00  0.00    -0.744 OA
ENDBRANCH  76  80
ENDBRANCH  49  73
BRANCH  61  84
ATOM     84  C   UNL A   1      44.109  28.542  35.184  1.00  0.00     0.023 A 
ATOM     85  C   UNL A   1      43.947  27.551  36.167  1.00  0.00     0.031 A 
ATOM     86  C   UNL A   1      45.414  28.941  34.846  1.00  0.00     0.131 A 
ATOM     87  C   UNL A   1      45.076  27.009  36.798  1.00  0.00     0.055 A 
ATOM     88  C   UNL A   1      46.535  28.364  35.444  1.00  0.00     0.041 A 
ATOM     89  F   UNL A   1      45.620  29.881  33.910  1.00  0.00    -0.206 F 
ATOM     90  C   UNL A   1      46.369  27.394  36.429  1.00  0.00     0.022 A 
BRANCH  87  91
ATOM     91  S   UNL A   1      44.835  25.806  38.133  1.00  0.00     0.124 S 
ATOM     92  O   UNL A   1      44.045  24.774  37.470  1.00  0.00    -0.237 OA
ATOM     93  O   UNL A   1      46.204  25.438  38.478  1.00  0.00    -0.237 OA
ATOM     94  O   UNL A   1      44.124  26.568  39.158  1.00  0.00    -0.744 OA
ENDBRANCH  87  91
ENDBRANCH  61  84
ENDBRANCH  35  36
ENDBRANCH  27  30
ENDBRANCH  25  26
ENDBRANCH   1  25
TORSDOF 16
ENDMDL
MODEL 3
REMARK VINA RESULT:     -12.4      5.717     10.977
REMARK SMILES Cc1cccc(CS(=O)(=O)c2ccc(C(=O)NCCCNC(=O)c3ccc(-c4c5nc(c(-c6cc(S(=O)(=O)[O-])ccc6F)c6ccc([nH]6)c(-c6cc(S(=O)(=O)[O-])ccc6F)c6nc(c(-c7cc(S(=O)(=O)[O-])ccc7F)c7ccc4[nH]7)C=C6)C=C5)cc3)cc2F)n1
REMARK SMILES IDX 19 1 18 2 17 3 15 4 16 5 14 7 11 8 12 9 88 10 13 11 87 12
REMARK SMILES IDX 89 13 8 14 9 15 10 16 7 17 6 18 1 19 2 20 3 21 90 22 4 23
REMARK SMILES IDX 5 24 20 25 21 26 22 27 23 29 24 30 25 31 86 32 26 33 85 34
REMARK SMILES IDX 27 35 28 36 29 37 79 38 30 39 84 40 78 41 80 42 31 43 83 44
REMARK SMILES IDX 77 45 76 46 32 48 64 49 44 50 63 51 45 52 48 53 62 54 81 55
REMARK SMILES IDX 46 56 47 57 61 59 82 60 49 61 33 62 34 63 42 64 35 65 41 66
REMARK SMILES IDX 43 67 40 68 36 69 37 70 38 71 39 72 65 73 66 74 74 75 67 76
REMARK SMILES IDX 73 77 75 78 72 79 68 80 69 81 70 82 71 83 50 84 51 85 59 86
REMARK SMILES IDX 52 87 58 88 60 89 57 90 53 91 54 92 55 93 56 94
REMARK H PARENT 17 6 21 28 80 47 48 58
REMARK Flexibility Score: inf
ROOT
ATOM      1  C   UNL A   1      38.179  19.633  24.949  1.00  0.00     0.042 C 
ENDROOT
BRANCH   1   2
ATOM      2  C   UNL A   1      37.151  20.731  24.683  1.00  0.00     0.118 C 
BRANCH   2   3
ATOM      3  N   UNL A   1      36.213  20.842  25.786  1.00  0.00    -0.352 N 
ATOM      4  C   UNL A   1      35.079  21.590  25.953  1.00  0.00     0.251 C 
ATOM      5  O   UNL A   1      34.437  21.455  26.994  1.00  0.00    -0.269 OA
ATOM      6  H   UNL A   1      36.434  20.273  26.559  1.00  0.00     0.163 HD
BRANCH   4   7
ATOM      7  C   UNL A   1      34.552  22.501  24.906  1.00  0.00     0.042 A 
ATOM      8  C   UNL A   1      33.670  24.375  23.001  1.00  0.00     0.103 A 
ATOM      9  C   UNL A   1      34.685  24.710  23.900  1.00  0.00     0.024 A 
ATOM     10  C   UNL A   1      33.098  23.110  23.067  1.00  0.00     0.142 A 
ATOM     11  C   UNL A   1      35.144  23.769  24.824  1.00  0.00     0.015 A 
ATOM     12  C   UNL A   1      33.543  22.170  24.001  1.00  0.00     0.054 A 
ATOM     13  F   UNL A   1      32.094  22.741  22.263  1.00  0.00    -0.206 F 
BRANCH   8  14
ATOM     14  S   UNL A   1      33.047  25.597  21.873  1.00  0.00     0.186 S 
ATOM     15  O   UNL A   1      33.012  24.955  20.564  1.00  0.00    -0.223 OA
ATOM     16  O   UNL A   1      33.841  26.797  22.031  1.00  0.00    -0.223 OA
BRANCH  14  17
ATOM     17  C   UNL A   1      31.409  26.042  22.421  1.00  0.00     0.198 C 
BRANCH  17  18
ATOM     18  C   UNL A   1      31.387  26.476  23.855  1.00  0.00     0.056 A 
ATOM     19  C   UNL A   1      31.780  29.692  25.592  1.00  0.00     0.067 C 
ATOM     20  C   UNL A   1      31.584  28.220  25.394  1.00  0.00     0.038 A 
ATOM     21  C   UNL A   1      31.277  27.379  26.453  1.00  0.00     0.023 A 
ATOM     22  N   UNL A   1      31.663  27.773  24.119  1.00  0.00    -0.257 NA
ATOM     23  C   UNL A   1      31.050  26.032  26.187  1.00  0.00     0.004 A 
ATOM     24  C   UNL A   1      31.106  25.570  24.873  1.00  0.00     0.025 A 
ENDBRANCH  17  18
ENDBRANCH  14  17
ENDBRANCH   8  14
ENDBRANCH   4   7
ENDBRANCH   2   3
ENDBRANCH   1   2
BRANCH   1  25
ATOM     25  C   UNL A   1      39.245  20.038  25.964  1.00  0.00     0.118 C 
BRANCH  25  26
ATOM     26  N   UNL A   1      40.323  19.063  26.035  1.00  0.00    -0.352 N 
ATOM     27  C   UNL A   1      41.681  19.257  26.081  1.00  0.00     0.251 C 
ATOM     28  H   UNL A   1      40.035  18.122  26.051  1.00  0.00     0.163 HD
ATOM     29  O   UNL A   1      42.427  18.303  25.876  1.00  0.00    -0.269 OA
BRANCH  27  30
ATOM     30  C   UNL A   1      42.242  20.595  26.369  1.00  0.00     0.039 A 
ATOM     31  C   UNL A   1      42.728  21.365  25.309  1.00  0.00     0.014 A 
ATOM     32  C   UNL A   1      42.334  21.074  27.680  1.00  0.00     0.014 A 
ATOM     33  C   UNL A   1      43.256  22.634  25.558  1.00  0.00     0.010 A 
ATOM     34  C   UNL A   1      42.795  22.366  27.919  1.00  0.00     0.010 A 
ATOM     35  C   UNL A   1      43.265  23.158  26.862  1.00  0.00    -0.014 A 
BRANCH  35  36
ATOM     36  C   UNL A   1      43.767  24.529  27.137  1.00  0.00     0.031 A 
ATOM     37  C   UNL A   1      42.831  25.586  27.656  1.00  0.00     0.074 A 
ATOM     38  C   UNL A   1      45.054  24.831  26.872  1.00  0.00     0.049 A 
ATOM     39  N   UNL A   1      43.060  26.855  27.874  1.00  0.00    -0.248 NA
ATOM     40  C   UNL A   1      41.450  25.168  27.948  1.00  0.00     0.031 C 
ATOM     41  C   UNL A   1      46.049  23.894  26.347  1.00  0.00     0.029 A 
ATOM     42  N   UNL A   1      45.747  26.007  27.009  1.00  0.00    -0.354 N 
ATOM     43  C   UNL A   1      41.855  27.388  28.318  1.00  0.00     0.074 A 
ATOM     44  C   UNL A   1      40.884  26.317  28.289  1.00  0.00     0.031 C 
ATOM     45  C   UNL A   1      47.232  24.522  26.242  1.00  0.00     0.029 A 
ATOM     46  C   UNL A   1      47.070  25.917  26.640  1.00  0.00     0.049 A 
ATOM     47  H   UNL A   1      45.337  26.839  27.341  1.00  0.00     0.167 HD
ATOM     48  C   UNL A   1      41.591  28.652  28.731  1.00  0.00     0.034 A 
ATOM     49  C   UNL A   1      48.040  26.851  26.614  1.00  0.00     0.034 A 
ATOM     50  C   UNL A   1      42.574  29.703  28.778  1.00  0.00     0.049 A 
ATOM     51  C   UNL A   1      47.713  28.256  27.046  1.00  0.00     0.074 A 
ATOM     52  C   UNL A   1      42.418  31.004  29.225  1.00  0.00     0.029 A 
ATOM     53  N   UNL A   1      43.894  29.578  28.369  1.00  0.00    -0.354 N 
ATOM     54  N   UNL A   1      46.567  28.741  27.464  1.00  0.00    -0.248 NA
ATOM     55  C   UNL A   1      48.804  29.237  27.002  1.00  0.00     0.031 C 
ATOM     56  C   UNL A   1      43.625  31.681  29.028  1.00  0.00     0.029 A 
ATOM     57  C   UNL A   1      44.555  30.785  28.527  1.00  0.00     0.049 A 
ATOM     58  H   UNL A   1      44.301  28.752  28.019  1.00  0.00     0.167 HD
ATOM     59  C   UNL A   1      46.806  30.080  27.754  1.00  0.00     0.074 A 
ATOM     60  C   UNL A   1      48.205  30.326  27.467  1.00  0.00     0.031 C 
ATOM     61  C   UNL A   1      45.946  31.018  28.223  1.00  0.00     0.034 A 
BRANCH  48  62
ATOM     62  C   UNL A   1      40.181  28.973  29.153  1.00  0.00     0.023 A 
ATOM     63  C   UNL A   1      39.795  28.954  30.504  1.00  0.00     0.031 A 
ATOM     64  C   UNL A   1      39.218  29.336  28.195  1.00  0.00     0.131 A 
ATOM     65  C   UNL A   1      38.471  29.256  30.857  1.00  0.00     0.055 A 
ATOM     66  C   UNL A   1      37.919  29.696  28.557  1.00  0.00     0.041 A 
ATOM     67  F   UNL A   1      39.528  29.353  26.888  1.00  0.00    -0.206 F 
ATOM     68  C   UNL A   1      37.538  29.652  29.896  1.00  0.00     0.022 A 
BRANCH  65  69
ATOM     69  S   UNL A   1      37.965  29.055  32.585  1.00  0.00     0.124 S 
ATOM     70  O   UNL A   1      36.627  29.641  32.569  1.00  0.00    -0.237 OA
ATOM     71  O   UNL A   1      38.027  27.611  32.771  1.00  0.00    -0.237 OA
ATOM     72  O   UNL A   1      38.966  29.822  33.326  1.00  0.00    -0.744 OA
ENDBRANCH  65  69
ENDBRANCH  48  62
BRANCH  49  73
ATOM     73  C   UNL A   1      49.411  26.488  26.158  1.00  0.00     0.023 A 
ATOM     74  C   UNL A   1      49.902  26.939  24.924  1.00  0.00     0.031 A 
ATOM     75  C   UNL A   1      50.251  25.693  26.957  1.00  0.00     0.131 A 
ATOM     76  C   UNL A   1      51.194  26.576  24.513  1.00  0.00     0.055 A 
ATOM     77  C   UNL A   1      51.550  25.367  26.561  1.00  0.00     0.041 A 
ATOM     78  F   UNL A   1      49.830  25.246  28.151  1.00  0.00    -0.206 F 
ATOM     79  C   UNL A   1      52.025  25.805  25.329  1.00  0.00     0.022 A 
BRANCH  76  80
ATOM     80  S   UNL A   1      51.768  27.104  22.876  1.00  0.00     0.124 S 
ATOM     81  O   UNL A   1      52.953  26.273  22.695  1.00  0.00    -0.237 OA
ATOM     82  O   UNL A   1      50.622  26.781  22.031  1.00  0.00    -0.237 OA
ATOM     83  O   UNL A   1      52.025  28.532  23.050  1.00  0.00    -0.744 OA
ENDBRANCH  76  80
ENDBRANCH  49  73
BRANCH  61  84
ATOM     84  C   UNL A   1      46.495  32.395  28.486  1.00  0.00     0.023 A 
ATOM     85  C   UNL A   1      46.637  33.338  27.455  1.00  0.00     0.031 A 
ATOM     86  C   UNL A   1      46.824  32.783  29.797  1.00  0.00     0.131 A 
ATOM     87  C   UNL A   1      47.122  34.621  27.749  1.00  0.00     0.055 A 
ATOM     88  C   UNL A   1      47.260  34.075  30.091  1.00  0.00     0.041 A 
ATOM     89  F   UNL A   1      46.701  31.918  30.816  1.00  0.00    -0.206 F 
ATOM     90  C   UNL A   1      47.415  35.001  29.063  1.00  0.00     0.022 A 
BRANCH  87  91
ATOM     91  S   UNL A   1      47.391  35.786  26.387  1.00  0.00     0.124 S 
ATOM     92  O   UNL A   1      46.106  36.474  26.320  1.00  0.00    -0.237 OA
ATOM     93  O   UNL A   1      48.516  36.581  26.869  1.00  0.00    -0.237 OA
ATOM     94  O   UNL A   1      47.691  34.919  25.248  1.00  0.00    -0.744 OA
ENDBRANCH  87  91
ENDBRANCH  61  84
ENDBRANCH  35  36
ENDBRANCH  27  30
ENDBRANCH  25  26
ENDBRANCH   1  25
TORSDOF 16
ENDMDL
