MODEL 1
REMARK VINA RESULT:     -12.5      0.000      0.000
REMARK SMILES COc1cc(Cn2cc(C(=O)NCCCNC(=O)c3ccc(-c4c5nc(c(-c6cc(S(=O)(=O)[O-])ccc6F)c6ccc([nH]6)c(-c6cc(S(=O)(=O)[O-])ccc6F)c6nc(c(-c7cc(S(=O)(=O)[O-])ccc7F)c7ccc4[nH]7)C=C6)C=C5)cc3)c(=O)[nH]c2=O)ccn1
REMARK SMILES IDX 14 1 13 2 12 3 10 4 11 5 9 7 7 8 8 9 85 10 84 11 86 12 82 13
REMARK SMILES IDX 83 15 6 16 5 17 3 18 4 19 89 20 88 21 87 22 2 23 1 24 15 25
REMARK SMILES IDX 16 26 17 27 18 29 19 30 20 31 81 32 21 33 80 34 22 35 23 36
REMARK SMILES IDX 24 37 74 38 25 39 79 40 73 41 75 42 26 43 78 44 72 45 71 46
REMARK SMILES IDX 27 48 59 49 39 50 58 51 40 52 43 53 57 54 76 55 41 56 42 57
REMARK SMILES IDX 56 59 77 60 44 61 28 62 29 63 37 64 30 65 36 66 38 67 35 68
REMARK SMILES IDX 31 69 32 70 33 71 34 72 60 73 61 74 69 75 62 76 68 77 70 78
REMARK SMILES IDX 67 79 63 80 64 81 65 82 66 83 45 84 46 85 54 86 47 87 53 88
REMARK SMILES IDX 55 89 52 90 48 91 49 92 50 93 51 94
REMARK H PARENT 12 6 84 14 16 28 75 47 43 58
REMARK Flexibility Score: inf
ROOT
ATOM      1  C   UNL A   1      31.428  30.198  25.521  1.00  0.00     0.042 C 
ENDROOT
BRANCH   1   2
ATOM      2  C   UNL A   1      31.952  28.852  25.020  1.00  0.00     0.118 C 
BRANCH   2   3
ATOM      3  N   UNL A   1      31.020  27.785  25.348  1.00  0.00    -0.352 N 
ATOM      4  C   UNL A   1      30.654  26.641  24.697  1.00  0.00     0.258 C 
ATOM      5  O   UNL A   1      29.773  25.957  25.218  1.00  0.00    -0.269 OA
ATOM      6  H   UNL A   1      30.561  27.913  26.209  1.00  0.00     0.163 HD
BRANCH   4   7
ATOM      7  C   UNL A   1      31.297  26.210  23.426  1.00  0.00     0.121 A 
ATOM      8  N   UNL A   1      32.650  24.688  22.152  1.00  0.00    -0.295 N 
ATOM      9  C   UNL A   1      32.080  25.126  23.335  1.00  0.00     0.110 A 
ATOM     10  C   UNL A   1      32.576  25.441  20.991  1.00  0.00     0.328 A 
ATOM     11  N   UNL A   1      31.893  26.622  21.109  1.00  0.00    -0.273 N 
ATOM     12  O   UNL A   1      33.056  25.107  19.911  1.00  0.00    -0.248 OA
ATOM     13  C   UNL A   1      31.167  27.035  22.195  1.00  0.00     0.266 A 
ATOM     14  H   UNL A   1      31.926  27.233  20.338  1.00  0.00     0.175 HD
ATOM     15  O   UNL A   1      30.428  28.009  22.105  1.00  0.00    -0.268 OA
BRANCH   8  16
ATOM     16  C   UNL A   1      33.298  23.374  22.106  1.00  0.00     0.162 C 
BRANCH  16  17
ATOM     17  C   UNL A   1      34.128  23.112  23.344  1.00  0.00    -0.021 A 
ATOM     18  C   UNL A   1      34.495  22.021  25.439  1.00  0.00     0.213 A 
ATOM     19  C   UNL A   1      33.694  22.217  24.323  1.00  0.00     0.074 A 
ATOM     20  N   UNL A   1      35.643  22.684  25.680  1.00  0.00    -0.222 NA
ATOM     21  C   UNL A   1      36.039  23.556  24.734  1.00  0.00     0.115 A 
ATOM     22  C   UNL A   1      35.337  23.784  23.558  1.00  0.00     0.026 A 
BRANCH  18  23
ATOM     23  O   UNL A   1      34.124  21.097  26.380  1.00  0.00    -0.481 OA
ATOM     24  C   UNL A   1      34.043  21.749  27.646  1.00  0.00     0.280 C 
ENDBRANCH  18  23
ENDBRANCH  16  17
ENDBRANCH   8  16
ENDBRANCH   4   7
ENDBRANCH   2   3
ENDBRANCH   1   2
BRANCH   1  25
ATOM     25  C   UNL A   1      32.090  30.661  26.813  1.00  0.00     0.118 C 
BRANCH  25  26
ATOM     26  N   UNL A   1      32.125  32.114  26.910  1.00  0.00    -0.352 N 
ATOM     27  C   UNL A   1      33.029  32.932  27.552  1.00  0.00     0.251 C 
ATOM     28  H   UNL A   1      31.393  32.582  26.447  1.00  0.00     0.163 HD
ATOM     29  O   UNL A   1      32.763  34.115  27.699  1.00  0.00    -0.269 OA
BRANCH  27  30
ATOM     30  C   UNL A   1      34.294  32.372  28.090  1.00  0.00     0.039 A 
ATOM     31  C   UNL A   1      34.382  31.036  28.482  1.00  0.00     0.014 A 
ATOM     32  C   UNL A   1      35.417  33.200  28.190  1.00  0.00     0.014 A 
ATOM     33  C   UNL A   1      35.526  30.576  29.124  1.00  0.00     0.010 A 
ATOM     34  C   UNL A   1      36.599  32.708  28.755  1.00  0.00     0.010 A 
ATOM     35  C   UNL A   1      36.650  31.405  29.272  1.00  0.00    -0.014 A 
BRANCH  35  36
ATOM     36  C   UNL A   1      37.864  30.879  29.952  1.00  0.00     0.031 A 
ATOM     37  C   UNL A   1      38.156  31.221  31.387  1.00  0.00     0.074 A 
ATOM     38  C   UNL A   1      38.679  30.040  29.280  1.00  0.00     0.049 A 
ATOM     39  N   UNL A   1      39.137  30.809  32.148  1.00  0.00    -0.248 NA
ATOM     40  C   UNL A   1      37.231  32.149  32.059  1.00  0.00     0.031 C 
ATOM     41  C   UNL A   1      38.493  29.641  27.884  1.00  0.00     0.029 A 
ATOM     42  N   UNL A   1      39.801  29.356  29.675  1.00  0.00    -0.354 N 
ATOM     43  C   UNL A   1      38.957  31.431  33.378  1.00  0.00     0.074 A 
ATOM     44  C   UNL A   1      37.794  32.281  33.252  1.00  0.00     0.031 C 
ATOM     45  C   UNL A   1      39.429  28.740  27.558  1.00  0.00     0.029 A 
ATOM     46  C   UNL A   1      40.328  28.548  28.693  1.00  0.00     0.049 A 
ATOM     47  H   UNL A   1      40.191  29.435  30.575  1.00  0.00     0.167 HD
ATOM     48  C   UNL A   1      39.687  31.292  34.511  1.00  0.00     0.034 A 
ATOM     49  C   UNL A   1      41.415  27.749  28.697  1.00  0.00     0.034 A 
ATOM     50  C   UNL A   1      40.835  30.427  34.623  1.00  0.00     0.049 A 
ATOM     51  C   UNL A   1      42.226  27.633  29.961  1.00  0.00     0.074 A 
ATOM     52  C   UNL A   1      41.621  30.196  35.738  1.00  0.00     0.029 A 
ATOM     53  N   UNL A   1      41.360  29.654  33.598  1.00  0.00    -0.354 N 
ATOM     54  N   UNL A   1      42.010  28.190  31.129  1.00  0.00    -0.248 NA
ATOM     55  C   UNL A   1      43.423  26.784  29.914  1.00  0.00     0.031 C 
ATOM     56  C   UNL A   1      42.656  29.335  35.372  1.00  0.00     0.029 A 
ATOM     57  C   UNL A   1      42.476  28.966  34.048  1.00  0.00     0.049 A 
ATOM     58  H   UNL A   1      40.993  29.600  32.686  1.00  0.00     0.167 HD
ATOM     59  C   UNL A   1      43.036  27.749  31.960  1.00  0.00     0.074 A 
ATOM     60  C   UNL A   1      43.853  26.853  31.168  1.00  0.00     0.031 C 
ATOM     61  C   UNL A   1      43.280  28.065  33.256  1.00  0.00     0.034 A 
BRANCH  48  62
ATOM     62  C   UNL A   1      39.278  32.070  35.739  1.00  0.00     0.023 A 
ATOM     63  C   UNL A   1      38.498  31.454  36.735  1.00  0.00     0.031 A 
ATOM     64  C   UNL A   1      39.540  33.447  35.855  1.00  0.00     0.131 A 
ATOM     65  C   UNL A   1      37.976  32.222  37.784  1.00  0.00     0.055 A 
ATOM     66  C   UNL A   1      39.052  34.199  36.925  1.00  0.00     0.041 A 
ATOM     67  F   UNL A   1      40.282  34.081  34.931  1.00  0.00    -0.206 F 
ATOM     68  C   UNL A   1      38.255  33.588  37.888  1.00  0.00     0.022 A 
BRANCH  65  69
ATOM     69  S   UNL A   1      36.865  31.494  39.020  1.00  0.00     0.124 S 
ATOM     70  O   UNL A   1      37.718  31.466  40.207  1.00  0.00    -0.237 OA
ATOM     71  O   UNL A   1      35.775  32.463  39.058  1.00  0.00    -0.237 OA
ATOM     72  O   UNL A   1      36.531  30.187  38.465  1.00  0.00    -0.744 OA
ENDBRANCH  65  69
ENDBRANCH  48  62
BRANCH  49  73
ATOM     73  C   UNL A   1      41.748  26.973  27.465  1.00  0.00     0.023 A 
ATOM     74  C   UNL A   1      41.506  25.588  27.399  1.00  0.00     0.031 A 
ATOM     75  C   UNL A   1      42.424  27.576  26.392  1.00  0.00     0.131 A 
ATOM     76  C   UNL A   1      42.012  24.840  26.328  1.00  0.00     0.055 A 
ATOM     77  C   UNL A   1      42.856  26.840  25.287  1.00  0.00     0.041 A 
ATOM     78  F   UNL A   1      42.689  28.890  26.413  1.00  0.00    -0.206 F 
ATOM     79  C   UNL A   1      42.669  25.460  25.262  1.00  0.00     0.022 A 
BRANCH  76  80
ATOM     80  S   UNL A   1      41.970  23.027  26.362  1.00  0.00     0.124 S 
ATOM     81  O   UNL A   1      40.544  22.758  26.516  1.00  0.00    -0.237 OA
ATOM     82  O   UNL A   1      42.539  22.692  25.058  1.00  0.00    -0.237 OA
ATOM     83  O   UNL A   1      42.806  22.685  27.507  1.00  0.00    -0.744 OA
ENDBRANCH  76  80
ENDBRANCH  49  73
BRANCH  61  84
ATOM     84  C   UNL A   1      44.482  27.453  33.936  1.00  0.00     0.023 A 
ATOM     85  C   UNL A   1      44.342  26.267  34.681  1.00  0.00     0.031 A 
ATOM     86  C   UNL A   1      45.717  28.124  33.980  1.00  0.00     0.131 A 
ATOM     87  C   UNL A   1      45.401  25.814  35.476  1.00  0.00     0.055 A 
ATOM     88  C   UNL A   1      46.786  27.641  34.735  1.00  0.00     0.041 A 
ATOM     89  F   UNL A   1      45.896  29.265  33.296  1.00  0.00    -0.206 F 
ATOM     90  C   UNL A   1      46.625  26.490  35.500  1.00  0.00     0.022 A 
BRANCH  87  91
ATOM     91  S   UNL A   1      45.199  24.389  36.581  1.00  0.00     0.124 S 
ATOM     92  O   UNL A   1      44.397  24.957  37.663  1.00  0.00    -0.237 OA
ATOM     93  O   UNL A   1      44.501  23.433  35.724  1.00  0.00    -0.237 OA
ATOM     94  O   UNL A   1      46.565  24.027  36.944  1.00  0.00    -0.744 OA
ENDBRANCH  87  91
ENDBRANCH  61  84
ENDBRANCH  35  36
ENDBRANCH  27  30
ENDBRANCH  25  26
ENDBRANCH   1  25
TORSDOF 16
ENDMDL
MODEL 2
REMARK VINA RESULT:     -12.3      5.007     10.521
REMARK SMILES COc1cc(Cn2cc(C(=O)NCCCNC(=O)c3ccc(-c4c5nc(c(-c6cc(S(=O)(=O)[O-])ccc6F)c6ccc([nH]6)c(-c6cc(S(=O)(=O)[O-])ccc6F)c6nc(c(-c7cc(S(=O)(=O)[O-])ccc7F)c7ccc4[nH]7)C=C6)C=C5)cc3)c(=O)[nH]c2=O)ccn1
REMARK SMILES IDX 14 1 13 2 12 3 10 4 11 5 9 7 7 8 8 9 85 10 84 11 86 12 82 13
REMARK SMILES IDX 83 15 6 16 5 17 3 18 4 19 89 20 88 21 87 22 2 23 1 24 15 25
REMARK SMILES IDX 16 26 17 27 18 29 19 30 20 31 81 32 21 33 80 34 22 35 23 36
REMARK SMILES IDX 24 37 74 38 25 39 79 40 73 41 75 42 26 43 78 44 72 45 71 46
REMARK SMILES IDX 27 48 59 49 39 50 58 51 40 52 43 53 57 54 76 55 41 56 42 57
REMARK SMILES IDX 56 59 77 60 44 61 28 62 29 63 37 64 30 65 36 66 38 67 35 68
REMARK SMILES IDX 31 69 32 70 33 71 34 72 60 73 61 74 69 75 62 76 68 77 70 78
REMARK SMILES IDX 67 79 63 80 64 81 65 82 66 83 45 84 46 85 54 86 47 87 53 88
REMARK SMILES IDX 55 89 52 90 48 91 49 92 50 93 51 94
REMARK H PARENT 12 6 84 14 16 28 75 47 43 58
REMARK Flexibility Score: inf
ROOT
ATOM      1  C   UNL A   1      36.466  21.910  25.882  1.00  0.00     0.042 C 
ENDROOT
BRANCH   1   2
ATOM      2  C   UNL A   1      35.166  21.289  25.371  1.00  0.00     0.118 C 
BRANCH   2   3
ATOM      3  N   UNL A   1      34.761  21.908  24.119  1.00  0.00    -0.352 N 
ATOM      4  C   UNL A   1      33.635  22.585  23.741  1.00  0.00     0.258 C 
ATOM      5  O   UNL A   1      33.564  22.942  22.566  1.00  0.00    -0.269 OA
ATOM      6  H   UNL A   1      35.430  21.825  23.402  1.00  0.00     0.163 HD
BRANCH   4   7
ATOM      7  C   UNL A   1      32.541  22.905  24.699  1.00  0.00     0.121 A 
ATOM      8  N   UNL A   1      31.257  24.467  25.994  1.00  0.00    -0.295 N 
ATOM      9  C   UNL A   1      32.296  24.147  25.137  1.00  0.00     0.110 A 
ATOM     10  C   UNL A   1      30.482  23.485  26.590  1.00  0.00     0.328 A 
ATOM     11  N   UNL A   1      30.816  22.201  26.254  1.00  0.00    -0.273 N 
ATOM     12  O   UNL A   1      29.545  23.704  27.353  1.00  0.00    -0.248 OA
ATOM     13  C   UNL A   1      31.714  21.820  25.292  1.00  0.00     0.266 A 
ATOM     14  H   UNL A   1      30.365  21.480  26.752  1.00  0.00     0.175 HD
ATOM     15  O   UNL A   1      31.772  20.648  24.936  1.00  0.00    -0.268 OA
BRANCH   8  16
ATOM     16  C   UNL A   1      30.928  25.876  26.235  1.00  0.00     0.162 C 
BRANCH  16  17
ATOM     17  C   UNL A   1      31.353  26.758  25.080  1.00  0.00    -0.021 A 
ATOM     18  C   UNL A   1      30.906  27.891  23.024  1.00  0.00     0.213 A 
ATOM     19  C   UNL A   1      30.458  27.082  24.058  1.00  0.00     0.074 A 
ATOM     20  N   UNL A   1      32.170  28.340  22.897  1.00  0.00    -0.222 NA
ATOM     21  C   UNL A   1      33.024  28.003  23.882  1.00  0.00     0.115 A 
ATOM     22  C   UNL A   1      32.661  27.245  24.986  1.00  0.00     0.026 A 
BRANCH  18  23
ATOM     23  O   UNL A   1      30.027  28.279  22.045  1.00  0.00    -0.481 OA
ATOM     24  C   UNL A   1      29.899  29.699  22.092  1.00  0.00     0.280 C 
ENDBRANCH  18  23
ENDBRANCH  16  17
ENDBRANCH   8  16
ENDBRANCH   4   7
ENDBRANCH   2   3
ENDBRANCH   1   2
BRANCH   1  25
ATOM     25  C   UNL A   1      37.668  21.615  24.992  1.00  0.00     0.118 C 
BRANCH  25  26
ATOM     26  N   UNL A   1      38.535  20.601  25.577  1.00  0.00    -0.352 N 
ATOM     27  C   UNL A   1      39.709  20.747  26.283  1.00  0.00     0.251 C 
ATOM     28  H   UNL A   1      38.238  19.671  25.447  1.00  0.00     0.163 HD
ATOM     29  O   UNL A   1      40.400  19.765  26.501  1.00  0.00    -0.269 OA
BRANCH  27  30
ATOM     30  C   UNL A   1      40.144  22.091  26.741  1.00  0.00     0.039 A 
ATOM     31  C   UNL A   1      39.651  23.250  26.142  1.00  0.00     0.014 A 
ATOM     32  C   UNL A   1      41.054  22.188  27.799  1.00  0.00     0.014 A 
ATOM     33  C   UNL A   1      40.188  24.488  26.483  1.00  0.00     0.010 A 
ATOM     34  C   UNL A   1      41.525  23.442  28.202  1.00  0.00     0.010 A 
ATOM     35  C   UNL A   1      41.133  24.601  27.515  1.00  0.00    -0.014 A 
BRANCH  35  36
ATOM     36  C   UNL A   1      41.679  25.941  27.864  1.00  0.00     0.031 A 
ATOM     37  C   UNL A   1      43.048  26.361  27.406  1.00  0.00     0.074 A 
ATOM     38  C   UNL A   1      40.905  26.802  28.556  1.00  0.00     0.049 A 
ATOM     39  N   UNL A   1      43.656  27.507  27.575  1.00  0.00    -0.248 NA
ATOM     40  C   UNL A   1      43.843  25.369  26.663  1.00  0.00     0.031 C 
ATOM     41  C   UNL A   1      39.562  26.499  29.052  1.00  0.00     0.029 A 
ATOM     42  N   UNL A   1      41.116  28.103  28.939  1.00  0.00    -0.354 N 
ATOM     43  C   UNL A   1      44.903  27.373  26.975  1.00  0.00     0.074 A 
ATOM     44  C   UNL A   1      44.981  26.021  26.469  1.00  0.00     0.031 C 
ATOM     45  C   UNL A   1      39.047  27.598  29.620  1.00  0.00     0.029 A 
ATOM     46  C   UNL A   1      40.045  28.664  29.596  1.00  0.00     0.049 A 
ATOM     47  H   UNL A   1      41.953  28.589  28.759  1.00  0.00     0.167 HD
ATOM     48  C   UNL A   1      45.883  28.300  26.844  1.00  0.00     0.034 A 
ATOM     49  C   UNL A   1      39.882  29.892  30.131  1.00  0.00     0.034 A 
ATOM     50  C   UNL A   1      45.780  29.649  27.340  1.00  0.00     0.049 A 
ATOM     51  C   UNL A   1      40.998  30.895  29.996  1.00  0.00     0.074 A 
ATOM     52  C   UNL A   1      46.708  30.670  27.230  1.00  0.00     0.029 A 
ATOM     53  N   UNL A   1      44.696  30.169  28.033  1.00  0.00    -0.354 N 
ATOM     54  N   UNL A   1      42.149  30.766  29.380  1.00  0.00    -0.248 NA
ATOM     55  C   UNL A   1      40.798  32.209  30.623  1.00  0.00     0.031 C 
ATOM     56  C   UNL A   1      46.214  31.785  27.908  1.00  0.00     0.029 A 
ATOM     57  C   UNL A   1      44.944  31.488  28.380  1.00  0.00     0.049 A 
ATOM     58  H   UNL A   1      43.872  29.676  28.246  1.00  0.00     0.167 HD
ATOM     59  C   UNL A   1      42.805  31.984  29.534  1.00  0.00     0.074 A 
ATOM     60  C   UNL A   1      41.907  32.847  30.273  1.00  0.00     0.031 C 
ATOM     61  C   UNL A   1      44.041  32.347  29.108  1.00  0.00     0.034 A 
BRANCH  48  62
ATOM     62  C   UNL A   1      47.155  27.916  26.127  1.00  0.00     0.023 A 
ATOM     63  C   UNL A   1      47.252  28.073  24.732  1.00  0.00     0.031 A 
ATOM     64  C   UNL A   1      48.209  27.271  26.799  1.00  0.00     0.131 A 
ATOM     65  C   UNL A   1      48.362  27.558  24.050  1.00  0.00     0.055 A 
ATOM     66  C   UNL A   1      49.331  26.796  26.119  1.00  0.00     0.041 A 
ATOM     67  F   UNL A   1      48.164  27.097  28.131  1.00  0.00    -0.206 F 
ATOM     68  C   UNL A   1      49.404  26.927  24.735  1.00  0.00     0.022 A 
BRANCH  65  69
ATOM     69  S   UNL A   1      48.468  27.630  22.240  1.00  0.00     0.124 S 
ATOM     70  O   UNL A   1      48.662  26.222  21.898  1.00  0.00    -0.237 OA
ATOM     71  O   UNL A   1      47.167  28.185  21.880  1.00  0.00    -0.237 OA
ATOM     72  O   UNL A   1      49.616  28.494  21.989  1.00  0.00    -0.744 OA
ENDBRANCH  65  69
ENDBRANCH  48  62
BRANCH  49  73
ATOM     73  C   UNL A   1      38.587  30.229  30.793  1.00  0.00     0.023 A 
ATOM     74  C   UNL A   1      37.562  30.881  30.082  1.00  0.00     0.031 A 
ATOM     75  C   UNL A   1      38.403  30.018  32.169  1.00  0.00     0.131 A 
ATOM     76  C   UNL A   1      36.443  31.375  30.764  1.00  0.00     0.055 A 
ATOM     77  C   UNL A   1      37.249  30.441  32.831  1.00  0.00     0.041 A 
ATOM     78  F   UNL A   1      39.355  29.412  32.894  1.00  0.00    -0.206 F 
ATOM     79  C   UNL A   1      36.270  31.143  32.132  1.00  0.00     0.022 A 
BRANCH  76  80
ATOM     80  S   UNL A   1      35.257  32.466  29.931  1.00  0.00     0.124 S 
ATOM     81  O   UNL A   1      34.360  32.832  31.024  1.00  0.00    -0.237 OA
ATOM     82  O   UNL A   1      36.126  33.534  29.443  1.00  0.00    -0.237 OA
ATOM     83  O   UNL A   1      34.678  31.619  28.895  1.00  0.00    -0.744 OA
ENDBRANCH  76  80
ENDBRANCH  49  73
BRANCH  61  84
ATOM     84  C   UNL A   1      44.531  33.742  29.418  1.00  0.00     0.023 A 
ATOM     85  C   UNL A   1      44.212  34.808  28.557  1.00  0.00     0.031 A 
ATOM     86  C   UNL A   1      45.440  33.980  30.464  1.00  0.00     0.131 A 
ATOM     87  C   UNL A   1      44.832  36.052  28.727  1.00  0.00     0.055 A 
ATOM     88  C   UNL A   1      46.017  35.235  30.660  1.00  0.00     0.041 A 
ATOM     89  F   UNL A   1      45.785  32.992  31.305  1.00  0.00    -0.206 F 
ATOM     90  C   UNL A   1      45.726  36.273  29.779  1.00  0.00     0.022 A 
BRANCH  87  91
ATOM     91  S   UNL A   1      44.577  37.396  27.536  1.00  0.00     0.124 S 
ATOM     92  O   UNL A   1      45.828  37.372  26.781  1.00  0.00    -0.237 OA
ATOM     93  O   UNL A   1      43.398  36.938  26.804  1.00  0.00    -0.237 OA
ATOM     94  O   UNL A   1      44.378  38.575  28.372  1.00  0.00    -0.744 OA
ENDBRANCH  87  91
ENDBRANCH  61  84
ENDBRANCH  35  36
ENDBRANCH  27  30
ENDBRANCH  25  26
ENDBRANCH   1  25
TORSDOF 16
ENDMDL
MODEL 3
REMARK VINA RESULT:     -12.3      1.451      1.964
REMARK SMILES COc1cc(Cn2cc(C(=O)NCCCNC(=O)c3ccc(-c4c5nc(c(-c6cc(S(=O)(=O)[O-])ccc6F)c6ccc([nH]6)c(-c6cc(S(=O)(=O)[O-])ccc6F)c6nc(c(-c7cc(S(=O)(=O)[O-])ccc7F)c7ccc4[nH]7)C=C6)C=C5)cc3)c(=O)[nH]c2=O)ccn1
REMARK SMILES IDX 14 1 13 2 12 3 10 4 11 5 9 7 7 8 8 9 85 10 84 11 86 12 82 13
REMARK SMILES IDX 83 15 6 16 5 17 3 18 4 19 89 20 88 21 87 22 2 23 1 24 15 25
REMARK SMILES IDX 16 26 17 27 18 29 19 30 20 31 81 32 21 33 80 34 22 35 23 36
REMARK SMILES IDX 24 37 74 38 25 39 79 40 73 41 75 42 26 43 78 44 72 45 71 46
REMARK SMILES IDX 27 48 59 49 39 50 58 51 40 52 43 53 57 54 76 55 41 56 42 57
REMARK SMILES IDX 56 59 77 60 44 61 28 62 29 63 37 64 30 65 36 66 38 67 35 68
REMARK SMILES IDX 31 69 32 70 33 71 34 72 60 73 61 74 69 75 62 76 68 77 70 78
REMARK SMILES IDX 67 79 63 80 64 81 65 82 66 83 45 84 46 85 54 86 47 87 53 88
REMARK SMILES IDX 55 89 52 90 48 91 49 92 50 93 51 94
REMARK H PARENT 12 6 84 14 16 28 75 47 43 58
REMARK Flexibility Score: inf
ROOT
ATOM      1  C   UNL A   1      31.914  28.795  25.831  1.00  0.00     0.042 C 
ENDROOT
BRANCH   1   2
ATOM      2  C   UNL A   1      31.481  28.383  24.423  1.00  0.00     0.118 C 
BRANCH   2   3
ATOM      3  N   UNL A   1      32.514  28.711  23.454  1.00  0.00    -0.352 N 
ATOM      4  C   UNL A   1      33.342  27.943  22.685  1.00  0.00     0.258 C 
ATOM      5  O   UNL A   1      34.170  28.533  21.992  1.00  0.00    -0.269 OA
ATOM      6  H   UNL A   1      32.642  29.679  23.326  1.00  0.00     0.163 HD
BRANCH   4   7
ATOM      7  C   UNL A   1      33.247  26.458  22.655  1.00  0.00     0.121 A 
ATOM      8  N   UNL A   1      33.980  24.280  23.352  1.00  0.00    -0.295 N 
ATOM      9  C   UNL A   1      34.081  25.660  23.336  1.00  0.00     0.110 A 
ATOM     10  C   UNL A   1      33.091  23.610  22.526  1.00  0.00     0.328 A 
ATOM     11  N   UNL A   1      32.329  24.413  21.722  1.00  0.00    -0.273 N 
ATOM     12  O   UNL A   1      32.951  22.390  22.497  1.00  0.00    -0.248 OA
ATOM     13  C   UNL A   1      32.258  25.781  21.774  1.00  0.00     0.266 A 
ATOM     14  H   UNL A   1      31.778  23.965  21.040  1.00  0.00     0.175 HD
ATOM     15  O   UNL A   1      31.385  26.374  21.149  1.00  0.00    -0.268 OA
BRANCH   8  16
ATOM     16  C   UNL A   1      34.786  23.508  24.303  1.00  0.00     0.162 C 
BRANCH  16  17
ATOM     17  C   UNL A   1      34.001  23.156  25.549  1.00  0.00    -0.021 A 
ATOM     18  C   UNL A   1      32.112  23.417  26.989  1.00  0.00     0.213 A 
ATOM     19  C   UNL A   1      32.783  23.778  25.829  1.00  0.00     0.074 A 
ATOM     20  N   UNL A   1      32.582  22.549  27.905  1.00  0.00    -0.222 NA
ATOM     21  C   UNL A   1      33.765  21.971  27.627  1.00  0.00     0.115 A 
ATOM     22  C   UNL A   1      34.490  22.222  26.470  1.00  0.00     0.026 A 
BRANCH  18  23
ATOM     23  O   UNL A   1      30.882  23.963  27.250  1.00  0.00    -0.481 OA
ATOM     24  C   UNL A   1      29.889  22.962  27.037  1.00  0.00     0.280 C 
ENDBRANCH  18  23
ENDBRANCH  16  17
ENDBRANCH   8  16
ENDBRANCH   4   7
ENDBRANCH   2   3
ENDBRANCH   1   2
BRANCH   1  25
ATOM     25  C   UNL A   1      33.146  29.693  25.846  1.00  0.00     0.118 C 
BRANCH  25  26
ATOM     26  N   UNL A   1      32.843  31.015  26.378  1.00  0.00    -0.352 N 
ATOM     27  C   UNL A   1      33.481  31.733  27.365  1.00  0.00     0.251 C 
ATOM     28  H   UNL A   1      32.065  31.461  25.971  1.00  0.00     0.163 HD
ATOM     29  O   UNL A   1      32.943  32.731  27.818  1.00  0.00    -0.269 OA
BRANCH  27  30
ATOM     30  C   UNL A   1      34.790  31.277  27.895  1.00  0.00     0.039 A 
ATOM     31  C   UNL A   1      34.990  29.950  28.277  1.00  0.00     0.014 A 
ATOM     32  C   UNL A   1      35.840  32.196  27.999  1.00  0.00     0.014 A 
ATOM     33  C   UNL A   1      36.172  29.583  28.913  1.00  0.00     0.010 A 
ATOM     34  C   UNL A   1      37.061  31.801  28.557  1.00  0.00     0.010 A 
ATOM     35  C   UNL A   1      37.222  30.503  29.064  1.00  0.00    -0.014 A 
BRANCH  35  36
ATOM     36  C   UNL A   1      38.479  30.075  29.737  1.00  0.00     0.031 A 
ATOM     37  C   UNL A   1      38.822  30.566  31.117  1.00  0.00     0.074 A 
ATOM     38  C   UNL A   1      39.287  29.193  29.114  1.00  0.00     0.049 A 
ATOM     39  N   UNL A   1      39.846  30.254  31.869  1.00  0.00    -0.248 NA
ATOM     40  C   UNL A   1      37.901  31.534  31.735  1.00  0.00     0.031 C 
ATOM     41  C   UNL A   1      39.053  28.653  27.774  1.00  0.00     0.029 A 
ATOM     42  N   UNL A   1      40.443  28.578  29.523  1.00  0.00    -0.354 N 
ATOM     43  C   UNL A   1      39.702  30.991  33.039  1.00  0.00     0.074 A 
ATOM     44  C   UNL A   1      38.511  31.797  32.883  1.00  0.00     0.031 C 
ATOM     45  C   UNL A   1      39.999  27.746  27.496  1.00  0.00     0.029 A 
ATOM     46  C   UNL A   1      40.950  27.689  28.603  1.00  0.00     0.049 A 
ATOM     47  H   UNL A   1      40.870  28.756  30.393  1.00  0.00     0.167 HD
ATOM     48  C   UNL A   1      40.483  30.982  34.146  1.00  0.00     0.034 A 
ATOM     49  C   UNL A   1      42.058  26.920  28.636  1.00  0.00     0.034 A 
ATOM     50  C   UNL A   1      41.657  30.160  34.290  1.00  0.00     0.049 A 
ATOM     51  C   UNL A   1      42.925  26.949  29.867  1.00  0.00     0.074 A 
ATOM     52  C   UNL A   1      42.497  30.059  35.386  1.00  0.00     0.029 A 
ATOM     53  N   UNL A   1      42.160  29.300  33.324  1.00  0.00    -0.354 N 
ATOM     54  N   UNL A   1      42.744  27.614  30.984  1.00  0.00    -0.248 NA
ATOM     55  C   UNL A   1      44.142  26.127  29.850  1.00  0.00     0.031 C 
ATOM     56  C   UNL A   1      43.539  29.190  35.060  1.00  0.00     0.029 A 
ATOM     57  C   UNL A   1      43.312  28.687  33.788  1.00  0.00     0.049 A 
ATOM     58  H   UNL A   1      41.756  29.148  32.439  1.00  0.00     0.167 HD
ATOM     59  C   UNL A   1      43.816  27.282  31.806  1.00  0.00     0.074 A 
ATOM     60  C   UNL A   1      44.623  26.331  31.070  1.00  0.00     0.031 C 
ATOM     61  C   UNL A   1      44.107  27.731  33.053  1.00  0.00     0.034 A 
BRANCH  48  62
ATOM     62  C   UNL A   1      40.105  31.868  35.308  1.00  0.00     0.023 A 
ATOM     63  C   UNL A   1      39.170  31.422  36.260  1.00  0.00     0.031 A 
ATOM     64  C   UNL A   1      40.562  33.196  35.397  1.00  0.00     0.131 A 
ATOM     65  C   UNL A   1      38.693  32.306  37.236  1.00  0.00     0.055 A 
ATOM     66  C   UNL A   1      40.114  34.061  36.397  1.00  0.00     0.041 A 
ATOM     67  F   UNL A   1      41.456  33.670  34.513  1.00  0.00    -0.206 F 
ATOM     68  C   UNL A   1      39.164  33.620  37.314  1.00  0.00     0.022 A 
BRANCH  65  69
ATOM     69  S   UNL A   1      37.397  31.807  38.403  1.00  0.00     0.124 S 
ATOM     70  O   UNL A   1      37.161  30.419  38.011  1.00  0.00    -0.237 OA
ATOM     71  O   UNL A   1      38.061  31.986  39.691  1.00  0.00    -0.237 OA
ATOM     72  O   UNL A   1      36.299  32.726  38.124  1.00  0.00    -0.744 OA
ENDBRANCH  65  69
ENDBRANCH  48  62
BRANCH  49  73
ATOM     73  C   UNL A   1      42.360  26.033  27.473  1.00  0.00     0.023 A 
ATOM     74  C   UNL A   1      41.834  24.730  27.406  1.00  0.00     0.031 A 
ATOM     75  C   UNL A   1      43.273  26.428  26.482  1.00  0.00     0.131 A 
ATOM     76  C   UNL A   1      42.289  23.842  26.423  1.00  0.00     0.055 A 
ATOM     77  C   UNL A   1      43.664  25.565  25.455  1.00  0.00     0.041 A 
ATOM     78  F   UNL A   1      43.811  27.655  26.508  1.00  0.00    -0.206 F 
ATOM     79  C   UNL A   1      43.187  24.257  25.435  1.00  0.00     0.022 A 
BRANCH  76  80
ATOM     80  S   UNL A   1      41.853  22.082  26.488  1.00  0.00     0.124 S 
ATOM     81  O   UNL A   1      42.285  21.711  27.832  1.00  0.00    -0.237 OA
ATOM     82  O   UNL A   1      40.407  22.125  26.279  1.00  0.00    -0.237 OA
ATOM     83  O   UNL A   1      42.619  21.497  25.394  1.00  0.00    -0.744 OA
ENDBRANCH  76  80
ENDBRANCH  49  73
BRANCH  61  84
ATOM     84  C   UNL A   1      45.353  27.218  33.734  1.00  0.00     0.023 A 
ATOM     85  C   UNL A   1      45.279  26.105  34.593  1.00  0.00     0.031 A 
ATOM     86  C   UNL A   1      46.568  27.922  33.661  1.00  0.00     0.131 A 
ATOM     87  C   UNL A   1      46.383  25.758  35.381  1.00  0.00     0.055 A 
ATOM     88  C   UNL A   1      47.681  27.540  34.411  1.00  0.00     0.041 A 
ATOM     89  F   UNL A   1      46.686  28.996  32.865  1.00  0.00    -0.206 F 
ATOM     90  C   UNL A   1      47.586  26.464  35.288  1.00  0.00     0.022 A 
BRANCH  87  91
ATOM     91  S   UNL A   1      46.268  24.440  36.623  1.00  0.00     0.124 S 
ATOM     92  O   UNL A   1      47.616  23.877  36.592  1.00  0.00    -0.237 OA
ATOM     93  O   UNL A   1      45.932  25.187  37.833  1.00  0.00    -0.237 OA
ATOM     94  O   UNL A   1      45.218  23.565  36.113  1.00  0.00    -0.744 OA
ENDBRANCH  87  91
ENDBRANCH  61  84
ENDBRANCH  35  36
ENDBRANCH  27  30
ENDBRANCH  25  26
ENDBRANCH   1  25
TORSDOF 16
ENDMDL
