MODEL 1
REMARK VINA RESULT:     -12.2      0.000      0.000
REMARK SMILES CC1(C)[C@H](C(=O)Nc2ccccc2C(N)=O)[C@@H]1C(=O)NCCCNC(=O)c1ccc(-c2c3nc(c(-c4cc(S(=O)(=O)[O-])ccc4F)c4ccc([nH]4)c(-c4cc(S(=O)(=O)[O-])ccc4F)c4nc(c(-c5cc(S(=O)(=O)[O-])ccc5F)c5ccc2[nH]5)C=C4)C=C3)cc1
REMARK SMILES IDX 22 1 21 2 20 3 18 4 19 5 17 7 1 8 2 9 3 10 4 11 5 12 6 13
REMARK SMILES IDX 7 14 8 16 9 17 13 18 10 19 12 20 11 21 14 22 15 23 16 24
REMARK SMILES IDX 23 27 24 28 25 29 26 31 27 32 28 33 89 34 29 35 88 36 30 37
REMARK SMILES IDX 31 38 32 39 82 40 33 41 87 42 81 43 83 44 34 45 86 46 80 47
REMARK SMILES IDX 79 48 35 50 67 51 47 52 66 53 48 54 51 55 65 56 84 57 49 58
REMARK SMILES IDX 50 59 64 61 85 62 52 63 36 64 37 65 45 66 38 67 44 68 46 69
REMARK SMILES IDX 43 70 39 71 40 72 41 73 42 74 68 75 69 76 77 77 70 78 76 79
REMARK SMILES IDX 78 80 75 81 71 82 72 83 73 84 74 85 53 86 54 87 62 88 55 89
REMARK SMILES IDX 61 90 63 91 60 92 56 93 57 94 58 95 59 96
REMARK H PARENT 20 6 7 15 15 25 15 26 24 30 83 49 51 60
REMARK Flexibility Score: inf
ROOT
ATOM      1  C   UNL A   1      36.948  22.201  23.900  1.00  0.00     0.042 C 
ENDROOT
BRANCH   1   2
ATOM      2  C   UNL A   1      35.894  23.228  23.547  1.00  0.00     0.117 C 
BRANCH   2   3
ATOM      3  N   UNL A   1      35.537  24.044  24.685  1.00  0.00    -0.356 N 
ATOM      4  C   UNL A   1      34.331  24.158  25.301  1.00  0.00     0.224 C 
ATOM      5  O   UNL A   1      34.154  25.087  26.082  1.00  0.00    -0.275 OA
ATOM      6  H   UNL A   1      36.264  24.589  25.064  1.00  0.00     0.163 HD
BRANCH   4   7
ATOM      7  C   UNL A   1      33.232  23.196  25.000  1.00  0.00     0.098 C 
ATOM      8  C   UNL A   1      31.814  22.398  22.935  1.00  0.00     0.013 C 
ATOM      9  C   UNL A   1      32.285  23.534  23.834  1.00  0.00    -0.011 C 
ATOM     10  C   UNL A   1      32.651  24.746  23.023  1.00  0.00     0.013 C 
ATOM     11  C   UNL A   1      31.746  23.421  25.245  1.00  0.00     0.098 C 
BRANCH  11  12
ATOM     12  C   UNL A   1      31.270  24.226  26.400  1.00  0.00     0.228 C 
ATOM     13  O   UNL A   1      31.311  23.661  27.499  1.00  0.00    -0.274 OA
ATOM     14  N   UNL A   1      30.961  25.554  26.435  1.00  0.00    -0.325 N 
ATOM     15  H   UNL A   1      30.936  25.935  27.342  1.00  0.00     0.169 HD
BRANCH  14  16
ATOM     16  C   UNL A   1      30.675  26.469  25.433  1.00  0.00     0.053 A 
ATOM     17  C   UNL A   1      29.616  26.116  24.586  1.00  0.00     0.027 A 
ATOM     18  C   UNL A   1      31.385  27.660  25.224  1.00  0.00     0.063 A 
ATOM     19  C   UNL A   1      29.148  27.018  23.637  1.00  0.00     0.002 A 
ATOM     20  C   UNL A   1      30.914  28.557  24.251  1.00  0.00     0.016 A 
ATOM     21  C   UNL A   1      29.778  28.250  23.490  1.00  0.00     0.001 A 
BRANCH  18  22
ATOM     22  C   UNL A   1      32.665  27.924  25.943  1.00  0.00     0.250 C 
ATOM     23  N   UNL A   1      33.802  28.058  25.196  1.00  0.00    -0.366 N 
ATOM     24  O   UNL A   1      32.731  28.018  27.162  1.00  0.00    -0.269 OA
ATOM     25  H   UNL A   1      33.758  27.983  24.215  1.00  0.00     0.159 HD
ATOM     26  H   UNL A   1      34.664  28.229  25.639  1.00  0.00     0.159 HD
ENDBRANCH  18  22
ENDBRANCH  14  16
ENDBRANCH  11  12
ENDBRANCH   4   7
ENDBRANCH   2   3
ENDBRANCH   1   2
BRANCH   1  27
ATOM     27  C   UNL A   1      37.330  22.212  25.371  1.00  0.00     0.118 C 
BRANCH  27  28
ATOM     28  N   UNL A   1      38.399  21.274  25.703  1.00  0.00    -0.352 N 
ATOM     29  C   UNL A   1      39.611  21.499  26.316  1.00  0.00     0.251 C 
ATOM     30  H   UNL A   1      38.226  20.338  25.450  1.00  0.00     0.163 HD
ATOM     31  O   UNL A   1      40.446  20.602  26.366  1.00  0.00    -0.269 OA
BRANCH  29  32
ATOM     32  C   UNL A   1      39.902  22.838  26.868  1.00  0.00     0.039 A 
ATOM     33  C   UNL A   1      40.786  22.963  27.939  1.00  0.00     0.014 A 
ATOM     34  C   UNL A   1      39.357  23.974  26.270  1.00  0.00     0.014 A 
ATOM     35  C   UNL A   1      41.201  24.235  28.338  1.00  0.00     0.010 A 
ATOM     36  C   UNL A   1      39.880  25.223  26.570  1.00  0.00     0.010 A 
ATOM     37  C   UNL A   1      40.800  25.371  27.617  1.00  0.00    -0.014 A 
BRANCH  37  38
ATOM     38  C   UNL A   1      41.316  26.727  27.944  1.00  0.00     0.031 A 
ATOM     39  C   UNL A   1      42.741  27.084  27.617  1.00  0.00     0.074 A 
ATOM     40  C   UNL A   1      40.530  27.601  28.604  1.00  0.00     0.049 A 
ATOM     41  N   UNL A   1      43.403  28.180  27.884  1.00  0.00    -0.248 NA
ATOM     42  C   UNL A   1      43.543  26.052  26.941  1.00  0.00     0.031 C 
ATOM     43  C   UNL A   1      39.155  27.342  29.040  1.00  0.00     0.029 A 
ATOM     44  N   UNL A   1      40.774  28.882  29.031  1.00  0.00    -0.354 N 
ATOM     45  C   UNL A   1      44.700  27.958  27.431  1.00  0.00     0.074 A 
ATOM     46  C   UNL A   1      44.749  26.593  26.955  1.00  0.00     0.031 C 
ATOM     47  C   UNL A   1      38.667  28.441  29.634  1.00  0.00     0.029 A 
ATOM     48  C   UNL A   1      39.706  29.464  29.673  1.00  0.00     0.049 A 
ATOM     49  H   UNL A   1      41.634  29.341  28.890  1.00  0.00     0.167 HD
ATOM     50  C   UNL A   1      45.744  28.823  27.385  1.00  0.00     0.034 A 
ATOM     51  C   UNL A   1      39.580  30.680  30.240  1.00  0.00     0.034 A 
ATOM     52  C   UNL A   1      45.664  30.184  27.854  1.00  0.00     0.049 A 
ATOM     53  C   UNL A   1      40.751  31.627  30.187  1.00  0.00     0.074 A 
ATOM     54  C   UNL A   1      46.627  31.175  27.787  1.00  0.00     0.029 A 
ATOM     55  N   UNL A   1      44.562  30.745  28.490  1.00  0.00    -0.354 N 
ATOM     56  N   UNL A   1      41.948  31.431  29.682  1.00  0.00    -0.248 NA
ATOM     57  C   UNL A   1      40.551  32.959  30.768  1.00  0.00     0.031 C 
ATOM     58  C   UNL A   1      46.141  32.303  28.460  1.00  0.00     0.029 A 
ATOM     59  C   UNL A   1      44.838  32.051  28.862  1.00  0.00     0.049 A 
ATOM     60  H   UNL A   1      43.710  30.280  28.653  1.00  0.00     0.167 HD
ATOM     61  C   UNL A   1      42.637  32.627  29.865  1.00  0.00     0.074 A 
ATOM     62  C   UNL A   1      41.713  33.540  30.508  1.00  0.00     0.031 C 
ATOM     63  C   UNL A   1      43.915  32.943  29.527  1.00  0.00     0.034 A 
BRANCH  50  64
ATOM     64  C   UNL A   1      47.055  28.298  26.842  1.00  0.00     0.023 A 
ATOM     65  C   UNL A   1      47.301  28.200  25.460  1.00  0.00     0.031 A 
ATOM     66  C   UNL A   1      48.052  27.832  27.716  1.00  0.00     0.131 A 
ATOM     67  C   UNL A   1      48.457  27.556  24.996  1.00  0.00     0.055 A 
ATOM     68  C   UNL A   1      49.248  27.284  27.247  1.00  0.00     0.041 A 
ATOM     69  F   UNL A   1      47.873  27.875  29.047  1.00  0.00    -0.206 F 
ATOM     70  C   UNL A   1      49.447  27.122  25.879  1.00  0.00     0.022 A 
BRANCH  67  71
ATOM     71  S   UNL A   1      48.555  27.118  23.237  1.00  0.00     0.124 S 
ATOM     72  O   UNL A   1      48.160  25.710  23.262  1.00  0.00    -0.237 OA
ATOM     73  O   UNL A   1      47.601  28.038  22.629  1.00  0.00    -0.237 OA
ATOM     74  O   UNL A   1      49.956  27.356  22.901  1.00  0.00    -0.744 OA
ENDBRANCH  67  71
ENDBRANCH  50  64
BRANCH  51  75
ATOM     75  C   UNL A   1      38.305  31.063  30.913  1.00  0.00     0.023 A 
ATOM     76  C   UNL A   1      37.286  31.733  30.218  1.00  0.00     0.031 A 
ATOM     77  C   UNL A   1      38.088  30.762  32.270  1.00  0.00     0.131 A 
ATOM     78  C   UNL A   1      36.110  32.107  30.889  1.00  0.00     0.055 A 
ATOM     79  C   UNL A   1      36.897  31.089  32.919  1.00  0.00     0.041 A 
ATOM     80  F   UNL A   1      39.028  30.117  32.980  1.00  0.00    -0.206 F 
ATOM     81  C   UNL A   1      35.903  31.774  32.230  1.00  0.00     0.022 A 
BRANCH  78  82
ATOM     82  S   UNL A   1      34.873  33.093  30.000  1.00  0.00     0.124 S 
ATOM     83  O   UNL A   1      34.295  32.102  29.099  1.00  0.00    -0.237 OA
ATOM     84  O   UNL A   1      34.013  33.551  31.085  1.00  0.00    -0.237 OA
ATOM     85  O   UNL A   1      35.667  34.136  29.355  1.00  0.00    -0.744 OA
ENDBRANCH  78  82
ENDBRANCH  51  75
BRANCH  63  86
ATOM     86  C   UNL A   1      44.374  34.352  29.821  1.00  0.00     0.023 A 
ATOM     87  C   UNL A   1      44.230  35.389  28.883  1.00  0.00     0.031 A 
ATOM     88  C   UNL A   1      44.973  34.659  31.057  1.00  0.00     0.131 A 
ATOM     89  C   UNL A   1      44.736  36.666  29.170  1.00  0.00     0.055 A 
ATOM     90  C   UNL A   1      45.407  35.948  31.365  1.00  0.00     0.041 A 
ATOM     91  F   UNL A   1      45.141  33.707  31.989  1.00  0.00    -0.206 F 
ATOM     92  C   UNL A   1      45.304  36.958  30.413  1.00  0.00     0.022 A 
BRANCH  89  93
ATOM     93  S   UNL A   1      44.744  37.915  27.855  1.00  0.00     0.124 S 
ATOM     94  O   UNL A   1      45.541  37.261  26.822  1.00  0.00    -0.237 OA
ATOM     95  O   UNL A   1      43.323  38.070  27.563  1.00  0.00    -0.237 OA
ATOM     96  O   UNL A   1      45.376  39.072  28.484  1.00  0.00    -0.744 OA
ENDBRANCH  89  93
ENDBRANCH  63  86
ENDBRANCH  37  38
ENDBRANCH  29  32
ENDBRANCH  27  28
ENDBRANCH   1  27
TORSDOF 16
ENDMDL
MODEL 2
REMARK VINA RESULT:     -12.1      1.642      7.743
REMARK SMILES CC1(C)[C@H](C(=O)Nc2ccccc2C(N)=O)[C@@H]1C(=O)NCCCNC(=O)c1ccc(-c2c3nc(c(-c4cc(S(=O)(=O)[O-])ccc4F)c4ccc([nH]4)c(-c4cc(S(=O)(=O)[O-])ccc4F)c4nc(c(-c5cc(S(=O)(=O)[O-])ccc5F)c5ccc2[nH]5)C=C4)C=C3)cc1
REMARK SMILES IDX 22 1 21 2 20 3 18 4 19 5 17 7 1 8 2 9 3 10 4 11 5 12 6 13
REMARK SMILES IDX 7 14 8 16 9 17 13 18 10 19 12 20 11 21 14 22 15 23 16 24
REMARK SMILES IDX 23 27 24 28 25 29 26 31 27 32 28 33 89 34 29 35 88 36 30 37
REMARK SMILES IDX 31 38 32 39 82 40 33 41 87 42 81 43 83 44 34 45 86 46 80 47
REMARK SMILES IDX 79 48 35 50 67 51 47 52 66 53 48 54 51 55 65 56 84 57 49 58
REMARK SMILES IDX 50 59 64 61 85 62 52 63 36 64 37 65 45 66 38 67 44 68 46 69
REMARK SMILES IDX 43 70 39 71 40 72 41 73 42 74 68 75 69 76 77 77 70 78 76 79
REMARK SMILES IDX 78 80 75 81 71 82 72 83 73 84 74 85 53 86 54 87 62 88 55 89
REMARK SMILES IDX 61 90 63 91 60 92 56 93 57 94 58 95 59 96
REMARK H PARENT 20 6 7 15 15 25 15 26 24 30 83 49 51 60
REMARK Flexibility Score: inf
ROOT
ATOM      1  C   UNL A   1      35.046  21.808  26.572  1.00  0.00     0.042 C 
ENDROOT
BRANCH   1   2
ATOM      2  C   UNL A   1      33.827  21.125  25.993  1.00  0.00     0.117 C 
BRANCH   2   3
ATOM      3  N   UNL A   1      32.609  21.832  26.318  1.00  0.00    -0.356 N 
ATOM      4  C   UNL A   1      32.076  22.925  25.711  1.00  0.00     0.224 C 
ATOM      5  O   UNL A   1      31.179  23.537  26.282  1.00  0.00    -0.275 OA
ATOM      6  H   UNL A   1      32.098  21.474  27.080  1.00  0.00     0.163 HD
BRANCH   4   7
ATOM      7  C   UNL A   1      32.602  23.395  24.397  1.00  0.00     0.098 C 
ATOM      8  C   UNL A   1      34.682  24.694  23.451  1.00  0.00     0.013 C 
ATOM      9  C   UNL A   1      33.482  24.657  24.389  1.00  0.00    -0.011 C 
ATOM     10  C   UNL A   1      33.837  25.217  25.739  1.00  0.00     0.013 C 
ATOM     11  C   UNL A   1      32.162  24.643  23.646  1.00  0.00     0.098 C 
BRANCH  11  12
ATOM     12  C   UNL A   1      30.759  25.128  23.713  1.00  0.00     0.228 C 
ATOM     13  O   UNL A   1      29.923  24.428  23.131  1.00  0.00    -0.274 OA
ATOM     14  N   UNL A   1      30.250  26.140  24.472  1.00  0.00    -0.325 N 
ATOM     15  H   UNL A   1      29.271  26.112  24.572  1.00  0.00     0.169 HD
BRANCH  14  16
ATOM     16  C   UNL A   1      30.851  27.202  25.131  1.00  0.00     0.053 A 
ATOM     17  C   UNL A   1      31.044  27.020  26.507  1.00  0.00     0.027 A 
ATOM     18  C   UNL A   1      31.228  28.404  24.515  1.00  0.00     0.063 A 
ATOM     19  C   UNL A   1      31.762  27.955  27.244  1.00  0.00     0.002 A 
ATOM     20  C   UNL A   1      31.938  29.350  25.272  1.00  0.00     0.016 A 
ATOM     21  C   UNL A   1      32.235  29.105  26.619  1.00  0.00     0.001 A 
BRANCH  18  22
ATOM     22  C   UNL A   1      30.797  28.716  23.121  1.00  0.00     0.250 C 
ATOM     23  N   UNL A   1      31.709  29.298  22.285  1.00  0.00    -0.366 N 
ATOM     24  O   UNL A   1      29.670  28.476  22.708  1.00  0.00    -0.269 OA
ATOM     25  H   UNL A   1      32.618  29.495  22.609  1.00  0.00     0.159 HD
ATOM     26  H   UNL A   1      31.457  29.520  21.360  1.00  0.00     0.159 HD
ENDBRANCH  18  22
ENDBRANCH  14  16
ENDBRANCH  11  12
ENDBRANCH   4   7
ENDBRANCH   2   3
ENDBRANCH   1   2
BRANCH   1  27
ATOM     27  C   UNL A   1      36.133  22.073  25.543  1.00  0.00     0.118 C 
BRANCH  27  28
ATOM     28  N   UNL A   1      37.136  21.015  25.467  1.00  0.00    -0.352 N 
ATOM     29  C   UNL A   1      38.482  21.054  25.750  1.00  0.00     0.251 C 
ATOM     30  H   UNL A   1      36.796  20.140  25.168  1.00  0.00     0.163 HD
ATOM     31  O   UNL A   1      39.193  20.093  25.471  1.00  0.00    -0.269 OA
BRANCH  29  32
ATOM     32  C   UNL A   1      39.059  22.275  26.346  1.00  0.00     0.039 A 
ATOM     33  C   UNL A   1      40.163  22.173  27.192  1.00  0.00     0.014 A 
ATOM     34  C   UNL A   1      38.550  23.528  26.003  1.00  0.00     0.014 A 
ATOM     35  C   UNL A   1      40.818  23.334  27.606  1.00  0.00     0.010 A 
ATOM     36  C   UNL A   1      39.284  24.667  26.294  1.00  0.00     0.010 A 
ATOM     37  C   UNL A   1      40.421  24.587  27.110  1.00  0.00    -0.014 A 
BRANCH  37  38
ATOM     38  C   UNL A   1      41.168  25.830  27.439  1.00  0.00     0.031 A 
ATOM     39  C   UNL A   1      40.503  26.912  28.247  1.00  0.00     0.074 A 
ATOM     40  C   UNL A   1      42.409  26.015  26.945  1.00  0.00     0.049 A 
ATOM     41  N   UNL A   1      40.953  28.095  28.577  1.00  0.00    -0.248 NA
ATOM     42  C   UNL A   1      39.130  26.647  28.704  1.00  0.00     0.031 C 
ATOM     43  C   UNL A   1      43.129  25.069  26.089  1.00  0.00     0.029 A 
ATOM     44  N   UNL A   1      43.283  27.064  27.085  1.00  0.00    -0.354 N 
ATOM     45  C   UNL A   1      39.911  28.719  29.257  1.00  0.00     0.074 A 
ATOM     46  C   UNL A   1      38.782  27.816  29.212  1.00  0.00     0.031 C 
ATOM     47  C   UNL A   1      44.346  25.563  25.815  1.00  0.00     0.029 A 
ATOM     48  C   UNL A   1      44.476  26.881  26.426  1.00  0.00     0.049 A 
ATOM     49  H   UNL A   1      43.074  27.872  27.607  1.00  0.00     0.167 HD
ATOM     50  C   UNL A   1      39.908  29.919  29.889  1.00  0.00     0.034 A 
ATOM     51  C   UNL A   1      45.550  27.687  26.316  1.00  0.00     0.034 A 
ATOM     52  C   UNL A   1      41.053  30.795  29.931  1.00  0.00     0.049 A 
ATOM     53  C   UNL A   1      45.528  29.020  27.018  1.00  0.00     0.074 A 
ATOM     54  C   UNL A   1      41.194  31.995  30.605  1.00  0.00     0.029 A 
ATOM     55  N   UNL A   1      42.251  30.572  29.261  1.00  0.00    -0.354 N 
ATOM     56  N   UNL A   1      44.564  29.563  27.726  1.00  0.00    -0.248 NA
ATOM     57  C   UNL A   1      46.740  29.841  26.916  1.00  0.00     0.031 C 
ATOM     58  C   UNL A   1      42.441  32.538  30.271  1.00  0.00     0.029 A 
ATOM     59  C   UNL A   1      43.118  31.634  29.466  1.00  0.00     0.049 A 
ATOM     60  H   UNL A   1      42.453  29.777  28.718  1.00  0.00     0.167 HD
ATOM     61  C   UNL A   1      45.064  30.783  28.175  1.00  0.00     0.074 A 
ATOM     62  C   UNL A   1      46.420  30.882  27.671  1.00  0.00     0.031 C 
ATOM     63  C   UNL A   1      44.460  31.732  28.937  1.00  0.00     0.034 A 
BRANCH  50  64
ATOM     64  C   UNL A   1      38.615  30.352  30.545  1.00  0.00     0.023 A 
ATOM     65  C   UNL A   1      37.652  31.116  29.859  1.00  0.00     0.031 A 
ATOM     66  C   UNL A   1      38.366  30.050  31.895  1.00  0.00     0.131 A 
ATOM     67  C   UNL A   1      36.549  31.639  30.549  1.00  0.00     0.055 A 
ATOM     68  C   UNL A   1      37.212  30.487  32.550  1.00  0.00     0.041 A 
ATOM     69  F   UNL A   1      39.254  29.343  32.615  1.00  0.00    -0.206 F 
ATOM     70  C   UNL A   1      36.306  31.306  31.883  1.00  0.00     0.022 A 
BRANCH  67  71
ATOM     71  S   UNL A   1      35.546  32.914  29.735  1.00  0.00     0.124 S 
ATOM     72  O   UNL A   1      35.169  33.759  30.866  1.00  0.00    -0.237 OA
ATOM     73  O   UNL A   1      36.487  33.498  28.787  1.00  0.00    -0.237 OA
ATOM     74  O   UNL A   1      34.446  32.158  29.140  1.00  0.00    -0.744 OA
ENDBRANCH  67  71
ENDBRANCH  50  64
BRANCH  51  75
ATOM     75  C   UNL A   1      46.726  27.260  25.502  1.00  0.00     0.023 A 
ATOM     76  C   UNL A   1      46.930  27.750  24.202  1.00  0.00     0.031 A 
ATOM     77  C   UNL A   1      47.665  26.348  26.018  1.00  0.00     0.131 A 
ATOM     78  C   UNL A   1      48.029  27.303  23.451  1.00  0.00     0.055 A 
ATOM     79  C   UNL A   1      48.784  25.948  25.287  1.00  0.00     0.041 A 
ATOM     80  F   UNL A   1      47.520  25.853  27.257  1.00  0.00    -0.206 F 
ATOM     81  C   UNL A   1      48.966  26.418  23.991  1.00  0.00     0.022 A 
BRANCH  78  82
ATOM     82  S   UNL A   1      48.189  27.847  21.728  1.00  0.00     0.124 S 
ATOM     83  O   UNL A   1      48.357  26.577  21.029  1.00  0.00    -0.237 OA
ATOM     84  O   UNL A   1      46.921  28.536  21.508  1.00  0.00    -0.237 OA
ATOM     85  O   UNL A   1      49.368  28.709  21.750  1.00  0.00    -0.744 OA
ENDBRANCH  78  82
ENDBRANCH  51  75
BRANCH  63  86
ATOM     86  C   UNL A   1      45.281  32.947  29.299  1.00  0.00     0.023 A 
ATOM     87  C   UNL A   1      45.303  34.095  28.487  1.00  0.00     0.031 A 
ATOM     88  C   UNL A   1      46.061  32.952  30.470  1.00  0.00     0.131 A 
ATOM     89  C   UNL A   1      46.136  35.173  28.824  1.00  0.00     0.055 A 
ATOM     90  C   UNL A   1      46.830  34.056  30.838  1.00  0.00     0.041 A 
ATOM     91  F   UNL A   1      46.083  31.881  31.280  1.00  0.00    -0.206 F 
ATOM     92  C   UNL A   1      46.882  35.169  30.005  1.00  0.00     0.022 A 
BRANCH  89  93
ATOM     93  S   UNL A   1      46.317  36.535  27.641  1.00  0.00     0.124 S 
ATOM     94  O   UNL A   1      47.408  37.305  28.232  1.00  0.00    -0.237 OA
ATOM     95  O   UNL A   1      46.630  35.833  26.401  1.00  0.00    -0.237 OA
ATOM     96  O   UNL A   1      45.011  37.190  27.669  1.00  0.00    -0.744 OA
ENDBRANCH  89  93
ENDBRANCH  63  86
ENDBRANCH  37  38
ENDBRANCH  29  32
ENDBRANCH  27  28
ENDBRANCH   1  27
TORSDOF 16
ENDMDL
MODEL 3
REMARK VINA RESULT:     -12.1      4.896      9.815
REMARK SMILES CC1(C)[C@H](C(=O)Nc2ccccc2C(N)=O)[C@@H]1C(=O)NCCCNC(=O)c1ccc(-c2c3nc(c(-c4cc(S(=O)(=O)[O-])ccc4F)c4ccc([nH]4)c(-c4cc(S(=O)(=O)[O-])ccc4F)c4nc(c(-c5cc(S(=O)(=O)[O-])ccc5F)c5ccc2[nH]5)C=C4)C=C3)cc1
REMARK SMILES IDX 22 1 21 2 20 3 18 4 19 5 17 7 1 8 2 9 3 10 4 11 5 12 6 13
REMARK SMILES IDX 7 14 8 16 9 17 13 18 10 19 12 20 11 21 14 22 15 23 16 24
REMARK SMILES IDX 23 27 24 28 25 29 26 31 27 32 28 33 89 34 29 35 88 36 30 37
REMARK SMILES IDX 31 38 32 39 82 40 33 41 87 42 81 43 83 44 34 45 86 46 80 47
REMARK SMILES IDX 79 48 35 50 67 51 47 52 66 53 48 54 51 55 65 56 84 57 49 58
REMARK SMILES IDX 50 59 64 61 85 62 52 63 36 64 37 65 45 66 38 67 44 68 46 69
REMARK SMILES IDX 43 70 39 71 40 72 41 73 42 74 68 75 69 76 77 77 70 78 76 79
REMARK SMILES IDX 78 80 75 81 71 82 72 83 73 84 74 85 53 86 54 87 62 88 55 89
REMARK SMILES IDX 61 90 63 91 60 92 56 93 57 94 58 95 59 96
REMARK H PARENT 20 6 7 15 15 25 15 26 24 30 83 49 51 60
REMARK Flexibility Score: inf
ROOT
ATOM      1  C   UNL A   1      31.754  28.776  26.301  1.00  0.00     0.042 C 
ENDROOT
BRANCH   1   2
ATOM      2  C   UNL A   1      32.302  27.416  26.672  1.00  0.00     0.117 C 
BRANCH   2   3
ATOM      3  N   UNL A   1      33.167  26.886  25.644  1.00  0.00    -0.356 N 
ATOM      4  C   UNL A   1      33.441  25.587  25.353  1.00  0.00     0.224 C 
ATOM      5  O   UNL A   1      34.391  25.335  24.620  1.00  0.00    -0.275 OA
ATOM      6  H   UNL A   1      33.618  27.555  25.079  1.00  0.00     0.163 HD
BRANCH   4   7
ATOM      7  C   UNL A   1      32.626  24.489  25.948  1.00  0.00     0.098 C 
ATOM      8  C   UNL A   1      32.878  22.597  27.756  1.00  0.00     0.013 C 
ATOM      9  C   UNL A   1      33.371  23.247  26.469  1.00  0.00    -0.011 C 
ATOM     10  C   UNL A   1      34.872  23.326  26.446  1.00  0.00     0.013 C 
ATOM     11  C   UNL A   1      32.376  23.119  25.334  1.00  0.00     0.098 C 
BRANCH  11  12
ATOM     12  C   UNL A   1      32.273  22.942  23.863  1.00  0.00     0.228 C 
ATOM     13  O   UNL A   1      32.764  21.901  23.413  1.00  0.00    -0.274 OA
ATOM     14  N   UNL A   1      31.559  23.686  22.970  1.00  0.00    -0.325 N 
ATOM     15  H   UNL A   1      31.410  23.239  22.105  1.00  0.00     0.169 HD
BRANCH  14  16
ATOM     16  C   UNL A   1      31.003  24.954  23.049  1.00  0.00     0.053 A 
ATOM     17  C   UNL A   1      29.904  25.072  23.911  1.00  0.00     0.027 A 
ATOM     18  C   UNL A   1      31.454  26.062  22.319  1.00  0.00     0.063 A 
ATOM     19  C   UNL A   1      29.355  26.320  24.179  1.00  0.00     0.002 A 
ATOM     20  C   UNL A   1      30.881  27.317  22.585  1.00  0.00     0.016 A 
ATOM     21  C   UNL A   1      29.863  27.447  23.538  1.00  0.00     0.001 A 
BRANCH  18  22
ATOM     22  C   UNL A   1      32.443  25.899  21.214  1.00  0.00     0.250 C 
ATOM     23  N   UNL A   1      31.963  25.719  19.947  1.00  0.00    -0.366 N 
ATOM     24  O   UNL A   1      33.653  25.914  21.403  1.00  0.00    -0.269 OA
ATOM     25  H   UNL A   1      30.991  25.705  19.786  1.00  0.00     0.159 HD
ATOM     26  H   UNL A   1      32.589  25.605  19.195  1.00  0.00     0.159 HD
ENDBRANCH  18  22
ENDBRANCH  14  16
ENDBRANCH  11  12
ENDBRANCH   4   7
ENDBRANCH   2   3
ENDBRANCH   1   2
BRANCH   1  27
ATOM     27  C   UNL A   1      32.830  29.766  25.886  1.00  0.00     0.118 C 
BRANCH  27  28
ATOM     28  N   UNL A   1      32.586  31.127  26.356  1.00  0.00    -0.352 N 
ATOM     29  C   UNL A   1      33.304  31.895  27.244  1.00  0.00     0.251 C 
ATOM     30  H   UNL A   1      31.785  31.560  25.981  1.00  0.00     0.163 HD
ATOM     31  O   UNL A   1      32.848  32.965  27.634  1.00  0.00    -0.269 OA
BRANCH  29  32
ATOM     32  C   UNL A   1      34.600  31.394  27.747  1.00  0.00     0.039 A 
ATOM     33  C   UNL A   1      35.629  32.297  28.015  1.00  0.00     0.014 A 
ATOM     34  C   UNL A   1      34.764  30.037  28.026  1.00  0.00     0.014 A 
ATOM     35  C   UNL A   1      36.782  31.847  28.661  1.00  0.00     0.010 A 
ATOM     36  C   UNL A   1      35.841  29.623  28.794  1.00  0.00     0.010 A 
ATOM     37  C   UNL A   1      36.871  30.519  29.111  1.00  0.00    -0.014 A 
BRANCH  37  38
ATOM     38  C   UNL A   1      38.034  30.039  29.903  1.00  0.00     0.031 A 
ATOM     39  C   UNL A   1      38.234  30.529  31.312  1.00  0.00     0.074 A 
ATOM     40  C   UNL A   1      38.947  29.231  29.328  1.00  0.00     0.049 A 
ATOM     41  N   UNL A   1      39.217  30.291  32.141  1.00  0.00    -0.248 NA
ATOM     42  C   UNL A   1      37.215  31.448  31.843  1.00  0.00     0.031 C 
ATOM     43  C   UNL A   1      38.900  28.749  27.945  1.00  0.00     0.029 A 
ATOM     44  N   UNL A   1      40.098  28.677  29.831  1.00  0.00    -0.354 N 
ATOM     45  C   UNL A   1      38.945  31.048  33.277  1.00  0.00     0.074 A 
ATOM     46  C   UNL A   1      37.755  31.817  32.991  1.00  0.00     0.031 C 
ATOM     47  C   UNL A   1      39.949  27.941  27.725  1.00  0.00     0.029 A 
ATOM     48  C   UNL A   1      40.773  27.890  28.927  1.00  0.00     0.049 A 
ATOM     49  H   UNL A   1      40.411  28.829  30.752  1.00  0.00     0.167 HD
ATOM     50  C   UNL A   1      39.609  31.073  34.459  1.00  0.00     0.034 A 
ATOM     51  C   UNL A   1      41.932  27.212  29.048  1.00  0.00     0.034 A 
ATOM     52  C   UNL A   1      40.786  30.284  34.723  1.00  0.00     0.049 A 
ATOM     53  C   UNL A   1      42.661  27.256  30.366  1.00  0.00     0.074 A 
ATOM     54  C   UNL A   1      41.497  30.166  35.904  1.00  0.00     0.029 A 
ATOM     55  N   UNL A   1      41.438  29.489  33.787  1.00  0.00    -0.354 N 
ATOM     56  N   UNL A   1      42.348  27.912  31.460  1.00  0.00    -0.248 NA
ATOM     57  C   UNL A   1      43.888  26.459  30.470  1.00  0.00     0.031 C 
ATOM     58  C   UNL A   1      42.623  29.372  35.659  1.00  0.00     0.029 A 
ATOM     59  C   UNL A   1      42.568  28.915  34.351  1.00  0.00     0.049 A 
ATOM     60  H   UNL A   1      41.142  29.354  32.858  1.00  0.00     0.167 HD
ATOM     61  C   UNL A   1      43.330  27.588  32.392  1.00  0.00     0.074 A 
ATOM     62  C   UNL A   1      44.232  26.663  31.733  1.00  0.00     0.031 C 
ATOM     63  C   UNL A   1      43.473  28.013  33.674  1.00  0.00     0.034 A 
BRANCH  50  64
ATOM     64  C   UNL A   1      39.086  32.009  35.527  1.00  0.00     0.023 A 
ATOM     65  C   UNL A   1      39.502  33.351  35.608  1.00  0.00     0.031 A 
ATOM     66  C   UNL A   1      38.204  31.540  36.516  1.00  0.00     0.131 A 
ATOM     67  C   UNL A   1      39.126  34.139  36.706  1.00  0.00     0.055 A 
ATOM     68  C   UNL A   1      37.751  32.360  37.551  1.00  0.00     0.041 A 
ATOM     69  F   UNL A   1      37.785  30.263  36.511  1.00  0.00    -0.206 F 
ATOM     70  C   UNL A   1      38.230  33.662  37.664  1.00  0.00     0.022 A 
BRANCH  67  71
ATOM     71  S   UNL A   1      39.977  35.720  36.967  1.00  0.00     0.124 S 
ATOM     72  O   UNL A   1      41.366  35.286  37.114  1.00  0.00    -0.237 OA
ATOM     73  O   UNL A   1      39.663  36.453  35.746  1.00  0.00    -0.237 OA
ATOM     74  O   UNL A   1      39.366  36.243  38.186  1.00  0.00    -0.744 OA
ENDBRANCH  67  71
ENDBRANCH  50  64
BRANCH  51  75
ATOM     75  C   UNL A   1      42.475  26.447  27.888  1.00  0.00     0.023 A 
ATOM     76  C   UNL A   1      42.091  25.119  27.645  1.00  0.00     0.031 A 
ATOM     77  C   UNL A   1      43.394  27.039  27.002  1.00  0.00     0.131 A 
ATOM     78  C   UNL A   1      42.645  24.417  26.562  1.00  0.00     0.055 A 
ATOM     79  C   UNL A   1      43.902  26.355  25.898  1.00  0.00     0.041 A 
ATOM     80  F   UNL A   1      43.791  28.308  27.186  1.00  0.00    -0.206 F 
ATOM     81  C   UNL A   1      43.535  25.032  25.678  1.00  0.00     0.022 A 
BRANCH  78  82
ATOM     82  S   UNL A   1      42.234  22.662  26.357  1.00  0.00     0.124 S 
ATOM     83  O   UNL A   1      43.046  22.043  27.399  1.00  0.00    -0.237 OA
ATOM     84  O   UNL A   1      40.792  22.659  26.582  1.00  0.00    -0.237 OA
ATOM     85  O   UNL A   1      42.649  22.372  24.987  1.00  0.00    -0.744 OA
ENDBRANCH  78  82
ENDBRANCH  51  75
BRANCH  63  86
ATOM     86  C   UNL A   1      44.633  27.448  34.460  1.00  0.00     0.023 A 
ATOM     87  C   UNL A   1      44.534  26.231  35.156  1.00  0.00     0.031 A 
ATOM     88  C   UNL A   1      45.854  28.145  34.519  1.00  0.00     0.131 A 
ATOM     89  C   UNL A   1      45.613  25.780  35.932  1.00  0.00     0.055 A 
ATOM     90  C   UNL A   1      46.948  27.654  35.232  1.00  0.00     0.041 A 
ATOM     91  F   UNL A   1      46.005  29.315  33.878  1.00  0.00    -0.206 F 
ATOM     92  C   UNL A   1      46.826  26.472  35.957  1.00  0.00     0.022 A 
BRANCH  89  93
ATOM     93  S   UNL A   1      45.373  24.333  36.999  1.00  0.00     0.124 S 
ATOM     94  O   UNL A   1      44.712  23.398  36.094  1.00  0.00    -0.237 OA
ATOM     95  O   UNL A   1      46.741  23.995  37.379  1.00  0.00    -0.237 OA
ATOM     96  O   UNL A   1      44.537  24.842  38.083  1.00  0.00    -0.744 OA
ENDBRANCH  89  93
ENDBRANCH  63  86
ENDBRANCH  37  38
ENDBRANCH  29  32
ENDBRANCH  27  28
ENDBRANCH   1  27
TORSDOF 16
ENDMDL
