MODEL 1
REMARK VINA RESULT:     -10.9      0.000      0.000
REMARK SMILES CCC[C@@]1(C(=O)N[C@@](C)(C(=O)NCCCNC(=O)c2ccc(-c3c4nc(c(-c5cc(S(=O)(=O)[O-])ccc5F)c5ccc([nH]5)c(-c5cc(S(=O)(=O)[O-])ccc5F)c5nc(c(-c6cc(S(=O)(=O)[O-])ccc6F)c6ccc3[nH]6)C=C5)C=C4)cc2)C(F)(F)F)CC[NH2+]C1
REMARK SMILES IDX 13 1 12 2 10 3 11 4 8 6 9 7 7 8 5 9 6 10 4 12 86 13 89 14
REMARK SMILES IDX 87 15 88 16 3 19 2 20 1 21 82 22 83 23 84 24 85 25 14 26
REMARK SMILES IDX 15 27 16 28 17 29 18 31 19 32 20 33 81 34 21 35 80 36 22 37
REMARK SMILES IDX 23 38 24 39 74 40 25 41 79 42 73 43 75 44 26 45 78 46 72 47
REMARK SMILES IDX 71 48 27 50 59 51 39 52 58 53 40 54 43 55 57 56 76 57 41 58
REMARK SMILES IDX 42 59 56 61 77 62 44 63 28 64 29 65 37 66 30 67 36 68 38 69
REMARK SMILES IDX 35 70 31 71 32 72 33 73 34 74 60 75 61 76 69 77 62 78 68 79
REMARK SMILES IDX 70 80 67 81 63 82 64 83 65 84 66 85 45 86 46 87 54 88 47 89
REMARK SMILES IDX 53 90 55 91 52 92 48 93 49 94 50 95 51 96
REMARK H PARENT 12 5 7 11 88 17 88 18 16 30 75 49 43 60
REMARK Flexibility Score: inf
ROOT
ATOM      1  C   UNL A   1      33.414  28.226  24.758  1.00  0.00     0.117 C 
ENDROOT
BRANCH   1   2
ATOM      2  N   UNL A   1      33.872  27.250  23.783  1.00  0.00    -0.354 N 
ATOM      3  C   UNL A   1      33.406  26.041  23.363  1.00  0.00     0.254 C 
ATOM      4  O   UNL A   1      34.061  25.536  22.447  1.00  0.00    -0.272 OA
ATOM      5  H   UNL A   1      34.701  27.522  23.327  1.00  0.00     0.163 HD
BRANCH   3   6
ATOM      6  C   UNL A   1      32.185  25.330  23.991  1.00  0.00     0.212 C 
ATOM      7  C   UNL A   1      31.111  26.341  24.457  1.00  0.00     0.056 C 
BRANCH   6   8
ATOM      8  N   UNL A   1      32.660  24.588  25.212  1.00  0.00    -0.334 N 
ATOM      9  C   UNL A   1      33.419  23.576  25.651  1.00  0.00     0.233 C 
ATOM     10  O   UNL A   1      33.727  23.771  26.845  1.00  0.00    -0.274 OA
ATOM     11  H   UNL A   1      32.249  25.015  25.998  1.00  0.00     0.164 HD
BRANCH   9  12
ATOM     12  C   UNL A   1      33.976  22.295  24.973  1.00  0.00     0.103 C 
ATOM     13  C   UNL A   1      33.075  21.305  24.251  1.00  0.00     0.084 C 
ATOM     14  C   UNL A   1      34.377  21.368  26.194  1.00  0.00     0.277 C 
ATOM     15  C   UNL A   1      32.328  20.593  25.355  1.00  0.00     0.261 C 
ATOM     16  N   UNL A   1      33.391  20.265  26.297  1.00  0.00    -0.345 N 
ATOM     17  H   UNL A   1      33.825  19.376  26.048  1.00  0.00     0.346 HD
ATOM     18  H   UNL A   1      33.033  20.168  27.248  1.00  0.00     0.346 HD
BRANCH  12  19
ATOM     19  C   UNL A   1      35.270  22.717  24.198  1.00  0.00     0.023 C 
BRANCH  19  20
ATOM     20  C   UNL A   1      36.170  23.839  24.737  1.00  0.00    -0.002 C 
ATOM     21  C   UNL A   1      37.324  23.384  25.610  1.00  0.00     0.004 C 
ENDBRANCH  19  20
ENDBRANCH  12  19
ENDBRANCH   9  12
ENDBRANCH   6   8
BRANCH   6  22
ATOM     22  C   UNL A   1      31.520  24.560  22.844  1.00  0.00     0.420 C 
ATOM     23  F   UNL A   1      30.369  23.961  23.185  1.00  0.00    -0.168 F 
ATOM     24  F   UNL A   1      31.257  25.396  21.805  1.00  0.00    -0.168 F 
ATOM     25  F   UNL A   1      32.333  23.597  22.340  1.00  0.00    -0.168 F 
ENDBRANCH   6  22
ENDBRANCH   3   6
ENDBRANCH   1   2
BRANCH   1  26
ATOM     26  C   UNL A   1      34.056  28.039  26.123  1.00  0.00     0.042 C 
BRANCH  26  27
ATOM     27  C   UNL A   1      33.259  28.611  27.286  1.00  0.00     0.118 C 
BRANCH  27  28
ATOM     28  N   UNL A   1      33.335  30.062  27.368  1.00  0.00    -0.352 N 
ATOM     29  C   UNL A   1      34.321  30.863  27.902  1.00  0.00     0.251 C 
ATOM     30  H   UNL A   1      32.567  30.545  26.985  1.00  0.00     0.163 HD
ATOM     31  O   UNL A   1      34.107  32.055  28.071  1.00  0.00    -0.269 OA
BRANCH  29  32
ATOM     32  C   UNL A   1      35.617  30.264  28.289  1.00  0.00     0.039 A 
ATOM     33  C   UNL A   1      36.706  30.357  27.420  1.00  0.00     0.014 A 
ATOM     34  C   UNL A   1      35.757  29.622  29.521  1.00  0.00     0.014 A 
ATOM     35  C   UNL A   1      37.951  29.869  27.822  1.00  0.00     0.010 A 
ATOM     36  C   UNL A   1      37.017  29.250  29.966  1.00  0.00     0.010 A 
ATOM     37  C   UNL A   1      38.126  29.344  29.113  1.00  0.00    -0.014 A 
BRANCH  37  38
ATOM     38  C   UNL A   1      39.438  28.826  29.578  1.00  0.00     0.031 A 
ATOM     39  C   UNL A   1      40.128  29.494  30.739  1.00  0.00     0.074 A 
ATOM     40  C   UNL A   1      40.034  27.808  28.927  1.00  0.00     0.049 A 
ATOM     41  N   UNL A   1      41.313  29.267  31.245  1.00  0.00    -0.248 NA
ATOM     42  C   UNL A   1      39.401  30.596  31.389  1.00  0.00     0.031 C 
ATOM     43  C   UNL A   1      39.483  27.106  27.766  1.00  0.00     0.029 A 
ATOM     44  N   UNL A   1      41.236  27.185  29.148  1.00  0.00    -0.354 N 
ATOM     45  C   UNL A   1      41.476  30.208  32.257  1.00  0.00     0.074 A 
ATOM     46  C   UNL A   1      40.311  31.064  32.226  1.00  0.00     0.031 C 
ATOM     47  C   UNL A   1      40.323  26.122  27.406  1.00  0.00     0.029 A 
ATOM     48  C   UNL A   1      41.496  26.155  28.275  1.00  0.00     0.049 A 
ATOM     49  H   UNL A   1      41.855  27.451  29.866  1.00  0.00     0.167 HD
ATOM     50  C   UNL A   1      42.483  30.324  33.158  1.00  0.00     0.034 A 
ATOM     51  C   UNL A   1      42.561  25.333  28.184  1.00  0.00     0.034 A 
ATOM     52  C   UNL A   1      43.630  29.450  33.182  1.00  0.00     0.049 A 
ATOM     53  C   UNL A   1      43.691  25.503  29.171  1.00  0.00     0.074 A 
ATOM     54  C   UNL A   1      44.696  29.448  34.062  1.00  0.00     0.029 A 
ATOM     55  N   UNL A   1      43.860  28.420  32.276  1.00  0.00    -0.354 N 
ATOM     56  N   UNL A   1      43.815  26.373  30.147  1.00  0.00    -0.248 NA
ATOM     57  C   UNL A   1      44.817  24.569  29.050  1.00  0.00     0.031 C 
ATOM     58  C   UNL A   1      45.604  28.466  33.648  1.00  0.00     0.029 A 
ATOM     59  C   UNL A   1      45.064  27.794  32.563  1.00  0.00     0.049 A 
ATOM     60  H   UNL A   1      43.258  28.172  31.538  1.00  0.00     0.167 HD
ATOM     61  C   UNL A   1      45.014  26.059  30.783  1.00  0.00     0.074 A 
ATOM     62  C   UNL A   1      45.566  24.917  30.084  1.00  0.00     0.031 C 
ATOM     63  C   UNL A   1      45.601  26.655  31.853  1.00  0.00     0.034 A 
BRANCH  50  64
ATOM     64  C   UNL A   1      42.382  31.446  34.166  1.00  0.00     0.023 A 
ATOM     65  C   UNL A   1      41.474  31.391  35.240  1.00  0.00     0.031 A 
ATOM     66  C   UNL A   1      43.154  32.613  34.023  1.00  0.00     0.131 A 
ATOM     67  C   UNL A   1      41.283  32.515  36.058  1.00  0.00     0.055 A 
ATOM     68  C   UNL A   1      43.032  33.690  34.904  1.00  0.00     0.041 A 
ATOM     69  F   UNL A   1      44.023  32.738  33.008  1.00  0.00    -0.206 F 
ATOM     70  C   UNL A   1      42.077  33.654  35.916  1.00  0.00     0.022 A 
BRANCH  67  71
ATOM     71  S   UNL A   1      39.858  32.532  37.180  1.00  0.00     0.124 S 
ATOM     72  O   UNL A   1      39.210  33.790  36.813  1.00  0.00    -0.237 OA
ATOM     73  O   UNL A   1      39.148  31.314  36.808  1.00  0.00    -0.237 OA
ATOM     74  O   UNL A   1      40.469  32.520  38.508  1.00  0.00    -0.744 OA
ENDBRANCH  67  71
ENDBRANCH  50  64
BRANCH  51  75
ATOM     75  C   UNL A   1      42.611  24.267  27.143  1.00  0.00     0.023 A 
ATOM     76  C   UNL A   1      41.937  23.049  27.328  1.00  0.00     0.031 A 
ATOM     77  C   UNL A   1      43.365  24.429  25.967  1.00  0.00     0.131 A 
ATOM     78  C   UNL A   1      42.069  22.023  26.381  1.00  0.00     0.055 A 
ATOM     79  C   UNL A   1      43.448  23.427  24.999  1.00  0.00     0.041 A 
ATOM     80  F   UNL A   1      44.026  25.575  25.736  1.00  0.00    -0.206 F 
ATOM     81  C   UNL A   1      42.808  22.209  25.210  1.00  0.00     0.022 A 
BRANCH  78  82
ATOM     82  S   UNL A   1      41.333  20.406  26.743  1.00  0.00     0.124 S 
ATOM     83  O   UNL A   1      42.107  19.982  27.905  1.00  0.00    -0.237 OA
ATOM     84  O   UNL A   1      39.939  20.758  26.994  1.00  0.00    -0.237 OA
ATOM     85  O   UNL A   1      41.570  19.642  25.521  1.00  0.00    -0.744 OA
ENDBRANCH  78  82
ENDBRANCH  51  75
BRANCH  63  86
ATOM     86  C   UNL A   1      46.875  26.035  32.373  1.00  0.00     0.023 A 
ATOM     87  C   UNL A   1      46.871  25.049  33.375  1.00  0.00     0.031 A 
ATOM     88  C   UNL A   1      48.118  26.448  31.858  1.00  0.00     0.131 A 
ATOM     89  C   UNL A   1      48.086  24.556  33.874  1.00  0.00     0.055 A 
ATOM     90  C   UNL A   1      49.320  25.902  32.310  1.00  0.00     0.041 A 
ATOM     91  F   UNL A   1      48.184  27.389  30.902  1.00  0.00    -0.206 F 
ATOM     92  C   UNL A   1      49.309  24.962  33.335  1.00  0.00     0.022 A 
BRANCH  89  93
ATOM     93  S   UNL A   1      48.051  23.454  35.315  1.00  0.00     0.124 S 
ATOM     94  O   UNL A   1      47.145  22.401  34.869  1.00  0.00    -0.237 OA
ATOM     95  O   UNL A   1      49.453  23.073  35.450  1.00  0.00    -0.237 OA
ATOM     96  O   UNL A   1      47.534  24.305  36.385  1.00  0.00    -0.744 OA
ENDBRANCH  89  93
ENDBRANCH  63  86
ENDBRANCH  37  38
ENDBRANCH  29  32
ENDBRANCH  27  28
ENDBRANCH  26  27
ENDBRANCH   1  26
TORSDOF 18
ENDMDL
MODEL 2
REMARK VINA RESULT:     -10.8      4.373      9.379
REMARK SMILES CCC[C@@]1(C(=O)N[C@@](C)(C(=O)NCCCNC(=O)c2ccc(-c3c4nc(c(-c5cc(S(=O)(=O)[O-])ccc5F)c5ccc([nH]5)c(-c5cc(S(=O)(=O)[O-])ccc5F)c5nc(c(-c6cc(S(=O)(=O)[O-])ccc6F)c6ccc3[nH]6)C=C5)C=C4)cc2)C(F)(F)F)CC[NH2+]C1
REMARK SMILES IDX 13 1 12 2 10 3 11 4 8 6 9 7 7 8 5 9 6 10 4 12 86 13 89 14
REMARK SMILES IDX 87 15 88 16 3 19 2 20 1 21 82 22 83 23 84 24 85 25 14 26
REMARK SMILES IDX 15 27 16 28 17 29 18 31 19 32 20 33 81 34 21 35 80 36 22 37
REMARK SMILES IDX 23 38 24 39 74 40 25 41 79 42 73 43 75 44 26 45 78 46 72 47
REMARK SMILES IDX 71 48 27 50 59 51 39 52 58 53 40 54 43 55 57 56 76 57 41 58
REMARK SMILES IDX 42 59 56 61 77 62 44 63 28 64 29 65 37 66 30 67 36 68 38 69
REMARK SMILES IDX 35 70 31 71 32 72 33 73 34 74 60 75 61 76 69 77 62 78 68 79
REMARK SMILES IDX 70 80 67 81 63 82 64 83 65 84 66 85 45 86 46 87 54 88 47 89
REMARK SMILES IDX 53 90 55 91 52 92 48 93 49 94 50 95 51 96
REMARK H PARENT 12 5 7 11 88 17 88 18 16 30 75 49 43 60
REMARK Flexibility Score: inf
ROOT
ATOM      1  C   UNL A   1      35.453  23.074  24.052  1.00  0.00     0.117 C 
ENDROOT
BRANCH   1   2
ATOM      2  N   UNL A   1      34.139  22.487  23.850  1.00  0.00    -0.354 N 
ATOM      3  C   UNL A   1      32.929  22.648  24.452  1.00  0.00     0.254 C 
ATOM      4  O   UNL A   1      32.015  21.998  23.936  1.00  0.00    -0.272 OA
ATOM      5  H   UNL A   1      34.120  21.829  23.118  1.00  0.00     0.163 HD
BRANCH   3   6
ATOM      6  C   UNL A   1      32.703  23.537  25.697  1.00  0.00     0.212 C 
ATOM      7  C   UNL A   1      31.199  23.708  26.014  1.00  0.00     0.056 C 
BRANCH   6   8
ATOM      8  N   UNL A   1      33.254  24.905  25.393  1.00  0.00    -0.334 N 
ATOM      9  C   UNL A   1      32.989  26.092  24.833  1.00  0.00     0.233 C 
ATOM     10  O   UNL A   1      33.744  26.961  25.314  1.00  0.00    -0.274 OA
ATOM     11  H   UNL A   1      34.172  24.941  25.747  1.00  0.00     0.164 HD
BRANCH   9  12
ATOM     12  C   UNL A   1      31.951  26.558  23.775  1.00  0.00     0.103 C 
ATOM     13  C   UNL A   1      31.335  25.598  22.770  1.00  0.00     0.084 C 
ATOM     14  C   UNL A   1      32.812  27.414  22.757  1.00  0.00     0.277 C 
ATOM     15  C   UNL A   1      32.448  25.308  21.788  1.00  0.00     0.261 C 
ATOM     16  N   UNL A   1      32.975  26.637  21.503  1.00  0.00    -0.345 N 
ATOM     17  H   UNL A   1      32.450  27.073  20.744  1.00  0.00     0.346 HD
ATOM     18  H   UNL A   1      33.951  26.599  21.209  1.00  0.00     0.346 HD
BRANCH  12  19
ATOM     19  C   UNL A   1      30.940  27.498  24.515  1.00  0.00     0.023 C 
BRANCH  19  20
ATOM     20  C   UNL A   1      30.926  29.007  24.229  1.00  0.00    -0.002 C 
ATOM     21  C   UNL A   1      31.482  29.884  25.335  1.00  0.00     0.004 C 
ENDBRANCH  19  20
ENDBRANCH  12  19
ENDBRANCH   9  12
ENDBRANCH   6   8
BRANCH   6  22
ATOM     22  C   UNL A   1      33.261  22.739  26.882  1.00  0.00     0.420 C 
ATOM     23  F   UNL A   1      34.455  23.172  27.316  1.00  0.00    -0.168 F 
ATOM     24  F   UNL A   1      32.399  22.789  27.931  1.00  0.00    -0.168 F 
ATOM     25  F   UNL A   1      33.402  21.422  26.587  1.00  0.00    -0.168 F 
ENDBRANCH   6  22
ENDBRANCH   3   6
ENDBRANCH   1   2
BRANCH   1  26
ATOM     26  C   UNL A   1      36.442  22.101  24.672  1.00  0.00     0.042 C 
BRANCH  26  27
ATOM     27  C   UNL A   1      37.437  22.730  25.636  1.00  0.00     0.118 C 
BRANCH  27  28
ATOM     28  N   UNL A   1      38.542  21.844  25.971  1.00  0.00    -0.352 N 
ATOM     29  C   UNL A   1      39.788  22.143  26.477  1.00  0.00     0.251 C 
ATOM     30  H   UNL A   1      38.374  20.886  25.813  1.00  0.00     0.163 HD
ATOM     31  O   UNL A   1      40.658  21.284  26.492  1.00  0.00    -0.269 OA
BRANCH  29  32
ATOM     32  C   UNL A   1      40.066  23.509  26.971  1.00  0.00     0.039 A 
ATOM     33  C   UNL A   1      40.660  23.682  28.222  1.00  0.00     0.014 A 
ATOM     34  C   UNL A   1      39.750  24.620  26.186  1.00  0.00     0.014 A 
ATOM     35  C   UNL A   1      41.002  24.967  28.651  1.00  0.00     0.010 A 
ATOM     36  C   UNL A   1      40.200  25.879  26.558  1.00  0.00     0.010 A 
ATOM     37  C   UNL A   1      40.808  26.072  27.806  1.00  0.00    -0.014 A 
BRANCH  37  38
ATOM     38  C   UNL A   1      41.170  27.451  28.225  1.00  0.00     0.031 A 
ATOM     39  C   UNL A   1      42.613  27.880  28.190  1.00  0.00     0.074 A 
ATOM     40  C   UNL A   1      40.222  28.289  28.691  1.00  0.00     0.049 A 
ATOM     41  N   UNL A   1      43.159  28.997  28.598  1.00  0.00    -0.248 NA
ATOM     42  C   UNL A   1      43.578  26.900  27.665  1.00  0.00     0.031 C 
ATOM     43  C   UNL A   1      38.797  27.974  28.809  1.00  0.00     0.029 A 
ATOM     44  N   UNL A   1      40.315  29.577  29.153  1.00  0.00    -0.354 N 
ATOM     45  C   UNL A   1      44.527  28.844  28.393  1.00  0.00     0.074 A 
ATOM     46  C   UNL A   1      44.731  27.494  27.918  1.00  0.00     0.031 C 
ATOM     47  C   UNL A   1      38.144  29.054  29.267  1.00  0.00     0.029 A 
ATOM     48  C   UNL A   1      39.108  30.120  29.526  1.00  0.00     0.049 A 
ATOM     49  H   UNL A   1      41.166  30.068  29.211  1.00  0.00     0.167 HD
ATOM     50  C   UNL A   1      45.519  29.756  28.548  1.00  0.00     0.034 A 
ATOM     51  C   UNL A   1      38.813  31.338  30.023  1.00  0.00     0.034 A 
ATOM     52  C   UNL A   1      45.293  31.103  29.010  1.00  0.00     0.049 A 
ATOM     53  C   UNL A   1      39.936  32.327  30.226  1.00  0.00     0.074 A 
ATOM     54  C   UNL A   1      46.209  32.125  29.176  1.00  0.00     0.029 A 
ATOM     55  N   UNL A   1      44.055  31.614  29.384  1.00  0.00    -0.354 N 
ATOM     56  N   UNL A   1      41.220  32.180  29.993  1.00  0.00    -0.248 NA
ATOM     57  C   UNL A   1      39.565  33.648  30.746  1.00  0.00     0.031 C 
ATOM     58  C   UNL A   1      45.541  33.229  29.716  1.00  0.00     0.029 A 
ATOM     59  C   UNL A   1      44.191  32.929  29.803  1.00  0.00     0.049 A 
ATOM     60  H   UNL A   1      43.206  31.117  29.356  1.00  0.00     0.167 HD
ATOM     61  C   UNL A   1      41.802  33.410  30.297  1.00  0.00     0.074 A 
ATOM     62  C   UNL A   1      40.726  34.283  30.720  1.00  0.00     0.031 C 
ATOM     63  C   UNL A   1      43.105  33.786  30.224  1.00  0.00     0.034 A 
BRANCH  50  64
ATOM     64  C   UNL A   1      46.927  29.306  28.229  1.00  0.00     0.023 A 
ATOM     65  C   UNL A   1      47.780  28.796  29.225  1.00  0.00     0.031 A 
ATOM     66  C   UNL A   1      47.448  29.443  26.930  1.00  0.00     0.131 A 
ATOM     67  C   UNL A   1      49.130  28.546  28.935  1.00  0.00     0.055 A 
ATOM     68  C   UNL A   1      48.766  29.095  26.624  1.00  0.00     0.041 A 
ATOM     69  F   UNL A   1      46.694  29.944  25.940  1.00  0.00    -0.206 F 
ATOM     70  C   UNL A   1      49.622  28.664  27.634  1.00  0.00     0.022 A 
BRANCH  67  71
ATOM     71  S   UNL A   1      50.268  28.249  30.315  1.00  0.00     0.124 S 
ATOM     72  O   UNL A   1      49.415  27.516  31.248  1.00  0.00    -0.237 OA
ATOM     73  O   UNL A   1      51.335  27.480  29.685  1.00  0.00    -0.237 OA
ATOM     74  O   UNL A   1      50.639  29.595  30.749  1.00  0.00    -0.744 OA
ENDBRANCH  67  71
ENDBRANCH  50  64
BRANCH  51  75
ATOM     75  C   UNL A   1      37.405  31.705  30.349  1.00  0.00     0.023 A 
ATOM     76  C   UNL A   1      36.523  32.130  29.342  1.00  0.00     0.031 A 
ATOM     77  C   UNL A   1      36.930  31.680  31.672  1.00  0.00     0.131 A 
ATOM     78  C   UNL A   1      35.230  32.559  29.678  1.00  0.00     0.055 A 
ATOM     79  C   UNL A   1      35.624  32.053  31.995  1.00  0.00     0.041 A 
ATOM     80  F   UNL A   1      37.729  31.278  32.673  1.00  0.00    -0.206 F 
ATOM     81  C   UNL A   1      34.770  32.510  30.996  1.00  0.00     0.022 A 
BRANCH  78  82
ATOM     82  S   UNL A   1      34.185  33.269  28.376  1.00  0.00     0.124 S 
ATOM     83  O   UNL A   1      33.270  34.099  29.152  1.00  0.00    -0.237 OA
ATOM     84  O   UNL A   1      35.163  33.981  27.559  1.00  0.00    -0.237 OA
ATOM     85  O   UNL A   1      33.584  32.097  27.746  1.00  0.00    -0.744 OA
ENDBRANCH  78  82
ENDBRANCH  51  75
BRANCH  63  86
ATOM     86  C   UNL A   1      43.424  35.226  30.546  1.00  0.00     0.023 A 
ATOM     87  C   UNL A   1      43.382  36.236  29.569  1.00  0.00     0.031 A 
ATOM     88  C   UNL A   1      43.787  35.589  31.857  1.00  0.00     0.131 A 
ATOM     89  C   UNL A   1      43.758  37.546  29.903  1.00  0.00     0.055 A 
ATOM     90  C   UNL A   1      44.091  36.907  32.198  1.00  0.00     0.041 A 
ATOM     91  F   UNL A   1      43.847  34.666  32.830  1.00  0.00    -0.206 F 
ATOM     92  C   UNL A   1      44.093  37.892  31.215  1.00  0.00     0.022 A 
BRANCH  89  93
ATOM     93  S   UNL A   1      43.907  38.773  28.576  1.00  0.00     0.124 S 
ATOM     94  O   UNL A   1      44.599  39.866  29.251  1.00  0.00    -0.237 OA
ATOM     95  O   UNL A   1      44.681  38.054  27.570  1.00  0.00    -0.237 OA
ATOM     96  O   UNL A   1      42.520  39.051  28.208  1.00  0.00    -0.744 OA
ENDBRANCH  89  93
ENDBRANCH  63  86
ENDBRANCH  37  38
ENDBRANCH  29  32
ENDBRANCH  27  28
ENDBRANCH  26  27
ENDBRANCH   1  26
TORSDOF 18
ENDMDL
MODEL 3
REMARK VINA RESULT:     -10.7      4.355      9.254
REMARK SMILES CCC[C@@]1(C(=O)N[C@@](C)(C(=O)NCCCNC(=O)c2ccc(-c3c4nc(c(-c5cc(S(=O)(=O)[O-])ccc5F)c5ccc([nH]5)c(-c5cc(S(=O)(=O)[O-])ccc5F)c5nc(c(-c6cc(S(=O)(=O)[O-])ccc6F)c6ccc3[nH]6)C=C5)C=C4)cc2)C(F)(F)F)CC[NH2+]C1
REMARK SMILES IDX 13 1 12 2 10 3 11 4 8 6 9 7 7 8 5 9 6 10 4 12 86 13 89 14
REMARK SMILES IDX 87 15 88 16 3 19 2 20 1 21 82 22 83 23 84 24 85 25 14 26
REMARK SMILES IDX 15 27 16 28 17 29 18 31 19 32 20 33 81 34 21 35 80 36 22 37
REMARK SMILES IDX 23 38 24 39 74 40 25 41 79 42 73 43 75 44 26 45 78 46 72 47
REMARK SMILES IDX 71 48 27 50 59 51 39 52 58 53 40 54 43 55 57 56 76 57 41 58
REMARK SMILES IDX 42 59 56 61 77 62 44 63 28 64 29 65 37 66 30 67 36 68 38 69
REMARK SMILES IDX 35 70 31 71 32 72 33 73 34 74 60 75 61 76 69 77 62 78 68 79
REMARK SMILES IDX 70 80 67 81 63 82 64 83 65 84 66 85 45 86 46 87 54 88 47 89
REMARK SMILES IDX 53 90 55 91 52 92 48 93 49 94 50 95 51 96
REMARK H PARENT 12 5 7 11 88 17 88 18 16 30 75 49 43 60
REMARK Flexibility Score: inf
ROOT
ATOM      1  C   UNL A   1      34.804  22.287  23.996  1.00  0.00     0.117 C 
ENDROOT
BRANCH   1   2
ATOM      2  N   UNL A   1      33.387  21.985  24.120  1.00  0.00    -0.354 N 
ATOM      3  C   UNL A   1      32.400  22.404  24.959  1.00  0.00     0.254 C 
ATOM      4  O   UNL A   1      31.283  21.952  24.693  1.00  0.00    -0.272 OA
ATOM      5  H   UNL A   1      33.072  21.336  23.450  1.00  0.00     0.163 HD
BRANCH   3   6
ATOM      6  C   UNL A   1      32.644  23.338  26.167  1.00  0.00     0.212 C 
ATOM      7  C   UNL A   1      31.318  23.744  26.853  1.00  0.00     0.056 C 
BRANCH   6   8
ATOM      8  N   UNL A   1      33.286  24.599  25.654  1.00  0.00    -0.334 N 
ATOM      9  C   UNL A   1      33.096  25.705  24.923  1.00  0.00     0.233 C 
ATOM     10  O   UNL A   1      33.924  26.577  25.260  1.00  0.00    -0.274 OA
ATOM     11  H   UNL A   1      34.212  24.618  25.989  1.00  0.00     0.164 HD
BRANCH   9  12
ATOM     12  C   UNL A   1      32.073  26.085  23.819  1.00  0.00     0.103 C 
ATOM     13  C   UNL A   1      31.729  25.141  22.676  1.00  0.00     0.084 C 
ATOM     14  C   UNL A   1      32.829  27.186  22.969  1.00  0.00     0.277 C 
ATOM     15  C   UNL A   1      32.949  25.165  21.783  1.00  0.00     0.261 C 
ATOM     16  N   UNL A   1      33.233  26.591  21.671  1.00  0.00    -0.345 N 
ATOM     17  H   UNL A   1      32.694  27.002  20.908  1.00  0.00     0.346 HD
ATOM     18  H   UNL A   1      34.218  26.763  21.468  1.00  0.00     0.346 HD
BRANCH  12  19
ATOM     19  C   UNL A   1      30.847  26.740  24.541  1.00  0.00     0.023 C 
BRANCH  19  20
ATOM     20  C   UNL A   1      29.492  26.018  24.586  1.00  0.00    -0.002 C 
ATOM     21  C   UNL A   1      28.347  26.741  23.903  1.00  0.00     0.004 C 
ENDBRANCH  19  20
ENDBRANCH  12  19
ENDBRANCH   9  12
ENDBRANCH   6   8
BRANCH   6  22
ATOM     22  C   UNL A   1      33.374  22.483  27.210  1.00  0.00     0.420 C 
ATOM     23  F   UNL A   1      34.677  22.776  27.339  1.00  0.00    -0.168 F 
ATOM     24  F   UNL A   1      32.796  22.634  28.431  1.00  0.00    -0.168 F 
ATOM     25  F   UNL A   1      33.292  21.158  26.929  1.00  0.00    -0.168 F 
ENDBRANCH   6  22
ENDBRANCH   3   6
ENDBRANCH   1   2
BRANCH   1  26
ATOM     26  C   UNL A   1      35.687  21.226  24.632  1.00  0.00     0.042 C 
BRANCH  26  27
ATOM     27  C   UNL A   1      37.031  21.734  25.134  1.00  0.00     0.118 C 
BRANCH  27  28
ATOM     28  N   UNL A   1      37.923  20.662  25.554  1.00  0.00    -0.352 N 
ATOM     29  C   UNL A   1      39.186  20.731  26.097  1.00  0.00     0.251 C 
ATOM     30  H   UNL A   1      37.569  19.751  25.431  1.00  0.00     0.163 HD
ATOM     31  O   UNL A   1      39.863  19.716  26.186  1.00  0.00    -0.269 OA
BRANCH  29  32
ATOM     32  C   UNL A   1      39.719  22.037  26.541  1.00  0.00     0.039 A 
ATOM     33  C   UNL A   1      40.781  22.075  27.447  1.00  0.00     0.014 A 
ATOM     34  C   UNL A   1      39.176  23.225  26.047  1.00  0.00     0.014 A 
ATOM     35  C   UNL A   1      41.341  23.306  27.799  1.00  0.00     0.010 A 
ATOM     36  C   UNL A   1      39.810  24.432  26.302  1.00  0.00     0.010 A 
ATOM     37  C   UNL A   1      40.884  24.492  27.201  1.00  0.00    -0.014 A 
BRANCH  37  38
ATOM     38  C   UNL A   1      41.463  25.816  27.543  1.00  0.00     0.031 A 
ATOM     39  C   UNL A   1      42.866  26.146  27.104  1.00  0.00     0.074 A 
ATOM     40  C   UNL A   1      40.763  26.689  28.294  1.00  0.00     0.049 A 
ATOM     41  N   UNL A   1      43.596  27.197  27.374  1.00  0.00    -0.248 NA
ATOM     42  C   UNL A   1      43.554  25.134  26.287  1.00  0.00     0.031 C 
ATOM     43  C   UNL A   1      39.411  26.467  28.811  1.00  0.00     0.029 A 
ATOM     44  N   UNL A   1      41.090  27.939  28.753  1.00  0.00    -0.354 N 
ATOM     45  C   UNL A   1      44.830  26.962  26.774  1.00  0.00     0.074 A 
ATOM     46  C   UNL A   1      44.776  25.630  26.213  1.00  0.00     0.031 C 
ATOM     47  C   UNL A   1      39.009  27.562  29.478  1.00  0.00     0.029 A 
ATOM     48  C   UNL A   1      40.091  28.542  29.481  1.00  0.00     0.049 A 
ATOM     49  H   UNL A   1      41.960  28.366  28.578  1.00  0.00     0.167 HD
ATOM     50  C   UNL A   1      45.896  27.793  26.664  1.00  0.00     0.034 A 
ATOM     51  C   UNL A   1      40.054  29.747  30.084  1.00  0.00     0.034 A 
ATOM     52  C   UNL A   1      45.925  29.124  27.218  1.00  0.00     0.049 A 
ATOM     53  C   UNL A   1      41.265  30.643  29.985  1.00  0.00     0.074 A 
ATOM     54  C   UNL A   1      46.931  30.069  27.145  1.00  0.00     0.029 A 
ATOM     55  N   UNL A   1      44.893  29.697  27.955  1.00  0.00    -0.354 N 
ATOM     56  N   UNL A   1      42.411  30.422  29.383  1.00  0.00    -0.248 NA
ATOM     57  C   UNL A   1      41.169  31.955  30.636  1.00  0.00     0.031 C 
ATOM     58  C   UNL A   1      46.540  31.184  27.895  1.00  0.00     0.029 A 
ATOM     59  C   UNL A   1      45.252  30.973  28.361  1.00  0.00     0.049 A 
ATOM     60  H   UNL A   1      44.034  29.262  28.158  1.00  0.00     0.167 HD
ATOM     61  C   UNL A   1      43.155  31.589  29.546  1.00  0.00     0.074 A 
ATOM     62  C   UNL A   1      42.322  32.508  30.295  1.00  0.00     0.031 C 
ATOM     63  C   UNL A   1      44.408  31.878  29.110  1.00  0.00     0.034 A 
BRANCH  50  64
ATOM     64  C   UNL A   1      47.110  27.266  25.933  1.00  0.00     0.023 A 
ATOM     65  C   UNL A   1      48.109  26.531  26.599  1.00  0.00     0.031 A 
ATOM     66  C   UNL A   1      47.308  27.551  24.570  1.00  0.00     0.131 A 
ATOM     67  C   UNL A   1      49.300  26.202  25.935  1.00  0.00     0.055 A 
ATOM     68  C   UNL A   1      48.452  27.131  23.889  1.00  0.00     0.041 A 
ATOM     69  F   UNL A   1      46.405  28.266  23.883  1.00  0.00    -0.206 F 
ATOM     70  C   UNL A   1      49.467  26.471  24.576  1.00  0.00     0.022 A 
BRANCH  67  71
ATOM     71  S   UNL A   1      50.695  25.591  26.920  1.00  0.00     0.124 S 
ATOM     72  O   UNL A   1      51.659  25.238  25.879  1.00  0.00    -0.237 OA
ATOM     73  O   UNL A   1      51.035  26.748  27.740  1.00  0.00    -0.237 OA
ATOM     74  O   UNL A   1      50.130  24.455  27.646  1.00  0.00    -0.744 OA
ENDBRANCH  67  71
ENDBRANCH  50  64
BRANCH  51  75
ATOM     75  C   UNL A   1      38.834  30.192  30.818  1.00  0.00     0.023 A 
ATOM     76  C   UNL A   1      37.873  31.000  30.191  1.00  0.00     0.031 A 
ATOM     77  C   UNL A   1      38.630  29.854  32.168  1.00  0.00     0.131 A 
ATOM     78  C   UNL A   1      36.778  31.484  30.923  1.00  0.00     0.055 A 
ATOM     79  C   UNL A   1      37.509  30.291  32.877  1.00  0.00     0.041 A 
ATOM     80  F   UNL A   1      39.515  29.080  32.816  1.00  0.00    -0.206 F 
ATOM     81  C   UNL A   1      36.582  31.123  32.257  1.00  0.00     0.022 A 
BRANCH  78  82
ATOM     82  S   UNL A   1      35.658  32.669  30.127  1.00  0.00     0.124 S 
ATOM     83  O   UNL A   1      35.624  32.170  28.757  1.00  0.00    -0.237 OA
ATOM     84  O   UNL A   1      34.435  32.497  30.905  1.00  0.00    -0.237 OA
ATOM     85  O   UNL A   1      36.334  33.951  30.309  1.00  0.00    -0.744 OA
ENDBRANCH  78  82
ENDBRANCH  51  75
BRANCH  63  86
ATOM     86  C   UNL A   1      44.925  33.271  29.374  1.00  0.00     0.023 A 
ATOM     87  C   UNL A   1      45.664  33.588  30.527  1.00  0.00     0.031 A 
ATOM     88  C   UNL A   1      44.661  34.304  28.455  1.00  0.00     0.131 A 
ATOM     89  C   UNL A   1      46.059  34.913  30.761  1.00  0.00     0.055 A 
ATOM     90  C   UNL A   1      45.118  35.606  28.660  1.00  0.00     0.041 A 
ATOM     91  F   UNL A   1      43.956  34.062  27.338  1.00  0.00    -0.206 F 
ATOM     92  C   UNL A   1      45.808  35.920  29.827  1.00  0.00     0.022 A 
BRANCH  89  93
ATOM     93  S   UNL A   1      46.815  35.327  32.358  1.00  0.00     0.124 S 
ATOM     94  O   UNL A   1      47.761  36.372  31.984  1.00  0.00    -0.237 OA
ATOM     95  O   UNL A   1      45.665  35.761  33.144  1.00  0.00    -0.237 OA
ATOM     96  O   UNL A   1      47.419  34.068  32.788  1.00  0.00    -0.744 OA
ENDBRANCH  89  93
ENDBRANCH  63  86
ENDBRANCH  37  38
ENDBRANCH  29  32
ENDBRANCH  27  28
ENDBRANCH  26  27
ENDBRANCH   1  26
TORSDOF 18
ENDMDL
