MODEL 1
REMARK VINA RESULT:     -12.5      0.000      0.000
REMARK SMILES CCCSc1nc2n(n1)[C@@H](c1ccccc1C(=O)NCCCNC(=O)c1ccc(-c3c4nc(c(-c5cc(S(=O)(=O)[O-])ccc5F)c5ccc([nH]5)c(-c5cc(S(=O)(=O)[O-])ccc5F)c5nc(c(-c6cc(S(=O)(=O)[O-])ccc6F)c6ccc3[nH]6)C=C5)C=C4)cc1)C(C(=O)Nc1cccc(C)c1C)=C(C)N2
REMARK SMILES IDX 20 1 19 2 17 3 18 4 16 6 11 7 12 8 13 9 15 10 14 11 10 12
REMARK SMILES IDX 5 13 6 14 9 15 7 16 8 17 103 18 101 19 89 21 102 22 4 23
REMARK SMILES IDX 3 24 2 25 1 26 90 27 91 28 92 29 93 31 94 32 99 33 95 34
REMARK SMILES IDX 97 35 100 36 96 37 98 38 21 39 22 40 23 41 24 42 25 44 26 45
REMARK SMILES IDX 27 46 88 47 28 48 87 49 29 50 30 51 31 52 81 53 32 54 86 55
REMARK SMILES IDX 80 56 82 57 33 58 85 59 79 60 78 61 34 63 66 64 46 65 65 66
REMARK SMILES IDX 47 67 50 68 64 69 83 70 48 71 49 72 63 74 84 75 51 76 35 77
REMARK SMILES IDX 36 78 44 79 37 80 43 81 45 82 42 83 38 84 39 85 40 86 41 87
REMARK SMILES IDX 67 88 68 89 76 90 69 91 75 92 77 93 74 94 70 95 71 96 72 97
REMARK SMILES IDX 73 98 52 99 53 100 61 101 54 102 60 103 62 104 59 105 55 106
REMARK SMILES IDX 56 107 57 108 58 109
REMARK H PARENT 19 5 103 20 92 30 23 43 82 62 50 73
REMARK Flexibility Score: inf
ROOT
ATOM      1  C   UNL A   1      36.463  22.589  23.097  1.00  0.00     0.118 C 
ENDROOT
BRANCH   1   2
ATOM      2  N   UNL A   1      35.038  22.871  23.270  1.00  0.00    -0.352 N 
ATOM      3  C   UNL A   1      34.307  23.597  24.176  1.00  0.00     0.251 C 
ATOM      4  O   UNL A   1      33.609  24.477  23.655  1.00  0.00    -0.269 OA
ATOM      5  H   UNL A   1      34.478  22.444  22.583  1.00  0.00     0.163 HD
BRANCH   3   6
ATOM      6  C   UNL A   1      34.027  23.232  25.623  1.00  0.00     0.045 A 
ATOM      7  C   UNL A   1      32.852  22.783  26.272  1.00  0.00    -0.006 A 
ATOM      8  C   UNL A   1      32.917  22.527  27.678  1.00  0.00     0.007 A 
ATOM      9  C   UNL A   1      34.084  22.665  28.422  1.00  0.00     0.000 A 
ATOM     10  C   UNL A   1      35.208  23.325  26.416  1.00  0.00     0.014 A 
ATOM     11  C   UNL A   1      35.244  23.043  27.782  1.00  0.00     0.001 A 
BRANCH   7  12
ATOM     12  C   UNL A   1      31.562  22.380  25.557  1.00  0.00     0.180 C 
ATOM     13  C   UNL A   1      32.358  19.726  23.389  1.00  0.00     0.210 A 
ATOM     14  N   UNL A   1      32.106  20.681  22.439  1.00  0.00    -0.185 NA
ATOM     15  N   UNL A   1      32.196  20.123  24.659  1.00  0.00    -0.141 NA
ATOM     16  C   UNL A   1      31.709  21.702  23.147  1.00  0.00     0.227 A 
ATOM     17  N   UNL A   1      31.828  21.409  24.477  1.00  0.00    -0.218 N 
ATOM     18  N   UNL A   1      31.224  22.896  22.770  1.00  0.00    -0.328 N 
ATOM     19  C   UNL A   1      30.717  23.828  23.668  1.00  0.00     0.026 C 
ATOM     20  H   UNL A   1      31.227  23.122  21.812  1.00  0.00     0.169 HD
ATOM     21  C   UNL A   1      30.783  23.584  25.000  1.00  0.00     0.065 C 
ATOM     22  C   UNL A   1      30.124  25.062  23.041  1.00  0.00     0.065 C 
BRANCH  13  23
ATOM     23  S   UNL A   1      32.791  18.087  22.991  1.00  0.00    -0.084 SA
BRANCH  23  24
ATOM     24  C   UNL A   1      34.142  17.760  24.167  1.00  0.00     0.078 C 
BRANCH  24  25
ATOM     25  C   UNL A   1      34.013  16.444  24.940  1.00  0.00     0.008 C 
ATOM     26  C   UNL A   1      32.654  16.193  25.575  1.00  0.00     0.005 C 
ENDBRANCH  24  25
ENDBRANCH  23  24
ENDBRANCH  13  23
BRANCH  21  27
ATOM     27  C   UNL A   1      30.210  24.474  26.030  1.00  0.00     0.255 C 
ATOM     28  O   UNL A   1      29.511  23.984  26.915  1.00  0.00    -0.269 OA
ATOM     29  N   UNL A   1      30.357  25.832  26.024  1.00  0.00    -0.322 N 
ATOM     30  H   UNL A   1      29.559  26.344  26.289  1.00  0.00     0.170 HD
BRANCH  29  31
ATOM     31  C   UNL A   1      31.486  26.607  25.692  1.00  0.00     0.044 A 
ATOM     32  C   UNL A   1      32.612  26.313  26.483  1.00  0.00     0.026 A 
ATOM     33  C   UNL A   1      31.579  27.577  24.678  1.00  0.00    -0.025 A 
ATOM     34  C   UNL A   1      33.852  26.868  26.203  1.00  0.00     0.002 A 
ATOM     35  C   UNL A   1      32.852  28.143  24.396  1.00  0.00    -0.046 A 
ATOM     36  C   UNL A   1      30.377  28.111  23.954  1.00  0.00     0.047 C 
ATOM     37  C   UNL A   1      33.976  27.757  25.146  1.00  0.00     0.004 A 
ATOM     38  C   UNL A   1      33.086  29.130  23.280  1.00  0.00     0.044 C 
ENDBRANCH  29  31
ENDBRANCH  21  27
ENDBRANCH   7  12
ENDBRANCH   3   6
ENDBRANCH   1   2
BRANCH   1  39
ATOM     39  C   UNL A   1      37.026  21.857  24.318  1.00  0.00     0.042 C 
BRANCH  39  40
ATOM     40  C   UNL A   1      38.089  22.636  25.088  1.00  0.00     0.118 C 
BRANCH  40  41
ATOM     41  N   UNL A   1      38.624  21.939  26.254  1.00  0.00    -0.352 N 
ATOM     42  C   UNL A   1      39.706  22.324  27.038  1.00  0.00     0.251 C 
ATOM     43  H   UNL A   1      38.168  21.106  26.514  1.00  0.00     0.163 HD
ATOM     44  O   UNL A   1      40.329  21.521  27.702  1.00  0.00    -0.269 OA
BRANCH  42  45
ATOM     45  C   UNL A   1      40.071  23.753  27.017  1.00  0.00     0.039 A 
ATOM     46  C   UNL A   1      39.084  24.733  27.120  1.00  0.00     0.014 A 
ATOM     47  C   UNL A   1      41.424  24.065  27.120  1.00  0.00     0.014 A 
ATOM     48  C   UNL A   1      39.465  26.020  27.493  1.00  0.00     0.010 A 
ATOM     49  C   UNL A   1      41.784  25.316  27.581  1.00  0.00     0.010 A 
ATOM     50  C   UNL A   1      40.811  26.295  27.805  1.00  0.00    -0.014 A 
BRANCH  50  51
ATOM     51  C   UNL A   1      41.131  27.506  28.580  1.00  0.00     0.031 A 
ATOM     52  C   UNL A   1      42.165  28.411  27.981  1.00  0.00     0.074 A 
ATOM     53  C   UNL A   1      40.414  28.000  29.611  1.00  0.00     0.049 A 
ATOM     54  N   UNL A   1      43.328  28.716  28.456  1.00  0.00    -0.248 NA
ATOM     55  C   UNL A   1      41.905  28.984  26.651  1.00  0.00     0.031 C 
ATOM     56  C   UNL A   1      39.165  27.498  30.185  1.00  0.00     0.029 A 
ATOM     57  N   UNL A   1      40.614  29.166  30.294  1.00  0.00    -0.354 N 
ATOM     58  C   UNL A   1      43.872  29.674  27.600  1.00  0.00     0.074 A 
ATOM     59  C   UNL A   1      43.024  29.680  26.436  1.00  0.00     0.031 C 
ATOM     60  C   UNL A   1      38.597  28.460  30.944  1.00  0.00     0.029 A 
ATOM     61  C   UNL A   1      39.533  29.561  31.067  1.00  0.00     0.049 A 
ATOM     62  H   UNL A   1      41.453  29.680  30.242  1.00  0.00     0.167 HD
ATOM     63  C   UNL A   1      44.874  30.511  27.999  1.00  0.00     0.034 A 
ATOM     64  C   UNL A   1      39.400  30.709  31.775  1.00  0.00     0.034 A 
ATOM     65  C   UNL A   1      45.511  30.027  29.203  1.00  0.00     0.049 A 
ATOM     66  C   UNL A   1      40.766  31.199  32.070  1.00  0.00     0.074 A 
ATOM     67  C   UNL A   1      46.132  28.846  29.564  1.00  0.00     0.029 A 
ATOM     68  N   UNL A   1      45.229  30.657  30.394  1.00  0.00    -0.354 N 
ATOM     69  N   UNL A   1      41.616  30.546  32.812  1.00  0.00    -0.248 NA
ATOM     70  C   UNL A   1      41.351  32.213  31.209  1.00  0.00     0.031 C 
ATOM     71  C   UNL A   1      45.684  28.593  30.896  1.00  0.00     0.029 A 
ATOM     72  C   UNL A   1      44.886  29.670  31.287  1.00  0.00     0.049 A 
ATOM     73  H   UNL A   1      45.266  31.625  30.571  1.00  0.00     0.167 HD
ATOM     74  C   UNL A   1      42.844  30.740  32.206  1.00  0.00     0.074 A 
ATOM     75  C   UNL A   1      42.640  31.877  31.310  1.00  0.00     0.031 C 
ATOM     76  C   UNL A   1      43.830  29.795  32.277  1.00  0.00     0.034 A 
BRANCH  63  77
ATOM     77  C   UNL A   1      45.105  31.919  27.485  1.00  0.00     0.023 A 
ATOM     78  C   UNL A   1      46.366  32.223  26.927  1.00  0.00     0.031 A 
ATOM     79  C   UNL A   1      44.274  33.032  27.747  1.00  0.00     0.131 A 
ATOM     80  C   UNL A   1      46.776  33.556  26.731  1.00  0.00     0.055 A 
ATOM     81  C   UNL A   1      44.657  34.351  27.481  1.00  0.00     0.041 A 
ATOM     82  F   UNL A   1      43.091  32.917  28.359  1.00  0.00    -0.206 F 
ATOM     83  C   UNL A   1      45.925  34.624  26.997  1.00  0.00     0.022 A 
BRANCH  80  84
ATOM     84  S   UNL A   1      48.509  33.879  26.300  1.00  0.00     0.124 S 
ATOM     85  O   UNL A   1      48.936  34.726  27.408  1.00  0.00    -0.237 OA
ATOM     86  O   UNL A   1      49.065  32.530  26.268  1.00  0.00    -0.237 OA
ATOM     87  O   UNL A   1      48.417  34.547  25.004  1.00  0.00    -0.744 OA
ENDBRANCH  80  84
ENDBRANCH  63  77
BRANCH  64  88
ATOM     88  C   UNL A   1      38.161  31.484  32.012  1.00  0.00     0.023 A 
ATOM     89  C   UNL A   1      37.401  32.024  30.959  1.00  0.00     0.031 A 
ATOM     90  C   UNL A   1      37.579  31.502  33.299  1.00  0.00     0.131 A 
ATOM     91  C   UNL A   1      36.116  32.550  31.212  1.00  0.00     0.055 A 
ATOM     92  C   UNL A   1      36.312  32.034  33.547  1.00  0.00     0.041 A 
ATOM     93  F   UNL A   1      38.192  30.924  34.346  1.00  0.00    -0.206 F 
ATOM     94  C   UNL A   1      35.569  32.553  32.498  1.00  0.00     0.022 A 
BRANCH  91  95
ATOM     95  S   UNL A   1      35.083  33.131  29.832  1.00  0.00     0.124 S 
ATOM     96  O   UNL A   1      35.990  34.027  29.125  1.00  0.00    -0.237 OA
ATOM     97  O   UNL A   1      34.739  31.888  29.150  1.00  0.00    -0.237 OA
ATOM     98  O   UNL A   1      33.962  33.789  30.502  1.00  0.00    -0.744 OA
ENDBRANCH  91  95
ENDBRANCH  64  88
BRANCH  76  99
ATOM     99  C   UNL A   1      43.684  28.664  33.282  1.00  0.00     0.023 A 
ATOM    100  C   UNL A   1      44.018  28.753  34.653  1.00  0.00     0.031 A 
ATOM    101  C   UNL A   1      43.073  27.475  32.842  1.00  0.00     0.131 A 
ATOM    102  C   UNL A   1      43.757  27.673  35.520  1.00  0.00     0.055 A 
ATOM    103  C   UNL A   1      42.796  26.415  33.708  1.00  0.00     0.041 A 
ATOM    104  F   UNL A   1      42.703  27.332  31.559  1.00  0.00    -0.206 F 
ATOM    105  C   UNL A   1      43.146  26.507  35.049  1.00  0.00     0.022 A 
BRANCH 102 106
ATOM    106  S   UNL A   1      44.234  27.751  37.278  1.00  0.00     0.124 S 
ATOM    107  O   UNL A   1      43.993  29.142  37.642  1.00  0.00    -0.237 OA
ATOM    108  O   UNL A   1      43.343  26.768  37.889  1.00  0.00    -0.237 OA
ATOM    109  O   UNL A   1      45.646  27.362  37.262  1.00  0.00    -0.744 OA
ENDBRANCH 102 106
ENDBRANCH  76  99
ENDBRANCH  50  51
ENDBRANCH  42  45
ENDBRANCH  40  41
ENDBRANCH  39  40
ENDBRANCH   1  39
TORSDOF 19
ENDMDL
MODEL 2
REMARK VINA RESULT:     -12.4      2.811      6.573
REMARK SMILES CCCSc1nc2n(n1)[C@@H](c1ccccc1C(=O)NCCCNC(=O)c1ccc(-c3c4nc(c(-c5cc(S(=O)(=O)[O-])ccc5F)c5ccc([nH]5)c(-c5cc(S(=O)(=O)[O-])ccc5F)c5nc(c(-c6cc(S(=O)(=O)[O-])ccc6F)c6ccc3[nH]6)C=C5)C=C4)cc1)C(C(=O)Nc1cccc(C)c1C)=C(C)N2
REMARK SMILES IDX 20 1 19 2 17 3 18 4 16 6 11 7 12 8 13 9 15 10 14 11 10 12
REMARK SMILES IDX 5 13 6 14 9 15 7 16 8 17 103 18 101 19 89 21 102 22 4 23
REMARK SMILES IDX 3 24 2 25 1 26 90 27 91 28 92 29 93 31 94 32 99 33 95 34
REMARK SMILES IDX 97 35 100 36 96 37 98 38 21 39 22 40 23 41 24 42 25 44 26 45
REMARK SMILES IDX 27 46 88 47 28 48 87 49 29 50 30 51 31 52 81 53 32 54 86 55
REMARK SMILES IDX 80 56 82 57 33 58 85 59 79 60 78 61 34 63 66 64 46 65 65 66
REMARK SMILES IDX 47 67 50 68 64 69 83 70 48 71 49 72 63 74 84 75 51 76 35 77
REMARK SMILES IDX 36 78 44 79 37 80 43 81 45 82 42 83 38 84 39 85 40 86 41 87
REMARK SMILES IDX 67 88 68 89 76 90 69 91 75 92 77 93 74 94 70 95 71 96 72 97
REMARK SMILES IDX 73 98 52 99 53 100 61 101 54 102 60 103 62 104 59 105 55 106
REMARK SMILES IDX 56 107 57 108 58 109
REMARK H PARENT 19 5 103 20 92 30 23 43 82 62 50 73
REMARK Flexibility Score: inf
ROOT
ATOM      1  C   UNL A   1      36.461  21.562  23.718  1.00  0.00     0.118 C 
ENDROOT
BRANCH   1   2
ATOM      2  N   UNL A   1      35.135  22.179  23.704  1.00  0.00    -0.352 N 
ATOM      3  C   UNL A   1      34.508  23.122  24.479  1.00  0.00     0.251 C 
ATOM      4  O   UNL A   1      34.100  24.098  23.835  1.00  0.00    -0.269 OA
ATOM      5  H   UNL A   1      34.565  21.843  22.976  1.00  0.00     0.163 HD
BRANCH   3   6
ATOM      6  C   UNL A   1      33.997  22.943  25.896  1.00  0.00     0.045 A 
ATOM      7  C   UNL A   1      32.700  22.697  26.408  1.00  0.00    -0.006 A 
ATOM      8  C   UNL A   1      32.547  22.583  27.826  1.00  0.00     0.007 A 
ATOM      9  C   UNL A   1      33.615  22.669  28.715  1.00  0.00     0.000 A 
ATOM     10  C   UNL A   1      35.065  22.989  26.839  1.00  0.00     0.014 A 
ATOM     11  C   UNL A   1      34.886  22.848  28.216  1.00  0.00     0.001 A 
BRANCH   7  12
ATOM     12  C   UNL A   1      31.476  22.365  25.555  1.00  0.00     0.180 C 
ATOM     13  C   UNL A   1      32.350  19.657  23.486  1.00  0.00     0.210 A 
ATOM     14  N   UNL A   1      32.261  20.619  22.515  1.00  0.00    -0.185 NA
ATOM     15  N   UNL A   1      32.073  20.069  24.731  1.00  0.00    -0.141 NA
ATOM     16  C   UNL A   1      31.849  21.665  23.175  1.00  0.00     0.227 A 
ATOM     17  N   UNL A   1      31.803  21.374  24.510  1.00  0.00    -0.218 N 
ATOM     18  N   UNL A   1      31.479  22.884  22.747  1.00  0.00    -0.328 N 
ATOM     19  C   UNL A   1      30.932  23.849  23.584  1.00  0.00     0.026 C 
ATOM     20  H   UNL A   1      31.602  23.103  21.796  1.00  0.00     0.169 HD
ATOM     21  C   UNL A   1      30.835  23.609  24.915  1.00  0.00     0.065 C 
ATOM     22  C   UNL A   1      30.485  25.111  22.896  1.00  0.00     0.065 C 
BRANCH  13  23
ATOM     23  S   UNL A   1      32.728  17.992  23.138  1.00  0.00    -0.084 SA
BRANCH  23  24
ATOM     24  C   UNL A   1      32.850  17.278  24.808  1.00  0.00     0.078 C 
BRANCH  24  25
ATOM     25  C   UNL A   1      33.063  15.762  24.842  1.00  0.00     0.008 C 
ATOM     26  C   UNL A   1      32.358  15.032  25.974  1.00  0.00     0.005 C 
ENDBRANCH  24  25
ENDBRANCH  23  24
ENDBRANCH  13  23
BRANCH  21  27
ATOM     27  C   UNL A   1      30.206  24.538  25.876  1.00  0.00     0.255 C 
ATOM     28  O   UNL A   1      29.443  24.083  26.727  1.00  0.00    -0.269 OA
ATOM     29  N   UNL A   1      30.368  25.893  25.837  1.00  0.00    -0.322 N 
ATOM     30  H   UNL A   1      29.560  26.421  26.032  1.00  0.00     0.170 HD
BRANCH  29  31
ATOM     31  C   UNL A   1      31.526  26.646  25.557  1.00  0.00     0.044 A 
ATOM     32  C   UNL A   1      32.638  26.259  26.327  1.00  0.00     0.026 A 
ATOM     33  C   UNL A   1      31.657  27.678  24.610  1.00  0.00    -0.025 A 
ATOM     34  C   UNL A   1      33.898  26.786  26.084  1.00  0.00     0.002 A 
ATOM     35  C   UNL A   1      32.950  28.214  24.366  1.00  0.00    -0.046 A 
ATOM     36  C   UNL A   1      30.477  28.302  23.923  1.00  0.00     0.047 C 
ATOM     37  C   UNL A   1      34.057  27.738  25.089  1.00  0.00     0.004 A 
ATOM     38  C   UNL A   1      33.223  29.264  23.319  1.00  0.00     0.044 C 
ENDBRANCH  29  31
ENDBRANCH  21  27
ENDBRANCH   7  12
ENDBRANCH   3   6
ENDBRANCH   1   2
BRANCH   1  39
ATOM     39  C   UNL A   1      37.502  22.519  24.304  1.00  0.00     0.042 C 
BRANCH  39  40
ATOM     40  C   UNL A   1      38.108  22.061  25.628  1.00  0.00     0.118 C 
BRANCH  40  41
ATOM     41  N   UNL A   1      38.529  20.664  25.650  1.00  0.00    -0.352 N 
ATOM     42  C   UNL A   1      39.826  20.181  25.789  1.00  0.00     0.251 C 
ATOM     43  H   UNL A   1      37.818  19.990  25.556  1.00  0.00     0.163 HD
ATOM     44  O   UNL A   1      40.140  19.077  25.395  1.00  0.00    -0.269 OA
BRANCH  42  45
ATOM     45  C   UNL A   1      40.807  21.076  26.429  1.00  0.00     0.039 A 
ATOM     46  C   UNL A   1      41.425  22.086  25.692  1.00  0.00     0.014 A 
ATOM     47  C   UNL A   1      40.912  21.017  27.816  1.00  0.00     0.014 A 
ATOM     48  C   UNL A   1      42.022  23.140  26.382  1.00  0.00     0.010 A 
ATOM     49  C   UNL A   1      41.420  22.109  28.492  1.00  0.00     0.010 A 
ATOM     50  C   UNL A   1      41.949  23.194  27.787  1.00  0.00    -0.014 A 
BRANCH  50  51
ATOM     51  C   UNL A   1      42.201  24.477  28.466  1.00  0.00     0.031 A 
ATOM     52  C   UNL A   1      41.113  25.501  28.352  1.00  0.00     0.074 A 
ATOM     53  C   UNL A   1      43.168  24.716  29.376  1.00  0.00     0.049 A 
ATOM     54  N   UNL A   1      41.166  26.660  27.779  1.00  0.00    -0.248 NA
ATOM     55  C   UNL A   1      39.778  25.163  28.868  1.00  0.00     0.031 C 
ATOM     56  C   UNL A   1      44.160  23.790  29.927  1.00  0.00     0.029 A 
ATOM     57  N   UNL A   1      43.379  25.853  30.102  1.00  0.00    -0.354 N 
ATOM     58  C   UNL A   1      39.947  27.288  28.032  1.00  0.00     0.074 A 
ATOM     59  C   UNL A   1      39.086  26.264  28.567  1.00  0.00     0.031 C 
ATOM     60  C   UNL A   1      44.694  24.316  31.050  1.00  0.00     0.029 A 
ATOM     61  C   UNL A   1      44.230  25.684  31.184  1.00  0.00     0.049 A 
ATOM     62  H   UNL A   1      42.964  26.717  29.877  1.00  0.00     0.167 HD
ATOM     63  C   UNL A   1      39.803  28.643  27.946  1.00  0.00     0.034 A 
ATOM     64  C   UNL A   1      44.552  26.597  32.132  1.00  0.00     0.034 A 
ATOM     65  C   UNL A   1      40.903  29.240  27.222  1.00  0.00     0.049 A 
ATOM     66  C   UNL A   1      44.333  27.936  31.540  1.00  0.00     0.074 A 
ATOM     67  C   UNL A   1      41.451  29.055  25.967  1.00  0.00     0.029 A 
ATOM     68  N   UNL A   1      41.866  29.919  27.933  1.00  0.00    -0.354 N 
ATOM     69  N   UNL A   1      45.008  28.387  30.519  1.00  0.00    -0.248 NA
ATOM     70  C   UNL A   1      43.081  28.625  31.803  1.00  0.00     0.031 C 
ATOM     71  C   UNL A   1      42.862  29.123  26.173  1.00  0.00     0.029 A 
ATOM     72  C   UNL A   1      43.079  29.422  27.520  1.00  0.00     0.049 A 
ATOM     73  H   UNL A   1      41.716  30.623  28.605  1.00  0.00     0.167 HD
ATOM     74  C   UNL A   1      44.089  29.092  29.763  1.00  0.00     0.074 A 
ATOM     75  C   UNL A   1      42.962  29.317  30.665  1.00  0.00     0.031 C 
ATOM     76  C   UNL A   1      44.208  29.184  28.404  1.00  0.00     0.034 A 
BRANCH  63  77
ATOM     77  C   UNL A   1      38.833  29.481  28.758  1.00  0.00     0.023 A 
ATOM     78  C   UNL A   1      38.998  29.514  30.160  1.00  0.00     0.031 A 
ATOM     79  C   UNL A   1      37.620  30.022  28.277  1.00  0.00     0.131 A 
ATOM     80  C   UNL A   1      37.975  29.985  31.004  1.00  0.00     0.055 A 
ATOM     81  C   UNL A   1      36.636  30.557  29.117  1.00  0.00     0.041 A 
ATOM     82  F   UNL A   1      37.274  29.979  26.986  1.00  0.00    -0.206 F 
ATOM     83  C   UNL A   1      36.795  30.515  30.491  1.00  0.00     0.022 A 
BRANCH  80  84
ATOM     84  S   UNL A   1      38.131  29.718  32.792  1.00  0.00     0.124 S 
ATOM     85  O   UNL A   1      37.311  28.528  32.987  1.00  0.00    -0.237 OA
ATOM     86  O   UNL A   1      39.571  29.541  32.943  1.00  0.00    -0.237 OA
ATOM     87  O   UNL A   1      37.590  30.948  33.368  1.00  0.00    -0.744 OA
ENDBRANCH  80  84
ENDBRANCH  63  77
BRANCH  64  88
ATOM     88  C   UNL A   1      44.832  26.349  33.564  1.00  0.00     0.023 A 
ATOM     89  C   UNL A   1      43.860  26.544  34.563  1.00  0.00     0.031 A 
ATOM     90  C   UNL A   1      46.018  25.683  33.944  1.00  0.00     0.131 A 
ATOM     91  C   UNL A   1      44.092  26.079  35.875  1.00  0.00     0.055 A 
ATOM     92  C   UNL A   1      46.247  25.233  35.246  1.00  0.00     0.041 A 
ATOM     93  F   UNL A   1      46.958  25.370  33.038  1.00  0.00    -0.206 F 
ATOM     94  C   UNL A   1      45.277  25.422  36.218  1.00  0.00     0.022 A 
BRANCH  91  95
ATOM     95  S   UNL A   1      42.784  26.216  37.133  1.00  0.00     0.124 S 
ATOM     96  O   UNL A   1      42.133  27.468  36.764  1.00  0.00    -0.237 OA
ATOM     97  O   UNL A   1      42.012  24.997  36.920  1.00  0.00    -0.237 OA
ATOM     98  O   UNL A   1      43.529  26.255  38.391  1.00  0.00    -0.744 OA
ENDBRANCH  91  95
ENDBRANCH  64  88
BRANCH  76  99
ATOM     99  C   UNL A   1      45.520  28.772  27.757  1.00  0.00     0.023 A 
ATOM    100  C   UNL A   1      45.791  27.491  27.223  1.00  0.00     0.031 A 
ATOM    101  C   UNL A   1      46.501  29.765  27.579  1.00  0.00     0.131 A 
ATOM    102  C   UNL A   1      47.008  27.239  26.561  1.00  0.00     0.055 A 
ATOM    103  C   UNL A   1      47.697  29.519  26.903  1.00  0.00     0.041 A 
ATOM    104  F   UNL A   1      46.298  31.013  28.034  1.00  0.00    -0.206 F 
ATOM    105  C   UNL A   1      47.959  28.251  26.400  1.00  0.00     0.022 A 
BRANCH 102 106
ATOM    106  S   UNL A   1      47.395  25.577  25.918  1.00  0.00     0.124 S 
ATOM    107  O   UNL A   1      48.743  25.319  26.409  1.00  0.00    -0.237 OA
ATOM    108  O   UNL A   1      46.335  24.760  26.503  1.00  0.00    -0.237 OA
ATOM    109  O   UNL A   1      47.299  25.746  24.467  1.00  0.00    -0.744 OA
ENDBRANCH 102 106
ENDBRANCH  76  99
ENDBRANCH  50  51
ENDBRANCH  42  45
ENDBRANCH  40  41
ENDBRANCH  39  40
ENDBRANCH   1  39
TORSDOF 19
ENDMDL
MODEL 3
REMARK VINA RESULT:     -12.4      2.081      6.991
REMARK SMILES CCCSc1nc2n(n1)[C@@H](c1ccccc1C(=O)NCCCNC(=O)c1ccc(-c3c4nc(c(-c5cc(S(=O)(=O)[O-])ccc5F)c5ccc([nH]5)c(-c5cc(S(=O)(=O)[O-])ccc5F)c5nc(c(-c6cc(S(=O)(=O)[O-])ccc6F)c6ccc3[nH]6)C=C5)C=C4)cc1)C(C(=O)Nc1cccc(C)c1C)=C(C)N2
REMARK SMILES IDX 20 1 19 2 17 3 18 4 16 6 11 7 12 8 13 9 15 10 14 11 10 12
REMARK SMILES IDX 5 13 6 14 9 15 7 16 8 17 103 18 101 19 89 21 102 22 4 23
REMARK SMILES IDX 3 24 2 25 1 26 90 27 91 28 92 29 93 31 94 32 99 33 95 34
REMARK SMILES IDX 97 35 100 36 96 37 98 38 21 39 22 40 23 41 24 42 25 44 26 45
REMARK SMILES IDX 27 46 88 47 28 48 87 49 29 50 30 51 31 52 81 53 32 54 86 55
REMARK SMILES IDX 80 56 82 57 33 58 85 59 79 60 78 61 34 63 66 64 46 65 65 66
REMARK SMILES IDX 47 67 50 68 64 69 83 70 48 71 49 72 63 74 84 75 51 76 35 77
REMARK SMILES IDX 36 78 44 79 37 80 43 81 45 82 42 83 38 84 39 85 40 86 41 87
REMARK SMILES IDX 67 88 68 89 76 90 69 91 75 92 77 93 74 94 70 95 71 96 72 97
REMARK SMILES IDX 73 98 52 99 53 100 61 101 54 102 60 103 62 104 59 105 55 106
REMARK SMILES IDX 56 107 57 108 58 109
REMARK H PARENT 19 5 103 20 92 30 23 43 82 62 50 73
REMARK Flexibility Score: inf
ROOT
ATOM      1  C   UNL A   1      36.793  22.366  23.895  1.00  0.00     0.118 C 
ENDROOT
BRANCH   1   2
ATOM      2  N   UNL A   1      35.347  22.567  23.807  1.00  0.00    -0.352 N 
ATOM      3  C   UNL A   1      34.437  23.308  24.518  1.00  0.00     0.251 C 
ATOM      4  O   UNL A   1      33.793  24.102  23.820  1.00  0.00    -0.269 OA
ATOM      5  H   UNL A   1      34.934  22.057  23.073  1.00  0.00     0.163 HD
BRANCH   3   6
ATOM      6  C   UNL A   1      33.935  23.029  25.923  1.00  0.00     0.045 A 
ATOM      7  C   UNL A   1      32.650  22.702  26.419  1.00  0.00    -0.006 A 
ATOM      8  C   UNL A   1      32.503  22.503  27.828  1.00  0.00     0.007 A 
ATOM      9  C   UNL A   1      33.567  22.583  28.721  1.00  0.00     0.000 A 
ATOM     10  C   UNL A   1      35.001  23.066  26.868  1.00  0.00     0.014 A 
ATOM     11  C   UNL A   1      34.829  22.842  28.236  1.00  0.00     0.001 A 
BRANCH   7  12
ATOM     12  C   UNL A   1      31.440  22.369  25.547  1.00  0.00     0.180 C 
ATOM     13  C   UNL A   1      32.347  19.656  23.498  1.00  0.00     0.210 A 
ATOM     14  N   UNL A   1      32.273  20.616  22.523  1.00  0.00    -0.185 NA
ATOM     15  N   UNL A   1      32.050  20.071  24.737  1.00  0.00    -0.141 NA
ATOM     16  C   UNL A   1      31.850  21.664  23.174  1.00  0.00     0.227 A 
ATOM     17  N   UNL A   1      31.784  21.375  24.509  1.00  0.00    -0.218 N 
ATOM     18  N   UNL A   1      31.488  22.881  22.739  1.00  0.00    -0.328 N 
ATOM     19  C   UNL A   1      30.926  23.848  23.564  1.00  0.00     0.026 C 
ATOM     20  H   UNL A   1      31.625  23.099  21.789  1.00  0.00     0.169 HD
ATOM     21  C   UNL A   1      30.809  23.611  24.894  1.00  0.00     0.065 C 
ATOM     22  C   UNL A   1      30.491  25.109  22.867  1.00  0.00     0.065 C 
BRANCH  13  23
ATOM     23  S   UNL A   1      32.731  17.991  23.159  1.00  0.00    -0.084 SA
BRANCH  23  24
ATOM     24  C   UNL A   1      32.827  17.281  24.832  1.00  0.00     0.078 C 
BRANCH  24  25
ATOM     25  C   UNL A   1      33.357  15.845  24.888  1.00  0.00     0.008 C 
ATOM     26  C   UNL A   1      32.445  14.842  25.579  1.00  0.00     0.005 C 
ENDBRANCH  24  25
ENDBRANCH  23  24
ENDBRANCH  13  23
BRANCH  21  27
ATOM     27  C   UNL A   1      30.164  24.541  25.843  1.00  0.00     0.255 C 
ATOM     28  O   UNL A   1      29.386  24.088  26.681  1.00  0.00    -0.269 OA
ATOM     29  N   UNL A   1      30.329  25.896  25.806  1.00  0.00    -0.322 N 
ATOM     30  H   UNL A   1      29.518  26.425  25.986  1.00  0.00     0.170 HD
BRANCH  29  31
ATOM     31  C   UNL A   1      31.492  26.648  25.546  1.00  0.00     0.044 A 
ATOM     32  C   UNL A   1      32.585  26.272  26.348  1.00  0.00     0.026 A 
ATOM     33  C   UNL A   1      31.646  27.667  24.589  1.00  0.00    -0.025 A 
ATOM     34  C   UNL A   1      33.850  26.798  26.131  1.00  0.00     0.002 A 
ATOM     35  C   UNL A   1      32.944  28.202  24.371  1.00  0.00    -0.046 A 
ATOM     36  C   UNL A   1      30.483  28.281  23.864  1.00  0.00     0.047 C 
ATOM     37  C   UNL A   1      34.033  27.737  25.128  1.00  0.00     0.004 A 
ATOM     38  C   UNL A   1      33.242  29.238  23.318  1.00  0.00     0.044 C 
ENDBRANCH  29  31
ENDBRANCH  21  27
ENDBRANCH   7  12
ENDBRANCH   3   6
ENDBRANCH   1   2
BRANCH   1  39
ATOM     39  C   UNL A   1      37.501  23.664  24.290  1.00  0.00     0.042 C 
BRANCH  39  40
ATOM     40  C   UNL A   1      37.854  23.767  25.772  1.00  0.00     0.118 C 
BRANCH  40  41
ATOM     41  N   UNL A   1      39.252  23.484  26.082  1.00  0.00    -0.352 N 
ATOM     42  C   UNL A   1      40.196  24.375  26.580  1.00  0.00     0.251 C 
ATOM     43  H   UNL A   1      39.560  22.564  25.921  1.00  0.00     0.163 HD
ATOM     44  O   UNL A   1      41.386  24.195  26.424  1.00  0.00    -0.269 OA
BRANCH  42  45
ATOM     45  C   UNL A   1      39.686  25.557  27.299  1.00  0.00     0.039 A 
ATOM     46  C   UNL A   1      39.136  25.422  28.573  1.00  0.00     0.014 A 
ATOM     47  C   UNL A   1      39.979  26.806  26.758  1.00  0.00     0.014 A 
ATOM     48  C   UNL A   1      39.032  26.559  29.374  1.00  0.00     0.010 A 
ATOM     49  C   UNL A   1      39.963  27.910  27.588  1.00  0.00     0.010 A 
ATOM     50  C   UNL A   1      39.523  27.795  28.911  1.00  0.00    -0.014 A 
BRANCH  50  51
ATOM     51  C   UNL A   1      39.791  28.867  29.885  1.00  0.00     0.031 A 
ATOM     52  C   UNL A   1      38.618  29.725  30.249  1.00  0.00     0.074 A 
ATOM     53  C   UNL A   1      40.891  28.979  30.658  1.00  0.00     0.049 A 
ATOM     54  N   UNL A   1      38.461  30.992  30.039  1.00  0.00    -0.248 NA
ATOM     55  C   UNL A   1      37.440  29.081  30.851  1.00  0.00     0.031 C 
ATOM     56  C   UNL A   1      42.045  28.083  30.749  1.00  0.00     0.029 A 
ATOM     57  N   UNL A   1      41.139  29.894  31.641  1.00  0.00    -0.354 N 
ATOM     58  C   UNL A   1      37.264  31.355  30.655  1.00  0.00     0.074 A 
ATOM     59  C   UNL A   1      36.612  30.117  30.998  1.00  0.00     0.031 C 
ATOM     60  C   UNL A   1      42.737  28.352  31.877  1.00  0.00     0.029 A 
ATOM     61  C   UNL A   1      42.193  29.555  32.476  1.00  0.00     0.049 A 
ATOM     62  H   UNL A   1      40.616  30.722  31.747  1.00  0.00     0.167 HD
ATOM     63  C   UNL A   1      36.991  32.650  30.992  1.00  0.00     0.034 A 
ATOM     64  C   UNL A   1      42.612  30.212  33.585  1.00  0.00     0.034 A 
ATOM     65  C   UNL A   1      37.876  33.566  30.308  1.00  0.00     0.049 A 
ATOM     66  C   UNL A   1      42.169  31.619  33.452  1.00  0.00     0.074 A 
ATOM     67  C   UNL A   1      38.187  33.805  28.983  1.00  0.00     0.029 A 
ATOM     68  N   UNL A   1      38.896  34.151  31.022  1.00  0.00    -0.354 N 
ATOM     69  N   UNL A   1      42.596  32.418  32.513  1.00  0.00    -0.248 NA
ATOM     70  C   UNL A   1      40.937  32.033  34.101  1.00  0.00     0.031 C 
ATOM     71  C   UNL A   1      39.600  34.006  28.972  1.00  0.00     0.029 A 
ATOM     72  C   UNL A   1      40.046  33.954  30.295  1.00  0.00     0.049 A 
ATOM     73  H   UNL A   1      38.819  34.618  31.886  1.00  0.00     0.167 HD
ATOM     74  C   UNL A   1      41.491  33.169  32.152  1.00  0.00     0.074 A 
ATOM     75  C   UNL A   1      40.543  32.985  33.249  1.00  0.00     0.031 C 
ATOM     76  C   UNL A   1      41.339  33.642  30.879  1.00  0.00     0.034 A 
BRANCH  63  77
ATOM     77  C   UNL A   1      36.127  33.096  32.157  1.00  0.00     0.023 A 
ATOM     78  C   UNL A   1      35.020  33.929  31.880  1.00  0.00     0.031 A 
ATOM     79  C   UNL A   1      36.469  32.977  33.522  1.00  0.00     0.131 A 
ATOM     80  C   UNL A   1      34.371  34.644  32.905  1.00  0.00     0.055 A 
ATOM     81  C   UNL A   1      35.774  33.632  34.545  1.00  0.00     0.041 A 
ATOM     82  F   UNL A   1      37.547  32.302  33.937  1.00  0.00    -0.206 F 
ATOM     83  C   UNL A   1      34.736  34.495  34.239  1.00  0.00     0.022 A 
BRANCH  80  84
ATOM     84  S   UNL A   1      33.164  35.918  32.445  1.00  0.00     0.124 S 
ATOM     85  O   UNL A   1      33.357  36.904  33.502  1.00  0.00    -0.237 OA
ATOM     86  O   UNL A   1      33.625  36.301  31.115  1.00  0.00    -0.237 OA
ATOM     87  O   UNL A   1      31.888  35.207  32.482  1.00  0.00    -0.744 OA
ENDBRANCH  80  84
ENDBRANCH  63  77
BRANCH  64  88
ATOM     88  C   UNL A   1      43.181  29.626  34.819  1.00  0.00     0.023 A 
ATOM     89  C   UNL A   1      42.563  28.561  35.498  1.00  0.00     0.031 A 
ATOM     90  C   UNL A   1      44.492  29.968  35.220  1.00  0.00     0.131 A 
ATOM     91  C   UNL A   1      43.251  27.884  36.528  1.00  0.00     0.055 A 
ATOM     92  C   UNL A   1      45.165  29.302  36.247  1.00  0.00     0.041 A 
ATOM     93  F   UNL A   1      45.194  30.908  34.567  1.00  0.00    -0.206 F 
ATOM     94  C   UNL A   1      44.548  28.247  36.900  1.00  0.00     0.022 A 
BRANCH  91  95
ATOM     95  S   UNL A   1      42.501  26.426  37.317  1.00  0.00     0.124 S 
ATOM     96  O   UNL A   1      41.098  26.812  37.406  1.00  0.00    -0.237 OA
ATOM     97  O   UNL A   1      42.820  25.358  36.376  1.00  0.00    -0.237 OA
ATOM     98  O   UNL A   1      43.200  26.338  38.599  1.00  0.00    -0.744 OA
ENDBRANCH  91  95
ENDBRANCH  64  88
BRANCH  76  99
ATOM     99  C   UNL A   1      42.533  33.604  29.939  1.00  0.00     0.023 A 
ATOM    100  C   UNL A   1      42.941  32.472  29.196  1.00  0.00     0.031 A 
ATOM    101  C   UNL A   1      43.221  34.810  29.707  1.00  0.00     0.131 A 
ATOM    102  C   UNL A   1      44.008  32.569  28.281  1.00  0.00     0.055 A 
ATOM    103  C   UNL A   1      44.264  34.908  28.784  1.00  0.00     0.041 A 
ATOM    104  F   UNL A   1      42.868  35.932  30.356  1.00  0.00    -0.206 F 
ATOM    105  C   UNL A   1      44.667  33.785  28.074  1.00  0.00     0.022 A 
BRANCH 102 106
ATOM    106  S   UNL A   1      44.582  31.105  27.358  1.00  0.00     0.124 S 
ATOM    107  O   UNL A   1      43.370  30.320  27.163  1.00  0.00    -0.237 OA
ATOM    108  O   UNL A   1      45.159  31.699  26.154  1.00  0.00    -0.237 OA
ATOM    109  O   UNL A   1      45.561  30.498  28.263  1.00  0.00    -0.744 OA
ENDBRANCH 102 106
ENDBRANCH  76  99
ENDBRANCH  50  51
ENDBRANCH  42  45
ENDBRANCH  40  41
ENDBRANCH  39  40
ENDBRANCH   1  39
TORSDOF 19
ENDMDL
