MODEL 1
REMARK VINA RESULT:     -12.2      0.000      0.000
REMARK SMILES COc1ccccc1Nc1nc(C)c(C(=O)NCCCNC(=O)c2ccc(-c3c4nc(c(-c5cc(S(=O)(=O)[O-])ccc5F)c5ccc([nH]5)c(-c5cc(S(=O)(=O)[O-])ccc5F)c5nc(c(-c6cc(S(=O)(=O)[O-])ccc6F)c6ccc3[nH]6)C=C5)C=C4)cc2)s1
REMARK SMILES IDX 19 1 18 2 17 3 15 4 16 5 14 7 10 8 11 9 87 10 12 11 13 12
REMARK SMILES IDX 9 13 8 15 3 16 4 17 5 18 7 19 6 20 2 21 1 22 20 23 21 24
REMARK SMILES IDX 22 25 23 27 24 28 25 29 86 30 26 31 85 32 27 33 28 34 29 35
REMARK SMILES IDX 79 36 30 37 84 38 78 39 80 40 31 41 83 42 77 43 76 44 32 46
REMARK SMILES IDX 64 47 44 48 63 49 45 50 48 51 62 52 81 53 46 54 47 55 61 57
REMARK SMILES IDX 82 58 49 59 33 60 34 61 42 62 35 63 41 64 43 65 40 66 36 67
REMARK SMILES IDX 37 68 38 69 39 70 65 71 66 72 74 73 67 74 73 75 75 76 72 77
REMARK SMILES IDX 68 78 69 79 70 80 71 81 50 82 51 83 59 84 52 85 58 86 60 87
REMARK SMILES IDX 57 88 53 89 54 90 55 91 56 92
REMARK H PARENT 17 6 9 14 21 26 80 45 48 56
REMARK Flexibility Score: inf
ROOT
ATOM      1  C   UNL A   1      35.530  21.862  24.428  1.00  0.00     0.042 C 
ENDROOT
BRANCH   1   2
ATOM      2  C   UNL A   1      35.081  21.388  25.808  1.00  0.00     0.118 C 
BRANCH   2   3
ATOM      3  N   UNL A   1      34.050  20.385  25.690  1.00  0.00    -0.351 N 
ATOM      4  C   UNL A   1      32.738  20.420  25.301  1.00  0.00     0.263 C 
ATOM      5  O   UNL A   1      32.200  19.305  25.337  1.00  0.00    -0.268 OA
ATOM      6  H   UNL A   1      34.356  19.484  25.944  1.00  0.00     0.163 HD
BRANCH   4   7
ATOM      7  C   UNL A   1      32.030  21.611  24.846  1.00  0.00     0.117 A 
ATOM      8  C   UNL A   1      30.743  23.705  25.039  1.00  0.00     0.188 A 
ATOM      9  N   UNL A   1      31.079  23.482  23.798  1.00  0.00    -0.225 NA
ATOM     10  S   UNL A   1      31.092  22.405  26.089  1.00  0.00    -0.091 S 
ATOM     11  C   UNL A   1      31.915  22.378  23.688  1.00  0.00     0.063 A 
ATOM     12  C   UNL A   1      32.573  22.294  22.362  1.00  0.00     0.068 C 
BRANCH   8  13
ATOM     13  N   UNL A   1      30.106  24.838  25.391  1.00  0.00    -0.328 N 
ATOM     14  H   UNL A   1      29.468  24.755  26.137  1.00  0.00     0.169 HD
BRANCH  13  15
ATOM     15  C   UNL A   1      30.234  26.128  24.831  1.00  0.00     0.083 A 
ATOM     16  C   UNL A   1      31.237  26.988  25.320  1.00  0.00     0.142 A 
ATOM     17  C   UNL A   1      31.338  28.308  24.874  1.00  0.00     0.048 A 
ATOM     18  C   UNL A   1      30.475  28.778  23.887  1.00  0.00     0.004 A 
ATOM     19  C   UNL A   1      29.394  26.615  23.819  1.00  0.00     0.030 A 
ATOM     20  C   UNL A   1      29.510  27.929  23.352  1.00  0.00     0.002 A 
BRANCH  16  21
ATOM     21  O   UNL A   1      32.090  26.616  26.333  1.00  0.00    -0.495 OA
ATOM     22  C   UNL A   1      33.458  26.668  25.922  1.00  0.00     0.278 C 
ENDBRANCH  16  21
ENDBRANCH  13  15
ENDBRANCH   8  13
ENDBRANCH   4   7
ENDBRANCH   2   3
ENDBRANCH   1   2
BRANCH   1  23
ATOM     23  C   UNL A   1      37.042  21.844  24.240  1.00  0.00     0.118 C 
BRANCH  23  24
ATOM     24  N   UNL A   1      37.659  20.766  24.994  1.00  0.00    -0.352 N 
ATOM     25  C   UNL A   1      38.829  20.751  25.714  1.00  0.00     0.251 C 
ATOM     26  H   UNL A   1      37.163  19.916  24.989  1.00  0.00     0.163 HD
ATOM     27  O   UNL A   1      39.315  19.668  26.026  1.00  0.00    -0.269 OA
BRANCH  25  28
ATOM     28  C   UNL A   1      39.504  22.013  26.103  1.00  0.00     0.039 A 
ATOM     29  C   UNL A   1      40.838  21.963  26.521  1.00  0.00     0.014 A 
ATOM     30  C   UNL A   1      38.820  23.232  26.123  1.00  0.00     0.014 A 
ATOM     31  C   UNL A   1      41.493  23.134  26.914  1.00  0.00     0.010 A 
ATOM     32  C   UNL A   1      39.496  24.409  26.436  1.00  0.00     0.010 A 
ATOM     33  C   UNL A   1      40.835  24.372  26.851  1.00  0.00    -0.014 A 
BRANCH  33  34
ATOM     34  C   UNL A   1      41.514  25.634  27.246  1.00  0.00     0.031 A 
ATOM     35  C   UNL A   1      40.781  26.651  28.081  1.00  0.00     0.074 A 
ATOM     36  C   UNL A   1      42.760  25.891  26.802  1.00  0.00     0.049 A 
ATOM     37  N   UNL A   1      41.154  27.851  28.445  1.00  0.00    -0.248 NA
ATOM     38  C   UNL A   1      39.434  26.278  28.538  1.00  0.00     0.031 C 
ATOM     39  C   UNL A   1      43.557  24.998  25.958  1.00  0.00     0.029 A 
ATOM     40  N   UNL A   1      43.571  26.983  26.986  1.00  0.00    -0.354 N 
ATOM     41  C   UNL A   1      40.082  28.384  29.153  1.00  0.00     0.074 A 
ATOM     42  C   UNL A   1      39.024  27.396  29.116  1.00  0.00     0.031 C 
ATOM     43  C   UNL A   1      44.746  25.570  25.713  1.00  0.00     0.029 A 
ATOM     44  C   UNL A   1      44.782  26.887  26.340  1.00  0.00     0.049 A 
ATOM     45  H   UNL A   1      43.310  27.762  27.529  1.00  0.00     0.167 HD
ATOM     46  C   UNL A   1      39.996  29.577  29.794  1.00  0.00     0.034 A 
ATOM     47  C   UNL A   1      45.800  27.766  26.253  1.00  0.00     0.034 A 
ATOM     48  C   UNL A   1      41.069  30.539  29.839  1.00  0.00     0.049 A 
ATOM     49  C   UNL A   1      45.679  29.090  26.964  1.00  0.00     0.074 A 
ATOM     50  C   UNL A   1      41.116  31.753  30.504  1.00  0.00     0.029 A 
ATOM     51  N   UNL A   1      42.289  30.402  29.184  1.00  0.00    -0.354 N 
ATOM     52  N   UNL A   1      44.674  29.561  27.668  1.00  0.00    -0.248 NA
ATOM     53  C   UNL A   1      46.832  29.995  26.878  1.00  0.00     0.031 C 
ATOM     54  C   UNL A   1      42.334  32.373  30.202  1.00  0.00     0.029 A 
ATOM     55  C   UNL A   1      43.080  31.517  29.407  1.00  0.00     0.049 A 
ATOM     56  H   UNL A   1      42.551  29.623  28.641  1.00  0.00     0.167 HD
ATOM     57  C   UNL A   1      45.089  30.806  28.133  1.00  0.00     0.074 A 
ATOM     58  C   UNL A   1      46.438  31.004  27.641  1.00  0.00     0.031 C 
ATOM     59  C   UNL A   1      44.418  31.703  28.900  1.00  0.00     0.034 A 
BRANCH  46  60
ATOM     60  C   UNL A   1      38.687  29.909  30.474  1.00  0.00     0.023 A 
ATOM     61  C   UNL A   1      37.679  30.640  29.822  1.00  0.00     0.031 A 
ATOM     62  C   UNL A   1      38.457  29.518  31.806  1.00  0.00     0.131 A 
ATOM     63  C   UNL A   1      36.527  31.028  30.523  1.00  0.00     0.055 A 
ATOM     64  C   UNL A   1      37.271  29.836  32.472  1.00  0.00     0.041 A 
ATOM     65  F   UNL A   1      39.389  28.836  32.489  1.00  0.00    -0.206 F 
ATOM     66  C   UNL A   1      36.304  30.609  31.836  1.00  0.00     0.022 A 
BRANCH  63  67
ATOM     67  S   UNL A   1      35.397  32.214  29.743  1.00  0.00     0.124 S 
ATOM     68  O   UNL A   1      34.833  31.415  28.658  1.00  0.00    -0.237 OA
ATOM     69  O   UNL A   1      34.487  32.546  30.833  1.00  0.00    -0.237 OA
ATOM     70  O   UNL A   1      36.280  33.298  29.315  1.00  0.00    -0.744 OA
ENDBRANCH  63  67
ENDBRANCH  46  60
BRANCH  47  71
ATOM     71  C   UNL A   1      47.016  27.435  25.457  1.00  0.00     0.023 A 
ATOM     72  C   UNL A   1      47.129  27.827  24.113  1.00  0.00     0.031 A 
ATOM     73  C   UNL A   1      48.070  26.691  26.018  1.00  0.00     0.131 A 
ATOM     74  C   UNL A   1      48.249  27.437  23.363  1.00  0.00     0.055 A 
ATOM     75  C   UNL A   1      49.204  26.349  25.282  1.00  0.00     0.041 A 
ATOM     76  F   UNL A   1      48.014  26.298  27.301  1.00  0.00    -0.206 F 
ATOM     77  C   UNL A   1      49.294  26.711  23.942  1.00  0.00     0.022 A 
BRANCH  74  78
ATOM     78  S   UNL A   1      48.285  27.828  21.592  1.00  0.00     0.124 S 
ATOM     79  O   UNL A   1      46.931  28.321  21.369  1.00  0.00    -0.237 OA
ATOM     80  O   UNL A   1      49.350  28.822  21.524  1.00  0.00    -0.237 OA
ATOM     81  O   UNL A   1      48.593  26.543  20.967  1.00  0.00    -0.744 OA
ENDBRANCH  74  78
ENDBRANCH  47  71
BRANCH  59  82
ATOM     82  C   UNL A   1      45.160  32.959  29.286  1.00  0.00     0.023 A 
ATOM     83  C   UNL A   1      45.098  34.124  28.503  1.00  0.00     0.031 A 
ATOM     84  C   UNL A   1      45.948  32.982  30.450  1.00  0.00     0.131 A 
ATOM     85  C   UNL A   1      45.855  35.248  28.866  1.00  0.00     0.055 A 
ATOM     86  C   UNL A   1      46.653  34.122  30.837  1.00  0.00     0.041 A 
ATOM     87  F   UNL A   1      46.043  31.895  31.232  1.00  0.00    -0.206 F 
ATOM     88  C   UNL A   1      46.619  35.260  30.036  1.00  0.00     0.022 A 
BRANCH  85  89
ATOM     89  S   UNL A   1      45.898  36.670  27.739  1.00  0.00     0.124 S 
ATOM     90  O   UNL A   1      46.094  37.782  28.663  1.00  0.00    -0.237 OA
ATOM     91  O   UNL A   1      47.031  36.350  26.876  1.00  0.00    -0.237 OA
ATOM     92  O   UNL A   1      44.591  36.630  27.086  1.00  0.00    -0.744 OA
ENDBRANCH  85  89
ENDBRANCH  59  82
ENDBRANCH  33  34
ENDBRANCH  25  28
ENDBRANCH  23  24
ENDBRANCH   1  23
TORSDOF 16
ENDMDL
MODEL 2
REMARK VINA RESULT:     -12.1      5.882     10.866
REMARK SMILES COc1ccccc1Nc1nc(C)c(C(=O)NCCCNC(=O)c2ccc(-c3c4nc(c(-c5cc(S(=O)(=O)[O-])ccc5F)c5ccc([nH]5)c(-c5cc(S(=O)(=O)[O-])ccc5F)c5nc(c(-c6cc(S(=O)(=O)[O-])ccc6F)c6ccc3[nH]6)C=C5)C=C4)cc2)s1
REMARK SMILES IDX 19 1 18 2 17 3 15 4 16 5 14 7 10 8 11 9 87 10 12 11 13 12
REMARK SMILES IDX 9 13 8 15 3 16 4 17 5 18 7 19 6 20 2 21 1 22 20 23 21 24
REMARK SMILES IDX 22 25 23 27 24 28 25 29 86 30 26 31 85 32 27 33 28 34 29 35
REMARK SMILES IDX 79 36 30 37 84 38 78 39 80 40 31 41 83 42 77 43 76 44 32 46
REMARK SMILES IDX 64 47 44 48 63 49 45 50 48 51 62 52 81 53 46 54 47 55 61 57
REMARK SMILES IDX 82 58 49 59 33 60 34 61 42 62 35 63 41 64 43 65 40 66 36 67
REMARK SMILES IDX 37 68 38 69 39 70 65 71 66 72 74 73 67 74 73 75 75 76 72 77
REMARK SMILES IDX 68 78 69 79 70 80 71 81 50 82 51 83 59 84 52 85 58 86 60 87
REMARK SMILES IDX 57 88 53 89 54 90 55 91 56 92
REMARK H PARENT 17 6 9 14 21 26 80 45 48 56
REMARK Flexibility Score: inf
ROOT
ATOM      1  C   UNL A   1      31.404  31.886  26.556  1.00  0.00     0.042 C 
ENDROOT
BRANCH   1   2
ATOM      2  C   UNL A   1      31.543  30.573  25.788  1.00  0.00     0.118 C 
BRANCH   2   3
ATOM      3  N   UNL A   1      30.712  30.585  24.609  1.00  0.00    -0.351 N 
ATOM      4  C   UNL A   1      30.385  29.640  23.674  1.00  0.00     0.263 C 
ATOM      5  O   UNL A   1      29.615  30.074  22.807  1.00  0.00    -0.268 OA
ATOM      6  H   UNL A   1      30.291  31.459  24.440  1.00  0.00     0.163 HD
BRANCH   4   7
ATOM      7  C   UNL A   1      30.840  28.255  23.688  1.00  0.00     0.117 A 
ATOM      8  C   UNL A   1      30.658  25.799  23.568  1.00  0.00     0.188 A 
ATOM      9  N   UNL A   1      31.908  26.166  23.640  1.00  0.00    -0.225 NA
ATOM     10  S   UNL A   1      29.552  27.078  23.799  1.00  0.00    -0.091 S 
ATOM     11  C   UNL A   1      32.036  27.548  23.576  1.00  0.00     0.063 A 
ATOM     12  C   UNL A   1      33.433  27.978  23.324  1.00  0.00     0.068 C 
BRANCH   8  13
ATOM     13  N   UNL A   1      30.325  24.503  23.409  1.00  0.00    -0.328 N 
ATOM     14  H   UNL A   1      29.471  24.335  22.947  1.00  0.00     0.169 HD
BRANCH  13  15
ATOM     15  C   UNL A   1      31.040  23.356  23.818  1.00  0.00     0.083 A 
ATOM     16  C   UNL A   1      30.990  22.968  25.171  1.00  0.00     0.142 A 
ATOM     17  C   UNL A   1      31.762  21.904  25.647  1.00  0.00     0.048 A 
ATOM     18  C   UNL A   1      32.554  21.170  24.768  1.00  0.00     0.004 A 
ATOM     19  C   UNL A   1      31.823  22.585  22.947  1.00  0.00     0.030 A 
ATOM     20  C   UNL A   1      32.577  21.504  23.416  1.00  0.00     0.002 A 
BRANCH  16  21
ATOM     21  O   UNL A   1      30.276  23.675  26.110  1.00  0.00    -0.495 OA
ATOM     22  C   UNL A   1      29.835  22.840  27.183  1.00  0.00     0.278 C 
ENDBRANCH  16  21
ENDBRANCH  13  15
ENDBRANCH   8  13
ENDBRANCH   4   7
ENDBRANCH   2   3
ENDBRANCH   1   2
BRANCH   1  23
ATOM     23  C   UNL A   1      32.722  32.409  27.112  1.00  0.00     0.118 C 
BRANCH  23  24
ATOM     24  N   UNL A   1      32.608  33.794  27.537  1.00  0.00    -0.352 N 
ATOM     25  C   UNL A   1      33.211  34.447  28.585  1.00  0.00     0.251 C 
ATOM     26  H   UNL A   1      32.006  34.349  26.991  1.00  0.00     0.163 HD
ATOM     27  O   UNL A   1      32.756  35.528  28.945  1.00  0.00    -0.269 OA
BRANCH  25  28
ATOM     28  C   UNL A   1      34.383  33.861  29.278  1.00  0.00     0.039 A 
ATOM     29  C   UNL A   1      34.167  32.923  30.293  1.00  0.00     0.014 A 
ATOM     30  C   UNL A   1      35.687  34.273  28.985  1.00  0.00     0.014 A 
ATOM     31  C   UNL A   1      35.252  32.370  30.978  1.00  0.00     0.010 A 
ATOM     32  C   UNL A   1      36.771  33.662  29.612  1.00  0.00     0.010 A 
ATOM     33  C   UNL A   1      36.566  32.715  30.626  1.00  0.00    -0.014 A 
BRANCH  33  34
ATOM     34  C   UNL A   1      37.738  32.129  31.328  1.00  0.00     0.031 A 
ATOM     35  C   UNL A   1      38.515  31.010  30.685  1.00  0.00     0.074 A 
ATOM     36  C   UNL A   1      38.062  32.557  32.563  1.00  0.00     0.049 A 
ATOM     37  N   UNL A   1      39.500  30.297  31.169  1.00  0.00    -0.248 NA
ATOM     38  C   UNL A   1      38.104  30.620  29.327  1.00  0.00     0.031 C 
ATOM     39  C   UNL A   1      37.362  33.611  33.302  1.00  0.00     0.029 A 
ATOM     40  N   UNL A   1      39.053  32.153  33.422  1.00  0.00    -0.354 N 
ATOM     41  C   UNL A   1      39.811  29.362  30.187  1.00  0.00     0.074 A 
ATOM     42  C   UNL A   1      38.871  29.564  29.105  1.00  0.00     0.031 C 
ATOM     43  C   UNL A   1      37.956  33.780  34.494  1.00  0.00     0.029 A 
ATOM     44  C   UNL A   1      39.047  32.820  34.626  1.00  0.00     0.049 A 
ATOM     45  H   UNL A   1      39.706  31.451  33.199  1.00  0.00     0.167 HD
ATOM     46  C   UNL A   1      40.803  28.436  30.180  1.00  0.00     0.034 A 
ATOM     47  C   UNL A   1      39.824  32.665  35.716  1.00  0.00     0.034 A 
ATOM     48  C   UNL A   1      41.744  28.265  31.259  1.00  0.00     0.049 A 
ATOM     49  C   UNL A   1      40.913  31.624  35.691  1.00  0.00     0.074 A 
ATOM     50  C   UNL A   1      42.823  27.401  31.337  1.00  0.00     0.029 A 
ATOM     51  N   UNL A   1      41.716  28.969  32.458  1.00  0.00    -0.354 N 
ATOM     52  N   UNL A   1      41.223  30.777  34.735  1.00  0.00    -0.248 NA
ATOM     53  C   UNL A   1      41.763  31.525  36.884  1.00  0.00     0.031 C 
ATOM     54  C   UNL A   1      43.407  27.538  32.601  1.00  0.00     0.029 A 
ATOM     55  C   UNL A   1      42.739  28.539  33.288  1.00  0.00     0.049 A 
ATOM     56  H   UNL A   1      41.063  29.671  32.683  1.00  0.00     0.167 HD
ATOM     57  C   UNL A   1      42.325  30.065  35.204  1.00  0.00     0.074 A 
ATOM     58  C   UNL A   1      42.631  30.593  36.518  1.00  0.00     0.031 C 
ATOM     59  C   UNL A   1      43.023  29.069  34.601  1.00  0.00     0.034 A 
BRANCH  46  60
ATOM     60  C   UNL A   1      40.897  27.527  28.976  1.00  0.00     0.023 A 
ATOM     61  C   UNL A   1      41.864  27.723  27.974  1.00  0.00     0.031 A 
ATOM     62  C   UNL A   1      39.985  26.469  28.809  1.00  0.00     0.131 A 
ATOM     63  C   UNL A   1      41.847  26.930  26.816  1.00  0.00     0.055 A 
ATOM     64  C   UNL A   1      40.026  25.630  27.693  1.00  0.00     0.041 A 
ATOM     65  F   UNL A   1      39.026  26.243  29.719  1.00  0.00    -0.206 F 
ATOM     66  C   UNL A   1      40.950  25.869  26.679  1.00  0.00     0.022 A 
BRANCH  63  67
ATOM     67  S   UNL A   1      42.911  27.405  25.426  1.00  0.00     0.124 S 
ATOM     68  O   UNL A   1      42.994  26.152  24.678  1.00  0.00    -0.237 OA
ATOM     69  O   UNL A   1      42.150  28.477  24.797  1.00  0.00    -0.237 OA
ATOM     70  O   UNL A   1      44.156  27.819  26.073  1.00  0.00    -0.744 OA
ENDBRANCH  63  67
ENDBRANCH  46  60
BRANCH  47  71
ATOM     71  C   UNL A   1      39.598  33.505  36.928  1.00  0.00     0.023 A 
ATOM     72  C   UNL A   1      40.401  34.628  37.188  1.00  0.00     0.031 A 
ATOM     73  C   UNL A   1      38.599  33.179  37.861  1.00  0.00     0.131 A 
ATOM     74  C   UNL A   1      40.219  35.359  38.372  1.00  0.00     0.055 A 
ATOM     75  C   UNL A   1      38.388  33.937  39.012  1.00  0.00     0.041 A 
ATOM     76  F   UNL A   1      37.799  32.119  37.656  1.00  0.00    -0.206 F 
ATOM     77  C   UNL A   1      39.209  35.028  39.281  1.00  0.00     0.022 A 
BRANCH  74  78
ATOM     78  S   UNL A   1      41.374  36.705  38.747  1.00  0.00     0.124 S 
ATOM     79  O   UNL A   1      40.467  37.770  39.158  1.00  0.00    -0.237 OA
ATOM     80  O   UNL A   1      42.192  36.116  39.802  1.00  0.00    -0.237 OA
ATOM     81  O   UNL A   1      42.063  36.926  37.477  1.00  0.00    -0.744 OA
ENDBRANCH  74  78
ENDBRANCH  47  71
BRANCH  59  82
ATOM     82  C   UNL A   1      44.213  28.521  35.349  1.00  0.00     0.023 A 
ATOM     83  C   UNL A   1      44.080  27.493  36.298  1.00  0.00     0.031 A 
ATOM     84  C   UNL A   1      45.495  29.047  35.115  1.00  0.00     0.131 A 
ATOM     85  C   UNL A   1      45.204  27.059  37.017  1.00  0.00     0.055 A 
ATOM     86  C   UNL A   1      46.619  28.571  35.791  1.00  0.00     0.041 A 
ATOM     87  F   UNL A   1      45.677  30.032  34.220  1.00  0.00    -0.206 F 
ATOM     88  C   UNL A   1      46.475  27.580  36.758  1.00  0.00     0.022 A 
BRANCH  85  89
ATOM     89  S   UNL A   1      44.970  25.862  38.360  1.00  0.00     0.124 S 
ATOM     90  O   UNL A   1      44.004  26.548  39.211  1.00  0.00    -0.237 OA
ATOM     91  O   UNL A   1      44.474  24.688  37.649  1.00  0.00    -0.237 OA
ATOM     92  O   UNL A   1      46.309  25.721  38.931  1.00  0.00    -0.744 OA
ENDBRANCH  85  89
ENDBRANCH  59  82
ENDBRANCH  33  34
ENDBRANCH  25  28
ENDBRANCH  23  24
ENDBRANCH   1  23
TORSDOF 16
ENDMDL
MODEL 3
REMARK VINA RESULT:     -12.0      2.419      7.919
REMARK SMILES COc1ccccc1Nc1nc(C)c(C(=O)NCCCNC(=O)c2ccc(-c3c4nc(c(-c5cc(S(=O)(=O)[O-])ccc5F)c5ccc([nH]5)c(-c5cc(S(=O)(=O)[O-])ccc5F)c5nc(c(-c6cc(S(=O)(=O)[O-])ccc6F)c6ccc3[nH]6)C=C5)C=C4)cc2)s1
REMARK SMILES IDX 19 1 18 2 17 3 15 4 16 5 14 7 10 8 11 9 87 10 12 11 13 12
REMARK SMILES IDX 9 13 8 15 3 16 4 17 5 18 7 19 6 20 2 21 1 22 20 23 21 24
REMARK SMILES IDX 22 25 23 27 24 28 25 29 86 30 26 31 85 32 27 33 28 34 29 35
REMARK SMILES IDX 79 36 30 37 84 38 78 39 80 40 31 41 83 42 77 43 76 44 32 46
REMARK SMILES IDX 64 47 44 48 63 49 45 50 48 51 62 52 81 53 46 54 47 55 61 57
REMARK SMILES IDX 82 58 49 59 33 60 34 61 42 62 35 63 41 64 43 65 40 66 36 67
REMARK SMILES IDX 37 68 38 69 39 70 65 71 66 72 74 73 67 74 73 75 75 76 72 77
REMARK SMILES IDX 68 78 69 79 70 80 71 81 50 82 51 83 59 84 52 85 58 86 60 87
REMARK SMILES IDX 57 88 53 89 54 90 55 91 56 92
REMARK H PARENT 17 6 9 14 21 26 80 45 48 56
REMARK Flexibility Score: inf
ROOT
ATOM      1  C   UNL A   1      35.957  21.914  25.327  1.00  0.00     0.042 C 
ENDROOT
BRANCH   1   2
ATOM      2  C   UNL A   1      34.965  21.629  26.453  1.00  0.00     0.118 C 
BRANCH   2   3
ATOM      3  N   UNL A   1      33.993  20.648  26.036  1.00  0.00    -0.351 N 
ATOM      4  C   UNL A   1      32.797  20.724  25.374  1.00  0.00     0.263 C 
ATOM      5  O   UNL A   1      32.273  19.615  25.207  1.00  0.00    -0.268 OA
ATOM      6  H   UNL A   1      34.243  19.727  26.280  1.00  0.00     0.163 HD
BRANCH   4   7
ATOM      7  C   UNL A   1      32.196  21.953  24.870  1.00  0.00     0.117 A 
ATOM      8  C   UNL A   1      30.846  24.015  24.927  1.00  0.00     0.188 A 
ATOM      9  N   UNL A   1      31.491  23.916  23.796  1.00  0.00    -0.225 NA
ATOM     10  S   UNL A   1      30.952  22.619  25.902  1.00  0.00    -0.091 S 
ATOM     11  C   UNL A   1      32.356  22.830  23.799  1.00  0.00     0.063 A 
ATOM     12  C   UNL A   1      33.331  22.879  22.681  1.00  0.00     0.068 C 
BRANCH   8  13
ATOM     13  N   UNL A   1      30.110  25.107  25.211  1.00  0.00    -0.328 N 
ATOM     14  H   UNL A   1      29.375  24.972  25.852  1.00  0.00     0.169 HD
BRANCH  13  15
ATOM     15  C   UNL A   1      30.256  26.420  24.710  1.00  0.00     0.083 A 
ATOM     16  C   UNL A   1      31.200  27.278  25.309  1.00  0.00     0.142 A 
ATOM     17  C   UNL A   1      31.310  28.615  24.920  1.00  0.00     0.048 A 
ATOM     18  C   UNL A   1      30.518  29.107  23.886  1.00  0.00     0.004 A 
ATOM     19  C   UNL A   1      29.490  26.930  23.652  1.00  0.00     0.030 A 
ATOM     20  C   UNL A   1      29.616  28.262  23.245  1.00  0.00     0.002 A 
BRANCH  16  21
ATOM     21  O   UNL A   1      31.978  26.883  26.372  1.00  0.00    -0.495 OA
ATOM     22  C   UNL A   1      32.839  27.931  26.821  1.00  0.00     0.278 C 
ENDBRANCH  16  21
ENDBRANCH  13  15
ENDBRANCH   8  13
ENDBRANCH   4   7
ENDBRANCH   2   3
ENDBRANCH   1   2
BRANCH   1  23
ATOM     23  C   UNL A   1      37.188  22.688  25.781  1.00  0.00     0.118 C 
BRANCH  23  24
ATOM     24  N   UNL A   1      38.285  21.794  26.112  1.00  0.00    -0.352 N 
ATOM     25  C   UNL A   1      39.581  22.083  26.466  1.00  0.00     0.251 C 
ATOM     26  H   UNL A   1      38.067  20.835  26.076  1.00  0.00     0.163 HD
ATOM     27  O   UNL A   1      40.419  21.188  26.415  1.00  0.00    -0.269 OA
BRANCH  25  28
ATOM     28  C   UNL A   1      39.970  23.448  26.895  1.00  0.00     0.039 A 
ATOM     29  C   UNL A   1      39.871  24.498  25.975  1.00  0.00     0.014 A 
ATOM     30  C   UNL A   1      40.492  23.693  28.169  1.00  0.00     0.014 A 
ATOM     31  C   UNL A   1      40.251  25.791  26.345  1.00  0.00     0.010 A 
ATOM     32  C   UNL A   1      40.794  24.995  28.562  1.00  0.00     0.010 A 
ATOM     33  C   UNL A   1      40.692  26.056  27.651  1.00  0.00    -0.014 A 
BRANCH  33  34
ATOM     34  C   UNL A   1      41.086  27.425  28.075  1.00  0.00     0.031 A 
ATOM     35  C   UNL A   1      42.541  27.816  28.092  1.00  0.00     0.074 A 
ATOM     36  C   UNL A   1      40.146  28.290  28.503  1.00  0.00     0.049 A 
ATOM     37  N   UNL A   1      43.100  28.919  28.522  1.00  0.00    -0.248 NA
ATOM     38  C   UNL A   1      43.496  26.817  27.589  1.00  0.00     0.031 C 
ATOM     39  C   UNL A   1      38.709  28.013  28.565  1.00  0.00     0.029 A 
ATOM     40  N   UNL A   1      40.256  29.572  28.980  1.00  0.00    -0.354 N 
ATOM     41  C   UNL A   1      44.470  28.738  28.362  1.00  0.00     0.074 A 
ATOM     42  C   UNL A   1      44.657  27.397  27.850  1.00  0.00     0.031 C 
ATOM     43  C   UNL A   1      38.072  29.097  29.034  1.00  0.00     0.029 A 
ATOM     44  C   UNL A   1      39.054  30.129  29.351  1.00  0.00     0.049 A 
ATOM     45  H   UNL A   1      41.115  30.048  29.050  1.00  0.00     0.167 HD
ATOM     46  C   UNL A   1      45.476  29.617  28.599  1.00  0.00     0.034 A 
ATOM     47  C   UNL A   1      38.776  31.330  29.897  1.00  0.00     0.034 A 
ATOM     48  C   UNL A   1      45.267  30.957  29.089  1.00  0.00     0.049 A 
ATOM     49  C   UNL A   1      39.910  32.287  30.162  1.00  0.00     0.074 A 
ATOM     50  C   UNL A   1      46.204  31.953  29.311  1.00  0.00     0.029 A 
ATOM     51  N   UNL A   1      44.033  31.492  29.441  1.00  0.00    -0.354 N 
ATOM     52  N   UNL A   1      41.198  32.116  29.963  1.00  0.00    -0.248 NA
ATOM     53  C   UNL A   1      39.553  33.599  30.714  1.00  0.00     0.031 C 
ATOM     54  C   UNL A   1      45.546  33.063  29.854  1.00  0.00     0.029 A 
ATOM     55  C   UNL A   1      44.188  32.789  29.903  1.00  0.00     0.049 A 
ATOM     56  H   UNL A   1      43.173  31.017  29.372  1.00  0.00     0.167 HD
ATOM     57  C   UNL A   1      41.800  33.315  30.339  1.00  0.00     0.074 A 
ATOM     58  C   UNL A   1      40.734  34.200  30.762  1.00  0.00     0.031 C 
ATOM     59  C   UNL A   1      43.115  33.654  30.332  1.00  0.00     0.034 A 
BRANCH  46  60
ATOM     60  C   UNL A   1      46.889  29.140  28.353  1.00  0.00     0.023 A 
ATOM     61  C   UNL A   1      47.378  28.913  27.055  1.00  0.00     0.031 A 
ATOM     62  C   UNL A   1      47.750  28.874  29.434  1.00  0.00     0.131 A 
ATOM     63  C   UNL A   1      48.655  28.361  26.871  1.00  0.00     0.055 A 
ATOM     64  C   UNL A   1      49.051  28.403  29.241  1.00  0.00     0.041 A 
ATOM     65  F   UNL A   1      47.335  29.051  30.698  1.00  0.00    -0.206 F 
ATOM     66  C   UNL A   1      49.505  28.128  27.954  1.00  0.00     0.022 A 
BRANCH  63  67
ATOM     67  S   UNL A   1      49.130  27.810  25.210  1.00  0.00     0.124 S 
ATOM     68  O   UNL A   1      49.368  26.385  25.429  1.00  0.00    -0.237 OA
ATOM     69  O   UNL A   1      47.953  28.147  24.418  1.00  0.00    -0.237 OA
ATOM     70  O   UNL A   1      50.326  28.596  24.916  1.00  0.00    -0.744 OA
ENDBRANCH  63  67
ENDBRANCH  46  60
BRANCH  47  71
ATOM     71  C   UNL A   1      37.372  31.695  30.241  1.00  0.00     0.023 A 
ATOM     72  C   UNL A   1      36.485  32.159  29.256  1.00  0.00     0.031 A 
ATOM     73  C   UNL A   1      36.906  31.617  31.564  1.00  0.00     0.131 A 
ATOM     74  C   UNL A   1      35.192  32.568  29.616  1.00  0.00     0.055 A 
ATOM     75  C   UNL A   1      35.603  31.977  31.910  1.00  0.00     0.041 A 
ATOM     76  F   UNL A   1      37.712  31.173  32.543  1.00  0.00    -0.206 F 
ATOM     77  C   UNL A   1      34.741  32.469  30.935  1.00  0.00     0.022 A 
BRANCH  74  78
ATOM     78  S   UNL A   1      34.130  33.308  28.345  1.00  0.00     0.124 S 
ATOM     79  O   UNL A   1      33.527  32.127  27.738  1.00  0.00    -0.237 OA
ATOM     80  O   UNL A   1      33.242  34.144  29.144  1.00  0.00    -0.237 OA
ATOM     81  O   UNL A   1      35.072  34.035  27.497  1.00  0.00    -0.744 OA
ENDBRANCH  74  78
ENDBRANCH  47  71
BRANCH  59  82
ATOM     82  C   UNL A   1      43.457  35.061  30.755  1.00  0.00     0.023 A 
ATOM     83  C   UNL A   1      43.572  35.418  32.109  1.00  0.00     0.031 A 
ATOM     84  C   UNL A   1      43.660  36.059  29.786  1.00  0.00     0.131 A 
ATOM     85  C   UNL A   1      43.829  36.752  32.459  1.00  0.00     0.055 A 
ATOM     86  C   UNL A   1      43.973  37.372  30.138  1.00  0.00     0.041 A 
ATOM     87  F   UNL A   1      43.560  35.772  28.478  1.00  0.00    -0.206 F 
ATOM     88  C   UNL A   1      44.046  37.728  31.482  1.00  0.00     0.022 A 
BRANCH  85  89
ATOM     89  S   UNL A   1      43.790  37.216  34.212  1.00  0.00     0.124 S 
ATOM     90  O   UNL A   1      45.138  37.733  34.419  1.00  0.00    -0.237 OA
ATOM     91  O   UNL A   1      42.715  38.204  34.249  1.00  0.00    -0.237 OA
ATOM     92  O   UNL A   1      43.497  35.957  34.895  1.00  0.00    -0.744 OA
ENDBRANCH  85  89
ENDBRANCH  59  82
ENDBRANCH  33  34
ENDBRANCH  25  28
ENDBRANCH  23  24
ENDBRANCH   1  23
TORSDOF 16
ENDMDL
