MODEL 1
REMARK VINA RESULT:     -11.2      0.000      0.000
REMARK SMILES Cc1cc(NCc2ccc(C(=O)NCCCNC(=O)c3ccc(-c4c5nc(c(-c6cc(S(=O)(=O)[O-])ccc6F)c6ccc([nH]6)c(-c6cc(S(=O)(=O)[O-])ccc6F)c6nc(c(-c7cc(S(=O)(=O)[O-])ccc7F)c7ccc4[nH]7)C=C6)C=C5)cc3)o2)ccc1Br
REMARK SMILES IDX 15 1 14 2 13 3 11 4 12 5 10 7 7 8 8 9 83 10 9 11 6 12 5 13
REMARK SMILES IDX 4 15 1 16 2 17 3 18 86 19 85 20 87 21 84 22 16 23 17 24
REMARK SMILES IDX 18 25 19 27 20 28 21 29 82 30 22 31 81 32 23 33 24 34 25 35
REMARK SMILES IDX 75 36 26 37 80 38 74 39 76 40 27 41 79 42 73 43 72 44 28 46
REMARK SMILES IDX 60 47 40 48 59 49 41 50 44 51 58 52 77 53 42 54 43 55 57 57
REMARK SMILES IDX 78 58 45 59 29 60 30 61 38 62 31 63 37 64 39 65 36 66 32 67
REMARK SMILES IDX 33 68 34 69 35 70 61 71 62 72 70 73 63 74 69 75 71 76 68 77
REMARK SMILES IDX 64 78 65 79 66 80 67 81 46 82 47 83 55 84 48 85 54 86 56 87
REMARK SMILES IDX 53 88 49 89 50 90 51 91 52 92
REMARK H PARENT 13 6 5 14 17 26 76 45 44 56
REMARK Flexibility Score: inf
ROOT
ATOM      1  C   UNL A   1      40.867  21.009  27.562  1.00  0.00     0.042 C 
ENDROOT
BRANCH   1   2
ATOM      2  C   UNL A   1      42.143  20.185  27.713  1.00  0.00     0.118 C 
BRANCH   2   3
ATOM      3  N   UNL A   1      42.067  18.930  26.994  1.00  0.00    -0.349 N 
ATOM      4  C   UNL A   1      42.906  18.371  26.058  1.00  0.00     0.286 C 
ATOM      5  O   UNL A   1      42.653  17.206  25.745  1.00  0.00    -0.266 OA
ATOM      6  H   UNL A   1      41.279  18.382  27.214  1.00  0.00     0.163 HD
BRANCH   4   7
ATOM      7  C   UNL A   1      44.026  19.110  25.502  1.00  0.00     0.191 A 
ATOM      8  C   UNL A   1      44.897  20.909  24.538  1.00  0.00     0.124 A 
ATOM      9  C   UNL A   1      45.941  20.035  24.733  1.00  0.00     0.048 A 
ATOM     10  O   UNL A   1      43.739  20.354  24.991  1.00  0.00    -0.454 OA
ATOM     11  C   UNL A   1      45.387  18.893  25.370  1.00  0.00     0.056 A 
BRANCH   8  12
ATOM     12  C   UNL A   1      44.786  22.270  23.945  1.00  0.00     0.188 C 
BRANCH  12  13
ATOM     13  N   UNL A   1      43.950  23.190  24.698  1.00  0.00    -0.378 N 
ATOM     14  H   UNL A   1      43.148  23.533  24.242  1.00  0.00     0.161 HD
BRANCH  13  15
ATOM     15  C   UNL A   1      44.168  23.632  25.987  1.00  0.00     0.035 A 
ATOM     16  C   UNL A   1      47.205  24.943  27.907  1.00  0.00     0.045 C 
ATOM     17  C   UNL A   1      45.804  24.476  27.631  1.00  0.00    -0.035 A 
ATOM     18  C   UNL A   1      45.454  24.088  26.323  1.00  0.00     0.030 A 
ATOM     19  C   UNL A   1      44.827  24.394  28.629  1.00  0.00     0.021 A 
ATOM     20  C   UNL A   1      43.544  23.941  28.319  1.00  0.00     0.018 A 
ATOM     21  Br  UNL A   1      45.184  24.870  30.432  1.00  0.00    -0.051 Br
ATOM     22  C   UNL A   1      43.225  23.556  27.012  1.00  0.00     0.027 A 
ENDBRANCH  13  15
ENDBRANCH  12  13
ENDBRANCH   8  12
ENDBRANCH   4   7
ENDBRANCH   2   3
ENDBRANCH   1   2
BRANCH   1  23
ATOM     23  C   UNL A   1      40.600  21.463  26.127  1.00  0.00     0.118 C 
BRANCH  23  24
ATOM     24  N   UNL A   1      39.179  21.672  25.874  1.00  0.00    -0.352 N 
ATOM     25  C   UNL A   1      38.358  22.723  26.197  1.00  0.00     0.251 C 
ATOM     26  H   UNL A   1      38.736  20.937  25.391  1.00  0.00     0.163 HD
ATOM     27  O   UNL A   1      37.143  22.573  26.101  1.00  0.00    -0.269 OA
BRANCH  25  28
ATOM     28  C   UNL A   1      38.912  24.014  26.663  1.00  0.00     0.039 A 
ATOM     29  C   UNL A   1      39.606  24.817  25.752  1.00  0.00     0.014 A 
ATOM     30  C   UNL A   1      38.806  24.414  27.998  1.00  0.00     0.014 A 
ATOM     31  C   UNL A   1      40.142  26.040  26.165  1.00  0.00     0.010 A 
ATOM     32  C   UNL A   1      39.276  25.665  28.392  1.00  0.00     0.010 A 
ATOM     33  C   UNL A   1      39.954  26.489  27.482  1.00  0.00    -0.014 A 
BRANCH  33  34
ATOM     34  C   UNL A   1      40.468  27.813  27.924  1.00  0.00     0.031 A 
ATOM     35  C   UNL A   1      41.928  28.148  27.782  1.00  0.00     0.074 A 
ATOM     36  C   UNL A   1      39.627  28.693  28.500  1.00  0.00     0.049 A 
ATOM     37  N   UNL A   1      42.575  29.221  28.160  1.00  0.00    -0.248 NA
ATOM     38  C   UNL A   1      42.777  27.123  27.159  1.00  0.00     0.031 C 
ATOM     39  C   UNL A   1      38.197  28.474  28.721  1.00  0.00     0.029 A 
ATOM     40  N   UNL A   1      39.852  29.949  29.007  1.00  0.00    -0.354 N 
ATOM     41  C   UNL A   1      43.908  28.999  27.826  1.00  0.00     0.074 A 
ATOM     42  C   UNL A   1      43.981  27.656  27.289  1.00  0.00     0.031 C 
ATOM     43  C   UNL A   1      37.665  29.572  29.280  1.00  0.00     0.029 A 
ATOM     44  C   UNL A   1      38.721  30.553  29.505  1.00  0.00     0.049 A 
ATOM     45  H   UNL A   1      40.739  30.377  29.013  1.00  0.00     0.167 HD
ATOM     46  C   UNL A   1      44.965  29.844  27.932  1.00  0.00     0.034 A 
ATOM     47  C   UNL A   1      38.556  31.760  30.081  1.00  0.00     0.034 A 
ATOM     48  C   UNL A   1      44.874  31.179  28.477  1.00  0.00     0.049 A 
ATOM     49  C   UNL A   1      39.752  32.661  30.240  1.00  0.00     0.074 A 
ATOM     50  C   UNL A   1      45.869  32.133  28.603  1.00  0.00     0.029 A 
ATOM     51  N   UNL A   1      43.717  31.746  28.999  1.00  0.00    -0.354 N 
ATOM     52  N   UNL A   1      41.000  32.454  29.886  1.00  0.00    -0.248 NA
ATOM     53  C   UNL A   1      39.513  33.966  30.869  1.00  0.00     0.031 C 
ATOM     54  C   UNL A   1      45.332  33.246  29.262  1.00  0.00     0.029 A 
ATOM     55  C   UNL A   1      43.982  33.022  29.477  1.00  0.00     0.049 A 
ATOM     56  H   UNL A   1      42.837  31.306  29.027  1.00  0.00     0.167 HD
ATOM     57  C   UNL A   1      41.687  33.616  30.220  1.00  0.00     0.074 A 
ATOM     58  C   UNL A   1      40.711  34.523  30.791  1.00  0.00     0.031 C 
ATOM     59  C   UNL A   1      43.004  33.910  30.063  1.00  0.00     0.034 A 
BRANCH  46  60
ATOM     60  C   UNL A   1      46.309  29.324  27.469  1.00  0.00     0.023 A 
ATOM     61  C   UNL A   1      46.552  29.017  26.117  1.00  0.00     0.031 A 
ATOM     62  C   UNL A   1      47.338  29.066  28.392  1.00  0.00     0.131 A 
ATOM     63  C   UNL A   1      47.741  28.373  25.745  1.00  0.00     0.055 A 
ATOM     64  C   UNL A   1      48.561  28.515  27.999  1.00  0.00     0.041 A 
ATOM     65  F   UNL A   1      47.165  29.319  29.699  1.00  0.00    -0.206 F 
ATOM     66  C   UNL A   1      48.760  28.144  26.671  1.00  0.00     0.022 A 
BRANCH  63  67
ATOM     67  S   UNL A   1      47.854  27.666  24.077  1.00  0.00     0.124 S 
ATOM     68  O   UNL A   1      49.262  27.893  23.756  1.00  0.00    -0.237 OA
ATOM     69  O   UNL A   1      47.463  26.278  24.296  1.00  0.00    -0.237 OA
ATOM     70  O   UNL A   1      46.910  28.467  23.300  1.00  0.00    -0.744 OA
ENDBRANCH  63  67
ENDBRANCH  46  60
BRANCH  47  71
ATOM     71  C   UNL A   1      37.207  32.196  30.538  1.00  0.00     0.023 A 
ATOM     72  C   UNL A   1      36.303  32.787  29.638  1.00  0.00     0.031 A 
ATOM     73  C   UNL A   1      36.808  32.054  31.878  1.00  0.00     0.131 A 
ATOM     74  C   UNL A   1      35.061  33.249  30.099  1.00  0.00     0.055 A 
ATOM     75  C   UNL A   1      35.552  32.471  32.320  1.00  0.00     0.041 A 
ATOM     76  F   UNL A   1      37.631  31.489  32.775  1.00  0.00    -0.206 F 
ATOM     77  C   UNL A   1      34.674  33.083  31.430  1.00  0.00     0.022 A 
BRANCH  74  78
ATOM     78  S   UNL A   1      33.981  34.131  28.939  1.00  0.00     0.124 S 
ATOM     79  O   UNL A   1      33.635  33.076  27.995  1.00  0.00    -0.237 OA
ATOM     80  O   UNL A   1      32.907  34.588  29.814  1.00  0.00    -0.237 OA
ATOM     81  O   UNL A   1      34.841  35.187  28.410  1.00  0.00    -0.744 OA
ENDBRANCH  74  78
ENDBRANCH  47  71
BRANCH  59  82
ATOM     82  C   UNL A   1      43.447  35.294  30.481  1.00  0.00     0.023 A 
ATOM     83  C   UNL A   1      43.407  36.385  29.593  1.00  0.00     0.031 A 
ATOM     84  C   UNL A   1      43.946  35.515  31.776  1.00  0.00     0.131 A 
ATOM     85  C   UNL A   1      43.916  37.630  29.993  1.00  0.00     0.055 A 
ATOM     86  C   UNL A   1      44.391  36.772  32.189  1.00  0.00     0.041 A 
ATOM     87  F   UNL A   1      44.012  34.510  32.664  1.00  0.00    -0.206 F 
ATOM     88  C   UNL A   1      44.392  37.834  31.290  1.00  0.00     0.022 A 
BRANCH  85  89
ATOM     89  S   UNL A   1      44.050  38.952  28.758  1.00  0.00     0.124 S 
ATOM     90  O   UNL A   1      44.338  38.201  27.540  1.00  0.00    -0.237 OA
ATOM     91  O   UNL A   1      42.733  39.576  28.825  1.00  0.00    -0.237 OA
ATOM     92  O   UNL A   1      45.152  39.775  29.254  1.00  0.00    -0.744 OA
ENDBRANCH  85  89
ENDBRANCH  59  82
ENDBRANCH  33  34
ENDBRANCH  25  28
ENDBRANCH  23  24
ENDBRANCH   1  23
TORSDOF 16
ENDMDL
MODEL 2
REMARK VINA RESULT:     -10.9      1.993      2.350
REMARK SMILES Cc1cc(NCc2ccc(C(=O)NCCCNC(=O)c3ccc(-c4c5nc(c(-c6cc(S(=O)(=O)[O-])ccc6F)c6ccc([nH]6)c(-c6cc(S(=O)(=O)[O-])ccc6F)c6nc(c(-c7cc(S(=O)(=O)[O-])ccc7F)c7ccc4[nH]7)C=C6)C=C5)cc3)o2)ccc1Br
REMARK SMILES IDX 15 1 14 2 13 3 11 4 12 5 10 7 7 8 8 9 83 10 9 11 6 12 5 13
REMARK SMILES IDX 4 15 1 16 2 17 3 18 86 19 85 20 87 21 84 22 16 23 17 24
REMARK SMILES IDX 18 25 19 27 20 28 21 29 82 30 22 31 81 32 23 33 24 34 25 35
REMARK SMILES IDX 75 36 26 37 80 38 74 39 76 40 27 41 79 42 73 43 72 44 28 46
REMARK SMILES IDX 60 47 40 48 59 49 41 50 44 51 58 52 77 53 42 54 43 55 57 57
REMARK SMILES IDX 78 58 45 59 29 60 30 61 38 62 31 63 37 64 39 65 36 66 32 67
REMARK SMILES IDX 33 68 34 69 35 70 61 71 62 72 70 73 63 74 69 75 71 76 68 77
REMARK SMILES IDX 64 78 65 79 66 80 67 81 46 82 47 83 55 84 48 85 54 86 56 87
REMARK SMILES IDX 53 88 49 89 50 90 51 91 52 92
REMARK H PARENT 13 6 5 14 17 26 76 45 44 56
REMARK Flexibility Score: inf
ROOT
ATOM      1  C   UNL A   1      40.837  21.027  27.475  1.00  0.00     0.042 C 
ENDROOT
BRANCH   1   2
ATOM      2  C   UNL A   1      42.121  20.218  27.643  1.00  0.00     0.118 C 
BRANCH   2   3
ATOM      3  N   UNL A   1      42.054  18.945  26.956  1.00  0.00    -0.349 N 
ATOM      4  C   UNL A   1      42.897  18.368  26.034  1.00  0.00     0.286 C 
ATOM      5  O   UNL A   1      42.652  17.194  25.749  1.00  0.00    -0.266 OA
ATOM      6  H   UNL A   1      41.269  18.397  27.188  1.00  0.00     0.163 HD
BRANCH   4   7
ATOM      7  C   UNL A   1      44.012  19.100  25.460  1.00  0.00     0.191 A 
ATOM      8  C   UNL A   1      44.912  20.941  24.608  1.00  0.00     0.124 A 
ATOM      9  C   UNL A   1      45.914  19.998  24.628  1.00  0.00     0.048 A 
ATOM     10  O   UNL A   1      43.762  20.403  25.100  1.00  0.00    -0.454 OA
ATOM     11  C   UNL A   1      45.343  18.828  25.194  1.00  0.00     0.056 A 
BRANCH   8  12
ATOM     12  C   UNL A   1      44.838  22.359  24.162  1.00  0.00     0.188 C 
BRANCH  12  13
ATOM     13  N   UNL A   1      45.673  23.275  24.921  1.00  0.00    -0.378 N 
ATOM     14  H   UNL A   1      46.393  23.730  24.427  1.00  0.00     0.161 HD
BRANCH  13  15
ATOM     15  C   UNL A   1      45.559  23.570  26.264  1.00  0.00     0.035 A 
ATOM     16  C   UNL A   1      42.680  23.601  28.781  1.00  0.00     0.045 C 
ATOM     17  C   UNL A   1      44.058  23.782  28.212  1.00  0.00    -0.035 A 
ATOM     18  C   UNL A   1      44.300  23.424  26.872  1.00  0.00     0.030 A 
ATOM     19  C   UNL A   1      45.118  24.308  28.958  1.00  0.00     0.021 A 
ATOM     20  C   UNL A   1      46.376  24.466  28.375  1.00  0.00     0.018 A 
ATOM     21  Br  UNL A   1      44.910  24.846  30.767  1.00  0.00    -0.051 Br
ATOM     22  C   UNL A   1      46.587  24.107  27.039  1.00  0.00     0.027 A 
ENDBRANCH  13  15
ENDBRANCH  12  13
ENDBRANCH   8  12
ENDBRANCH   4   7
ENDBRANCH   2   3
ENDBRANCH   1   2
BRANCH   1  23
ATOM     23  C   UNL A   1      40.741  21.746  26.129  1.00  0.00     0.118 C 
BRANCH  23  24
ATOM     24  N   UNL A   1      39.360  22.017  25.751  1.00  0.00    -0.352 N 
ATOM     25  C   UNL A   1      38.525  23.051  26.093  1.00  0.00     0.251 C 
ATOM     26  H   UNL A   1      38.960  21.347  25.149  1.00  0.00     0.163 HD
ATOM     27  O   UNL A   1      37.325  22.944  25.854  1.00  0.00    -0.269 OA
BRANCH  25  28
ATOM     28  C   UNL A   1      39.045  24.272  26.748  1.00  0.00     0.039 A 
ATOM     29  C   UNL A   1      39.756  25.199  25.977  1.00  0.00     0.014 A 
ATOM     30  C   UNL A   1      38.891  24.486  28.120  1.00  0.00     0.014 A 
ATOM     31  C   UNL A   1      40.261  26.359  26.570  1.00  0.00     0.010 A 
ATOM     32  C   UNL A   1      39.330  25.677  28.696  1.00  0.00     0.010 A 
ATOM     33  C   UNL A   1      40.025  26.624  27.929  1.00  0.00    -0.014 A 
BRANCH  33  34
ATOM     34  C   UNL A   1      40.506  27.880  28.563  1.00  0.00     0.031 A 
ATOM     35  C   UNL A   1      41.980  28.151  28.692  1.00  0.00     0.074 A 
ATOM     36  C   UNL A   1      39.613  28.754  29.067  1.00  0.00     0.049 A 
ATOM     37  N   UNL A   1      42.594  29.156  29.263  1.00  0.00    -0.248 NA
ATOM     38  C   UNL A   1      42.883  27.137  28.130  1.00  0.00     0.031 C 
ATOM     39  C   UNL A   1      38.158  28.590  29.029  1.00  0.00     0.029 A 
ATOM     40  N   UNL A   1      39.795  29.952  29.710  1.00  0.00    -0.354 N 
ATOM     41  C   UNL A   1      43.954  28.894  29.135  1.00  0.00     0.074 A 
ATOM     42  C   UNL A   1      44.067  27.596  28.503  1.00  0.00     0.031 C 
ATOM     43  C   UNL A   1      37.581  29.666  29.587  1.00  0.00     0.029 A 
ATOM     44  C   UNL A   1      38.620  30.571  30.067  1.00  0.00     0.049 A 
ATOM     45  H   UNL A   1      40.683  30.332  29.899  1.00  0.00     0.167 HD
ATOM     46  C   UNL A   1      45.009  29.673  29.486  1.00  0.00     0.034 A 
ATOM     47  C   UNL A   1      38.405  31.735  30.710  1.00  0.00     0.034 A 
ATOM     48  C   UNL A   1      44.876  30.963  30.122  1.00  0.00     0.049 A 
ATOM     49  C   UNL A   1      39.590  32.559  31.141  1.00  0.00     0.074 A 
ATOM     50  C   UNL A   1      45.871  31.853  30.494  1.00  0.00     0.029 A 
ATOM     51  N   UNL A   1      43.670  31.545  30.495  1.00  0.00    -0.354 N 
ATOM     52  N   UNL A   1      40.870  32.317  30.981  1.00  0.00    -0.248 NA
ATOM     53  C   UNL A   1      39.296  33.820  31.833  1.00  0.00     0.031 C 
ATOM     54  C   UNL A   1      45.272  32.935  31.149  1.00  0.00     0.029 A 
ATOM     55  C   UNL A   1      43.898  32.764  31.119  1.00  0.00     0.049 A 
ATOM     56  H   UNL A   1      42.782  31.150  30.339  1.00  0.00     0.167 HD
ATOM     57  C   UNL A   1      41.534  33.413  31.523  1.00  0.00     0.074 A 
ATOM     58  C   UNL A   1      40.510  34.320  32.003  1.00  0.00     0.031 C 
ATOM     59  C   UNL A   1      42.868  33.651  31.611  1.00  0.00     0.034 A 
BRANCH  46  60
ATOM     60  C   UNL A   1      46.391  29.124  29.207  1.00  0.00     0.023 A 
ATOM     61  C   UNL A   1      46.943  29.144  27.912  1.00  0.00     0.031 A 
ATOM     62  C   UNL A   1      47.142  28.512  30.227  1.00  0.00     0.131 A 
ATOM     63  C   UNL A   1      48.146  28.472  27.649  1.00  0.00     0.055 A 
ATOM     64  C   UNL A   1      48.389  27.930  29.978  1.00  0.00     0.041 A 
ATOM     65  F   UNL A   1      46.666  28.443  31.480  1.00  0.00    -0.206 F 
ATOM     66  C   UNL A   1      48.887  27.888  28.678  1.00  0.00     0.022 A 
BRANCH  63  67
ATOM     67  S   UNL A   1      48.624  28.205  25.920  1.00  0.00     0.124 S 
ATOM     68  O   UNL A   1      47.399  28.578  25.215  1.00  0.00    -0.237 OA
ATOM     69  O   UNL A   1      49.754  29.113  25.761  1.00  0.00    -0.237 OA
ATOM     70  O   UNL A   1      48.953  26.782  25.869  1.00  0.00    -0.744 OA
ENDBRANCH  63  67
ENDBRANCH  46  60
BRANCH  47  71
ATOM     71  C   UNL A   1      37.015  32.202  30.975  1.00  0.00     0.023 A 
ATOM     72  C   UNL A   1      36.234  32.747  29.942  1.00  0.00     0.031 A 
ATOM     73  C   UNL A   1      36.455  32.135  32.262  1.00  0.00     0.131 A 
ATOM     74  C   UNL A   1      34.951  33.239  30.222  1.00  0.00     0.055 A 
ATOM     75  C   UNL A   1      35.158  32.581  32.524  1.00  0.00     0.041 A 
ATOM     76  F   UNL A   1      37.155  31.615  33.282  1.00  0.00    -0.206 F 
ATOM     77  C   UNL A   1      34.402  33.147  31.502  1.00  0.00     0.022 A 
BRANCH  74  78
ATOM     78  S   UNL A   1      34.030  34.062  28.894  1.00  0.00     0.124 S 
ATOM     79  O   UNL A   1      33.735  32.947  28.001  1.00  0.00    -0.237 OA
ATOM     80  O   UNL A   1      32.893  34.624  29.616  1.00  0.00    -0.237 OA
ATOM     81  O   UNL A   1      34.982  35.042  28.377  1.00  0.00    -0.744 OA
ENDBRANCH  74  78
ENDBRANCH  47  71
BRANCH  59  82
ATOM     82  C   UNL A   1      43.286  34.973  32.214  1.00  0.00     0.023 A 
ATOM     83  C   UNL A   1      43.506  35.121  33.596  1.00  0.00     0.031 A 
ATOM     84  C   UNL A   1      43.433  36.107  31.397  1.00  0.00     0.131 A 
ATOM     85  C   UNL A   1      43.800  36.387  34.125  1.00  0.00     0.055 A 
ATOM     86  C   UNL A   1      43.790  37.351  31.920  1.00  0.00     0.041 A 
ATOM     87  F   UNL A   1      43.231  36.026  30.072  1.00  0.00    -0.206 F 
ATOM     88  C   UNL A   1      43.959  37.500  33.294  1.00  0.00     0.022 A 
BRANCH  85  89
ATOM     89  S   UNL A   1      43.862  36.585  35.927  1.00  0.00     0.124 S 
ATOM     90  O   UNL A   1      45.143  35.967  36.256  1.00  0.00    -0.237 OA
ATOM     91  O   UNL A   1      43.794  38.034  36.084  1.00  0.00    -0.237 OA
ATOM     92  O   UNL A   1      42.684  35.856  36.393  1.00  0.00    -0.744 OA
ENDBRANCH  85  89
ENDBRANCH  59  82
ENDBRANCH  33  34
ENDBRANCH  25  28
ENDBRANCH  23  24
ENDBRANCH   1  23
TORSDOF 16
ENDMDL
MODEL 3
REMARK VINA RESULT:     -10.7      5.102     12.485
REMARK SMILES Cc1cc(NCc2ccc(C(=O)NCCCNC(=O)c3ccc(-c4c5nc(c(-c6cc(S(=O)(=O)[O-])ccc6F)c6ccc([nH]6)c(-c6cc(S(=O)(=O)[O-])ccc6F)c6nc(c(-c7cc(S(=O)(=O)[O-])ccc7F)c7ccc4[nH]7)C=C6)C=C5)cc3)o2)ccc1Br
REMARK SMILES IDX 15 1 14 2 13 3 11 4 12 5 10 7 7 8 8 9 83 10 9 11 6 12 5 13
REMARK SMILES IDX 4 15 1 16 2 17 3 18 86 19 85 20 87 21 84 22 16 23 17 24
REMARK SMILES IDX 18 25 19 27 20 28 21 29 82 30 22 31 81 32 23 33 24 34 25 35
REMARK SMILES IDX 75 36 26 37 80 38 74 39 76 40 27 41 79 42 73 43 72 44 28 46
REMARK SMILES IDX 60 47 40 48 59 49 41 50 44 51 58 52 77 53 42 54 43 55 57 57
REMARK SMILES IDX 78 58 45 59 29 60 30 61 38 62 31 63 37 64 39 65 36 66 32 67
REMARK SMILES IDX 33 68 34 69 35 70 61 71 62 72 70 73 63 74 69 75 71 76 68 77
REMARK SMILES IDX 64 78 65 79 66 80 67 81 46 82 47 83 55 84 48 85 54 86 56 87
REMARK SMILES IDX 53 88 49 89 50 90 51 91 52 92
REMARK H PARENT 13 6 5 14 17 26 76 45 44 56
REMARK Flexibility Score: inf
ROOT
ATOM      1  C   UNL A   1      33.090  35.127  28.748  1.00  0.00     0.042 C 
ENDROOT
BRANCH   1   2
ATOM      2  C   UNL A   1      33.690  36.263  29.573  1.00  0.00     0.118 C 
BRANCH   2   3
ATOM      3  N   UNL A   1      32.839  36.632  30.686  1.00  0.00    -0.349 N 
ATOM      4  C   UNL A   1      32.892  36.291  32.018  1.00  0.00     0.286 C 
ATOM      5  O   UNL A   1      32.114  36.900  32.756  1.00  0.00    -0.266 OA
ATOM      6  H   UNL A   1      32.095  37.232  30.449  1.00  0.00     0.163 HD
BRANCH   4   7
ATOM      7  C   UNL A   1      33.824  35.292  32.511  1.00  0.00     0.191 A 
ATOM      8  C   UNL A   1      35.883  34.546  32.869  1.00  0.00     0.124 A 
ATOM      9  C   UNL A   1      35.035  33.596  33.389  1.00  0.00     0.048 A 
ATOM     10  O   UNL A   1      35.159  35.566  32.331  1.00  0.00    -0.454 OA
ATOM     11  C   UNL A   1      33.719  34.084  33.179  1.00  0.00     0.056 A 
BRANCH   8  12
ATOM     12  C   UNL A   1      37.364  34.667  32.770  1.00  0.00     0.188 C 
BRANCH  12  13
ATOM     13  N   UNL A   1      37.878  34.686  31.411  1.00  0.00    -0.378 N 
ATOM     14  H   UNL A   1      37.214  34.700  30.686  1.00  0.00     0.161 HD
BRANCH  13  15
ATOM     15  C   UNL A   1      39.207  34.685  31.035  1.00  0.00     0.035 A 
ATOM     16  C   UNL A   1      41.101  35.573  27.833  1.00  0.00     0.045 C 
ATOM     17  C   UNL A   1      40.842  35.085  29.231  1.00  0.00    -0.035 A 
ATOM     18  C   UNL A   1      39.531  35.130  29.742  1.00  0.00     0.030 A 
ATOM     19  C   UNL A   1      41.854  34.571  30.048  1.00  0.00     0.021 A 
ATOM     20  C   UNL A   1      41.555  34.120  31.334  1.00  0.00     0.018 A 
ATOM     21  Br  UNL A   1      43.656  34.441  29.463  1.00  0.00    -0.051 Br
ATOM     22  C   UNL A   1      40.242  34.170  31.815  1.00  0.00     0.027 A 
ENDBRANCH  13  15
ENDBRANCH  12  13
ENDBRANCH   8  12
ENDBRANCH   4   7
ENDBRANCH   2   3
ENDBRANCH   1   2
BRANCH   1  23
ATOM     23  C   UNL A   1      33.899  33.832  28.813  1.00  0.00     0.118 C 
BRANCH  23  24
ATOM     24  N   UNL A   1      33.335  32.791  27.963  1.00  0.00    -0.352 N 
ATOM     25  C   UNL A   1      33.875  31.609  27.518  1.00  0.00     0.251 C 
ATOM     26  H   UNL A   1      32.415  32.964  27.657  1.00  0.00     0.163 HD
ATOM     27  O   UNL A   1      33.306  31.007  26.611  1.00  0.00    -0.269 OA
BRANCH  25  28
ATOM     28  C   UNL A   1      35.121  31.067  28.104  1.00  0.00     0.039 A 
ATOM     29  C   UNL A   1      36.302  31.806  27.977  1.00  0.00     0.014 A 
ATOM     30  C   UNL A   1      35.150  29.815  28.725  1.00  0.00     0.014 A 
ATOM     31  C   UNL A   1      37.494  31.316  28.518  1.00  0.00     0.010 A 
ATOM     32  C   UNL A   1      36.321  29.361  29.328  1.00  0.00     0.010 A 
ATOM     33  C   UNL A   1      37.508  30.103  29.226  1.00  0.00    -0.014 A 
BRANCH  33  34
ATOM     34  C   UNL A   1      38.754  29.595  29.858  1.00  0.00     0.031 A 
ATOM     35  C   UNL A   1      39.193  30.114  31.200  1.00  0.00     0.074 A 
ATOM     36  C   UNL A   1      39.517  28.703  29.197  1.00  0.00     0.049 A 
ATOM     37  N   UNL A   1      40.274  29.838  31.885  1.00  0.00    -0.248 NA
ATOM     38  C   UNL A   1      38.310  31.098  31.842  1.00  0.00     0.031 C 
ATOM     39  C   UNL A   1      39.214  28.147  27.877  1.00  0.00     0.029 A 
ATOM     40  N   UNL A   1      40.704  28.107  29.544  1.00  0.00    -0.354 N 
ATOM     41  C   UNL A   1      40.205  30.619  33.035  1.00  0.00     0.074 A 
ATOM     42  C   UNL A   1      39.014  31.433  32.910  1.00  0.00     0.031 C 
ATOM     43  C   UNL A   1      40.167  27.262  27.544  1.00  0.00     0.029 A 
ATOM     44  C   UNL A   1      41.174  27.224  28.599  1.00  0.00     0.049 A 
ATOM     45  H   UNL A   1      41.174  28.294  30.388  1.00  0.00     0.167 HD
ATOM     46  C   UNL A   1      41.040  30.634  34.105  1.00  0.00     0.034 A 
ATOM     47  C   UNL A   1      42.292  26.472  28.585  1.00  0.00     0.034 A 
ATOM     48  C   UNL A   1      42.227  29.818  34.208  1.00  0.00     0.049 A 
ATOM     49  C   UNL A   1      43.234  26.546  29.758  1.00  0.00     0.074 A 
ATOM     50  C   UNL A   1      43.128  29.728  35.256  1.00  0.00     0.029 A 
ATOM     51  N   UNL A   1      42.688  28.958  33.219  1.00  0.00    -0.354 N 
ATOM     52  N   UNL A   1      43.138  27.260  30.855  1.00  0.00    -0.248 NA
ATOM     53  C   UNL A   1      44.433  25.701  29.691  1.00  0.00     0.031 C 
ATOM     54  C   UNL A   1      44.165  28.868  34.873  1.00  0.00     0.029 A 
ATOM     55  C   UNL A   1      43.875  28.358  33.618  1.00  0.00     0.049 A 
ATOM     56  H   UNL A   1      42.238  28.796  32.358  1.00  0.00     0.167 HD
ATOM     57  C   UNL A   1      44.248  26.924  31.624  1.00  0.00     0.074 A 
ATOM     58  C   UNL A   1      44.991  25.935  30.869  1.00  0.00     0.031 C 
ATOM     59  C   UNL A   1      44.617  27.387  32.847  1.00  0.00     0.034 A 
BRANCH  46  60
ATOM     60  C   UNL A   1      40.698  31.589  35.228  1.00  0.00     0.023 A 
ATOM     61  C   UNL A   1      39.675  31.302  36.152  1.00  0.00     0.031 A 
ATOM     62  C   UNL A   1      41.349  32.830  35.342  1.00  0.00     0.131 A 
ATOM     63  C   UNL A   1      39.262  32.278  37.071  1.00  0.00     0.055 A 
ATOM     64  C   UNL A   1      40.999  33.760  36.325  1.00  0.00     0.041 A 
ATOM     65  F   UNL A   1      42.321  33.175  34.483  1.00  0.00    -0.206 F 
ATOM     66  C   UNL A   1      39.934  33.495  37.183  1.00  0.00     0.022 A 
BRANCH  63  67
ATOM     67  S   UNL A   1      37.714  32.007  37.978  1.00  0.00     0.124 S 
ATOM     68  O   UNL A   1      38.119  32.314  39.349  1.00  0.00    -0.237 OA
ATOM     69  O   UNL A   1      36.809  32.962  37.350  1.00  0.00    -0.237 OA
ATOM     70  O   UNL A   1      37.411  30.599  37.728  1.00  0.00    -0.744 OA
ENDBRANCH  63  67
ENDBRANCH  46  60
BRANCH  47  71
ATOM     71  C   UNL A   1      42.578  25.573  27.432  1.00  0.00     0.023 A 
ATOM     72  C   UNL A   1      42.054  24.271  27.393  1.00  0.00     0.031 A 
ATOM     73  C   UNL A   1      43.396  25.989  26.367  1.00  0.00     0.131 A 
ATOM     74  C   UNL A   1      42.385  23.417  26.330  1.00  0.00     0.055 A 
ATOM     75  C   UNL A   1      43.682  25.152  25.288  1.00  0.00     0.041 A 
ATOM     76  F   UNL A   1      43.915  27.227  26.352  1.00  0.00    -0.206 F 
ATOM     77  C   UNL A   1      43.184  23.852  25.271  1.00  0.00     0.022 A 
BRANCH  74  78
ATOM     78  S   UNL A   1      41.805  21.699  26.386  1.00  0.00     0.124 S 
ATOM     79  O   UNL A   1      42.790  21.026  25.549  1.00  0.00    -0.237 OA
ATOM     80  O   UNL A   1      41.867  21.404  27.814  1.00  0.00    -0.237 OA
ATOM     81  O   UNL A   1      40.457  21.777  25.827  1.00  0.00    -0.744 OA
ENDBRANCH  74  78
ENDBRANCH  47  71
BRANCH  59  82
ATOM     82  C   UNL A   1      45.863  26.786  33.455  1.00  0.00     0.023 A 
ATOM     83  C   UNL A   1      45.816  25.623  34.245  1.00  0.00     0.031 A 
ATOM     84  C   UNL A   1      47.111  27.404  33.266  1.00  0.00     0.131 A 
ATOM     85  C   UNL A   1      46.982  25.153  34.868  1.00  0.00     0.055 A 
ATOM     86  C   UNL A   1      48.280  26.895  33.834  1.00  0.00     0.041 A 
ATOM     87  F   UNL A   1      47.216  28.519  32.525  1.00  0.00    -0.206 F 
ATOM     88  C   UNL A   1      48.216  25.772  34.654  1.00  0.00     0.022 A 
BRANCH  85  89
ATOM     89  S   UNL A   1      46.847  23.785  36.052  1.00  0.00     0.124 S 
ATOM     90  O   UNL A   1      47.433  22.677  35.303  1.00  0.00    -0.237 OA
ATOM     91  O   UNL A   1      47.629  24.274  37.183  1.00  0.00    -0.237 OA
ATOM     92  O   UNL A   1      45.409  23.679  36.291  1.00  0.00    -0.744 OA
ENDBRANCH  85  89
ENDBRANCH  59  82
ENDBRANCH  33  34
ENDBRANCH  25  28
ENDBRANCH  23  24
ENDBRANCH   1  23
TORSDOF 16
ENDMDL
