MODEL 1
REMARK VINA RESULT:     -10.4      0.000      0.000
REMARK SMILES C[C@@H](Oc1cncc(C(=O)NCCCNC(=O)c2ccc(-c3c4nc(c(-c5cc(S(=O)(=O)[O-])ccc5F)c5ccc([nH]5)c(-c5cc(S(=O)(=O)[O-])ccc5F)c5nc(c(-c6cc(S(=O)(=O)[O-])ccc6F)c6ccc3[nH]6)C=C5)C=C4)cc2)n1)C(F)(F)F
REMARK SMILES IDX 13 1 12 2 11 3 9 4 10 5 8 7 4 8 5 9 81 10 6 11 7 12 3 13
REMARK SMILES IDX 2 14 1 15 82 16 83 17 84 18 85 19 14 20 15 21 16 22 17 24
REMARK SMILES IDX 18 25 19 26 80 27 20 28 79 29 21 30 22 31 23 32 73 33 24 34
REMARK SMILES IDX 78 35 72 36 74 37 25 38 77 39 71 40 70 41 26 43 58 44 38 45
REMARK SMILES IDX 57 46 39 47 42 48 56 49 75 50 40 51 41 52 55 54 76 55 43 56
REMARK SMILES IDX 27 57 28 58 36 59 29 60 35 61 37 62 34 63 30 64 31 65 32 66
REMARK SMILES IDX 33 67 59 68 60 69 68 70 61 71 67 72 69 73 66 74 62 75 63 76
REMARK SMILES IDX 64 77 65 78 44 79 45 80 53 81 46 82 52 83 54 84 51 85 47 86
REMARK SMILES IDX 48 87 49 88 50 89
REMARK H PARENT 11 6 15 23 74 42 42 53
REMARK Flexibility Score: inf
ROOT
ATOM      1  C   UNL A   1      35.389  33.596  28.308  1.00  0.00     0.042 C 
ENDROOT
BRANCH   1   2
ATOM      2  C   UNL A   1      35.439  35.008  28.885  1.00  0.00     0.118 C 
BRANCH   2   3
ATOM      3  N   UNL A   1      34.112  35.596  28.957  1.00  0.00    -0.351 N 
ATOM      4  C   UNL A   1      33.283  35.859  30.019  1.00  0.00     0.271 C 
ATOM      5  O   UNL A   1      32.177  36.346  29.762  1.00  0.00    -0.267 OA
ATOM      6  H   UNL A   1      33.740  35.855  28.083  1.00  0.00     0.163 HD
BRANCH   4   7
ATOM      7  C   UNL A   1      33.658  35.643  31.446  1.00  0.00     0.150 A 
ATOM      8  C   UNL A   1      34.383  34.348  33.188  1.00  0.00     0.233 A 
ATOM      9  C   UNL A   1      34.599  35.489  33.950  1.00  0.00     0.179 A 
ATOM     10  N   UNL A   1      33.911  34.395  31.925  1.00  0.00    -0.205 NA
ATOM     11  N   UNL A   1      34.291  36.729  33.512  1.00  0.00    -0.257 NA
ATOM     12  C   UNL A   1      33.824  36.778  32.238  1.00  0.00     0.145 A 
BRANCH   8  13
ATOM     13  O   UNL A   1      34.851  33.134  33.620  1.00  0.00    -0.464 OA
BRANCH  13  14
ATOM     14  C   UNL A   1      36.139  32.800  33.060  1.00  0.00     0.277 C 
ATOM     15  C   UNL A   1      36.015  31.503  32.256  1.00  0.00     0.063 C 
BRANCH  14  16
ATOM     16  C   UNL A   1      37.137  32.590  34.205  1.00  0.00     0.425 C 
ATOM     17  F   UNL A   1      37.349  31.269  34.422  1.00  0.00    -0.167 F 
ATOM     18  F   UNL A   1      38.335  33.149  33.934  1.00  0.00    -0.167 F 
ATOM     19  F   UNL A   1      36.681  33.118  35.365  1.00  0.00    -0.167 F 
ENDBRANCH  14  16
ENDBRANCH  13  14
ENDBRANCH   8  13
ENDBRANCH   4   7
ENDBRANCH   2   3
ENDBRANCH   1   2
BRANCH   1  20
ATOM     20  C   UNL A   1      34.263  32.736  28.882  1.00  0.00     0.118 C 
BRANCH  20  21
ATOM     21  N   UNL A   1      33.758  31.764  27.920  1.00  0.00    -0.352 N 
ATOM     22  C   UNL A   1      34.354  30.652  27.384  1.00  0.00     0.251 C 
ATOM     23  H   UNL A   1      32.842  31.934  27.603  1.00  0.00     0.163 HD
ATOM     24  O   UNL A   1      33.820  30.100  26.419  1.00  0.00    -0.269 OA
BRANCH  22  25
ATOM     25  C   UNL A   1      35.618  30.117  27.935  1.00  0.00     0.039 A 
ATOM     26  C   UNL A   1      36.785  30.237  27.176  1.00  0.00     0.014 A 
ATOM     27  C   UNL A   1      35.653  29.452  29.164  1.00  0.00     0.014 A 
ATOM     28  C   UNL A   1      37.993  29.736  27.669  1.00  0.00     0.010 A 
ATOM     29  C   UNL A   1      36.871  29.018  29.687  1.00  0.00     0.010 A 
ATOM     30  C   UNL A   1      38.052  29.146  28.941  1.00  0.00    -0.014 A 
BRANCH  30  31
ATOM     31  C   UNL A   1      39.340  28.649  29.497  1.00  0.00     0.031 A 
ATOM     32  C   UNL A   1      40.000  29.372  30.640  1.00  0.00     0.074 A 
ATOM     33  C   UNL A   1      39.938  27.579  28.937  1.00  0.00     0.049 A 
ATOM     34  N   UNL A   1      41.149  29.131  31.220  1.00  0.00    -0.248 NA
ATOM     35  C   UNL A   1      39.289  30.540  31.180  1.00  0.00     0.031 C 
ATOM     36  C   UNL A   1      39.416  26.822  27.797  1.00  0.00     0.029 A 
ATOM     37  N   UNL A   1      41.116  26.946  29.243  1.00  0.00    -0.354 N 
ATOM     38  C   UNL A   1      41.305  30.126  32.181  1.00  0.00     0.074 A 
ATOM     39  C   UNL A   1      40.161  31.004  32.061  1.00  0.00     0.031 C 
ATOM     40  C   UNL A   1      40.259  25.816  27.515  1.00  0.00     0.029 A 
ATOM     41  C   UNL A   1      41.401  25.879  28.422  1.00  0.00     0.049 A 
ATOM     42  H   UNL A   1      41.703  27.229  29.980  1.00  0.00     0.167 HD
ATOM     43  C   UNL A   1      42.300  30.278  33.092  1.00  0.00     0.034 A 
ATOM     44  C   UNL A   1      42.464  25.053  28.394  1.00  0.00     0.034 A 
ATOM     45  C   UNL A   1      43.425  29.381  33.207  1.00  0.00     0.049 A 
ATOM     46  C   UNL A   1      43.559  25.243  29.413  1.00  0.00     0.074 A 
ATOM     47  C   UNL A   1      44.456  29.403  34.131  1.00  0.00     0.029 A 
ATOM     48  N   UNL A   1      43.674  28.303  32.366  1.00  0.00    -0.354 N 
ATOM     49  N   UNL A   1      43.664  26.154  30.352  1.00  0.00    -0.248 NA
ATOM     50  C   UNL A   1      44.669  24.283  29.378  1.00  0.00     0.031 C 
ATOM     51  C   UNL A   1      45.359  28.385  33.808  1.00  0.00     0.029 A 
ATOM     52  C   UNL A   1      44.855  27.674  32.730  1.00  0.00     0.049 A 
ATOM     53  H   UNL A   1      43.095  28.025  31.620  1.00  0.00     0.167 HD
ATOM     54  C   UNL A   1      44.840  25.858  31.037  1.00  0.00     0.074 A 
ATOM     55  C   UNL A   1      45.395  24.675  30.414  1.00  0.00     0.031 C 
ATOM     56  C   UNL A   1      45.406  26.503  32.090  1.00  0.00     0.034 A 
BRANCH  43  57
ATOM     57  C   UNL A   1      42.222  31.474  34.013  1.00  0.00     0.023 A 
ATOM     58  C   UNL A   1      41.439  31.462  35.180  1.00  0.00     0.031 A 
ATOM     59  C   UNL A   1      42.919  32.656  33.704  1.00  0.00     0.131 A 
ATOM     60  C   UNL A   1      41.305  32.628  35.950  1.00  0.00     0.055 A 
ATOM     61  C   UNL A   1      42.849  33.788  34.521  1.00  0.00     0.041 A 
ATOM     62  F   UNL A   1      43.669  32.739  32.594  1.00  0.00    -0.206 F 
ATOM     63  C   UNL A   1      42.025  33.784  35.642  1.00  0.00     0.022 A 
BRANCH  60  64
ATOM     64  S   UNL A   1      40.060  32.656  37.269  1.00  0.00     0.124 S 
ATOM     65  O   UNL A   1      39.474  33.983  37.093  1.00  0.00    -0.237 OA
ATOM     66  O   UNL A   1      39.205  31.528  36.920  1.00  0.00    -0.237 OA
ATOM     67  O   UNL A   1      40.848  32.489  38.487  1.00  0.00    -0.744 OA
ENDBRANCH  60  64
ENDBRANCH  43  57
BRANCH  44  68
ATOM     68  C   UNL A   1      42.556  23.976  27.368  1.00  0.00     0.023 A 
ATOM     69  C   UNL A   1      41.921  22.738  27.555  1.00  0.00     0.031 A 
ATOM     70  C   UNL A   1      43.311  24.158  26.195  1.00  0.00     0.131 A 
ATOM     71  C   UNL A   1      42.089  21.714  26.609  1.00  0.00     0.055 A 
ATOM     72  C   UNL A   1      43.433  23.156  25.231  1.00  0.00     0.041 A 
ATOM     73  F   UNL A   1      43.933  25.325  25.962  1.00  0.00    -0.206 F 
ATOM     74  C   UNL A   1      42.830  21.919  25.443  1.00  0.00     0.022 A 
BRANCH  71  75
ATOM     75  S   UNL A   1      41.390  20.079  26.965  1.00  0.00     0.124 S 
ATOM     76  O   UNL A   1      42.571  19.227  26.888  1.00  0.00    -0.237 OA
ATOM     77  O   UNL A   1      40.825  20.275  28.297  1.00  0.00    -0.237 OA
ATOM     78  O   UNL A   1      40.411  19.888  25.897  1.00  0.00    -0.744 OA
ENDBRANCH  71  75
ENDBRANCH  44  68
BRANCH  56  79
ATOM     79  C   UNL A   1      46.674  25.907  32.654  1.00  0.00     0.023 A 
ATOM     80  C   UNL A   1      46.647  24.930  33.665  1.00  0.00     0.031 A 
ATOM     81  C   UNL A   1      47.927  26.341  32.186  1.00  0.00     0.131 A 
ATOM     82  C   UNL A   1      47.850  24.462  34.216  1.00  0.00     0.055 A 
ATOM     83  C   UNL A   1      49.120  25.825  32.694  1.00  0.00     0.041 A 
ATOM     84  F   UNL A   1      48.012  27.273  31.224  1.00  0.00    -0.206 F 
ATOM     85  C   UNL A   1      49.087  24.891  33.725  1.00  0.00     0.022 A 
BRANCH  82  86
ATOM     86  S   UNL A   1      47.778  23.358  35.654  1.00  0.00     0.124 S 
ATOM     87  O   UNL A   1      48.895  23.839  36.461  1.00  0.00    -0.237 OA
ATOM     88  O   UNL A   1      46.446  23.625  36.185  1.00  0.00    -0.237 OA
ATOM     89  O   UNL A   1      47.959  22.028  35.075  1.00  0.00    -0.744 OA
ENDBRANCH  82  86
ENDBRANCH  56  79
ENDBRANCH  30  31
ENDBRANCH  22  25
ENDBRANCH  20  21
ENDBRANCH   1  20
TORSDOF 16
ENDMDL
MODEL 2
REMARK VINA RESULT:     -10.3      3.958      5.977
REMARK SMILES C[C@@H](Oc1cncc(C(=O)NCCCNC(=O)c2ccc(-c3c4nc(c(-c5cc(S(=O)(=O)[O-])ccc5F)c5ccc([nH]5)c(-c5cc(S(=O)(=O)[O-])ccc5F)c5nc(c(-c6cc(S(=O)(=O)[O-])ccc6F)c6ccc3[nH]6)C=C5)C=C4)cc2)n1)C(F)(F)F
REMARK SMILES IDX 13 1 12 2 11 3 9 4 10 5 8 7 4 8 5 9 81 10 6 11 7 12 3 13
REMARK SMILES IDX 2 14 1 15 82 16 83 17 84 18 85 19 14 20 15 21 16 22 17 24
REMARK SMILES IDX 18 25 19 26 80 27 20 28 79 29 21 30 22 31 23 32 73 33 24 34
REMARK SMILES IDX 78 35 72 36 74 37 25 38 77 39 71 40 70 41 26 43 58 44 38 45
REMARK SMILES IDX 57 46 39 47 42 48 56 49 75 50 40 51 41 52 55 54 76 55 43 56
REMARK SMILES IDX 27 57 28 58 36 59 29 60 35 61 37 62 34 63 30 64 31 65 32 66
REMARK SMILES IDX 33 67 59 68 60 69 68 70 61 71 67 72 69 73 66 74 62 75 63 76
REMARK SMILES IDX 64 77 65 78 44 79 45 80 53 81 46 82 52 83 54 84 51 85 47 86
REMARK SMILES IDX 48 87 49 88 50 89
REMARK H PARENT 11 6 15 23 74 42 42 53
REMARK Flexibility Score: inf
ROOT
ATOM      1  C   UNL A   1      33.407  28.078  26.961  1.00  0.00     0.042 C 
ENDROOT
BRANCH   1   2
ATOM      2  C   UNL A   1      31.940  28.271  27.334  1.00  0.00     0.118 C 
BRANCH   2   3
ATOM      3  N   UNL A   1      31.199  27.025  27.222  1.00  0.00    -0.351 N 
ATOM      4  C   UNL A   1      30.640  26.384  26.144  1.00  0.00     0.271 C 
ATOM      5  O   UNL A   1      30.032  25.333  26.368  1.00  0.00    -0.267 OA
ATOM      6  H   UNL A   1      31.075  26.554  28.078  1.00  0.00     0.163 HD
BRANCH   4   7
ATOM      7  C   UNL A   1      30.772  26.852  24.734  1.00  0.00     0.150 A 
ATOM      8  C   UNL A   1      30.539  28.411  23.074  1.00  0.00     0.233 A 
ATOM      9  C   UNL A   1      31.364  27.658  22.248  1.00  0.00     0.179 A 
ATOM     10  N   UNL A   1      30.225  28.031  24.330  1.00  0.00    -0.205 NA
ATOM     11  N   UNL A   1      31.860  26.455  22.611  1.00  0.00    -0.257 NA
ATOM     12  C   UNL A   1      31.551  26.075  23.877  1.00  0.00     0.145 A 
BRANCH   8  13
ATOM     13  O   UNL A   1      30.188  29.686  22.717  1.00  0.00    -0.464 OA
BRANCH  13  14
ATOM     14  C   UNL A   1      28.817  30.000  23.039  1.00  0.00     0.277 C 
ATOM     15  C   UNL A   1      27.950  29.803  21.792  1.00  0.00     0.063 C 
BRANCH  14  16
ATOM     16  C   UNL A   1      28.735  31.465  23.482  1.00  0.00     0.425 C 
ATOM     17  F   UNL A   1      29.150  32.292  22.492  1.00  0.00    -0.167 F 
ATOM     18  F   UNL A   1      27.473  31.823  23.801  1.00  0.00    -0.167 F 
ATOM     19  F   UNL A   1      29.522  31.704  24.557  1.00  0.00    -0.167 F 
ENDBRANCH  14  16
ENDBRANCH  13  14
ENDBRANCH   8  13
ENDBRANCH   4   7
ENDBRANCH   2   3
ENDBRANCH   1   2
BRANCH   1  20
ATOM     20  C   UNL A   1      33.980  29.211  26.109  1.00  0.00     0.118 C 
BRANCH  20  21
ATOM     21  N   UNL A   1      33.771  30.521  26.712  1.00  0.00    -0.352 N 
ATOM     22  C   UNL A   1      34.436  31.146  27.735  1.00  0.00     0.251 C 
ATOM     23  H   UNL A   1      33.031  31.042  26.323  1.00  0.00     0.163 HD
ATOM     24  O   UNL A   1      33.945  32.164  28.228  1.00  0.00    -0.269 OA
BRANCH  22  25
ATOM     25  C   UNL A   1      35.716  30.616  28.254  1.00  0.00     0.039 A 
ATOM     26  C   UNL A   1      35.692  29.793  29.384  1.00  0.00     0.014 A 
ATOM     27  C   UNL A   1      36.939  30.967  27.675  1.00  0.00     0.014 A 
ATOM     28  C   UNL A   1      36.887  29.282  29.900  1.00  0.00     0.010 A 
ATOM     29  C   UNL A   1      38.122  30.398  28.147  1.00  0.00     0.010 A 
ATOM     30  C   UNL A   1      38.110  29.558  29.270  1.00  0.00    -0.014 A 
BRANCH  30  31
ATOM     31  C   UNL A   1      39.383  28.985  29.783  1.00  0.00     0.031 A 
ATOM     32  C   UNL A   1      40.074  29.611  30.965  1.00  0.00     0.074 A 
ATOM     33  C   UNL A   1      39.943  27.935  29.151  1.00  0.00     0.049 A 
ATOM     34  N   UNL A   1      41.217  29.296  31.519  1.00  0.00    -0.248 NA
ATOM     35  C   UNL A   1      39.404  30.764  31.584  1.00  0.00     0.031 C 
ATOM     36  C   UNL A   1      39.391  27.270  27.968  1.00  0.00     0.029 A 
ATOM     37  N   UNL A   1      41.102  27.246  29.406  1.00  0.00    -0.354 N 
ATOM     38  C   UNL A   1      41.412  30.221  32.541  1.00  0.00     0.074 A 
ATOM     39  C   UNL A   1      40.296  31.142  32.487  1.00  0.00     0.031 C 
ATOM     40  C   UNL A   1      40.198  26.258  27.615  1.00  0.00     0.029 A 
ATOM     41  C   UNL A   1      41.346  26.226  28.515  1.00  0.00     0.049 A 
ATOM     42  H   UNL A   1      41.702  27.461  30.155  1.00  0.00     0.167 HD
ATOM     43  C   UNL A   1      42.415  30.281  33.452  1.00  0.00     0.034 A 
ATOM     44  C   UNL A   1      42.382  25.369  28.426  1.00  0.00     0.034 A 
ATOM     45  C   UNL A   1      43.512  29.343  33.501  1.00  0.00     0.049 A 
ATOM     46  C   UNL A   1      43.488  25.457  29.447  1.00  0.00     0.074 A 
ATOM     47  C   UNL A   1      44.547  29.272  34.416  1.00  0.00     0.029 A 
ATOM     48  N   UNL A   1      43.720  28.314  32.589  1.00  0.00    -0.354 N 
ATOM     49  N   UNL A   1      43.629  26.301  30.442  1.00  0.00    -0.248 NA
ATOM     50  C   UNL A   1      44.566  24.465  29.341  1.00  0.00     0.031 C 
ATOM     51  C   UNL A   1      45.415  28.248  34.021  1.00  0.00     0.029 A 
ATOM     52  C   UNL A   1      44.882  27.626  32.904  1.00  0.00     0.049 A 
ATOM     53  H   UNL A   1      43.128  28.104  31.831  1.00  0.00     0.167 HD
ATOM     54  C   UNL A   1      44.798  25.924  31.097  1.00  0.00     0.074 A 
ATOM     55  C   UNL A   1      45.311  24.766  30.394  1.00  0.00     0.031 C 
ATOM     56  C   UNL A   1      45.391  26.481  32.185  1.00  0.00     0.034 A 
BRANCH  43  57
ATOM     57  C   UNL A   1      42.382  31.418  34.449  1.00  0.00     0.023 A 
ATOM     58  C   UNL A   1      41.479  31.433  35.526  1.00  0.00     0.031 A 
ATOM     59  C   UNL A   1      43.247  32.517  34.304  1.00  0.00     0.131 A 
ATOM     60  C   UNL A   1      41.403  32.556  36.365  1.00  0.00     0.055 A 
ATOM     61  C   UNL A   1      43.226  33.594  35.193  1.00  0.00     0.041 A 
ATOM     62  F   UNL A   1      44.120  32.572  33.286  1.00  0.00    -0.206 F 
ATOM     63  C   UNL A   1      42.288  33.626  36.220  1.00  0.00     0.022 A 
BRANCH  60  64
ATOM     64  S   UNL A   1      40.032  32.662  37.547  1.00  0.00     0.124 S 
ATOM     65  O   UNL A   1      39.186  31.551  37.119  1.00  0.00    -0.237 OA
ATOM     66  O   UNL A   1      40.707  32.496  38.829  1.00  0.00    -0.237 OA
ATOM     67  O   UNL A   1      39.473  33.991  37.304  1.00  0.00    -0.744 OA
ENDBRANCH  60  64
ENDBRANCH  43  57
BRANCH  44  68
ATOM     68  C   UNL A   1      42.433  24.358  27.332  1.00  0.00     0.023 A 
ATOM     69  C   UNL A   1      41.653  23.192  27.383  1.00  0.00     0.031 A 
ATOM     70  C   UNL A   1      43.291  24.528  26.231  1.00  0.00     0.131 A 
ATOM     71  C   UNL A   1      41.778  22.220  26.378  1.00  0.00     0.055 A 
ATOM     72  C   UNL A   1      43.375  23.583  25.206  1.00  0.00     0.041 A 
ATOM     73  F   UNL A   1      44.054  25.628  26.127  1.00  0.00    -0.206 F 
ATOM     74  C   UNL A   1      42.625  22.414  25.284  1.00  0.00     0.022 A 
BRANCH  71  75
ATOM     75  S   UNL A   1      40.877  20.657  26.564  1.00  0.00     0.124 S 
ATOM     76  O   UNL A   1      39.565  21.004  26.029  1.00  0.00    -0.237 OA
ATOM     77  O   UNL A   1      41.681  19.746  25.754  1.00  0.00    -0.237 OA
ATOM     78  O   UNL A   1      40.918  20.409  28.003  1.00  0.00    -0.744 OA
ENDBRANCH  71  75
ENDBRANCH  44  68
BRANCH  56  79
ATOM     79  C   UNL A   1      46.642  25.809  32.700  1.00  0.00     0.023 A 
ATOM     80  C   UNL A   1      47.899  26.037  32.113  1.00  0.00     0.031 A 
ATOM     81  C   UNL A   1      46.568  24.913  33.780  1.00  0.00     0.131 A 
ATOM     82  C   UNL A   1      49.022  25.330  32.572  1.00  0.00     0.055 A 
ATOM     83  C   UNL A   1      47.699  24.260  34.273  1.00  0.00     0.041 A 
ATOM     84  F   UNL A   1      45.393  24.656  34.377  1.00  0.00    -0.206 F 
ATOM     85  C   UNL A   1      48.933  24.456  33.659  1.00  0.00     0.022 A 
BRANCH  82  86
ATOM     86  S   UNL A   1      50.584  25.492  31.664  1.00  0.00     0.124 S 
ATOM     87  O   UNL A   1      51.434  24.524  32.349  1.00  0.00    -0.237 OA
ATOM     88  O   UNL A   1      50.190  25.144  30.302  1.00  0.00    -0.237 OA
ATOM     89  O   UNL A   1      50.954  26.892  31.863  1.00  0.00    -0.744 OA
ENDBRANCH  82  86
ENDBRANCH  56  79
ENDBRANCH  30  31
ENDBRANCH  22  25
ENDBRANCH  20  21
ENDBRANCH   1  20
TORSDOF 16
ENDMDL
MODEL 3
REMARK VINA RESULT:     -10.1      3.910      5.969
REMARK SMILES C[C@@H](Oc1cncc(C(=O)NCCCNC(=O)c2ccc(-c3c4nc(c(-c5cc(S(=O)(=O)[O-])ccc5F)c5ccc([nH]5)c(-c5cc(S(=O)(=O)[O-])ccc5F)c5nc(c(-c6cc(S(=O)(=O)[O-])ccc6F)c6ccc3[nH]6)C=C5)C=C4)cc2)n1)C(F)(F)F
REMARK SMILES IDX 13 1 12 2 11 3 9 4 10 5 8 7 4 8 5 9 81 10 6 11 7 12 3 13
REMARK SMILES IDX 2 14 1 15 82 16 83 17 84 18 85 19 14 20 15 21 16 22 17 24
REMARK SMILES IDX 18 25 19 26 80 27 20 28 79 29 21 30 22 31 23 32 73 33 24 34
REMARK SMILES IDX 78 35 72 36 74 37 25 38 77 39 71 40 70 41 26 43 58 44 38 45
REMARK SMILES IDX 57 46 39 47 42 48 56 49 75 50 40 51 41 52 55 54 76 55 43 56
REMARK SMILES IDX 27 57 28 58 36 59 29 60 35 61 37 62 34 63 30 64 31 65 32 66
REMARK SMILES IDX 33 67 59 68 60 69 68 70 61 71 67 72 69 73 66 74 62 75 63 76
REMARK SMILES IDX 64 77 65 78 44 79 45 80 53 81 46 82 52 83 54 84 51 85 47 86
REMARK SMILES IDX 48 87 49 88 50 89
REMARK H PARENT 11 6 15 23 74 42 42 53
REMARK Flexibility Score: inf
ROOT
ATOM      1  C   UNL A   1      32.962  28.110  27.032  1.00  0.00     0.042 C 
ENDROOT
BRANCH   1   2
ATOM      2  C   UNL A   1      32.951  26.680  26.501  1.00  0.00     0.118 C 
BRANCH   2   3
ATOM      3  N   UNL A   1      31.634  26.078  26.632  1.00  0.00    -0.351 N 
ATOM      4  C   UNL A   1      30.537  26.082  25.806  1.00  0.00     0.271 C 
ATOM      5  O   UNL A   1      29.528  25.496  26.208  1.00  0.00    -0.267 OA
ATOM      6  H   UNL A   1      31.505  25.573  27.468  1.00  0.00     0.163 HD
BRANCH   4   7
ATOM      7  C   UNL A   1      30.517  26.698  24.448  1.00  0.00     0.150 A 
ATOM      8  C   UNL A   1      30.186  28.447  23.009  1.00  0.00     0.233 A 
ATOM      9  C   UNL A   1      30.835  27.744  22.001  1.00  0.00     0.179 A 
ATOM     10  N   UNL A   1      30.013  27.946  24.249  1.00  0.00    -0.205 NA
ATOM     11  N   UNL A   1      31.283  26.479  22.164  1.00  0.00    -0.257 NA
ATOM     12  C   UNL A   1      31.116  25.978  23.415  1.00  0.00     0.145 A 
BRANCH   8  13
ATOM     13  O   UNL A   1      29.888  29.773  22.838  1.00  0.00    -0.464 OA
BRANCH  13  14
ATOM     14  C   UNL A   1      28.469  30.026  22.788  1.00  0.00     0.277 C 
ATOM     15  C   UNL A   1      28.028  30.124  21.324  1.00  0.00     0.063 C 
BRANCH  14  16
ATOM     16  C   UNL A   1      28.177  31.357  23.491  1.00  0.00     0.425 C 
ATOM     17  F   UNL A   1      27.058  31.264  24.251  1.00  0.00    -0.167 F 
ATOM     18  F   UNL A   1      29.187  31.724  24.307  1.00  0.00    -0.167 F 
ATOM     19  F   UNL A   1      27.973  32.356  22.601  1.00  0.00    -0.167 F 
ENDBRANCH  14  16
ENDBRANCH  13  14
ENDBRANCH   8  13
ENDBRANCH   4   7
ENDBRANCH   2   3
ENDBRANCH   1   2
BRANCH   1  20
ATOM     20  C   UNL A   1      33.791  29.076  26.185  1.00  0.00     0.118 C 
BRANCH  20  21
ATOM     21  N   UNL A   1      33.667  30.457  26.632  1.00  0.00    -0.352 N 
ATOM     22  C   UNL A   1      34.384  31.157  27.567  1.00  0.00     0.251 C 
ATOM     23  H   UNL A   1      32.951  30.971  26.192  1.00  0.00     0.163 HD
ATOM     24  O   UNL A   1      33.960  32.252  27.943  1.00  0.00    -0.269 OA
BRANCH  22  25
ATOM     25  C   UNL A   1      35.640  30.618  28.132  1.00  0.00     0.039 A 
ATOM     26  C   UNL A   1      35.567  29.758  29.232  1.00  0.00     0.014 A 
ATOM     27  C   UNL A   1      36.887  30.995  27.626  1.00  0.00     0.014 A 
ATOM     28  C   UNL A   1      36.739  29.237  29.789  1.00  0.00     0.010 A 
ATOM     29  C   UNL A   1      38.050  30.418  28.137  1.00  0.00     0.010 A 
ATOM     30  C   UNL A   1      37.990  29.541  29.230  1.00  0.00    -0.014 A 
BRANCH  30  31
ATOM     31  C   UNL A   1      39.240  28.959  29.786  1.00  0.00     0.031 A 
ATOM     32  C   UNL A   1      39.857  29.538  31.030  1.00  0.00     0.074 A 
ATOM     33  C   UNL A   1      39.847  27.944  29.140  1.00  0.00     0.049 A 
ATOM     34  N   UNL A   1      40.973  29.211  31.632  1.00  0.00    -0.248 NA
ATOM     35  C   UNL A   1      39.140  30.656  31.662  1.00  0.00     0.031 C 
ATOM     36  C   UNL A   1      39.368  27.327  27.900  1.00  0.00     0.029 A 
ATOM     37  N   UNL A   1      40.999  27.256  29.427  1.00  0.00    -0.354 N 
ATOM     38  C   UNL A   1      41.100  30.091  32.702  1.00  0.00     0.074 A 
ATOM     39  C   UNL A   1      39.977  31.002  32.628  1.00  0.00     0.031 C 
ATOM     40  C   UNL A   1      40.206  26.340  27.548  1.00  0.00     0.029 A 
ATOM     41  C   UNL A   1      41.304  26.279  28.507  1.00  0.00     0.049 A 
ATOM     42  H   UNL A   1      41.555  27.444  30.217  1.00  0.00     0.167 HD
ATOM     43  C   UNL A   1      42.052  30.122  33.669  1.00  0.00     0.034 A 
ATOM     44  C   UNL A   1      42.354  25.438  28.437  1.00  0.00     0.034 A 
ATOM     45  C   UNL A   1      43.156  29.194  33.736  1.00  0.00     0.049 A 
ATOM     46  C   UNL A   1      43.402  25.492  29.520  1.00  0.00     0.074 A 
ATOM     47  C   UNL A   1      44.141  29.093  34.703  1.00  0.00     0.029 A 
ATOM     48  N   UNL A   1      43.427  28.209  32.793  1.00  0.00    -0.354 N 
ATOM     49  N   UNL A   1      43.478  26.293  30.558  1.00  0.00    -0.248 NA
ATOM     50  C   UNL A   1      44.496  24.518  29.430  1.00  0.00     0.031 C 
ATOM     51  C   UNL A   1      45.042  28.096  34.312  1.00  0.00     0.029 A 
ATOM     52  C   UNL A   1      44.578  27.519  33.140  1.00  0.00     0.049 A 
ATOM     53  H   UNL A   1      42.880  28.027  31.996  1.00  0.00     0.167 HD
ATOM     54  C   UNL A   1      44.614  25.898  31.259  1.00  0.00     0.074 A 
ATOM     55  C   UNL A   1      45.179  24.779  30.535  1.00  0.00     0.031 C 
ATOM     56  C   UNL A   1      45.140  26.413  32.401  1.00  0.00     0.034 A 
BRANCH  43  57
ATOM     57  C   UNL A   1      41.950  31.212  34.712  1.00  0.00     0.023 A 
ATOM     58  C   UNL A   1      40.902  31.247  35.649  1.00  0.00     0.031 A 
ATOM     59  C   UNL A   1      42.899  32.250  34.751  1.00  0.00     0.131 A 
ATOM     60  C   UNL A   1      40.781  32.334  36.528  1.00  0.00     0.055 A 
ATOM     61  C   UNL A   1      42.820  33.285  35.685  1.00  0.00     0.041 A 
ATOM     62  F   UNL A   1      43.912  32.285  33.871  1.00  0.00    -0.206 F 
ATOM     63  C   UNL A   1      41.747  33.341  36.569  1.00  0.00     0.022 A 
BRANCH  60  64
ATOM     64  S   UNL A   1      39.263  32.489  37.508  1.00  0.00     0.124 S 
ATOM     65  O   UNL A   1      39.790  32.494  38.870  1.00  0.00    -0.237 OA
ATOM     66  O   UNL A   1      38.707  33.750  37.032  1.00  0.00    -0.237 OA
ATOM     67  O   UNL A   1      38.500  31.295  37.148  1.00  0.00    -0.744 OA
ENDBRANCH  60  64
ENDBRANCH  43  57
BRANCH  44  68
ATOM     68  C   UNL A   1      42.477  24.478  27.304  1.00  0.00     0.023 A 
ATOM     69  C   UNL A   1      41.893  23.203  27.366  1.00  0.00     0.031 A 
ATOM     70  C   UNL A   1      43.212  24.810  26.152  1.00  0.00     0.131 A 
ATOM     71  C   UNL A   1      42.090  22.290  26.318  1.00  0.00     0.055 A 
ATOM     72  C   UNL A   1      43.363  23.918  25.089  1.00  0.00     0.041 A 
ATOM     73  F   UNL A   1      43.786  26.019  26.038  1.00  0.00    -0.206 F 
ATOM     74  C   UNL A   1      42.811  22.644  25.175  1.00  0.00     0.022 A 
BRANCH  71  75
ATOM     75  S   UNL A   1      41.459  20.600  26.506  1.00  0.00     0.124 S 
ATOM     76  O   UNL A   1      40.029  20.791  26.291  1.00  0.00    -0.237 OA
ATOM     77  O   UNL A   1      42.178  19.889  25.454  1.00  0.00    -0.237 OA
ATOM     78  O   UNL A   1      41.842  20.244  27.870  1.00  0.00    -0.744 OA
ENDBRANCH  71  75
ENDBRANCH  44  68
BRANCH  56  79
ATOM     79  C   UNL A   1      46.370  25.732  32.953  1.00  0.00     0.023 A 
ATOM     80  C   UNL A   1      46.279  24.659  33.858  1.00  0.00     0.031 A 
ATOM     81  C   UNL A   1      47.650  26.178  32.582  1.00  0.00     0.131 A 
ATOM     82  C   UNL A   1      47.446  24.108  34.408  1.00  0.00     0.055 A 
ATOM     83  C   UNL A   1      48.810  25.584  33.085  1.00  0.00     0.041 A 
ATOM     84  F   UNL A   1      47.797  27.200  31.724  1.00  0.00    -0.206 F 
ATOM     85  C   UNL A   1      48.712  24.553  34.014  1.00  0.00     0.022 A 
BRANCH  82  86
ATOM     86  S   UNL A   1      47.290  22.868  35.723  1.00  0.00     0.124 S 
ATOM     87  O   UNL A   1      45.844  22.801  35.905  1.00  0.00    -0.237 OA
ATOM     88  O   UNL A   1      47.911  21.694  35.119  1.00  0.00    -0.237 OA
ATOM     89  O   UNL A   1      48.029  23.455  36.839  1.00  0.00    -0.744 OA
ENDBRANCH  82  86
ENDBRANCH  56  79
ENDBRANCH  30  31
ENDBRANCH  22  25
ENDBRANCH  20  21
ENDBRANCH   1  20
TORSDOF 16
ENDMDL
