MODEL 1
REMARK VINA RESULT:     -11.0      0.000      0.000
REMARK SMILES CC(C)[C@@H](CO)Nc1ccc(C(=O)NCCCNC(=O)c2ccc(-c3c4nc(c(-c5cc(S(=O)(=O)[O-])ccc5F)c5ccc([nH]5)c(-c5cc(S(=O)(=O)[O-])ccc5F)c5nc(c(-c6cc(S(=O)(=O)[O-])ccc6F)c6ccc3[nH]6)C=C5)C=C4)cc2)nn1
REMARK SMILES IDX 15 1 14 2 12 3 13 4 11 6 8 7 9 8 85 9 10 10 84 11 7 12 4 14
REMARK SMILES IDX 2 15 1 16 3 17 5 18 6 19 16 21 17 22 18 23 19 24 20 26 21 27
REMARK SMILES IDX 22 28 83 29 23 30 82 31 24 32 25 33 26 34 76 35 27 36 81 37
REMARK SMILES IDX 75 38 77 39 28 40 80 41 74 42 73 43 29 45 61 46 41 47 60 48
REMARK SMILES IDX 42 49 45 50 59 51 78 52 43 53 44 54 58 56 79 57 46 58 30 59
REMARK SMILES IDX 31 60 39 61 32 62 38 63 40 64 37 65 33 66 34 67 35 68 36 69
REMARK SMILES IDX 62 70 63 71 71 72 64 73 70 74 72 75 69 76 65 77 66 78 67 79
REMARK SMILES IDX 68 80 47 81 48 82 56 83 49 84 55 85 57 86 54 87 50 88 51 89
REMARK SMILES IDX 52 90 53 91
REMARK H PARENT 14 5 7 13 6 20 18 25 77 44 45 55
REMARK Flexibility Score: inf
ROOT
ATOM      1  C   UNL A   1      31.684  30.442  25.705  1.00  0.00     0.118 C 
ENDROOT
BRANCH   1   2
ATOM      2  N   UNL A   1      30.794  30.312  24.567  1.00  0.00    -0.351 N 
ATOM      3  C   UNL A   1      30.500  29.264  23.723  1.00  0.00     0.271 C 
ATOM      4  O   UNL A   1      29.622  29.468  22.883  1.00  0.00    -0.267 OA
ATOM      5  H   UNL A   1      30.300  31.138  24.355  1.00  0.00     0.163 HD
BRANCH   3   6
ATOM      6  C   UNL A   1      31.152  27.919  23.804  1.00  0.00     0.150 A 
ATOM      7  C   UNL A   1      32.190  25.396  24.218  1.00  0.00     0.148 A 
ATOM      8  C   UNL A   1      32.787  26.243  23.301  1.00  0.00     0.051 A 
ATOM      9  N   UNL A   1      31.079  25.794  24.862  1.00  0.00    -0.132 NA
ATOM     10  C   UNL A   1      32.245  27.508  23.065  1.00  0.00     0.040 A 
ATOM     11  N   UNL A   1      30.568  27.066  24.676  1.00  0.00    -0.143 NA
BRANCH   7  12
ATOM     12  N   UNL A   1      32.691  24.147  24.520  1.00  0.00    -0.363 N 
ATOM     13  H   UNL A   1      33.588  24.065  24.919  1.00  0.00     0.162 HD
BRANCH  12  14
ATOM     14  C   UNL A   1      31.902  22.943  24.252  1.00  0.00     0.108 C 
BRANCH  14  15
ATOM     15  C   UNL A   1      32.776  21.933  23.449  1.00  0.00     0.007 C 
ATOM     16  C   UNL A   1      33.346  20.828  24.345  1.00  0.00     0.009 C 
ATOM     17  C   UNL A   1      31.983  21.277  22.309  1.00  0.00     0.009 C 
ENDBRANCH  14  15
BRANCH  14  18
ATOM     18  C   UNL A   1      31.369  22.382  25.595  1.00  0.00     0.181 C 
BRANCH  18  19
ATOM     19  O   UNL A   1      30.093  22.901  25.963  1.00  0.00    -0.394 OA
ATOM     20  H   UNL A   1      30.211  23.728  26.455  1.00  0.00     0.210 HD
ENDBRANCH  18  19
ENDBRANCH  14  18
ENDBRANCH  12  14
ENDBRANCH   7  12
ENDBRANCH   3   6
ENDBRANCH   1   2
BRANCH   1  21
ATOM     21  C   UNL A   1      31.452  31.758  26.448  1.00  0.00     0.042 C 
BRANCH  21  22
ATOM     22  C   UNL A   1      32.681  32.252  27.209  1.00  0.00     0.118 C 
BRANCH  22  23
ATOM     23  N   UNL A   1      32.582  33.668  27.534  1.00  0.00    -0.352 N 
ATOM     24  C   UNL A   1      33.230  34.407  28.492  1.00  0.00     0.251 C 
ATOM     25  H   UNL A   1      31.950  34.177  26.976  1.00  0.00     0.163 HD
ATOM     26  O   UNL A   1      32.802  35.526  28.763  1.00  0.00    -0.269 OA
BRANCH  24  27
ATOM     27  C   UNL A   1      34.417  33.873  29.199  1.00  0.00     0.039 A 
ATOM     28  C   UNL A   1      34.224  32.960  30.241  1.00  0.00     0.014 A 
ATOM     29  C   UNL A   1      35.708  34.309  28.888  1.00  0.00     0.014 A 
ATOM     30  C   UNL A   1      35.325  32.447  30.934  1.00  0.00     0.010 A 
ATOM     31  C   UNL A   1      36.809  33.746  29.534  1.00  0.00     0.010 A 
ATOM     32  C   UNL A   1      36.629  32.813  30.568  1.00  0.00    -0.014 A 
BRANCH  32  33
ATOM     33  C   UNL A   1      37.816  32.230  31.251  1.00  0.00     0.031 A 
ATOM     34  C   UNL A   1      38.589  31.112  30.604  1.00  0.00     0.074 A 
ATOM     35  C   UNL A   1      38.149  32.662  32.484  1.00  0.00     0.049 A 
ATOM     36  N   UNL A   1      39.590  30.416  31.078  1.00  0.00    -0.248 NA
ATOM     37  C   UNL A   1      38.162  30.703  29.257  1.00  0.00     0.031 C 
ATOM     38  C   UNL A   1      37.447  33.710  33.230  1.00  0.00     0.029 A 
ATOM     39  N   UNL A   1      39.147  32.265  33.340  1.00  0.00    -0.354 N 
ATOM     40  C   UNL A   1      39.893  29.470  30.105  1.00  0.00     0.074 A 
ATOM     41  C   UNL A   1      38.945  29.659  29.028  1.00  0.00     0.031 C 
ATOM     42  C   UNL A   1      38.040  33.877  34.423  1.00  0.00     0.029 A 
ATOM     43  C   UNL A   1      39.133  32.919  34.550  1.00  0.00     0.049 A 
ATOM     44  H   UNL A   1      39.811  31.575  33.107  1.00  0.00     0.167 HD
ATOM     45  C   UNL A   1      40.880  28.539  30.106  1.00  0.00     0.034 A 
ATOM     46  C   UNL A   1      39.900  32.752  35.648  1.00  0.00     0.034 A 
ATOM     47  C   UNL A   1      41.837  28.389  31.175  1.00  0.00     0.049 A 
ATOM     48  C   UNL A   1      40.996  31.716  35.617  1.00  0.00     0.074 A 
ATOM     49  C   UNL A   1      42.933  27.543  31.235  1.00  0.00     0.029 A 
ATOM     50  N   UNL A   1      41.811  29.088  32.374  1.00  0.00    -0.354 N 
ATOM     51  N   UNL A   1      41.319  30.885  34.652  1.00  0.00    -0.248 NA
ATOM     52  C   UNL A   1      41.840  31.605  36.813  1.00  0.00     0.031 C 
ATOM     53  C   UNL A   1      43.524  27.680  32.494  1.00  0.00     0.029 A 
ATOM     54  C   UNL A   1      42.848  28.667  33.193  1.00  0.00     0.049 A 
ATOM     55  H   UNL A   1      41.153  29.782  32.608  1.00  0.00     0.167 HD
ATOM     56  C   UNL A   1      42.424  30.176  35.116  1.00  0.00     0.074 A 
ATOM     57  C   UNL A   1      42.723  30.692  36.436  1.00  0.00     0.031 C 
ATOM     58  C   UNL A   1      43.130  29.190  34.508  1.00  0.00     0.034 A 
BRANCH  45  59
ATOM     59  C   UNL A   1      40.958  27.589  28.935  1.00  0.00     0.023 A 
ATOM     60  C   UNL A   1      41.936  27.718  27.934  1.00  0.00     0.031 A 
ATOM     61  C   UNL A   1      40.045  26.526  28.828  1.00  0.00     0.131 A 
ATOM     62  C   UNL A   1      41.944  26.834  26.843  1.00  0.00     0.055 A 
ATOM     63  C   UNL A   1      40.102  25.605  27.780  1.00  0.00     0.041 A 
ATOM     64  F   UNL A   1      39.076  26.362  29.744  1.00  0.00    -0.206 F 
ATOM     65  C   UNL A   1      41.050  25.763  26.774  1.00  0.00     0.022 A 
BRANCH  62  66
ATOM     66  S   UNL A   1      43.071  27.166  25.463  1.00  0.00     0.124 S 
ATOM     67  O   UNL A   1      42.282  28.095  24.655  1.00  0.00    -0.237 OA
ATOM     68  O   UNL A   1      44.235  27.732  26.134  1.00  0.00    -0.237 OA
ATOM     69  O   UNL A   1      43.275  25.849  24.862  1.00  0.00    -0.744 OA
ENDBRANCH  62  66
ENDBRANCH  45  59
BRANCH  46  70
ATOM     70  C   UNL A   1      39.653  33.558  36.880  1.00  0.00     0.023 A 
ATOM     71  C   UNL A   1      39.012  32.999  37.997  1.00  0.00     0.031 A 
ATOM     72  C   UNL A   1      39.993  34.922  36.933  1.00  0.00     0.131 A 
ATOM     73  C   UNL A   1      38.674  33.812  39.090  1.00  0.00     0.055 A 
ATOM     74  C   UNL A   1      39.711  35.712  38.049  1.00  0.00     0.041 A 
ATOM     75  F   UNL A   1      40.613  35.508  35.895  1.00  0.00    -0.206 F 
ATOM     76  C   UNL A   1      39.031  35.161  39.129  1.00  0.00     0.022 A 
BRANCH  73  77
ATOM     77  S   UNL A   1      37.657  33.103  40.415  1.00  0.00     0.124 S 
ATOM     78  O   UNL A   1      38.431  31.925  40.786  1.00  0.00    -0.237 OA
ATOM     79  O   UNL A   1      37.632  34.190  41.389  1.00  0.00    -0.237 OA
ATOM     80  O   UNL A   1      36.382  32.832  39.754  1.00  0.00    -0.744 OA
ENDBRANCH  73  77
ENDBRANCH  46  70
BRANCH  58  81
ATOM     81  C   UNL A   1      44.326  28.645  35.250  1.00  0.00     0.023 A 
ATOM     82  C   UNL A   1      44.204  27.611  36.194  1.00  0.00     0.031 A 
ATOM     83  C   UNL A   1      45.606  29.181  35.017  1.00  0.00     0.131 A 
ATOM     84  C   UNL A   1      45.331  27.184  36.911  1.00  0.00     0.055 A 
ATOM     85  C   UNL A   1      46.733  28.708  35.688  1.00  0.00     0.041 A 
ATOM     86  F   UNL A   1      45.779  30.172  34.128  1.00  0.00    -0.206 F 
ATOM     87  C   UNL A   1      46.598  27.713  36.652  1.00  0.00     0.022 A 
BRANCH  84  88
ATOM     88  S   UNL A   1      45.105  25.989  38.258  1.00  0.00     0.124 S 
ATOM     89  O   UNL A   1      46.274  26.249  39.093  1.00  0.00    -0.237 OA
ATOM     90  O   UNL A   1      43.819  26.390  38.819  1.00  0.00    -0.237 OA
ATOM     91  O   UNL A   1      45.106  24.697  37.574  1.00  0.00    -0.744 OA
ENDBRANCH  84  88
ENDBRANCH  58  81
ENDBRANCH  32  33
ENDBRANCH  24  27
ENDBRANCH  22  23
ENDBRANCH  21  22
ENDBRANCH   1  21
TORSDOF 18
ENDMDL
MODEL 2
REMARK VINA RESULT:     -10.9      3.224      8.604
REMARK SMILES CC(C)[C@@H](CO)Nc1ccc(C(=O)NCCCNC(=O)c2ccc(-c3c4nc(c(-c5cc(S(=O)(=O)[O-])ccc5F)c5ccc([nH]5)c(-c5cc(S(=O)(=O)[O-])ccc5F)c5nc(c(-c6cc(S(=O)(=O)[O-])ccc6F)c6ccc3[nH]6)C=C5)C=C4)cc2)nn1
REMARK SMILES IDX 15 1 14 2 12 3 13 4 11 6 8 7 9 8 85 9 10 10 84 11 7 12 4 14
REMARK SMILES IDX 2 15 1 16 3 17 5 18 6 19 16 21 17 22 18 23 19 24 20 26 21 27
REMARK SMILES IDX 22 28 83 29 23 30 82 31 24 32 25 33 26 34 76 35 27 36 81 37
REMARK SMILES IDX 75 38 77 39 28 40 80 41 74 42 73 43 29 45 61 46 41 47 60 48
REMARK SMILES IDX 42 49 45 50 59 51 78 52 43 53 44 54 58 56 79 57 46 58 30 59
REMARK SMILES IDX 31 60 39 61 32 62 38 63 40 64 37 65 33 66 34 67 35 68 36 69
REMARK SMILES IDX 62 70 63 71 71 72 64 73 70 74 72 75 69 76 65 77 66 78 67 79
REMARK SMILES IDX 68 80 47 81 48 82 56 83 49 84 55 85 57 86 54 87 50 88 51 89
REMARK SMILES IDX 52 90 53 91
REMARK H PARENT 14 5 7 13 6 20 18 25 77 44 45 55
REMARK Flexibility Score: inf
ROOT
ATOM      1  C   UNL A   1      31.518  29.618  25.041  1.00  0.00     0.118 C 
ENDROOT
BRANCH   1   2
ATOM      2  N   UNL A   1      30.858  29.735  23.754  1.00  0.00    -0.351 N 
ATOM      3  C   UNL A   1      30.478  28.807  22.808  1.00  0.00     0.271 C 
ATOM      4  O   UNL A   1      29.857  29.241  21.837  1.00  0.00    -0.267 OA
ATOM      5  H   UNL A   1      30.637  30.662  23.506  1.00  0.00     0.163 HD
BRANCH   3   6
ATOM      6  C   UNL A   1      30.745  27.339  22.925  1.00  0.00     0.150 A 
ATOM      7  C   UNL A   1      31.399  24.659  22.871  1.00  0.00     0.148 A 
ATOM      8  C   UNL A   1      30.412  25.108  23.730  1.00  0.00     0.051 A 
ATOM      9  N   UNL A   1      32.065  25.542  22.106  1.00  0.00    -0.132 NA
ATOM     10  C   UNL A   1      30.102  26.469  23.784  1.00  0.00     0.040 A 
ATOM     11  N   UNL A   1      31.725  26.883  22.113  1.00  0.00    -0.143 NA
BRANCH   7  12
ATOM     12  N   UNL A   1      31.733  23.326  22.747  1.00  0.00    -0.363 N 
ATOM     13  H   UNL A   1      31.442  22.822  21.953  1.00  0.00     0.162 HD
BRANCH  12  14
ATOM     14  C   UNL A   1      32.515  22.655  23.788  1.00  0.00     0.108 C 
BRANCH  14  15
ATOM     15  C   UNL A   1      32.240  21.123  23.718  1.00  0.00     0.007 C 
ATOM     16  C   UNL A   1      32.053  20.638  22.276  1.00  0.00     0.009 C 
ATOM     17  C   UNL A   1      33.376  20.312  24.362  1.00  0.00     0.009 C 
ENDBRANCH  14  15
BRANCH  14  18
ATOM     18  C   UNL A   1      34.008  23.033  23.616  1.00  0.00     0.181 C 
BRANCH  18  19
ATOM     19  O   UNL A   1      34.369  23.335  22.270  1.00  0.00    -0.394 OA
ATOM     20  H   UNL A   1      33.892  22.745  21.667  1.00  0.00     0.210 HD
ENDBRANCH  18  19
ENDBRANCH  14  18
ENDBRANCH  12  14
ENDBRANCH   7  12
ENDBRANCH   3   6
ENDBRANCH   1   2
BRANCH   1  21
ATOM     21  C   UNL A   1      33.002  29.291  24.880  1.00  0.00     0.042 C 
BRANCH  21  22
ATOM     22  C   UNL A   1      33.789  29.376  26.186  1.00  0.00     0.118 C 
BRANCH  22  23
ATOM     23  N   UNL A   1      33.686  30.695  26.794  1.00  0.00    -0.352 N 
ATOM     24  C   UNL A   1      34.390  31.253  27.832  1.00  0.00     0.251 C 
ATOM     25  H   UNL A   1      33.003  31.282  26.395  1.00  0.00     0.163 HD
ATOM     26  O   UNL A   1      33.961  32.280  28.351  1.00  0.00    -0.269 OA
BRANCH  24  27
ATOM     27  C   UNL A   1      35.638  30.633  28.331  1.00  0.00     0.039 A 
ATOM     28  C   UNL A   1      36.826  30.849  27.624  1.00  0.00     0.014 A 
ATOM     29  C   UNL A   1      35.640  29.792  29.448  1.00  0.00     0.014 A 
ATOM     30  C   UNL A   1      38.019  30.268  28.065  1.00  0.00     0.010 A 
ATOM     31  C   UNL A   1      36.841  29.267  29.925  1.00  0.00     0.010 A 
ATOM     32  C   UNL A   1      38.042  29.496  29.236  1.00  0.00    -0.014 A 
BRANCH  32  33
ATOM     33  C   UNL A   1      39.313  28.920  29.756  1.00  0.00     0.031 A 
ATOM     34  C   UNL A   1      40.035  29.587  30.897  1.00  0.00     0.074 A 
ATOM     35  C   UNL A   1      39.848  27.840  29.151  1.00  0.00     0.049 A 
ATOM     36  N   UNL A   1      41.194  29.292  31.428  1.00  0.00    -0.248 NA
ATOM     37  C   UNL A   1      39.381  30.757  31.503  1.00  0.00     0.031 C 
ATOM     38  C   UNL A   1      39.262  27.136  28.008  1.00  0.00     0.029 A 
ATOM     39  N   UNL A   1      41.013  27.156  29.395  1.00  0.00    -0.354 N 
ATOM     40  C   UNL A   1      41.422  30.253  32.407  1.00  0.00     0.074 A 
ATOM     41  C   UNL A   1      40.297  31.162  32.371  1.00  0.00     0.031 C 
ATOM     42  C   UNL A   1      40.063  26.118  27.658  1.00  0.00     0.029 A 
ATOM     43  C   UNL A   1      41.243  26.121  28.517  1.00  0.00     0.049 A 
ATOM     44  H   UNL A   1      41.627  27.384  30.131  1.00  0.00     0.167 HD
ATOM     45  C   UNL A   1      42.468  30.358  33.264  1.00  0.00     0.034 A 
ATOM     46  C   UNL A   1      42.295  25.285  28.400  1.00  0.00     0.034 A 
ATOM     47  C   UNL A   1      43.565  29.422  33.307  1.00  0.00     0.049 A 
ATOM     48  C   UNL A   1      43.440  25.419  29.374  1.00  0.00     0.074 A 
ATOM     49  C   UNL A   1      44.626  29.381  34.197  1.00  0.00     0.029 A 
ATOM     50  N   UNL A   1      43.750  28.369  32.421  1.00  0.00    -0.354 N 
ATOM     51  N   UNL A   1      43.598  26.287  30.347  1.00  0.00    -0.248 NA
ATOM     52  C   UNL A   1      44.539  24.454  29.244  1.00  0.00     0.031 C 
ATOM     53  C   UNL A   1      45.487  28.351  33.805  1.00  0.00     0.029 A 
ATOM     54  C   UNL A   1      44.927  27.697  32.720  1.00  0.00     0.049 A 
ATOM     55  H   UNL A   1      43.137  28.134  31.688  1.00  0.00     0.167 HD
ATOM     56  C   UNL A   1      44.800  25.949  30.964  1.00  0.00     0.074 A 
ATOM     57  C   UNL A   1      45.312  24.788  30.267  1.00  0.00     0.031 C 
ATOM     58  C   UNL A   1      45.424  26.542  32.012  1.00  0.00     0.034 A 
BRANCH  45  59
ATOM     59  C   UNL A   1      42.498  31.540  34.202  1.00  0.00     0.023 A 
ATOM     60  C   UNL A   1      41.887  31.505  35.466  1.00  0.00     0.031 A 
ATOM     61  C   UNL A   1      43.166  32.720  33.828  1.00  0.00     0.131 A 
ATOM     62  C   UNL A   1      41.908  32.644  36.288  1.00  0.00     0.055 A 
ATOM     63  C   UNL A   1      43.247  33.825  34.678  1.00  0.00     0.041 A 
ATOM     64  F   UNL A   1      43.753  32.821  32.624  1.00  0.00    -0.206 F 
ATOM     65  C   UNL A   1      42.606  33.794  35.912  1.00  0.00     0.022 A 
BRANCH  62  66
ATOM     66  S   UNL A   1      40.920  32.637  37.808  1.00  0.00     0.124 S 
ATOM     67  O   UNL A   1      41.787  31.893  38.720  1.00  0.00    -0.237 OA
ATOM     68  O   UNL A   1      40.766  34.059  38.092  1.00  0.00    -0.237 OA
ATOM     69  O   UNL A   1      39.694  31.942  37.419  1.00  0.00    -0.744 OA
ENDBRANCH  62  66
ENDBRANCH  45  59
BRANCH  46  70
ATOM     70  C   UNL A   1      42.338  24.262  27.314  1.00  0.00     0.023 A 
ATOM     71  C   UNL A   1      41.658  23.040  27.439  1.00  0.00     0.031 A 
ATOM     72  C   UNL A   1      43.118  24.464  26.160  1.00  0.00     0.131 A 
ATOM     73  C   UNL A   1      41.822  22.044  26.464  1.00  0.00     0.055 A 
ATOM     74  C   UNL A   1      43.227  23.494  25.162  1.00  0.00     0.041 A 
ATOM     75  F   UNL A   1      43.785  25.617  25.985  1.00  0.00    -0.206 F 
ATOM     76  C   UNL A   1      42.591  22.268  25.321  1.00  0.00     0.022 A 
BRANCH  73  77
ATOM     77  S   UNL A   1      41.105  20.406  26.770  1.00  0.00     0.124 S 
ATOM     78  O   UNL A   1      39.892  20.457  25.962  1.00  0.00    -0.237 OA
ATOM     79  O   UNL A   1      42.161  19.521  26.289  1.00  0.00    -0.237 OA
ATOM     80  O   UNL A   1      40.894  20.393  28.216  1.00  0.00    -0.744 OA
ENDBRANCH  73  77
ENDBRANCH  46  70
BRANCH  58  81
ATOM     81  C   UNL A   1      46.705  25.907  32.497  1.00  0.00     0.023 A 
ATOM     82  C   UNL A   1      46.712  24.934  33.511  1.00  0.00     0.031 A 
ATOM     83  C   UNL A   1      47.938  26.295  31.943  1.00  0.00     0.131 A 
ATOM     84  C   UNL A   1      47.931  24.422  33.979  1.00  0.00     0.055 A 
ATOM     85  C   UNL A   1      49.143  25.736  32.370  1.00  0.00     0.041 A 
ATOM     86  F   UNL A   1      47.990  27.222  30.973  1.00  0.00    -0.206 F 
ATOM     87  C   UNL A   1      49.145  24.804  33.403  1.00  0.00     0.022 A 
BRANCH  84  88
ATOM     88  S   UNL A   1      47.917  23.317  35.418  1.00  0.00     0.124 S 
ATOM     89  O   UNL A   1      48.158  22.016  34.803  1.00  0.00    -0.237 OA
ATOM     90  O   UNL A   1      49.005  23.850  36.232  1.00  0.00    -0.237 OA
ATOM     91  O   UNL A   1      46.579  23.500  35.978  1.00  0.00    -0.744 OA
ENDBRANCH  84  88
ENDBRANCH  58  81
ENDBRANCH  32  33
ENDBRANCH  24  27
ENDBRANCH  22  23
ENDBRANCH  21  22
ENDBRANCH   1  21
TORSDOF 18
ENDMDL
MODEL 3
REMARK VINA RESULT:     -10.6      6.378     11.613
REMARK SMILES CC(C)[C@@H](CO)Nc1ccc(C(=O)NCCCNC(=O)c2ccc(-c3c4nc(c(-c5cc(S(=O)(=O)[O-])ccc5F)c5ccc([nH]5)c(-c5cc(S(=O)(=O)[O-])ccc5F)c5nc(c(-c6cc(S(=O)(=O)[O-])ccc6F)c6ccc3[nH]6)C=C5)C=C4)cc2)nn1
REMARK SMILES IDX 15 1 14 2 12 3 13 4 11 6 8 7 9 8 85 9 10 10 84 11 7 12 4 14
REMARK SMILES IDX 2 15 1 16 3 17 5 18 6 19 16 21 17 22 18 23 19 24 20 26 21 27
REMARK SMILES IDX 22 28 83 29 23 30 82 31 24 32 25 33 26 34 76 35 27 36 81 37
REMARK SMILES IDX 75 38 77 39 28 40 80 41 74 42 73 43 29 45 61 46 41 47 60 48
REMARK SMILES IDX 42 49 45 50 59 51 78 52 43 53 44 54 58 56 79 57 46 58 30 59
REMARK SMILES IDX 31 60 39 61 32 62 38 63 40 64 37 65 33 66 34 67 35 68 36 69
REMARK SMILES IDX 62 70 63 71 71 72 64 73 70 74 72 75 69 76 65 77 66 78 67 79
REMARK SMILES IDX 68 80 47 81 48 82 56 83 49 84 55 85 57 86 54 87 50 88 51 89
REMARK SMILES IDX 52 90 53 91
REMARK H PARENT 14 5 7 13 6 20 18 25 77 44 45 55
REMARK Flexibility Score: inf
ROOT
ATOM      1  C   UNL A   1      37.326  20.767  24.586  1.00  0.00     0.118 C 
ENDROOT
BRANCH   1   2
ATOM      2  N   UNL A   1      37.821  22.048  25.052  1.00  0.00    -0.351 N 
ATOM      3  C   UNL A   1      37.192  23.189  25.502  1.00  0.00     0.271 C 
ATOM      4  O   UNL A   1      37.925  24.094  25.902  1.00  0.00    -0.267 OA
ATOM      5  H   UNL A   1      38.804  22.117  25.046  1.00  0.00     0.163 HD
BRANCH   3   6
ATOM      6  C   UNL A   1      35.706  23.354  25.559  1.00  0.00     0.150 A 
ATOM      7  C   UNL A   1      32.990  23.818  25.393  1.00  0.00     0.148 A 
ATOM      8  C   UNL A   1      33.541  23.375  26.584  1.00  0.00     0.051 A 
ATOM      9  N   UNL A   1      33.778  23.970  24.315  1.00  0.00    -0.132 NA
ATOM     10  C   UNL A   1      34.910  23.108  26.661  1.00  0.00     0.040 A 
ATOM     11  N   UNL A   1      35.144  23.761  24.399  1.00  0.00    -0.143 NA
BRANCH   7  12
ATOM     12  N   UNL A   1      31.654  24.129  25.258  1.00  0.00    -0.363 N 
ATOM     13  H   UNL A   1      31.205  23.985  24.393  1.00  0.00     0.162 HD
BRANCH  12  14
ATOM     14  C   UNL A   1      30.898  24.672  26.389  1.00  0.00     0.108 C 
BRANCH  14  15
ATOM     15  C   UNL A   1      30.380  26.094  26.016  1.00  0.00     0.007 C 
ATOM     16  C   UNL A   1      31.365  27.191  26.435  1.00  0.00     0.009 C 
ATOM     17  C   UNL A   1      30.117  26.224  24.507  1.00  0.00     0.009 C 
ENDBRANCH  14  15
BRANCH  14  18
ATOM     18  C   UNL A   1      29.774  23.674  26.767  1.00  0.00     0.181 C 
BRANCH  18  19
ATOM     19  O   UNL A   1      30.230  22.571  27.547  1.00  0.00    -0.394 OA
ATOM     20  H   UNL A   1      29.780  22.574  28.405  1.00  0.00     0.210 HD
ENDBRANCH  18  19
ENDBRANCH  14  18
ENDBRANCH  12  14
ENDBRANCH   7  12
ENDBRANCH   3   6
ENDBRANCH   1   2
BRANCH   1  21
ATOM     21  C   UNL A   1      38.267  19.628  24.977  1.00  0.00     0.042 C 
BRANCH  21  22
ATOM     22  C   UNL A   1      39.238  19.998  26.098  1.00  0.00     0.118 C 
BRANCH  22  23
ATOM     23  N   UNL A   1      40.421  19.150  26.089  1.00  0.00    -0.352 N 
ATOM     24  C   UNL A   1      41.753  19.482  26.104  1.00  0.00     0.251 C 
ATOM     25  H   UNL A   1      40.236  18.182  26.070  1.00  0.00     0.163 HD
ATOM     26  O   UNL A   1      42.580  18.617  25.827  1.00  0.00    -0.269 OA
BRANCH  24  27
ATOM     27  C   UNL A   1      42.195  20.855  26.438  1.00  0.00     0.039 A 
ATOM     28  C   UNL A   1      42.275  21.804  25.412  1.00  0.00     0.014 A 
ATOM     29  C   UNL A   1      42.592  21.200  27.733  1.00  0.00     0.014 A 
ATOM     30  C   UNL A   1      42.700  23.105  25.694  1.00  0.00     0.010 A 
ATOM     31  C   UNL A   1      42.951  22.516  28.026  1.00  0.00     0.010 A 
ATOM     32  C   UNL A   1      43.014  23.481  27.009  1.00  0.00    -0.014 A 
BRANCH  32  33
ATOM     33  C   UNL A   1      43.408  24.878  27.340  1.00  0.00     0.031 A 
ATOM     34  C   UNL A   1      42.423  25.806  28.001  1.00  0.00     0.074 A 
ATOM     35  C   UNL A   1      44.627  25.326  26.979  1.00  0.00     0.049 A 
ATOM     36  N   UNL A   1      42.547  27.077  28.285  1.00  0.00    -0.248 NA
ATOM     37  C   UNL A   1      41.117  25.236  28.366  1.00  0.00     0.031 C 
ATOM     38  C   UNL A   1      45.650  24.531  26.294  1.00  0.00     0.029 A 
ATOM     39  N   UNL A   1      45.211  26.561  27.116  1.00  0.00    -0.354 N 
ATOM     40  C   UNL A   1      41.329  27.467  28.832  1.00  0.00     0.074 A 
ATOM     41  C   UNL A   1      40.468  26.305  28.806  1.00  0.00     0.031 C 
ATOM     42  C   UNL A   1      46.733  25.294  26.080  1.00  0.00     0.029 A 
ATOM     43  C   UNL A   1      46.470  26.644  26.567  1.00  0.00     0.049 A 
ATOM     44  H   UNL A   1      44.769  27.318  27.567  1.00  0.00     0.167 HD
ATOM     45  C   UNL A   1      40.969  28.680  29.321  1.00  0.00     0.034 A 
ATOM     46  C   UNL A   1      47.310  27.693  26.449  1.00  0.00     0.034 A 
ATOM     47  C   UNL A   1      41.854  29.819  29.368  1.00  0.00     0.049 A 
ATOM     48  C   UNL A   1      46.887  29.028  27.011  1.00  0.00     0.074 A 
ATOM     49  C   UNL A   1      41.623  31.064  29.928  1.00  0.00     0.029 A 
ATOM     50  N   UNL A   1      43.133  29.858  28.829  1.00  0.00    -0.354 N 
ATOM     51  N   UNL A   1      45.759  29.356  27.600  1.00  0.00    -0.248 NA
ATOM     52  C   UNL A   1      47.853  30.129  26.909  1.00  0.00     0.031 C 
ATOM     53  C   UNL A   1      42.731  31.876  29.665  1.00  0.00     0.029 A 
ATOM     54  C   UNL A   1      43.687  31.117  29.010  1.00  0.00     0.049 A 
ATOM     55  H   UNL A   1      43.581  29.103  28.384  1.00  0.00     0.167 HD
ATOM     56  C   UNL A   1      45.896  30.693  27.964  1.00  0.00     0.074 A 
ATOM     57  C   UNL A   1      47.222  31.102  27.549  1.00  0.00     0.031 C 
ATOM     58  C   UNL A   1      45.010  31.509  28.588  1.00  0.00     0.034 A 
BRANCH  45  59
ATOM     59  C   UNL A   1      39.553  28.853  29.814  1.00  0.00     0.023 A 
ATOM     60  C   UNL A   1      38.535  29.365  28.993  1.00  0.00     0.031 A 
ATOM     61  C   UNL A   1      39.214  28.482  31.128  1.00  0.00     0.131 A 
ATOM     62  C   UNL A   1      37.241  29.544  29.509  1.00  0.00     0.055 A 
ATOM     63  C   UNL A   1      37.910  28.593  31.614  1.00  0.00     0.041 A 
ATOM     64  F   UNL A   1      40.149  28.004  31.965  1.00  0.00    -0.206 F 
ATOM     65  C   UNL A   1      36.917  29.137  30.805  1.00  0.00     0.022 A 
BRANCH  62  66
ATOM     66  S   UNL A   1      36.014  30.415  28.498  1.00  0.00     0.124 S 
ATOM     67  O   UNL A   1      35.330  31.230  29.500  1.00  0.00    -0.237 OA
ATOM     68  O   UNL A   1      36.846  31.140  27.545  1.00  0.00    -0.237 OA
ATOM     69  O   UNL A   1      35.209  29.335  27.929  1.00  0.00    -0.744 OA
ENDBRANCH  62  66
ENDBRANCH  45  59
BRANCH  46  70
ATOM     70  C   UNL A   1      48.622  27.545  25.753  1.00  0.00     0.023 A 
ATOM     71  C   UNL A   1      48.724  27.683  24.360  1.00  0.00     0.031 A 
ATOM     72  C   UNL A   1      49.784  27.194  26.465  1.00  0.00     0.131 A 
ATOM     73  C   UNL A   1      49.941  27.410  23.716  1.00  0.00     0.055 A 
ATOM     74  C   UNL A   1      51.007  26.984  25.827  1.00  0.00     0.041 A 
ATOM     75  F   UNL A   1      49.745  27.053  27.801  1.00  0.00    -0.206 F 
ATOM     76  C   UNL A   1      51.086  27.073  24.441  1.00  0.00     0.022 A 
BRANCH  73  77
ATOM     77  S   UNL A   1      49.976  27.387  21.902  1.00  0.00     0.124 S 
ATOM     78  O   UNL A   1      49.876  28.807  21.585  1.00  0.00    -0.237 OA
ATOM     79  O   UNL A   1      51.266  26.758  21.634  1.00  0.00    -0.237 OA
ATOM     80  O   UNL A   1      48.807  26.584  21.551  1.00  0.00    -0.744 OA
ENDBRANCH  73  77
ENDBRANCH  46  70
BRANCH  58  81
ATOM     81  C   UNL A   1      45.472  32.911  28.901  1.00  0.00     0.023 A 
ATOM     82  C   UNL A   1      45.117  34.006  28.094  1.00  0.00     0.031 A 
ATOM     83  C   UNL A   1      46.291  33.151  30.019  1.00  0.00     0.131 A 
ATOM     84  C   UNL A   1      45.627  35.280  28.383  1.00  0.00     0.055 A 
ATOM     85  C   UNL A   1      46.743  34.432  30.336  1.00  0.00     0.041 A 
ATOM     86  F   UNL A   1      46.663  32.141  30.822  1.00  0.00    -0.206 F 
ATOM     87  C   UNL A   1      46.423  35.504  29.509  1.00  0.00     0.022 A 
BRANCH  84  88
ATOM     88  S   UNL A   1      45.311  36.631  27.212  1.00  0.00     0.124 S 
ATOM     89  O   UNL A   1      46.476  36.551  26.337  1.00  0.00    -0.237 OA
ATOM     90  O   UNL A   1      44.037  36.236  26.618  1.00  0.00    -0.237 OA
ATOM     91  O   UNL A   1      45.255  37.817  28.065  1.00  0.00    -0.744 OA
ENDBRANCH  84  88
ENDBRANCH  58  81
ENDBRANCH  32  33
ENDBRANCH  24  27
ENDBRANCH  22  23
ENDBRANCH  21  22
ENDBRANCH   1  21
TORSDOF 18
ENDMDL
