MODEL 1
REMARK VINA RESULT:     -10.2      0.000      0.000
REMARK SMILES [NH3+][C@H]1CCC[C@H]1C(=O)NCc1ccc(C(=O)NCCCNC(=O)c2ccc(-c3c4nc(c(-c5cc(S(=O)(=O)[O-])ccc5F)c5ccc([nH]5)c(-c5cc(S(=O)(=O)[O-])ccc5F)c5nc(c(-c6cc(S(=O)(=O)[O-])ccc6F)c6ccc3[nH]6)C=C5)C=C4)cc2)o1
REMARK SMILES IDX 18 1 17 2 15 3 16 4 14 6 11 7 12 8 87 9 13 10 10 11 9 12
REMARK SMILES IDX 7 13 8 14 6 16 2 17 3 18 4 19 5 20 1 21 19 25 20 26 21 27
REMARK SMILES IDX 22 28 23 30 24 31 25 32 86 33 26 34 85 35 27 36 28 37 29 38
REMARK SMILES IDX 79 39 30 40 84 41 78 42 80 43 31 44 83 45 77 46 76 47 32 49
REMARK SMILES IDX 64 50 44 51 63 52 45 53 48 54 62 55 81 56 46 57 47 58 61 60
REMARK SMILES IDX 82 61 49 62 33 63 34 64 42 65 35 66 41 67 43 68 40 69 36 70
REMARK SMILES IDX 37 71 38 72 39 73 65 74 66 75 74 76 67 77 73 78 75 79 72 80
REMARK SMILES IDX 68 81 69 82 70 83 71 84 50 85 51 86 59 87 52 88 58 89 60 90
REMARK SMILES IDX 57 91 53 92 54 93 55 94 56 95
REMARK H PARENT 17 5 9 15 1 22 1 23 1 24 21 29 80 48 48 59
REMARK Flexibility Score: inf
ROOT
ATOM      1  C   UNL A   1      42.346  20.253  27.807  1.00  0.00     0.118 C 
ENDROOT
BRANCH   1   2
ATOM      2  N   UNL A   1      42.206  18.997  27.101  1.00  0.00    -0.349 N 
ATOM      3  C   UNL A   1      42.996  18.417  26.138  1.00  0.00     0.286 C 
ATOM      4  O   UNL A   1      42.721  17.250  25.850  1.00  0.00    -0.266 OA
ATOM      5  H   UNL A   1      41.414  18.470  27.354  1.00  0.00     0.163 HD
BRANCH   3   6
ATOM      6  C   UNL A   1      44.092  19.140  25.520  1.00  0.00     0.191 A 
ATOM      7  C   UNL A   1      44.876  20.780  24.251  1.00  0.00     0.124 A 
ATOM      8  C   UNL A   1      45.977  20.113  24.738  1.00  0.00     0.048 A 
ATOM      9  O   UNL A   1      43.741  20.188  24.706  1.00  0.00    -0.454 OA
ATOM     10  C   UNL A   1      45.475  19.082  25.573  1.00  0.00     0.056 A 
BRANCH   7  11
ATOM     11  C   UNL A   1      44.707  22.022  23.458  1.00  0.00     0.191 C 
BRANCH  11  12
ATOM     12  N   UNL A   1      43.838  22.951  24.145  1.00  0.00    -0.348 N 
ATOM     13  C   UNL A   1      44.058  23.807  25.171  1.00  0.00     0.229 C 
ATOM     14  O   UNL A   1      43.096  24.494  25.536  1.00  0.00    -0.275 OA
ATOM     15  H   UNL A   1      42.914  22.963  23.803  1.00  0.00     0.163 HD
BRANCH  13  16
ATOM     16  C   UNL A   1      45.398  23.964  25.879  1.00  0.00     0.136 C 
ATOM     17  C   UNL A   1      46.198  25.252  25.623  1.00  0.00     0.193 C 
ATOM     18  C   UNL A   1      47.093  25.422  26.863  1.00  0.00     0.066 C 
ATOM     19  C   UNL A   1      46.731  24.322  27.855  1.00  0.00     0.007 C 
ATOM     20  C   UNL A   1      45.425  23.706  27.380  1.00  0.00     0.020 C 
BRANCH  17  21
ATOM     21  N   UNL A   1      45.512  26.507  25.378  1.00  0.00    -0.354 N 
ATOM     22  H   UNL A   1      44.581  26.472  25.794  1.00  0.00     0.344 HD
ATOM     23  H   UNL A   1      45.430  26.659  24.373  1.00  0.00     0.344 HD
ATOM     24  H   UNL A   1      46.042  27.271  25.796  1.00  0.00     0.344 HD
ENDBRANCH  17  21
ENDBRANCH  13  16
ENDBRANCH  11  12
ENDBRANCH   7  11
ENDBRANCH   3   6
ENDBRANCH   1   2
BRANCH   1  25
ATOM     25  C   UNL A   1      41.116  21.142  27.644  1.00  0.00     0.042 C 
BRANCH  25  26
ATOM     26  C   UNL A   1      40.991  21.754  26.249  1.00  0.00     0.118 C 
BRANCH  26  27
ATOM     27  N   UNL A   1      39.600  21.930  25.856  1.00  0.00    -0.352 N 
ATOM     28  C   UNL A   1      38.709  22.931  26.151  1.00  0.00     0.251 C 
ATOM     29  H   UNL A   1      39.239  21.213  25.286  1.00  0.00     0.163 HD
ATOM     30  O   UNL A   1      37.513  22.739  25.942  1.00  0.00    -0.269 OA
BRANCH  28  31
ATOM     31  C   UNL A   1      39.166  24.220  26.717  1.00  0.00     0.039 A 
ATOM     32  C   UNL A   1      38.922  24.486  28.069  1.00  0.00     0.014 A 
ATOM     33  C   UNL A   1      39.768  25.193  25.915  1.00  0.00     0.014 A 
ATOM     34  C   UNL A   1      39.329  25.702  28.625  1.00  0.00     0.010 A 
ATOM     35  C   UNL A   1      40.231  26.378  26.485  1.00  0.00     0.010 A 
ATOM     36  C   UNL A   1      40.013  26.647  27.845  1.00  0.00    -0.014 A 
BRANCH  36  37
ATOM     37  C   UNL A   1      40.497  27.926  28.429  1.00  0.00     0.031 A 
ATOM     38  C   UNL A   1      41.972  28.160  28.616  1.00  0.00     0.074 A 
ATOM     39  C   UNL A   1      39.607  28.845  28.848  1.00  0.00     0.049 A 
ATOM     40  N   UNL A   1      42.585  29.161  29.194  1.00  0.00    -0.248 NA
ATOM     41  C   UNL A   1      42.872  27.113  28.111  1.00  0.00     0.031 C 
ATOM     42  C   UNL A   1      38.151  28.716  28.749  1.00  0.00     0.029 A 
ATOM     43  N   UNL A   1      39.791  30.062  29.454  1.00  0.00    -0.354 N 
ATOM     44  C   UNL A   1      43.943  28.859  29.138  1.00  0.00     0.074 A 
ATOM     45  C   UNL A   1      44.053  27.555  28.518  1.00  0.00     0.031 C 
ATOM     46  C   UNL A   1      37.576  29.817  29.261  1.00  0.00     0.029 A 
ATOM     47  C   UNL A   1      38.617  30.709  29.763  1.00  0.00     0.049 A 
ATOM     48  H   UNL A   1      40.680  30.437  29.648  1.00  0.00     0.167 HD
ATOM     49  C   UNL A   1      44.998  29.607  29.548  1.00  0.00     0.034 A 
ATOM     50  C   UNL A   1      38.402  31.880  30.393  1.00  0.00     0.034 A 
ATOM     51  C   UNL A   1      44.869  30.912  30.153  1.00  0.00     0.049 A 
ATOM     52  C   UNL A   1      39.588  32.688  30.854  1.00  0.00     0.074 A 
ATOM     53  C   UNL A   1      45.870  31.777  30.561  1.00  0.00     0.029 A 
ATOM     54  N   UNL A   1      43.663  31.539  30.441  1.00  0.00    -0.354 N 
ATOM     55  N   UNL A   1      40.867  32.405  30.761  1.00  0.00    -0.248 NA
ATOM     56  C   UNL A   1      39.300  33.978  31.495  1.00  0.00     0.031 C 
ATOM     57  C   UNL A   1      45.270  32.899  31.147  1.00  0.00     0.029 A 
ATOM     58  C   UNL A   1      43.895  32.767  31.044  1.00  0.00     0.049 A 
ATOM     59  H   UNL A   1      42.773  31.167  30.246  1.00  0.00     0.167 HD
ATOM     60  C   UNL A   1      41.536  33.495  31.306  1.00  0.00     0.074 A 
ATOM     61  C   UNL A   1      40.520  34.445  31.713  1.00  0.00     0.031 C 
ATOM     62  C   UNL A   1      42.870  33.697  31.454  1.00  0.00     0.034 A 
BRANCH  49  63
ATOM     63  C   UNL A   1      46.376  29.014  29.379  1.00  0.00     0.023 A 
ATOM     64  C   UNL A   1      47.136  29.234  28.216  1.00  0.00     0.031 A 
ATOM     65  C   UNL A   1      46.928  28.192  30.377  1.00  0.00     0.131 A 
ATOM     66  C   UNL A   1      48.364  28.577  28.044  1.00  0.00     0.055 A 
ATOM     67  C   UNL A   1      48.188  27.605  30.236  1.00  0.00     0.041 A 
ATOM     68  F   UNL A   1      46.243  27.929  31.501  1.00  0.00    -0.206 F 
ATOM     69  C   UNL A   1      48.907  27.783  29.057  1.00  0.00     0.022 A 
BRANCH  66  70
ATOM     70  S   UNL A   1      49.170  28.659  26.422  1.00  0.00     0.124 S 
ATOM     71  O   UNL A   1      49.725  30.010  26.437  1.00  0.00    -0.237 OA
ATOM     72  O   UNL A   1      50.136  27.569  26.494  1.00  0.00    -0.237 OA
ATOM     73  O   UNL A   1      48.069  28.457  25.482  1.00  0.00    -0.744 OA
ENDBRANCH  66  70
ENDBRANCH  49  63
BRANCH  50  74
ATOM     74  C   UNL A   1      37.012  32.360  30.637  1.00  0.00     0.023 A 
ATOM     75  C   UNL A   1      36.290  33.020  29.631  1.00  0.00     0.031 A 
ATOM     76  C   UNL A   1      36.399  32.195  31.892  1.00  0.00     0.131 A 
ATOM     77  C   UNL A   1      35.012  33.529  29.907  1.00  0.00     0.055 A 
ATOM     78  C   UNL A   1      35.109  32.663  32.148  1.00  0.00     0.041 A 
ATOM     79  F   UNL A   1      37.044  31.563  32.885  1.00  0.00    -0.206 F 
ATOM     80  C   UNL A   1      34.412  33.345  31.155  1.00  0.00     0.022 A 
BRANCH  77  81
ATOM     81  S   UNL A   1      34.172  34.504  28.630  1.00  0.00     0.124 S 
ATOM     82  O   UNL A   1      34.805  34.010  27.413  1.00  0.00    -0.237 OA
ATOM     83  O   UNL A   1      32.777  34.123  28.829  1.00  0.00    -0.237 OA
ATOM     84  O   UNL A   1      34.495  35.884  28.988  1.00  0.00    -0.744 OA
ENDBRANCH  77  81
ENDBRANCH  50  74
BRANCH  62  85
ATOM     85  C   UNL A   1      43.298  35.018  32.042  1.00  0.00     0.023 A 
ATOM     86  C   UNL A   1      43.595  36.127  31.231  1.00  0.00     0.031 A 
ATOM     87  C   UNL A   1      43.427  35.162  33.436  1.00  0.00     0.131 A 
ATOM     88  C   UNL A   1      44.059  37.315  31.816  1.00  0.00     0.055 A 
ATOM     89  C   UNL A   1      43.836  36.363  34.015  1.00  0.00     0.041 A 
ATOM     90  F   UNL A   1      43.158  34.133  34.256  1.00  0.00    -0.206 F 
ATOM     91  C   UNL A   1      44.167  37.444  33.204  1.00  0.00     0.022 A 
BRANCH  88  92
ATOM     92  S   UNL A   1      44.605  38.664  30.733  1.00  0.00     0.124 S 
ATOM     93  O   UNL A   1      45.870  38.148  30.219  1.00  0.00    -0.237 OA
ATOM     94  O   UNL A   1      43.514  38.752  29.769  1.00  0.00    -0.237 OA
ATOM     95  O   UNL A   1      44.724  39.805  31.639  1.00  0.00    -0.744 OA
ENDBRANCH  88  92
ENDBRANCH  62  85
ENDBRANCH  36  37
ENDBRANCH  28  31
ENDBRANCH  26  27
ENDBRANCH  25  26
ENDBRANCH   1  25
TORSDOF 17
ENDMDL
MODEL 2
REMARK VINA RESULT:     -10.1      4.721     10.584
REMARK SMILES [NH3+][C@H]1CCC[C@H]1C(=O)NCc1ccc(C(=O)NCCCNC(=O)c2ccc(-c3c4nc(c(-c5cc(S(=O)(=O)[O-])ccc5F)c5ccc([nH]5)c(-c5cc(S(=O)(=O)[O-])ccc5F)c5nc(c(-c6cc(S(=O)(=O)[O-])ccc6F)c6ccc3[nH]6)C=C5)C=C4)cc2)o1
REMARK SMILES IDX 18 1 17 2 15 3 16 4 14 6 11 7 12 8 87 9 13 10 10 11 9 12
REMARK SMILES IDX 7 13 8 14 6 16 2 17 3 18 4 19 5 20 1 21 19 25 20 26 21 27
REMARK SMILES IDX 22 28 23 30 24 31 25 32 86 33 26 34 85 35 27 36 28 37 29 38
REMARK SMILES IDX 79 39 30 40 84 41 78 42 80 43 31 44 83 45 77 46 76 47 32 49
REMARK SMILES IDX 64 50 44 51 63 52 45 53 48 54 62 55 81 56 46 57 47 58 61 60
REMARK SMILES IDX 82 61 49 62 33 63 34 64 42 65 35 66 41 67 43 68 40 69 36 70
REMARK SMILES IDX 37 71 38 72 39 73 65 74 66 75 74 76 67 77 73 78 75 79 72 80
REMARK SMILES IDX 68 81 69 82 70 83 71 84 50 85 51 86 59 87 52 88 58 89 60 90
REMARK SMILES IDX 57 91 53 92 54 93 55 94 56 95
REMARK H PARENT 17 5 9 15 1 22 1 23 1 24 21 29 80 48 48 59
REMARK Flexibility Score: inf
ROOT
ATOM      1  C   UNL A   1      34.852  22.422  24.682  1.00  0.00     0.118 C 
ENDROOT
BRANCH   1   2
ATOM      2  N   UNL A   1      33.882  21.667  23.916  1.00  0.00    -0.349 N 
ATOM      3  C   UNL A   1      32.513  21.771  23.852  1.00  0.00     0.286 C 
ATOM      4  O   UNL A   1      31.967  21.106  22.968  1.00  0.00    -0.266 OA
ATOM      5  H   UNL A   1      34.268  20.962  23.347  1.00  0.00     0.163 HD
BRANCH   3   6
ATOM      6  C   UNL A   1      31.774  22.625  24.763  1.00  0.00     0.191 A 
ATOM      7  C   UNL A   1      30.863  24.572  25.305  1.00  0.00     0.124 A 
ATOM      8  C   UNL A   1      30.553  23.706  26.328  1.00  0.00     0.048 A 
ATOM      9  O   UNL A   1      31.612  23.929  24.370  1.00  0.00    -0.454 OA
ATOM     10  C   UNL A   1      31.111  22.453  25.967  1.00  0.00     0.056 A 
BRANCH   7  11
ATOM     11  C   UNL A   1      30.464  25.966  24.995  1.00  0.00     0.191 C 
BRANCH  11  12
ATOM     12  N   UNL A   1      30.808  26.303  23.631  1.00  0.00    -0.348 N 
ATOM     13  C   UNL A   1      30.449  27.339  22.837  1.00  0.00     0.229 C 
ATOM     14  O   UNL A   1      30.931  27.355  21.697  1.00  0.00    -0.275 OA
ATOM     15  H   UNL A   1      31.419  25.660  23.202  1.00  0.00     0.163 HD
BRANCH  13  16
ATOM     16  C   UNL A   1      29.506  28.456  23.265  1.00  0.00     0.136 C 
ATOM     17  C   UNL A   1      29.853  29.891  22.834  1.00  0.00     0.193 C 
ATOM     18  C   UNL A   1      28.511  30.644  22.828  1.00  0.00     0.066 C 
ATOM     19  C   UNL A   1      27.409  29.636  23.136  1.00  0.00     0.007 C 
ATOM     20  C   UNL A   1      28.020  28.251  23.000  1.00  0.00     0.020 C 
BRANCH  17  21
ATOM     21  N   UNL A   1      30.522  30.138  21.571  1.00  0.00    -0.354 N 
ATOM     22  H   UNL A   1      29.861  30.551  20.911  1.00  0.00     0.344 HD
ATOM     23  H   UNL A   1      30.873  29.258  21.194  1.00  0.00     0.344 HD
ATOM     24  H   UNL A   1      31.300  30.780  21.718  1.00  0.00     0.344 HD
ENDBRANCH  17  21
ENDBRANCH  13  16
ENDBRANCH  11  12
ENDBRANCH   7  11
ENDBRANCH   3   6
ENDBRANCH   1   2
BRANCH   1  25
ATOM     25  C   UNL A   1      35.838  21.513  25.412  1.00  0.00     0.042 C 
BRANCH  25  26
ATOM     26  C   UNL A   1      37.212  21.449  24.745  1.00  0.00     0.118 C 
BRANCH  26  27
ATOM     27  N   UNL A   1      38.046  20.404  25.321  1.00  0.00    -0.352 N 
ATOM     28  C   UNL A   1      39.300  20.467  25.875  1.00  0.00     0.251 C 
ATOM     29  H   UNL A   1      37.645  19.505  25.312  1.00  0.00     0.163 HD
ATOM     30  O   UNL A   1      39.923  19.422  26.049  1.00  0.00    -0.269 OA
BRANCH  28  31
ATOM     31  C   UNL A   1      39.905  21.764  26.254  1.00  0.00     0.039 A 
ATOM     32  C   UNL A   1      41.196  21.772  26.793  1.00  0.00     0.014 A 
ATOM     33  C   UNL A   1      39.189  22.959  26.147  1.00  0.00     0.014 A 
ATOM     34  C   UNL A   1      41.786  22.981  27.174  1.00  0.00     0.010 A 
ATOM     35  C   UNL A   1      39.802  24.169  26.466  1.00  0.00     0.010 A 
ATOM     36  C   UNL A   1      41.104  24.194  26.988  1.00  0.00    -0.014 A 
BRANCH  36  37
ATOM     37  C   UNL A   1      41.732  25.494  27.340  1.00  0.00     0.031 A 
ATOM     38  C   UNL A   1      40.969  26.505  28.154  1.00  0.00     0.074 A 
ATOM     39  C   UNL A   1      42.960  25.788  26.872  1.00  0.00     0.049 A 
ATOM     40  N   UNL A   1      41.303  27.728  28.479  1.00  0.00    -0.248 NA
ATOM     41  C   UNL A   1      39.645  26.092  28.639  1.00  0.00     0.031 C 
ATOM     42  C   UNL A   1      43.783  24.902  26.047  1.00  0.00     0.029 A 
ATOM     43  N   UNL A   1      43.727  26.918  27.011  1.00  0.00    -0.354 N 
ATOM     44  C   UNL A   1      40.223  28.239  29.194  1.00  0.00     0.074 A 
ATOM     45  C   UNL A   1      39.206  27.208  29.204  1.00  0.00     0.031 C 
ATOM     46  C   UNL A   1      44.945  25.515  25.766  1.00  0.00     0.029 A 
ATOM     47  C   UNL A   1      44.933  26.850  26.354  1.00  0.00     0.049 A 
ATOM     48  H   UNL A   1      43.440  27.702  27.533  1.00  0.00     0.167 HD
ATOM     49  C   UNL A   1      40.100  29.447  29.800  1.00  0.00     0.034 A 
ATOM     50  C   UNL A   1      45.912  27.767  26.224  1.00  0.00     0.034 A 
ATOM     51  C   UNL A   1      41.131  30.458  29.790  1.00  0.00     0.049 A 
ATOM     52  C   UNL A   1      45.748  29.108  26.894  1.00  0.00     0.074 A 
ATOM     53  C   UNL A   1      41.132  31.695  30.412  1.00  0.00     0.029 A 
ATOM     54  N   UNL A   1      42.344  30.350  29.122  1.00  0.00    -0.354 N 
ATOM     55  N   UNL A   1      44.736  29.562  27.596  1.00  0.00    -0.248 NA
ATOM     56  C   UNL A   1      46.863  30.054  26.760  1.00  0.00     0.031 C 
ATOM     57  C   UNL A   1      42.318  32.357  30.071  1.00  0.00     0.029 A 
ATOM     58  C   UNL A   1      43.089  31.508  29.295  1.00  0.00     0.049 A 
ATOM     59  H   UNL A   1      42.633  29.566  28.601  1.00  0.00     0.167 HD
ATOM     60  C   UNL A   1      45.106  30.837  28.012  1.00  0.00     0.074 A 
ATOM     61  C   UNL A   1      46.438  31.073  27.492  1.00  0.00     0.031 C 
ATOM     62  C   UNL A   1      44.411  31.731  28.759  1.00  0.00     0.034 A 
BRANCH  49  63
ATOM     63  C   UNL A   1      38.794  29.743  30.497  1.00  0.00     0.023 A 
ATOM     64  C   UNL A   1      37.791  30.519  29.888  1.00  0.00     0.031 A 
ATOM     65  C   UNL A   1      38.556  29.271  31.800  1.00  0.00     0.131 A 
ATOM     66  C   UNL A   1      36.638  30.867  30.608  1.00  0.00     0.055 A 
ATOM     67  C   UNL A   1      37.370  29.553  32.482  1.00  0.00     0.041 A 
ATOM     68  F   UNL A   1      39.483  28.540  32.441  1.00  0.00    -0.206 F 
ATOM     69  C   UNL A   1      36.409  30.369  31.892  1.00  0.00     0.022 A 
BRANCH  66  70
ATOM     70  S   UNL A   1      35.513  32.098  29.896  1.00  0.00     0.124 S 
ATOM     71  O   UNL A   1      34.995  31.384  28.732  1.00  0.00    -0.237 OA
ATOM     72  O   UNL A   1      34.566  32.326  30.981  1.00  0.00    -0.237 OA
ATOM     73  O   UNL A   1      36.390  33.226  29.585  1.00  0.00    -0.744 OA
ENDBRANCH  66  70
ENDBRANCH  49  63
BRANCH  50  74
ATOM     74  C   UNL A   1      47.131  27.460  25.424  1.00  0.00     0.023 A 
ATOM     75  C   UNL A   1      47.217  27.826  24.072  1.00  0.00     0.031 A 
ATOM     76  C   UNL A   1      48.214  26.767  25.993  1.00  0.00     0.131 A 
ATOM     77  C   UNL A   1      48.344  27.459  23.320  1.00  0.00     0.055 A 
ATOM     78  C   UNL A   1      49.353  26.446  25.252  1.00  0.00     0.041 A 
ATOM     79  F   UNL A   1      48.186  26.403  27.285  1.00  0.00    -0.206 F 
ATOM     80  C   UNL A   1      49.417  26.782  23.903  1.00  0.00     0.022 A 
BRANCH  77  81
ATOM     81  S   UNL A   1      48.354  27.818  21.542  1.00  0.00     0.124 S 
ATOM     82  O   UNL A   1      48.709  26.521  20.978  1.00  0.00    -0.237 OA
ATOM     83  O   UNL A   1      46.982  28.263  21.317  1.00  0.00    -0.237 OA
ATOM     84  O   UNL A   1      49.372  28.858  21.411  1.00  0.00    -0.744 OA
ENDBRANCH  77  81
ENDBRANCH  50  74
BRANCH  62  85
ATOM     85  C   UNL A   1      45.107  33.027  29.092  1.00  0.00     0.023 A 
ATOM     86  C   UNL A   1      44.879  34.200  28.351  1.00  0.00     0.031 A 
ATOM     87  C   UNL A   1      46.025  33.083  30.156  1.00  0.00     0.131 A 
ATOM     88  C   UNL A   1      45.602  35.365  28.649  1.00  0.00     0.055 A 
ATOM     89  C   UNL A   1      46.700  34.259  30.484  1.00  0.00     0.041 A 
ATOM     90  F   UNL A   1      46.281  31.991  30.895  1.00  0.00    -0.206 F 
ATOM     91  C   UNL A   1      46.499  35.406  29.720  1.00  0.00     0.022 A 
BRANCH  88  92
ATOM     92  S   UNL A   1      45.419  36.806  27.563  1.00  0.00     0.124 S 
ATOM     93  O   UNL A   1      45.321  37.900  28.524  1.00  0.00    -0.237 OA
ATOM     94  O   UNL A   1      46.645  36.760  26.773  1.00  0.00    -0.237 OA
ATOM     95  O   UNL A   1      44.192  36.523  26.820  1.00  0.00    -0.744 OA
ENDBRANCH  88  92
ENDBRANCH  62  85
ENDBRANCH  36  37
ENDBRANCH  28  31
ENDBRANCH  26  27
ENDBRANCH  25  26
ENDBRANCH   1  25
TORSDOF 17
ENDMDL
MODEL 3
REMARK VINA RESULT:     -10.0      5.933     10.355
REMARK SMILES [NH3+][C@H]1CCC[C@H]1C(=O)NCc1ccc(C(=O)NCCCNC(=O)c2ccc(-c3c4nc(c(-c5cc(S(=O)(=O)[O-])ccc5F)c5ccc([nH]5)c(-c5cc(S(=O)(=O)[O-])ccc5F)c5nc(c(-c6cc(S(=O)(=O)[O-])ccc6F)c6ccc3[nH]6)C=C5)C=C4)cc2)o1
REMARK SMILES IDX 18 1 17 2 15 3 16 4 14 6 11 7 12 8 87 9 13 10 10 11 9 12
REMARK SMILES IDX 7 13 8 14 6 16 2 17 3 18 4 19 5 20 1 21 19 25 20 26 21 27
REMARK SMILES IDX 22 28 23 30 24 31 25 32 86 33 26 34 85 35 27 36 28 37 29 38
REMARK SMILES IDX 79 39 30 40 84 41 78 42 80 43 31 44 83 45 77 46 76 47 32 49
REMARK SMILES IDX 64 50 44 51 63 52 45 53 48 54 62 55 81 56 46 57 47 58 61 60
REMARK SMILES IDX 82 61 49 62 33 63 34 64 42 65 35 66 41 67 43 68 40 69 36 70
REMARK SMILES IDX 37 71 38 72 39 73 65 74 66 75 74 76 67 77 73 78 75 79 72 80
REMARK SMILES IDX 68 81 69 82 70 83 71 84 50 85 51 86 59 87 52 88 58 89 60 90
REMARK SMILES IDX 57 91 53 92 54 93 55 94 56 95
REMARK H PARENT 17 5 9 15 1 22 1 23 1 24 21 29 80 48 48 59
REMARK Flexibility Score: inf
ROOT
ATOM      1  C   UNL A   1      31.352  30.503  26.114  1.00  0.00     0.118 C 
ENDROOT
BRANCH   1   2
ATOM      2  N   UNL A   1      31.010  30.276  24.726  1.00  0.00    -0.349 N 
ATOM      3  C   UNL A   1      31.033  29.127  23.973  1.00  0.00     0.286 C 
ATOM      4  O   UNL A   1      30.512  29.206  22.858  1.00  0.00    -0.266 OA
ATOM      5  H   UNL A   1      30.712  31.079  24.240  1.00  0.00     0.163 HD
BRANCH   3   6
ATOM      6  C   UNL A   1      31.623  27.901  24.479  1.00  0.00     0.191 A 
ATOM      7  C   UNL A   1      31.453  25.846  25.291  1.00  0.00     0.124 A 
ATOM      8  C   UNL A   1      32.800  26.096  25.162  1.00  0.00     0.048 A 
ATOM      9  O   UNL A   1      30.744  26.935  24.897  1.00  0.00    -0.454 OA
ATOM     10  C   UNL A   1      32.907  27.400  24.615  1.00  0.00     0.056 A 
BRANCH   7  11
ATOM     11  C   UNL A   1      30.673  24.638  25.655  1.00  0.00     0.191 C 
BRANCH  11  12
ATOM     12  N   UNL A   1      31.236  24.001  26.824  1.00  0.00    -0.348 N 
ATOM     13  C   UNL A   1      32.144  23.006  26.963  1.00  0.00     0.229 C 
ATOM     14  O   UNL A   1      32.439  22.683  28.120  1.00  0.00    -0.275 OA
ATOM     15  H   UNL A   1      30.897  24.357  27.677  1.00  0.00     0.163 HD
BRANCH  13  16
ATOM     16  C   UNL A   1      32.806  22.284  25.795  1.00  0.00     0.136 C 
ATOM     17  C   UNL A   1      34.280  21.873  25.948  1.00  0.00     0.193 C 
ATOM     18  C   UNL A   1      34.468  20.688  24.986  1.00  0.00     0.066 C 
ATOM     19  C   UNL A   1      33.108  20.355  24.383  1.00  0.00     0.007 C 
ATOM     20  C   UNL A   1      32.063  21.092  25.205  1.00  0.00     0.020 C 
BRANCH  17  21
ATOM     21  N   UNL A   1      34.807  21.497  27.247  1.00  0.00    -0.354 N 
ATOM     22  H   UNL A   1      34.034  21.332  27.892  1.00  0.00     0.344 HD
ATOM     23  H   UNL A   1      35.396  22.248  27.606  1.00  0.00     0.344 HD
ATOM     24  H   UNL A   1      35.360  20.645  27.155  1.00  0.00     0.344 HD
ENDBRANCH  17  21
ENDBRANCH  13  16
ENDBRANCH  11  12
ENDBRANCH   7  11
ENDBRANCH   3   6
ENDBRANCH   1   2
BRANCH   1  25
ATOM     25  C   UNL A   1      31.369  31.989  26.464  1.00  0.00     0.042 C 
BRANCH  25  26
ATOM     26  C   UNL A   1      32.674  32.443  27.119  1.00  0.00     0.118 C 
BRANCH  26  27
ATOM     27  N   UNL A   1      32.595  33.818  27.590  1.00  0.00    -0.352 N 
ATOM     28  C   UNL A   1      33.255  34.450  28.614  1.00  0.00     0.251 C 
ATOM     29  H   UNL A   1      31.964  34.388  27.093  1.00  0.00     0.163 HD
ATOM     30  O   UNL A   1      32.835  35.536  29.008  1.00  0.00    -0.269 OA
BRANCH  28  31
ATOM     31  C   UNL A   1      34.449  33.843  29.245  1.00  0.00     0.039 A 
ATOM     32  C   UNL A   1      34.269  32.814  30.175  1.00  0.00     0.014 A 
ATOM     33  C   UNL A   1      35.733  34.325  28.981  1.00  0.00     0.014 A 
ATOM     34  C   UNL A   1      35.378  32.234  30.797  1.00  0.00     0.010 A 
ATOM     35  C   UNL A   1      36.842  33.703  29.553  1.00  0.00     0.010 A 
ATOM     36  C   UNL A   1      36.677  32.654  30.471  1.00  0.00    -0.014 A 
BRANCH  36  37
ATOM     37  C   UNL A   1      37.872  32.018  31.084  1.00  0.00     0.031 A 
ATOM     38  C   UNL A   1      38.653  30.984  30.320  1.00  0.00     0.074 A 
ATOM     39  C   UNL A   1      38.212  32.325  32.350  1.00  0.00     0.049 A 
ATOM     40  N   UNL A   1      39.660  30.246  30.715  1.00  0.00    -0.248 NA
ATOM     41  C   UNL A   1      38.224  30.725  28.938  1.00  0.00     0.031 C 
ATOM     42  C   UNL A   1      37.511  33.289  33.203  1.00  0.00     0.029 A 
ATOM     43  N   UNL A   1      39.223  31.851  33.149  1.00  0.00    -0.354 N 
ATOM     44  C   UNL A   1      39.976  29.424  29.637  1.00  0.00     0.074 A 
ATOM     45  C   UNL A   1      39.015  29.720  28.594  1.00  0.00     0.031 C 
ATOM     46  C   UNL A   1      38.123  33.346  34.397  1.00  0.00     0.029 A 
ATOM     47  C   UNL A   1      39.230  32.395  34.412  1.00  0.00     0.049 A 
ATOM     48  H   UNL A   1      39.881  31.186  32.844  1.00  0.00     0.167 HD
ATOM     49  C   UNL A   1      40.982  28.522  29.522  1.00  0.00     0.034 A 
ATOM     50  C   UNL A   1      40.027  32.143  35.469  1.00  0.00     0.034 A 
ATOM     51  C   UNL A   1      41.939  28.251  30.569  1.00  0.00     0.049 A 
ATOM     52  C   UNL A   1      41.131  31.127  35.324  1.00  0.00     0.074 A 
ATOM     53  C   UNL A   1      43.027  27.395  30.543  1.00  0.00     0.029 A 
ATOM     54  N   UNL A   1      41.921  28.828  31.833  1.00  0.00    -0.354 N 
ATOM     55  N   UNL A   1      41.438  30.384  34.286  1.00  0.00    -0.248 NA
ATOM     56  C   UNL A   1      41.999  30.923  36.490  1.00  0.00     0.031 C 
ATOM     57  C   UNL A   1      43.630  27.411  31.808  1.00  0.00     0.029 A 
ATOM     58  C   UNL A   1      42.961  28.328  32.602  1.00  0.00     0.049 A 
ATOM     59  H   UNL A   1      41.264  29.495  32.139  1.00  0.00     0.167 HD
ATOM     60  C   UNL A   1      42.554  29.646  34.666  1.00  0.00     0.074 A 
ATOM     61  C   UNL A   1      42.872  30.044  36.023  1.00  0.00     0.031 C 
ATOM     62  C   UNL A   1      43.257  28.726  33.958  1.00  0.00     0.034 A 
BRANCH  49  63
ATOM     63  C   UNL A   1      41.077  27.749  28.229  1.00  0.00     0.023 A 
ATOM     64  C   UNL A   1      40.690  26.400  28.145  1.00  0.00     0.031 A 
ATOM     65  C   UNL A   1      41.589  28.357  27.069  1.00  0.00     0.131 A 
ATOM     66  C   UNL A   1      40.896  25.682  26.957  1.00  0.00     0.055 A 
ATOM     67  C   UNL A   1      41.716  27.660  25.865  1.00  0.00     0.041 A 
ATOM     68  F   UNL A   1      41.993  29.638  27.090  1.00  0.00    -0.206 F 
ATOM     69  C   UNL A   1      41.384  26.309  25.809  1.00  0.00     0.022 A 
BRANCH  66  70
ATOM     70  S   UNL A   1      40.655  23.885  26.980  1.00  0.00     0.124 S 
ATOM     71  O   UNL A   1      41.543  23.456  25.903  1.00  0.00    -0.237 OA
ATOM     72  O   UNL A   1      41.069  23.528  28.331  1.00  0.00    -0.237 OA
ATOM     73  O   UNL A   1      39.229  23.727  26.701  1.00  0.00    -0.744 OA
ENDBRANCH  66  70
ENDBRANCH  49  63
BRANCH  50  74
ATOM     74  C   UNL A   1      39.812  32.855  36.761  1.00  0.00     0.023 A 
ATOM     75  C   UNL A   1      38.872  32.389  37.693  1.00  0.00     0.031 A 
ATOM     76  C   UNL A   1      40.522  34.030  37.067  1.00  0.00     0.131 A 
ATOM     77  C   UNL A   1      38.634  33.117  38.868  1.00  0.00     0.055 A 
ATOM     78  C   UNL A   1      40.314  34.725  38.259  1.00  0.00     0.041 A 
ATOM     79  F   UNL A   1      41.438  34.512  36.213  1.00  0.00    -0.206 F 
ATOM     80  C   UNL A   1      39.356  34.275  39.163  1.00  0.00     0.022 A 
BRANCH  77  81
ATOM     81  S   UNL A   1      37.308  32.566  39.976  1.00  0.00     0.124 S 
ATOM     82  O   UNL A   1      37.238  33.668  40.928  1.00  0.00    -0.237 OA
ATOM     83  O   UNL A   1      36.182  32.437  39.058  1.00  0.00    -0.237 OA
ATOM     84  O   UNL A   1      37.817  31.306  40.514  1.00  0.00    -0.744 OA
ENDBRANCH  77  81
ENDBRANCH  50  74
BRANCH  62  85
ATOM     85  C   UNL A   1      44.465  28.125  34.632  1.00  0.00     0.023 A 
ATOM     86  C   UNL A   1      44.389  26.917  35.345  1.00  0.00     0.031 A 
ATOM     87  C   UNL A   1      45.706  28.784  34.573  1.00  0.00     0.131 A 
ATOM     88  C   UNL A   1      45.520  26.431  36.018  1.00  0.00     0.055 A 
ATOM     89  C   UNL A   1      46.842  28.267  35.198  1.00  0.00     0.041 A 
ATOM     90  F   UNL A   1      45.834  29.943  33.907  1.00  0.00    -0.206 F 
ATOM     91  C   UNL A   1      46.750  27.091  35.936  1.00  0.00     0.022 A 
BRANCH  88  92
ATOM     92  S   UNL A   1      45.344  24.968  37.076  1.00  0.00     0.124 S 
ATOM     93  O   UNL A   1      44.772  25.539  38.291  1.00  0.00    -0.237 OA
ATOM     94  O   UNL A   1      44.453  24.120  36.291  1.00  0.00    -0.237 OA
ATOM     95  O   UNL A   1      46.713  24.473  37.208  1.00  0.00    -0.744 OA
ENDBRANCH  88  92
ENDBRANCH  62  85
ENDBRANCH  36  37
ENDBRANCH  28  31
ENDBRANCH  26  27
ENDBRANCH  25  26
ENDBRANCH   1  25
TORSDOF 17
ENDMDL
