MODEL 1
REMARK VINA RESULT:     -12.5      0.000      0.000
REMARK SMILES CC(=O)NS(=O)(=O)c1cc(-c2ccn(C(F)F)c(=O)c2)ccc1C(=O)NCCCNC(=O)c1ccc(-c2c3nc(c(-c4cc(S(=O)(=O)[O-])ccc4F)c4ccc([nH]4)c(-c4cc(S(=O)(=O)[O-])ccc4F)c4nc(c(-c5cc(S(=O)(=O)[O-])ccc5F)c5ccc2[nH]5)C=C4)C=C3)cc1
REMARK SMILES IDX 28 1 27 2 26 3 24 4 25 5 23 7 8 8 9 9 10 10 22 11 21 12 5 13
REMARK SMILES IDX 6 14 7 15 4 16 1 17 2 18 3 19 11 21 12 22 20 23 13 24 18 25
REMARK SMILES IDX 14 26 19 27 15 28 16 29 17 30 29 31 30 32 31 33 32 35 33 36
REMARK SMILES IDX 34 37 95 38 35 39 94 40 36 41 37 42 38 43 88 44 39 45 93 46
REMARK SMILES IDX 87 47 89 48 40 49 92 50 86 51 85 52 41 54 73 55 53 56 72 57
REMARK SMILES IDX 54 58 57 59 71 60 90 61 55 62 56 63 70 65 91 66 58 67 42 68
REMARK SMILES IDX 43 69 51 70 44 71 50 72 52 73 49 74 45 75 46 76 47 77 48 78
REMARK SMILES IDX 74 79 75 80 83 81 76 82 82 83 84 84 81 85 77 86 78 87 79 88
REMARK SMILES IDX 80 89 59 90 60 91 68 92 61 93 67 94 69 95 66 96 62 97 63 98
REMARK SMILES IDX 64 99 65 100
REMARK H PARENT 26 6 4 20 30 34 89 53 57 64
REMARK Flexibility Score: inf
ROOT
ATOM      1  C   UNL A   1      31.828  28.824  25.578  1.00  0.00     0.042 C 
ENDROOT
BRANCH   1   2
ATOM      2  C   UNL A   1      31.824  27.304  25.618  1.00  0.00     0.118 C 
BRANCH   2   3
ATOM      3  N   UNL A   1      31.390  26.700  24.367  1.00  0.00    -0.352 N 
ATOM      4  C   UNL A   1      31.834  25.583  23.725  1.00  0.00     0.252 C 
ATOM      5  O   UNL A   1      31.315  25.229  22.671  1.00  0.00    -0.269 OA
ATOM      6  H   UNL A   1      30.657  27.173  23.913  1.00  0.00     0.163 HD
BRANCH   4   7
ATOM      7  C   UNL A   1      32.988  24.827  24.224  1.00  0.00     0.060 A 
ATOM      8  C   UNL A   1      32.992  23.920  25.277  1.00  0.00     0.101 A 
ATOM      9  C   UNL A   1      34.212  23.347  25.698  1.00  0.00     0.031 A 
ATOM     10  C   UNL A   1      35.415  23.595  25.017  1.00  0.00    -0.017 A 
ATOM     11  C   UNL A   1      34.170  25.033  23.498  1.00  0.00     0.016 A 
ATOM     12  C   UNL A   1      35.359  24.407  23.877  1.00  0.00     0.009 A 
BRANCH   8  13
ATOM     13  S   UNL A   1      31.547  23.292  26.082  1.00  0.00     0.264 S 
ATOM     14  O   UNL A   1      30.429  23.729  25.276  1.00  0.00    -0.201 OA
ATOM     15  O   UNL A   1      31.643  23.675  27.473  1.00  0.00    -0.201 OA
BRANCH  13  16
ATOM     16  N   UNL A   1      31.569  21.648  26.004  1.00  0.00    -0.249 N 
ATOM     17  C   UNL A   1      32.023  21.272  23.558  1.00  0.00     0.115 C 
ATOM     18  C   UNL A   1      31.985  20.789  24.979  1.00  0.00     0.230 C 
ATOM     19  O   UNL A   1      32.211  19.620  25.266  1.00  0.00    -0.274 OA
ATOM     20  H   UNL A   1      31.235  21.193  26.812  1.00  0.00     0.183 HD
ENDBRANCH  13  16
ENDBRANCH   8  13
BRANCH  10  21
ATOM     21  C   UNL A   1      36.724  23.043  25.463  1.00  0.00    -0.011 A 
ATOM     22  C   UNL A   1      37.669  23.832  26.245  1.00  0.00     0.027 A 
ATOM     23  C   UNL A   1      37.077  21.783  25.146  1.00  0.00     0.080 A 
ATOM     24  C   UNL A   1      38.861  23.341  26.597  1.00  0.00     0.095 A 
ATOM     25  C   UNL A   1      38.388  21.205  25.564  1.00  0.00     0.255 A 
ATOM     26  N   UNL A   1      39.229  22.056  26.259  1.00  0.00    -0.258 N 
ATOM     27  O   UNL A   1      38.640  20.042  25.265  1.00  0.00    -0.269 OA
BRANCH  26  28
ATOM     28  C   UNL A   1      40.513  21.538  26.653  1.00  0.00     0.451 C 
ATOM     29  F   UNL A   1      41.464  21.832  25.734  1.00  0.00    -0.185 F 
ATOM     30  F   UNL A   1      40.905  22.058  27.844  1.00  0.00    -0.185 F 
ENDBRANCH  26  28
ENDBRANCH  10  21
ENDBRANCH   4   7
ENDBRANCH   2   3
ENDBRANCH   1   2
BRANCH   1  31
ATOM     31  C   UNL A   1      33.090  29.469  26.145  1.00  0.00     0.118 C 
BRANCH  31  32
ATOM     32  N   UNL A   1      32.914  30.842  26.604  1.00  0.00    -0.352 N 
ATOM     33  C   UNL A   1      33.718  31.626  27.404  1.00  0.00     0.251 C 
ATOM     34  H   UNL A   1      32.088  31.280  26.294  1.00  0.00     0.163 HD
ATOM     35  O   UNL A   1      33.331  32.736  27.755  1.00  0.00    -0.269 OA
BRANCH  33  36
ATOM     36  C   UNL A   1      35.014  31.098  27.876  1.00  0.00     0.039 A 
ATOM     37  C   UNL A   1      36.099  31.965  28.015  1.00  0.00     0.014 A 
ATOM     38  C   UNL A   1      35.132  29.764  28.259  1.00  0.00     0.014 A 
ATOM     39  C   UNL A   1      37.254  31.522  28.666  1.00  0.00     0.010 A 
ATOM     40  C   UNL A   1      36.221  29.369  29.024  1.00  0.00     0.010 A 
ATOM     41  C   UNL A   1      37.293  30.245  29.249  1.00  0.00    -0.014 A 
BRANCH  41  42
ATOM     42  C   UNL A   1      38.422  29.796  30.111  1.00  0.00     0.031 A 
ATOM     43  C   UNL A   1      38.539  30.313  31.521  1.00  0.00     0.074 A 
ATOM     44  C   UNL A   1      39.405  29.032  29.592  1.00  0.00     0.049 A 
ATOM     45  N   UNL A   1      39.541  30.229  32.358  1.00  0.00    -0.248 NA
ATOM     46  C   UNL A   1      37.398  31.087  32.025  1.00  0.00     0.031 C 
ATOM     47  C   UNL A   1      39.456  28.519  28.221  1.00  0.00     0.029 A 
ATOM     48  N   UNL A   1      40.563  28.562  30.159  1.00  0.00    -0.354 N 
ATOM     49  C   UNL A   1      39.173  30.993  33.463  1.00  0.00     0.074 A 
ATOM     50  C   UNL A   1      37.889  31.584  33.148  1.00  0.00     0.031 C 
ATOM     51  C   UNL A   1      40.558  27.766  28.070  1.00  0.00     0.029 A 
ATOM     52  C   UNL A   1      41.321  27.789  29.312  1.00  0.00     0.049 A 
ATOM     53  H   UNL A   1      40.827  28.759  31.088  1.00  0.00     0.167 HD
ATOM     54  C   UNL A   1      39.830  31.165  34.638  1.00  0.00     0.034 A 
ATOM     55  C   UNL A   1      42.503  27.172  29.510  1.00  0.00     0.034 A 
ATOM     56  C   UNL A   1      41.078  30.513  34.957  1.00  0.00     0.049 A 
ATOM     57  C   UNL A   1      43.184  27.316  30.843  1.00  0.00     0.074 A 
ATOM     58  C   UNL A   1      41.799  30.552  36.138  1.00  0.00     0.029 A 
ATOM     59  N   UNL A   1      41.783  29.687  34.090  1.00  0.00    -0.354 N 
ATOM     60  N   UNL A   1      42.820  28.030  31.883  1.00  0.00    -0.248 NA
ATOM     61  C   UNL A   1      44.435  26.569  31.028  1.00  0.00     0.031 C 
ATOM     62  C   UNL A   1      42.955  29.777  35.973  1.00  0.00     0.029 A 
ATOM     63  C   UNL A   1      42.930  29.215  34.708  1.00  0.00     0.049 A 
ATOM     64  H   UNL A   1      41.507  29.469  33.171  1.00  0.00     0.167 HD
ATOM     65  C   UNL A   1      43.787  27.798  32.856  1.00  0.00     0.074 A 
ATOM     66  C   UNL A   1      44.743  26.873  32.281  1.00  0.00     0.031 C 
ATOM     67  C   UNL A   1      43.875  28.301  34.112  1.00  0.00     0.034 A 
BRANCH  54  68
ATOM     68  C   UNL A   1      39.205  32.107  35.641  1.00  0.00     0.023 A 
ATOM     69  C   UNL A   1      39.601  33.453  35.730  1.00  0.00     0.031 A 
ATOM     70  C   UNL A   1      38.268  31.637  36.578  1.00  0.00     0.131 A 
ATOM     71  C   UNL A   1      39.165  34.242  36.804  1.00  0.00     0.055 A 
ATOM     72  C   UNL A   1      37.756  32.461  37.584  1.00  0.00     0.041 A 
ATOM     73  F   UNL A   1      37.859  30.358  36.556  1.00  0.00    -0.206 F 
ATOM     74  C   UNL A   1      38.225  33.764  37.718  1.00  0.00     0.022 A 
BRANCH  71  75
ATOM     75  S   UNL A   1      40.004  35.823  37.103  1.00  0.00     0.124 S 
ATOM     76  O   UNL A   1      39.722  36.542  35.862  1.00  0.00    -0.237 OA
ATOM     77  O   UNL A   1      39.328  36.318  38.296  1.00  0.00    -0.237 OA
ATOM     78  O   UNL A   1      41.401  35.440  37.289  1.00  0.00    -0.744 OA
ENDBRANCH  71  75
ENDBRANCH  54  68
BRANCH  55  79
ATOM     79  C   UNL A   1      43.109  26.346  28.432  1.00  0.00     0.023 A 
ATOM     80  C   UNL A   1      44.098  26.886  27.596  1.00  0.00     0.031 A 
ATOM     81  C   UNL A   1      42.703  25.019  28.212  1.00  0.00     0.131 A 
ATOM     82  C   UNL A   1      44.627  26.113  26.551  1.00  0.00     0.055 A 
ATOM     83  C   UNL A   1      43.260  24.241  27.194  1.00  0.00     0.041 A 
ATOM     84  F   UNL A   1      41.773  24.455  28.997  1.00  0.00    -0.206 F 
ATOM     85  C   UNL A   1      44.222  24.791  26.350  1.00  0.00     0.022 A 
BRANCH  82  86
ATOM     86  S   UNL A   1      45.826  26.879  25.426  1.00  0.00     0.124 S 
ATOM     87  O   UNL A   1      46.874  27.299  26.349  1.00  0.00    -0.237 OA
ATOM     88  O   UNL A   1      46.159  25.770  24.538  1.00  0.00    -0.237 OA
ATOM     89  O   UNL A   1      45.067  27.963  24.807  1.00  0.00    -0.744 OA
ENDBRANCH  82  86
ENDBRANCH  55  79
BRANCH  67  90
ATOM     90  C   UNL A   1      45.024  27.817  34.954  1.00  0.00     0.023 A 
ATOM     91  C   UNL A   1      44.913  26.674  35.763  1.00  0.00     0.031 A 
ATOM     92  C   UNL A   1      46.240  28.523  34.960  1.00  0.00     0.131 A 
ATOM     93  C   UNL A   1      45.986  26.297  36.585  1.00  0.00     0.055 A 
ATOM     94  C   UNL A   1      47.318  28.118  35.745  1.00  0.00     0.041 A 
ATOM     95  F   UNL A   1      46.393  29.623  34.204  1.00  0.00    -0.206 F 
ATOM     96  C   UNL A   1      47.192  27.004  36.572  1.00  0.00     0.022 A 
BRANCH  93  97
ATOM     97  S   UNL A   1      45.761  24.907  37.728  1.00  0.00     0.124 S 
ATOM     98  O   UNL A   1      46.598  25.303  38.858  1.00  0.00    -0.237 OA
ATOM     99  O   UNL A   1      44.321  24.926  37.965  1.00  0.00    -0.237 OA
ATOM    100  O   UNL A   1      46.248  23.756  36.970  1.00  0.00    -0.744 OA
ENDBRANCH  93  97
ENDBRANCH  67  90
ENDBRANCH  41  42
ENDBRANCH  33  36
ENDBRANCH  31  32
ENDBRANCH   1  31
TORSDOF 17
ENDMDL
MODEL 2
REMARK VINA RESULT:     -12.4      2.049      3.225
REMARK SMILES CC(=O)NS(=O)(=O)c1cc(-c2ccn(C(F)F)c(=O)c2)ccc1C(=O)NCCCNC(=O)c1ccc(-c2c3nc(c(-c4cc(S(=O)(=O)[O-])ccc4F)c4ccc([nH]4)c(-c4cc(S(=O)(=O)[O-])ccc4F)c4nc(c(-c5cc(S(=O)(=O)[O-])ccc5F)c5ccc2[nH]5)C=C4)C=C3)cc1
REMARK SMILES IDX 28 1 27 2 26 3 24 4 25 5 23 7 8 8 9 9 10 10 22 11 21 12 5 13
REMARK SMILES IDX 6 14 7 15 4 16 1 17 2 18 3 19 11 21 12 22 20 23 13 24 18 25
REMARK SMILES IDX 14 26 19 27 15 28 16 29 17 30 29 31 30 32 31 33 32 35 33 36
REMARK SMILES IDX 34 37 95 38 35 39 94 40 36 41 37 42 38 43 88 44 39 45 93 46
REMARK SMILES IDX 87 47 89 48 40 49 92 50 86 51 85 52 41 54 73 55 53 56 72 57
REMARK SMILES IDX 54 58 57 59 71 60 90 61 55 62 56 63 70 65 91 66 58 67 42 68
REMARK SMILES IDX 43 69 51 70 44 71 50 72 52 73 49 74 45 75 46 76 47 77 48 78
REMARK SMILES IDX 74 79 75 80 83 81 76 82 82 83 84 84 81 85 77 86 78 87 79 88
REMARK SMILES IDX 80 89 59 90 60 91 68 92 61 93 67 94 69 95 66 96 62 97 63 98
REMARK SMILES IDX 64 99 65 100
REMARK H PARENT 26 6 4 20 30 34 89 53 57 64
REMARK Flexibility Score: inf
ROOT
ATOM      1  C   UNL A   1      32.235  28.385  27.198  1.00  0.00     0.042 C 
ENDROOT
BRANCH   1   2
ATOM      2  C   UNL A   1      31.956  27.049  26.530  1.00  0.00     0.118 C 
BRANCH   2   3
ATOM      3  N   UNL A   1      30.671  27.006  25.849  1.00  0.00    -0.352 N 
ATOM      4  C   UNL A   1      30.092  26.015  25.114  1.00  0.00     0.252 C 
ATOM      5  O   UNL A   1      28.976  26.175  24.631  1.00  0.00    -0.269 OA
ATOM      6  H   UNL A   1      30.131  27.825  25.934  1.00  0.00     0.163 HD
BRANCH   4   7
ATOM      7  C   UNL A   1      30.813  24.773  24.812  1.00  0.00     0.060 A 
ATOM      8  C   UNL A   1      31.628  24.534  23.712  1.00  0.00     0.101 A 
ATOM      9  C   UNL A   1      32.173  23.247  23.516  1.00  0.00     0.031 A 
ATOM     10  C   UNL A   1      31.994  22.221  24.458  1.00  0.00    -0.017 A 
ATOM     11  C   UNL A   1      30.680  23.777  25.790  1.00  0.00     0.016 A 
ATOM     12  C   UNL A   1      31.281  22.529  25.624  1.00  0.00     0.009 A 
BRANCH   8  13
ATOM     13  S   UNL A   1      32.172  25.766  22.564  1.00  0.00     0.264 S 
ATOM     14  O   UNL A   1      32.427  25.063  21.326  1.00  0.00    -0.201 OA
ATOM     15  O   UNL A   1      33.227  26.508  23.217  1.00  0.00    -0.201 OA
BRANCH  13  16
ATOM     16  N   UNL A   1      30.928  26.802  22.270  1.00  0.00    -0.249 N 
ATOM     17  C   UNL A   1      31.872  28.970  23.131  1.00  0.00     0.115 C 
ATOM     18  C   UNL A   1      30.878  28.202  22.309  1.00  0.00     0.230 C 
ATOM     19  O   UNL A   1      29.946  28.759  21.743  1.00  0.00    -0.274 OA
ATOM     20  H   UNL A   1      30.079  26.367  22.024  1.00  0.00     0.183 HD
ENDBRANCH  13  16
ENDBRANCH   8  13
BRANCH  10  21
ATOM     21  C   UNL A   1      32.517  20.841  24.260  1.00  0.00    -0.011 A 
ATOM     22  C   UNL A   1      33.522  20.260  25.143  1.00  0.00     0.027 A 
ATOM     23  C   UNL A   1      32.072  20.083  23.240  1.00  0.00     0.080 A 
ATOM     24  C   UNL A   1      34.019  19.039  24.925  1.00  0.00     0.095 A 
ATOM     25  C   UNL A   1      32.587  18.701  23.004  1.00  0.00     0.255 A 
ATOM     26  N   UNL A   1      33.574  18.269  23.871  1.00  0.00    -0.258 N 
ATOM     27  O   UNL A   1      32.122  18.053  22.072  1.00  0.00    -0.269 OA
BRANCH  26  28
ATOM     28  C   UNL A   1      34.112  16.951  23.654  1.00  0.00     0.451 C 
ATOM     29  F   UNL A   1      34.598  16.820  22.397  1.00  0.00    -0.185 F 
ATOM     30  F   UNL A   1      35.118  16.685  24.524  1.00  0.00    -0.185 F 
ENDBRANCH  26  28
ENDBRANCH  10  21
ENDBRANCH   4   7
ENDBRANCH   2   3
ENDBRANCH   1   2
BRANCH   1  31
ATOM     31  C   UNL A   1      33.086  29.342  26.368  1.00  0.00     0.118 C 
BRANCH  31  32
ATOM     32  N   UNL A   1      32.936  30.750  26.723  1.00  0.00    -0.352 N 
ATOM     33  C   UNL A   1      33.769  31.584  27.437  1.00  0.00     0.251 C 
ATOM     34  H   UNL A   1      32.106  31.172  26.401  1.00  0.00     0.163 HD
ATOM     35  O   UNL A   1      33.403  32.723  27.711  1.00  0.00    -0.269 OA
BRANCH  33  36
ATOM     36  C   UNL A   1      35.072  31.079  27.916  1.00  0.00     0.039 A 
ATOM     37  C   UNL A   1      36.118  31.977  28.135  1.00  0.00     0.014 A 
ATOM     38  C   UNL A   1      35.232  29.730  28.225  1.00  0.00     0.014 A 
ATOM     39  C   UNL A   1      37.272  31.541  28.793  1.00  0.00     0.010 A 
ATOM     40  C   UNL A   1      36.315  29.333  28.997  1.00  0.00     0.010 A 
ATOM     41  C   UNL A   1      37.346  30.235  29.302  1.00  0.00    -0.014 A 
BRANCH  41  42
ATOM     42  C   UNL A   1      38.468  29.779  30.169  1.00  0.00     0.031 A 
ATOM     43  C   UNL A   1      38.586  30.301  31.577  1.00  0.00     0.074 A 
ATOM     44  C   UNL A   1      39.446  29.004  29.656  1.00  0.00     0.049 A 
ATOM     45  N   UNL A   1      39.585  30.212  32.418  1.00  0.00    -0.248 NA
ATOM     46  C   UNL A   1      37.450  31.088  32.075  1.00  0.00     0.031 C 
ATOM     47  C   UNL A   1      39.496  28.485  28.287  1.00  0.00     0.029 A 
ATOM     48  N   UNL A   1      40.599  28.526  30.229  1.00  0.00    -0.354 N 
ATOM     49  C   UNL A   1      39.222  30.983  33.518  1.00  0.00     0.074 A 
ATOM     50  C   UNL A   1      37.943  31.584  33.198  1.00  0.00     0.031 C 
ATOM     51  C   UNL A   1      40.592  27.722  28.143  1.00  0.00     0.029 A 
ATOM     52  C   UNL A   1      41.352  27.744  29.386  1.00  0.00     0.049 A 
ATOM     53  H   UNL A   1      40.861  28.725  31.157  1.00  0.00     0.167 HD
ATOM     54  C   UNL A   1      39.877  31.154  34.694  1.00  0.00     0.034 A 
ATOM     55  C   UNL A   1      42.527  27.117  29.590  1.00  0.00     0.034 A 
ATOM     56  C   UNL A   1      41.118  30.493  35.019  1.00  0.00     0.049 A 
ATOM     57  C   UNL A   1      43.207  27.261  30.924  1.00  0.00     0.074 A 
ATOM     58  C   UNL A   1      41.836  30.531  36.202  1.00  0.00     0.029 A 
ATOM     59  N   UNL A   1      41.818  29.658  34.158  1.00  0.00    -0.354 N 
ATOM     60  N   UNL A   1      42.846  27.982  31.960  1.00  0.00    -0.248 NA
ATOM     61  C   UNL A   1      44.450  26.504  31.116  1.00  0.00     0.031 C 
ATOM     62  C   UNL A   1      42.985  29.745  36.044  1.00  0.00     0.029 A 
ATOM     63  C   UNL A   1      42.959  29.178  34.780  1.00  0.00     0.049 A 
ATOM     64  H   UNL A   1      41.542  29.438  33.238  1.00  0.00     0.167 HD
ATOM     65  C   UNL A   1      43.808  27.745  32.937  1.00  0.00     0.074 A 
ATOM     66  C   UNL A   1      44.758  26.810  32.368  1.00  0.00     0.031 C 
ATOM     67  C   UNL A   1      43.898  28.253  34.191  1.00  0.00     0.034 A 
BRANCH  54  68
ATOM     68  C   UNL A   1      39.257  32.106  35.691  1.00  0.00     0.023 A 
ATOM     69  C   UNL A   1      39.633  33.460  35.746  1.00  0.00     0.031 A 
ATOM     70  C   UNL A   1      38.347  31.640  36.656  1.00  0.00     0.131 A 
ATOM     71  C   UNL A   1      39.207  34.263  36.814  1.00  0.00     0.055 A 
ATOM     72  C   UNL A   1      37.843  32.476  37.657  1.00  0.00     0.041 A 
ATOM     73  F   UNL A   1      37.959  30.355  36.668  1.00  0.00    -0.206 F 
ATOM     74  C   UNL A   1      38.293  33.789  37.756  1.00  0.00     0.022 A 
BRANCH  71  75
ATOM     75  S   UNL A   1      40.026  35.862  37.064  1.00  0.00     0.124 S 
ATOM     76  O   UNL A   1      39.700  36.556  35.819  1.00  0.00    -0.237 OA
ATOM     77  O   UNL A   1      39.373  36.367  38.265  1.00  0.00    -0.237 OA
ATOM     78  O   UNL A   1      41.434  35.506  37.219  1.00  0.00    -0.744 OA
ENDBRANCH  71  75
ENDBRANCH  54  68
BRANCH  55  79
ATOM     79  C   UNL A   1      43.129  26.281  28.517  1.00  0.00     0.023 A 
ATOM     80  C   UNL A   1      44.126  26.808  27.682  1.00  0.00     0.031 A 
ATOM     81  C   UNL A   1      42.712  24.957  28.301  1.00  0.00     0.131 A 
ATOM     82  C   UNL A   1      44.651  26.027  26.642  1.00  0.00     0.055 A 
ATOM     83  C   UNL A   1      43.264  24.170  27.288  1.00  0.00     0.041 A 
ATOM     84  F   UNL A   1      41.774  24.405  29.085  1.00  0.00    -0.206 F 
ATOM     85  C   UNL A   1      44.234  24.708  26.445  1.00  0.00     0.022 A 
BRANCH  82  86
ATOM     86  S   UNL A   1      45.860  26.777  25.517  1.00  0.00     0.124 S 
ATOM     87  O   UNL A   1      45.097  27.886  24.957  1.00  0.00    -0.237 OA
ATOM     88  O   UNL A   1      46.940  27.137  26.431  1.00  0.00    -0.237 OA
ATOM     89  O   UNL A   1      46.171  25.697  24.584  1.00  0.00    -0.744 OA
ENDBRANCH  82  86
ENDBRANCH  55  79
BRANCH  67  90
ATOM     90  C   UNL A   1      45.040  27.763  35.038  1.00  0.00     0.023 A 
ATOM     91  C   UNL A   1      44.938  26.588  35.802  1.00  0.00     0.031 A 
ATOM     92  C   UNL A   1      46.240  28.494  35.095  1.00  0.00     0.131 A 
ATOM     93  C   UNL A   1      46.003  26.204  36.631  1.00  0.00     0.055 A 
ATOM     94  C   UNL A   1      47.311  28.082  35.886  1.00  0.00     0.041 A 
ATOM     95  F   UNL A   1      46.384  29.624  34.383  1.00  0.00    -0.206 F 
ATOM     96  C   UNL A   1      47.192  26.936  36.670  1.00  0.00     0.022 A 
BRANCH  93  97
ATOM     97  S   UNL A   1      45.785  24.768  37.718  1.00  0.00     0.124 S 
ATOM     98  O   UNL A   1      45.035  23.851  36.864  1.00  0.00    -0.237 OA
ATOM     99  O   UNL A   1      47.162  24.384  38.008  1.00  0.00    -0.237 OA
ATOM    100  O   UNL A   1      45.040  25.306  38.854  1.00  0.00    -0.744 OA
ENDBRANCH  93  97
ENDBRANCH  67  90
ENDBRANCH  41  42
ENDBRANCH  33  36
ENDBRANCH  31  32
ENDBRANCH   1  31
TORSDOF 17
ENDMDL
MODEL 3
REMARK VINA RESULT:     -12.2      3.057      4.385
REMARK SMILES CC(=O)NS(=O)(=O)c1cc(-c2ccn(C(F)F)c(=O)c2)ccc1C(=O)NCCCNC(=O)c1ccc(-c2c3nc(c(-c4cc(S(=O)(=O)[O-])ccc4F)c4ccc([nH]4)c(-c4cc(S(=O)(=O)[O-])ccc4F)c4nc(c(-c5cc(S(=O)(=O)[O-])ccc5F)c5ccc2[nH]5)C=C4)C=C3)cc1
REMARK SMILES IDX 28 1 27 2 26 3 24 4 25 5 23 7 8 8 9 9 10 10 22 11 21 12 5 13
REMARK SMILES IDX 6 14 7 15 4 16 1 17 2 18 3 19 11 21 12 22 20 23 13 24 18 25
REMARK SMILES IDX 14 26 19 27 15 28 16 29 17 30 29 31 30 32 31 33 32 35 33 36
REMARK SMILES IDX 34 37 95 38 35 39 94 40 36 41 37 42 38 43 88 44 39 45 93 46
REMARK SMILES IDX 87 47 89 48 40 49 92 50 86 51 85 52 41 54 73 55 53 56 72 57
REMARK SMILES IDX 54 58 57 59 71 60 90 61 55 62 56 63 70 65 91 66 58 67 42 68
REMARK SMILES IDX 43 69 51 70 44 71 50 72 52 73 49 74 45 75 46 76 47 77 48 78
REMARK SMILES IDX 74 79 75 80 83 81 76 82 82 83 84 84 81 85 77 86 78 87 79 88
REMARK SMILES IDX 80 89 59 90 60 91 68 92 61 93 67 94 69 95 66 96 62 97 63 98
REMARK SMILES IDX 64 99 65 100
REMARK H PARENT 26 6 4 20 30 34 89 53 57 64
REMARK Flexibility Score: inf
ROOT
ATOM      1  C   UNL A   1      33.182  28.476  26.296  1.00  0.00     0.042 C 
ENDROOT
BRANCH   1   2
ATOM      2  C   UNL A   1      32.590  27.077  26.348  1.00  0.00     0.118 C 
BRANCH   2   3
ATOM      3  N   UNL A   1      31.202  27.026  25.915  1.00  0.00    -0.352 N 
ATOM      4  C   UNL A   1      30.488  26.012  25.349  1.00  0.00     0.252 C 
ATOM      5  O   UNL A   1      29.305  26.171  25.069  1.00  0.00    -0.269 OA
ATOM      6  H   UNL A   1      30.696  27.859  26.054  1.00  0.00     0.163 HD
BRANCH   4   7
ATOM      7  C   UNL A   1      31.129  24.743  24.987  1.00  0.00     0.060 A 
ATOM      8  C   UNL A   1      31.812  24.466  23.808  1.00  0.00     0.101 A 
ATOM      9  C   UNL A   1      32.288  23.158  23.570  1.00  0.00     0.031 A 
ATOM     10  C   UNL A   1      32.175  22.147  24.538  1.00  0.00    -0.017 A 
ATOM     11  C   UNL A   1      31.067  23.760  25.984  1.00  0.00     0.016 A 
ATOM     12  C   UNL A   1      31.602  22.489  25.769  1.00  0.00     0.009 A 
BRANCH   8  13
ATOM     13  S   UNL A   1      32.273  25.669  22.595  1.00  0.00     0.264 S 
ATOM     14  O   UNL A   1      32.402  24.941  21.351  1.00  0.00    -0.201 OA
ATOM     15  O   UNL A   1      33.395  26.401  23.136  1.00  0.00    -0.201 OA
BRANCH  13  16
ATOM     16  N   UNL A   1      31.025  26.724  22.394  1.00  0.00    -0.249 N 
ATOM     17  C   UNL A   1      32.168  28.928  22.805  1.00  0.00     0.115 C 
ATOM     18  C   UNL A   1      31.023  28.119  22.269  1.00  0.00     0.230 C 
ATOM     19  O   UNL A   1      30.021  28.652  21.809  1.00  0.00    -0.274 OA
ATOM     20  H   UNL A   1      30.135  26.306  22.355  1.00  0.00     0.183 HD
ENDBRANCH  13  16
ENDBRANCH   8  13
BRANCH  10  21
ATOM     21  C   UNL A   1      32.626  20.748  24.300  1.00  0.00    -0.011 A 
ATOM     22  C   UNL A   1      33.564  20.076  25.191  1.00  0.00     0.027 A 
ATOM     23  C   UNL A   1      32.173  20.057  23.237  1.00  0.00     0.080 A 
ATOM     24  C   UNL A   1      33.998  18.837  24.940  1.00  0.00     0.095 A 
ATOM     25  C   UNL A   1      32.617  18.658  22.962  1.00  0.00     0.255 A 
ATOM     26  N   UNL A   1      33.547  18.135  23.842  1.00  0.00    -0.258 N 
ATOM     27  O   UNL A   1      32.148  18.074  21.989  1.00  0.00    -0.269 OA
BRANCH  26  28
ATOM     28  C   UNL A   1      34.016  16.798  23.590  1.00  0.00     0.451 C 
ATOM     29  F   UNL A   1      34.583  16.700  22.363  1.00  0.00    -0.185 F 
ATOM     30  F   UNL A   1      34.938  16.421  24.510  1.00  0.00    -0.185 F 
ENDBRANCH  26  28
ENDBRANCH  10  21
ENDBRANCH   4   7
ENDBRANCH   2   3
ENDBRANCH   1   2
BRANCH   1  31
ATOM     31  C   UNL A   1      32.731  29.397  27.426  1.00  0.00     0.118 C 
BRANCH  31  32
ATOM     32  N   UNL A   1      33.246  30.759  27.340  1.00  0.00    -0.352 N 
ATOM     33  C   UNL A   1      34.500  31.259  27.616  1.00  0.00     0.251 C 
ATOM     34  H   UNL A   1      32.591  31.430  27.036  1.00  0.00     0.163 HD
ATOM     35  O   UNL A   1      34.698  32.469  27.571  1.00  0.00    -0.269 OA
BRANCH  33  36
ATOM     36  C   UNL A   1      35.581  30.336  28.018  1.00  0.00     0.039 A 
ATOM     37  C   UNL A   1      36.676  30.151  27.172  1.00  0.00     0.014 A 
ATOM     38  C   UNL A   1      35.550  29.719  29.266  1.00  0.00     0.014 A 
ATOM     39  C   UNL A   1      37.797  29.459  27.640  1.00  0.00     0.010 A 
ATOM     40  C   UNL A   1      36.711  29.154  29.775  1.00  0.00     0.010 A 
ATOM     41  C   UNL A   1      37.856  29.026  28.974  1.00  0.00    -0.014 A 
BRANCH  41  42
ATOM     42  C   UNL A   1      39.094  28.453  29.573  1.00  0.00     0.031 A 
ATOM     43  C   UNL A   1      39.643  29.029  30.852  1.00  0.00     0.074 A 
ATOM     44  C   UNL A   1      39.792  27.509  28.908  1.00  0.00     0.049 A 
ATOM     45  N   UNL A   1      40.804  28.835  31.422  1.00  0.00    -0.248 NA
ATOM     46  C   UNL A   1      38.791  30.008  31.541  1.00  0.00     0.031 C 
ATOM     47  C   UNL A   1      39.414  26.912  27.624  1.00  0.00     0.029 A 
ATOM     48  N   UNL A   1      40.978  26.893  29.217  1.00  0.00    -0.354 N 
ATOM     49  C   UNL A   1      40.846  29.714  32.500  1.00  0.00     0.074 A 
ATOM     50  C   UNL A   1      39.621  30.485  32.453  1.00  0.00     0.031 C 
ATOM     51  C   UNL A   1      40.322  25.983  27.284  1.00  0.00     0.029 A 
ATOM     52  C   UNL A   1      41.375  25.958  28.291  1.00  0.00     0.049 A 
ATOM     53  H   UNL A   1      41.498  27.101  30.028  1.00  0.00     0.167 HD
ATOM     54  C   UNL A   1      41.802  29.849  33.454  1.00  0.00     0.034 A 
ATOM     55  C   UNL A   1      42.468  25.170  28.254  1.00  0.00     0.034 A 
ATOM     56  C   UNL A   1      42.984  29.024  33.521  1.00  0.00     0.049 A 
ATOM     57  C   UNL A   1      43.484  25.283  29.357  1.00  0.00     0.074 A 
ATOM     58  C   UNL A   1      43.983  29.018  34.479  1.00  0.00     0.029 A 
ATOM     59  N   UNL A   1      43.318  28.044  32.595  1.00  0.00    -0.354 N 
ATOM     60  N   UNL A   1      43.505  26.108  30.378  1.00  0.00    -0.248 NA
ATOM     61  C   UNL A   1      44.621  24.356  29.303  1.00  0.00     0.031 C 
ATOM     62  C   UNL A   1      44.936  28.058  34.114  1.00  0.00     0.029 A 
ATOM     63  C   UNL A   1      44.507  27.430  32.956  1.00  0.00     0.049 A 
ATOM     64  H   UNL A   1      42.786  27.818  31.798  1.00  0.00     0.167 HD
ATOM     65  C   UNL A   1      44.647  25.783  31.102  1.00  0.00     0.074 A 
ATOM     66  C   UNL A   1      45.282  24.682  30.405  1.00  0.00     0.031 C 
ATOM     67  C   UNL A   1      45.127  26.341  32.241  1.00  0.00     0.034 A 
BRANCH  54  68
ATOM     68  C   UNL A   1      41.596  30.939  34.481  1.00  0.00     0.023 A 
ATOM     69  C   UNL A   1      40.541  30.885  35.409  1.00  0.00     0.031 A 
ATOM     70  C   UNL A   1      42.407  32.088  34.478  1.00  0.00     0.131 A 
ATOM     71  C   UNL A   1      40.245  32.004  36.200  1.00  0.00     0.055 A 
ATOM     72  C   UNL A   1      42.170  33.158  35.345  1.00  0.00     0.041 A 
ATOM     73  F   UNL A   1      43.422  32.208  33.608  1.00  0.00    -0.206 F 
ATOM     74  C   UNL A   1      41.068  33.132  36.194  1.00  0.00     0.022 A 
BRANCH  71  75
ATOM     75  S   UNL A   1      38.656  32.040  37.075  1.00  0.00     0.124 S 
ATOM     76  O   UNL A   1      38.244  30.640  36.989  1.00  0.00    -0.237 OA
ATOM     77  O   UNL A   1      39.038  32.512  38.401  1.00  0.00    -0.237 OA
ATOM     78  O   UNL A   1      37.851  32.969  36.288  1.00  0.00    -0.744 OA
ENDBRANCH  71  75
ENDBRANCH  54  68
BRANCH  55  79
ATOM     79  C   UNL A   1      42.652  24.193  27.148  1.00  0.00     0.023 A 
ATOM     80  C   UNL A   1      42.082  22.914  27.228  1.00  0.00     0.031 A 
ATOM     81  C   UNL A   1      43.406  24.515  26.007  1.00  0.00     0.131 A 
ATOM     82  C   UNL A   1      42.303  21.985  26.201  1.00  0.00     0.055 A 
ATOM     83  C   UNL A   1      43.593  23.599  24.969  1.00  0.00     0.041 A 
ATOM     84  F   UNL A   1      43.956  25.732  25.878  1.00  0.00    -0.206 F 
ATOM     85  C   UNL A   1      43.047  22.321  25.067  1.00  0.00     0.022 A 
BRANCH  82  86
ATOM     86  S   UNL A   1      41.639  20.308  26.389  1.00  0.00     0.124 S 
ATOM     87  O   UNL A   1      42.061  19.971  27.744  1.00  0.00    -0.237 OA
ATOM     88  O   UNL A   1      40.209  20.525  26.197  1.00  0.00    -0.237 OA
ATOM     89  O   UNL A   1      42.301  19.558  25.324  1.00  0.00    -0.744 OA
ENDBRANCH  82  86
ENDBRANCH  55  79
BRANCH  67  90
ATOM     90  C   UNL A   1      46.374  25.729  32.819  1.00  0.00     0.023 A 
ATOM     91  C   UNL A   1      46.316  24.656  33.724  1.00  0.00     0.031 A 
ATOM     92  C   UNL A   1      47.636  26.243  32.473  1.00  0.00     0.131 A 
ATOM     93  C   UNL A   1      47.500  24.161  34.292  1.00  0.00     0.055 A 
ATOM     94  C   UNL A   1      48.812  25.717  33.006  1.00  0.00     0.041 A 
ATOM     95  F   UNL A   1      47.742  27.269  31.613  1.00  0.00    -0.206 F 
ATOM     96  C   UNL A   1      48.748  24.676  33.930  1.00  0.00     0.022 A 
BRANCH  93  97
ATOM     97  S   UNL A   1      47.382  22.877  35.568  1.00  0.00     0.124 S 
ATOM     98  O   UNL A   1      48.591  23.117  36.353  1.00  0.00    -0.237 OA
ATOM     99  O   UNL A   1      46.122  23.203  36.225  1.00  0.00    -0.237 OA
ATOM    100  O   UNL A   1      47.378  21.632  34.803  1.00  0.00    -0.744 OA
ENDBRANCH  93  97
ENDBRANCH  67  90
ENDBRANCH  41  42
ENDBRANCH  33  36
ENDBRANCH  31  32
ENDBRANCH   1  31
TORSDOF 17
ENDMDL
