MODEL 1
REMARK VINA RESULT:     -13.1      0.000      0.000
REMARK SMILES CN1C(=O)C[C@@H](C(=O)NCCCNC(=O)c2ccc(-c3c4nc(c(-c5cc(S(=O)(=O)[O-])ccc5F)c5ccc([nH]5)c(-c5cc(S(=O)(=O)[O-])ccc5F)c5nc(c(-c6cc(S(=O)(=O)[O-])ccc6F)c6ccc3[nH]6)C=C5)C=C4)cc2)C12CCN(S(=O)(=O)c1ccccc1F)CC2
REMARK SMILES IDX 11 1 10 2 9 3 7 4 8 5 6 7 1 8 2 9 3 10 79 11 4 12 5 13 80 14
REMARK SMILES IDX 94 15 81 16 93 17 82 18 83 19 84 20 85 21 86 22 87 23 91 24
REMARK SMILES IDX 88 25 90 26 92 27 89 28 12 29 13 30 14 31 15 33 16 34 17 35
REMARK SMILES IDX 78 36 18 37 77 38 19 39 20 40 21 41 71 42 22 43 76 44 70 45
REMARK SMILES IDX 72 46 23 47 75 48 69 49 68 50 24 52 56 53 36 54 55 55 37 56
REMARK SMILES IDX 40 57 54 58 73 59 38 60 39 61 53 63 74 64 41 65 25 66 26 67
REMARK SMILES IDX 34 68 27 69 33 70 35 71 32 72 28 73 29 74 30 75 31 76 57 77
REMARK SMILES IDX 58 78 66 79 59 80 65 81 67 82 64 83 60 84 61 85 62 86 63 87
REMARK SMILES IDX 42 88 43 89 51 90 44 91 50 92 52 93 49 94 45 95 46 96 47 97
REMARK SMILES IDX 48 98
REMARK H PARENT 9 6 13 32 72 51 40 62
REMARK Flexibility Score: inf
ROOT
ATOM      1  C   UNL A   1      36.253  21.715  24.237  1.00  0.00     0.042 C 
ENDROOT
BRANCH   1   2
ATOM      2  C   UNL A   1      35.478  20.691  25.070  1.00  0.00     0.117 C 
BRANCH   2   3
ATOM      3  N   UNL A   1      34.966  21.203  26.335  1.00  0.00    -0.356 N 
ATOM      4  C   UNL A   1      33.752  21.609  26.778  1.00  0.00     0.226 C 
ATOM      5  O   UNL A   1      33.702  21.966  27.963  1.00  0.00    -0.275 OA
ATOM      6  H   UNL A   1      35.663  21.269  27.027  1.00  0.00     0.163 HD
BRANCH   4   7
ATOM      7  C   UNL A   1      32.475  21.716  25.941  1.00  0.00     0.113 C 
ATOM      8  C   UNL A   1      32.969  22.721  22.371  1.00  0.00     0.147 C 
ATOM      9  N   UNL A   1      32.664  22.100  23.649  1.00  0.00    -0.339 N 
ATOM     10  C   UNL A   1      32.407  20.743  23.760  1.00  0.00     0.223 C 
ATOM     11  C   UNL A   1      32.398  22.848  24.887  1.00  0.00     0.057 C 
ATOM     12  O   UNL A   1      32.420  19.917  22.862  1.00  0.00    -0.275 OA
ATOM     13  C   UNL A   1      32.122  20.427  25.203  1.00  0.00     0.116 C 
ATOM     14  C   UNL A   1      33.389  24.000  25.156  1.00  0.00     0.046 C 
ATOM     15  C   UNL A   1      30.941  23.409  24.781  1.00  0.00     0.046 C 
ATOM     16  C   UNL A   1      32.909  24.944  26.249  1.00  0.00     0.105 C 
ATOM     17  C   UNL A   1      30.574  24.469  25.819  1.00  0.00     0.105 C 
ATOM     18  N   UNL A   1      31.605  25.540  25.899  1.00  0.00    -0.198 NA
BRANCH  18  19
ATOM     19  S   UNL A   1      31.519  26.720  24.652  1.00  0.00     0.245 S 
ATOM     20  O   UNL A   1      32.613  26.509  23.730  1.00  0.00    -0.207 OA
ATOM     21  O   UNL A   1      30.155  26.670  24.155  1.00  0.00    -0.207 OA
BRANCH  19  22
ATOM     22  C   UNL A   1      31.741  28.295  25.420  1.00  0.00     0.118 A 
ATOM     23  C   UNL A   1      32.284  28.375  26.708  1.00  0.00     0.025 A 
ATOM     24  C   UNL A   1      31.251  29.447  24.813  1.00  0.00     0.143 A 
ATOM     25  C   UNL A   1      32.364  29.611  27.355  1.00  0.00     0.002 A 
ATOM     26  C   UNL A   1      31.358  30.685  25.443  1.00  0.00     0.041 A 
ATOM     27  F   UNL A   1      30.682  29.416  23.602  1.00  0.00    -0.206 F 
ATOM     28  C   UNL A   1      31.913  30.768  26.718  1.00  0.00     0.003 A 
ENDBRANCH  19  22
ENDBRANCH  18  19
ENDBRANCH   4   7
ENDBRANCH   2   3
ENDBRANCH   1   2
BRANCH   1  29
ATOM     29  C   UNL A   1      37.462  22.334  24.939  1.00  0.00     0.118 C 
BRANCH  29  30
ATOM     30  N   UNL A   1      38.234  21.340  25.663  1.00  0.00    -0.352 N 
ATOM     31  C   UNL A   1      39.387  21.467  26.398  1.00  0.00     0.251 C 
ATOM     32  H   UNL A   1      37.872  20.426  25.619  1.00  0.00     0.163 HD
ATOM     33  O   UNL A   1      40.010  20.445  26.682  1.00  0.00    -0.269 OA
BRANCH  31  34
ATOM     34  C   UNL A   1      39.891  22.786  26.851  1.00  0.00     0.039 A 
ATOM     35  C   UNL A   1      39.487  23.928  26.150  1.00  0.00     0.014 A 
ATOM     36  C   UNL A   1      40.827  22.910  27.883  1.00  0.00     0.014 A 
ATOM     37  C   UNL A   1      39.990  25.185  26.501  1.00  0.00     0.010 A 
ATOM     38  C   UNL A   1      41.286  24.174  28.270  1.00  0.00     0.010 A 
ATOM     39  C   UNL A   1      40.881  25.326  27.576  1.00  0.00    -0.014 A 
BRANCH  39  40
ATOM     40  C   UNL A   1      41.401  26.666  27.962  1.00  0.00     0.031 A 
ATOM     41  C   UNL A   1      42.817  27.065  27.633  1.00  0.00     0.074 A 
ATOM     42  C   UNL A   1      40.603  27.522  28.634  1.00  0.00     0.049 A 
ATOM     43  N   UNL A   1      43.453  28.175  27.913  1.00  0.00    -0.248 NA
ATOM     44  C   UNL A   1      43.630  26.075  26.911  1.00  0.00     0.031 C 
ATOM     45  C   UNL A   1      39.226  27.241  29.048  1.00  0.00     0.029 A 
ATOM     46  N   UNL A   1      40.831  28.797  29.088  1.00  0.00    -0.354 N 
ATOM     47  C   UNL A   1      44.740  28.016  27.411  1.00  0.00     0.074 A 
ATOM     48  C   UNL A   1      44.808  26.680  26.855  1.00  0.00     0.031 C 
ATOM     49  C   UNL A   1      38.727  28.320  29.675  1.00  0.00     0.029 A 
ATOM     50  C   UNL A   1      39.754  29.355  29.737  1.00  0.00     0.049 A 
ATOM     51  H   UNL A   1      41.685  29.269  28.959  1.00  0.00     0.167 HD
ATOM     52  C   UNL A   1      45.765  28.906  27.393  1.00  0.00     0.034 A 
ATOM     53  C   UNL A   1      39.610  30.562  30.319  1.00  0.00     0.034 A 
ATOM     54  C   UNL A   1      45.685  30.242  27.936  1.00  0.00     0.049 A 
ATOM     55  C   UNL A   1      40.758  31.537  30.274  1.00  0.00     0.074 A 
ATOM     56  C   UNL A   1      46.654  31.232  27.944  1.00  0.00     0.029 A 
ATOM     57  N   UNL A   1      44.570  30.779  28.566  1.00  0.00    -0.354 N 
ATOM     58  N   UNL A   1      41.957  31.378  29.764  1.00  0.00    -0.248 NA
ATOM     59  C   UNL A   1      40.524  32.860  30.868  1.00  0.00     0.031 C 
ATOM     60  C   UNL A   1      46.142  32.347  28.618  1.00  0.00     0.029 A 
ATOM     61  C   UNL A   1      44.832  32.077  28.978  1.00  0.00     0.049 A 
ATOM     62  H   UNL A   1      43.716  30.306  28.699  1.00  0.00     0.167 HD
ATOM     63  C   UNL A   1      42.612  32.591  29.958  1.00  0.00     0.074 A 
ATOM     64  C   UNL A   1      41.666  33.477  30.603  1.00  0.00     0.031 C 
ATOM     65  C   UNL A   1      43.883  32.943  29.636  1.00  0.00     0.034 A 
BRANCH  52  66
ATOM     66  C   UNL A   1      47.068  28.453  26.780  1.00  0.00     0.023 A 
ATOM     67  C   UNL A   1      47.221  28.325  25.388  1.00  0.00     0.031 A 
ATOM     68  C   UNL A   1      48.169  28.135  27.596  1.00  0.00     0.131 A 
ATOM     69  C   UNL A   1      48.422  27.830  24.858  1.00  0.00     0.055 A 
ATOM     70  C   UNL A   1      49.386  27.712  27.056  1.00  0.00     0.041 A 
ATOM     71  F   UNL A   1      48.077  28.221  28.931  1.00  0.00    -0.206 F 
ATOM     72  C   UNL A   1      49.514  27.545  25.681  1.00  0.00     0.022 A 
BRANCH  69  73
ATOM     73  S   UNL A   1      48.497  27.451  23.086  1.00  0.00     0.124 S 
ATOM     74  O   UNL A   1      48.407  25.993  23.094  1.00  0.00    -0.237 OA
ATOM     75  O   UNL A   1      47.337  28.161  22.561  1.00  0.00    -0.237 OA
ATOM     76  O   UNL A   1      49.794  27.988  22.676  1.00  0.00    -0.744 OA
ENDBRANCH  69  73
ENDBRANCH  52  66
BRANCH  53  77
ATOM     77  C   UNL A   1      38.337  30.924  31.005  1.00  0.00     0.023 A 
ATOM     78  C   UNL A   1      37.302  31.573  30.314  1.00  0.00     0.031 A 
ATOM     79  C   UNL A   1      38.163  30.684  32.379  1.00  0.00     0.131 A 
ATOM     80  C   UNL A   1      36.162  32.009  31.007  1.00  0.00     0.055 A 
ATOM     81  C   UNL A   1      37.005  31.072  33.055  1.00  0.00     0.041 A 
ATOM     82  F   UNL A   1      39.120  30.061  33.086  1.00  0.00    -0.206 F 
ATOM     83  C   UNL A   1      36.002  31.755  32.371  1.00  0.00     0.022 A 
BRANCH  80  84
ATOM     84  S   UNL A   1      34.936  33.008  30.120  1.00  0.00     0.124 S 
ATOM     85  O   UNL A   1      34.417  32.051  29.148  1.00  0.00    -0.237 OA
ATOM     86  O   UNL A   1      34.025  33.389  31.194  1.00  0.00    -0.237 OA
ATOM     87  O   UNL A   1      35.728  34.100  29.559  1.00  0.00    -0.744 OA
ENDBRANCH  80  84
ENDBRANCH  53  77
BRANCH  65  88
ATOM     88  C   UNL A   1      44.295  34.357  29.958  1.00  0.00     0.023 A 
ATOM     89  C   UNL A   1      44.054  35.415  29.062  1.00  0.00     0.031 A 
ATOM     90  C   UNL A   1      44.980  34.643  31.152  1.00  0.00     0.131 A 
ATOM     91  C   UNL A   1      44.555  36.695  29.341  1.00  0.00     0.055 A 
ATOM     92  C   UNL A   1      45.426  35.931  31.450  1.00  0.00     0.041 A 
ATOM     93  F   UNL A   1      45.236  33.672  32.042  1.00  0.00    -0.206 F 
ATOM     94  C   UNL A   1      45.229  36.963  30.536  1.00  0.00     0.022 A 
BRANCH  91  95
ATOM     95  S   UNL A   1      44.408  37.980  28.071  1.00  0.00     0.124 S 
ATOM     96  O   UNL A   1      43.577  38.977  28.739  1.00  0.00    -0.237 OA
ATOM     97  O   UNL A   1      45.800  38.358  27.848  1.00  0.00    -0.237 OA
ATOM     98  O   UNL A   1      43.768  37.288  26.954  1.00  0.00    -0.744 OA
ENDBRANCH  91  95
ENDBRANCH  65  88
ENDBRANCH  39  40
ENDBRANCH  31  34
ENDBRANCH  29  30
ENDBRANCH   1  29
TORSDOF 15
ENDMDL
MODEL 2
REMARK VINA RESULT:     -13.1      2.393      2.780
REMARK SMILES CN1C(=O)C[C@@H](C(=O)NCCCNC(=O)c2ccc(-c3c4nc(c(-c5cc(S(=O)(=O)[O-])ccc5F)c5ccc([nH]5)c(-c5cc(S(=O)(=O)[O-])ccc5F)c5nc(c(-c6cc(S(=O)(=O)[O-])ccc6F)c6ccc3[nH]6)C=C5)C=C4)cc2)C12CCN(S(=O)(=O)c1ccccc1F)CC2
REMARK SMILES IDX 11 1 10 2 9 3 7 4 8 5 6 7 1 8 2 9 3 10 79 11 4 12 5 13 80 14
REMARK SMILES IDX 94 15 81 16 93 17 82 18 83 19 84 20 85 21 86 22 87 23 91 24
REMARK SMILES IDX 88 25 90 26 92 27 89 28 12 29 13 30 14 31 15 33 16 34 17 35
REMARK SMILES IDX 78 36 18 37 77 38 19 39 20 40 21 41 71 42 22 43 76 44 70 45
REMARK SMILES IDX 72 46 23 47 75 48 69 49 68 50 24 52 56 53 36 54 55 55 37 56
REMARK SMILES IDX 40 57 54 58 73 59 38 60 39 61 53 63 74 64 41 65 25 66 26 67
REMARK SMILES IDX 34 68 27 69 33 70 35 71 32 72 28 73 29 74 30 75 31 76 57 77
REMARK SMILES IDX 58 78 66 79 59 80 65 81 67 82 64 83 60 84 61 85 62 86 63 87
REMARK SMILES IDX 42 88 43 89 51 90 44 91 50 92 52 93 49 94 45 95 46 96 47 97
REMARK SMILES IDX 48 98
REMARK H PARENT 9 6 13 32 72 51 40 62
REMARK Flexibility Score: inf
ROOT
ATOM      1  C   UNL A   1      35.359  23.289  26.694  1.00  0.00     0.042 C 
ENDROOT
BRANCH   1   2
ATOM      2  C   UNL A   1      34.171  22.397  26.325  1.00  0.00     0.117 C 
BRANCH   2   3
ATOM      3  N   UNL A   1      32.937  22.710  27.037  1.00  0.00    -0.356 N 
ATOM      4  C   UNL A   1      31.706  23.138  26.666  1.00  0.00     0.226 C 
ATOM      5  O   UNL A   1      30.883  23.271  27.583  1.00  0.00    -0.275 OA
ATOM      6  H   UNL A   1      33.016  22.580  28.009  1.00  0.00     0.163 HD
BRANCH   4   7
ATOM      7  C   UNL A   1      31.271  23.519  25.250  1.00  0.00     0.113 C 
ATOM      8  C   UNL A   1      33.997  24.759  23.006  1.00  0.00     0.147 C 
ATOM      9  N   UNL A   1      32.907  24.079  23.685  1.00  0.00    -0.339 N 
ATOM     10  C   UNL A   1      32.555  22.773  23.378  1.00  0.00     0.223 C 
ATOM     11  C   UNL A   1      31.956  24.742  24.590  1.00  0.00     0.057 C 
ATOM     12  O   UNL A   1      33.089  22.041  22.561  1.00  0.00    -0.275 OA
ATOM     13  C   UNL A   1      31.394  22.375  24.247  1.00  0.00     0.116 C 
ATOM     14  C   UNL A   1      32.613  25.696  25.610  1.00  0.00     0.046 C 
ATOM     15  C   UNL A   1      30.942  25.530  23.695  1.00  0.00     0.046 C 
ATOM     16  C   UNL A   1      31.604  26.598  26.304  1.00  0.00     0.105 C 
ATOM     17  C   UNL A   1      30.062  26.535  24.439  1.00  0.00     0.105 C 
ATOM     18  N   UNL A   1      30.866  27.420  25.326  1.00  0.00    -0.198 NA
BRANCH  18  19
ATOM     19  S   UNL A   1      31.671  28.708  24.522  1.00  0.00     0.245 S 
ATOM     20  O   UNL A   1      32.443  28.168  23.425  1.00  0.00    -0.207 OA
ATOM     21  O   UNL A   1      30.649  29.702  24.245  1.00  0.00    -0.207 OA
BRANCH  19  22
ATOM     22  C   UNL A   1      32.792  29.419  25.688  1.00  0.00     0.118 A 
ATOM     23  C   UNL A   1      34.044  28.831  25.902  1.00  0.00     0.025 A 
ATOM     24  C   UNL A   1      32.386  30.476  26.497  1.00  0.00     0.143 A 
ATOM     25  C   UNL A   1      34.888  29.332  26.897  1.00  0.00     0.002 A 
ATOM     26  C   UNL A   1      33.238  30.997  27.469  1.00  0.00     0.041 A 
ATOM     27  F   UNL A   1      31.181  31.042  26.361  1.00  0.00    -0.206 F 
ATOM     28  C   UNL A   1      34.490  30.423  27.672  1.00  0.00     0.003 A 
ENDBRANCH  19  22
ENDBRANCH  18  19
ENDBRANCH   4   7
ENDBRANCH   2   3
ENDBRANCH   1   2
BRANCH   1  29
ATOM     29  C   UNL A   1      36.479  23.334  25.654  1.00  0.00     0.118 C 
BRANCH  29  30
ATOM     30  N   UNL A   1      37.574  22.446  26.000  1.00  0.00    -0.352 N 
ATOM     31  C   UNL A   1      38.854  22.726  26.412  1.00  0.00     0.251 C 
ATOM     32  H   UNL A   1      37.366  21.487  25.927  1.00  0.00     0.163 HD
ATOM     33  O   UNL A   1      39.687  21.822  26.374  1.00  0.00    -0.269 OA
BRANCH  31  34
ATOM     34  C   UNL A   1      39.250  24.072  26.895  1.00  0.00     0.039 A 
ATOM     35  C   UNL A   1      39.913  24.928  26.008  1.00  0.00     0.014 A 
ATOM     36  C   UNL A   1      39.071  24.467  28.224  1.00  0.00     0.014 A 
ATOM     37  C   UNL A   1      40.363  26.180  26.440  1.00  0.00     0.010 A 
ATOM     38  C   UNL A   1      39.471  25.741  28.641  1.00  0.00     0.010 A 
ATOM     39  C   UNL A   1      40.131  26.609  27.756  1.00  0.00    -0.014 A 
BRANCH  39  40
ATOM     40  C   UNL A   1      40.592  27.949  28.211  1.00  0.00     0.031 A 
ATOM     41  C   UNL A   1      42.061  28.291  28.227  1.00  0.00     0.074 A 
ATOM     42  C   UNL A   1      39.689  28.857  28.632  1.00  0.00     0.049 A 
ATOM     43  N   UNL A   1      42.651  29.393  28.616  1.00  0.00    -0.248 NA
ATOM     44  C   UNL A   1      42.986  27.246  27.765  1.00  0.00     0.031 C 
ATOM     45  C   UNL A   1      38.242  28.636  28.703  1.00  0.00     0.029 A 
ATOM     46  N   UNL A   1      39.849  30.144  29.082  1.00  0.00    -0.354 N 
ATOM     47  C   UNL A   1      44.016  29.174  28.454  1.00  0.00     0.074 A 
ATOM     48  C   UNL A   1      44.165  27.813  27.980  1.00  0.00     0.031 C 
ATOM     49  C   UNL A   1      37.648  29.756  29.149  1.00  0.00     0.029 A 
ATOM     50  C   UNL A   1      38.668  30.762  29.425  1.00  0.00     0.049 A 
ATOM     51  H   UNL A   1      40.726  30.585  29.152  1.00  0.00     0.167 HD
ATOM     52  C   UNL A   1      45.047  30.032  28.658  1.00  0.00     0.034 A 
ATOM     53  C   UNL A   1      38.433  31.997  29.910  1.00  0.00     0.034 A 
ATOM     54  C   UNL A   1      44.890  31.393  29.116  1.00  0.00     0.049 A 
ATOM     55  C   UNL A   1      39.595  32.935  30.115  1.00  0.00     0.074 A 
ATOM     56  C   UNL A   1      45.866  32.352  29.327  1.00  0.00     0.029 A 
ATOM     57  N   UNL A   1      43.676  31.989  29.430  1.00  0.00    -0.354 N 
ATOM     58  N   UNL A   1      40.875  32.719  29.923  1.00  0.00    -0.248 NA
ATOM     59  C   UNL A   1      39.275  34.290  30.585  1.00  0.00     0.031 C 
ATOM     60  C   UNL A   1      45.248  33.512  29.814  1.00  0.00     0.029 A 
ATOM     61  C   UNL A   1      43.880  33.296  29.847  1.00  0.00     0.049 A 
ATOM     62  H   UNL A   1      42.798  31.549  29.366  1.00  0.00     0.167 HD
ATOM     63  C   UNL A   1      41.510  33.919  30.230  1.00  0.00     0.074 A 
ATOM     64  C   UNL A   1      40.470  34.860  30.588  1.00  0.00     0.031 C 
ATOM     65  C   UNL A   1      42.834  34.218  30.219  1.00  0.00     0.034 A 
BRANCH  52  66
ATOM     66  C   UNL A   1      46.443  29.513  28.403  1.00  0.00     0.023 A 
ATOM     67  C   UNL A   1      47.187  28.876  29.412  1.00  0.00     0.031 A 
ATOM     68  C   UNL A   1      47.042  29.665  27.140  1.00  0.00     0.131 A 
ATOM     69  C   UNL A   1      48.507  28.474  29.161  1.00  0.00     0.055 A 
ATOM     70  C   UNL A   1      48.331  29.197  26.876  1.00  0.00     0.041 A 
ATOM     71  F   UNL A   1      46.388  30.281  26.143  1.00  0.00    -0.206 F 
ATOM     72  C   UNL A   1      49.076  28.609  27.893  1.00  0.00     0.022 A 
BRANCH  69  73
ATOM     73  S   UNL A   1      49.511  27.880  30.549  1.00  0.00     0.124 S 
ATOM     74  O   UNL A   1      48.925  28.610  31.670  1.00  0.00    -0.237 OA
ATOM     75  O   UNL A   1      49.268  26.442  30.524  1.00  0.00    -0.237 OA
ATOM     76  O   UNL A   1      50.868  28.287  30.189  1.00  0.00    -0.744 OA
ENDBRANCH  69  73
ENDBRANCH  52  66
BRANCH  53  77
ATOM     77  C   UNL A   1      37.045  32.428  30.246  1.00  0.00     0.023 A 
ATOM     78  C   UNL A   1      36.259  33.124  29.316  1.00  0.00     0.031 A 
ATOM     79  C   UNL A   1      36.510  32.203  31.526  1.00  0.00     0.131 A 
ATOM     80  C   UNL A   1      35.002  33.621  29.695  1.00  0.00     0.055 A 
ATOM     81  C   UNL A   1      35.238  32.653  31.883  1.00  0.00     0.041 A 
ATOM     82  F   UNL A   1      37.219  31.536  32.451  1.00  0.00    -0.206 F 
ATOM     83  C   UNL A   1      34.482  33.382  30.969  1.00  0.00     0.022 A 
BRANCH  80  84
ATOM     84  S   UNL A   1      34.099  34.677  28.529  1.00  0.00     0.124 S 
ATOM     85  O   UNL A   1      34.325  36.005  29.091  1.00  0.00    -0.237 OA
ATOM     86  O   UNL A   1      34.781  34.389  27.272  1.00  0.00    -0.237 OA
ATOM     87  O   UNL A   1      32.726  34.186  28.618  1.00  0.00    -0.744 OA
ENDBRANCH  80  84
ENDBRANCH  53  77
BRANCH  65  88
ATOM     88  C   UNL A   1      43.210  35.633  30.582  1.00  0.00     0.023 A 
ATOM     89  C   UNL A   1      43.332  36.635  29.602  1.00  0.00     0.031 A 
ATOM     90  C   UNL A   1      43.496  35.972  31.916  1.00  0.00     0.131 A 
ATOM     91  C   UNL A   1      43.798  37.909  29.959  1.00  0.00     0.055 A 
ATOM     92  C   UNL A   1      43.904  37.258  32.274  1.00  0.00     0.041 A 
ATOM     93  F   UNL A   1      43.395  35.055  32.890  1.00  0.00    -0.206 F 
ATOM     94  C   UNL A   1      44.073  38.230  31.291  1.00  0.00     0.022 A 
BRANCH  91  95
ATOM     95  S   UNL A   1      44.142  39.108  28.644  1.00  0.00     0.124 S 
ATOM     96  O   UNL A   1      45.420  39.670  29.070  1.00  0.00    -0.237 OA
ATOM     97  O   UNL A   1      44.183  38.263  27.455  1.00  0.00    -0.237 OA
ATOM     98  O   UNL A   1      43.008  40.027  28.712  1.00  0.00    -0.744 OA
ENDBRANCH  91  95
ENDBRANCH  65  88
ENDBRANCH  39  40
ENDBRANCH  31  34
ENDBRANCH  29  30
ENDBRANCH   1  29
TORSDOF 15
ENDMDL
MODEL 3
REMARK VINA RESULT:     -13.1      1.602      2.123
REMARK SMILES CN1C(=O)C[C@@H](C(=O)NCCCNC(=O)c2ccc(-c3c4nc(c(-c5cc(S(=O)(=O)[O-])ccc5F)c5ccc([nH]5)c(-c5cc(S(=O)(=O)[O-])ccc5F)c5nc(c(-c6cc(S(=O)(=O)[O-])ccc6F)c6ccc3[nH]6)C=C5)C=C4)cc2)C12CCN(S(=O)(=O)c1ccccc1F)CC2
REMARK SMILES IDX 11 1 10 2 9 3 7 4 8 5 6 7 1 8 2 9 3 10 79 11 4 12 5 13 80 14
REMARK SMILES IDX 94 15 81 16 93 17 82 18 83 19 84 20 85 21 86 22 87 23 91 24
REMARK SMILES IDX 88 25 90 26 92 27 89 28 12 29 13 30 14 31 15 33 16 34 17 35
REMARK SMILES IDX 78 36 18 37 77 38 19 39 20 40 21 41 71 42 22 43 76 44 70 45
REMARK SMILES IDX 72 46 23 47 75 48 69 49 68 50 24 52 56 53 36 54 55 55 37 56
REMARK SMILES IDX 40 57 54 58 73 59 38 60 39 61 53 63 74 64 41 65 25 66 26 67
REMARK SMILES IDX 34 68 27 69 33 70 35 71 32 72 28 73 29 74 30 75 31 76 57 77
REMARK SMILES IDX 58 78 66 79 59 80 65 81 67 82 64 83 60 84 61 85 62 86 63 87
REMARK SMILES IDX 42 88 43 89 51 90 44 91 50 92 52 93 49 94 45 95 46 96 47 97
REMARK SMILES IDX 48 98
REMARK H PARENT 9 6 13 32 72 51 40 62
REMARK Flexibility Score: inf
ROOT
ATOM      1  C   UNL A   1      35.416  21.795  25.696  1.00  0.00     0.042 C 
ENDROOT
BRANCH   1   2
ATOM      2  C   UNL A   1      34.694  23.135  25.537  1.00  0.00     0.117 C 
BRANCH   2   3
ATOM      3  N   UNL A   1      33.686  23.402  26.556  1.00  0.00    -0.356 N 
ATOM      4  C   UNL A   1      32.335  23.517  26.553  1.00  0.00     0.226 C 
ATOM      5  O   UNL A   1      31.810  23.730  27.654  1.00  0.00    -0.275 OA
ATOM      6  H   UNL A   1      34.075  23.528  27.450  1.00  0.00     0.163 HD
BRANCH   4   7
ATOM      7  C   UNL A   1      31.427  23.462  25.323  1.00  0.00     0.113 C 
ATOM      8  C   UNL A   1      33.099  24.176  22.053  1.00  0.00     0.147 C 
ATOM      9  N   UNL A   1      32.389  23.653  23.208  1.00  0.00    -0.339 N 
ATOM     10  C   UNL A   1      32.153  22.296  23.368  1.00  0.00     0.223 C 
ATOM     11  C   UNL A   1      31.685  24.488  24.192  1.00  0.00     0.057 C 
ATOM     12  O   UNL A   1      32.504  21.396  22.623  1.00  0.00    -0.275 OA
ATOM     13  C   UNL A   1      31.395  22.092  24.651  1.00  0.00     0.116 C 
ATOM     14  C   UNL A   1      32.483  25.723  24.659  1.00  0.00     0.046 C 
ATOM     15  C   UNL A   1      30.338  24.938  23.533  1.00  0.00     0.046 C 
ATOM     16  C   UNL A   1      31.622  26.726  25.414  1.00  0.00     0.105 C 
ATOM     17  C   UNL A   1      29.599  26.060  24.263  1.00  0.00     0.105 C 
ATOM     18  N   UNL A   1      30.503  27.201  24.577  1.00  0.00    -0.198 NA
BRANCH  18  19
ATOM     19  S   UNL A   1      30.818  28.255  23.257  1.00  0.00     0.245 S 
ATOM     20  O   UNL A   1      32.105  28.885  23.456  1.00  0.00    -0.207 OA
ATOM     21  O   UNL A   1      30.594  27.466  22.059  1.00  0.00    -0.207 OA
BRANCH  19  22
ATOM     22  C   UNL A   1      29.577  29.512  23.298  1.00  0.00     0.118 A 
ATOM     23  C   UNL A   1      29.904  30.804  23.728  1.00  0.00     0.025 A 
ATOM     24  C   UNL A   1      28.247  29.193  23.039  1.00  0.00     0.143 A 
ATOM     25  C   UNL A   1      28.901  31.769  23.857  1.00  0.00     0.002 A 
ATOM     26  C   UNL A   1      27.251  30.162  23.138  1.00  0.00     0.041 A 
ATOM     27  F   UNL A   1      27.879  27.962  22.668  1.00  0.00    -0.206 F 
ATOM     28  C   UNL A   1      27.577  31.452  23.550  1.00  0.00     0.003 A 
ENDBRANCH  19  22
ENDBRANCH  18  19
ENDBRANCH   4   7
ENDBRANCH   2   3
ENDBRANCH   1   2
BRANCH   1  29
ATOM     29  C   UNL A   1      36.684  21.643  24.856  1.00  0.00     0.118 C 
BRANCH  29  30
ATOM     30  N   UNL A   1      37.583  20.645  25.408  1.00  0.00    -0.352 N 
ATOM     31  C   UNL A   1      38.870  20.761  25.873  1.00  0.00     0.251 C 
ATOM     32  H   UNL A   1      37.208  19.735  25.457  1.00  0.00     0.163 HD
ATOM     33  O   UNL A   1      39.526  19.733  26.029  1.00  0.00    -0.269 OA
BRANCH  31  34
ATOM     34  C   UNL A   1      39.477  22.078  26.188  1.00  0.00     0.039 A 
ATOM     35  C   UNL A   1      40.656  22.102  26.941  1.00  0.00     0.014 A 
ATOM     36  C   UNL A   1      38.857  23.283  25.844  1.00  0.00     0.014 A 
ATOM     37  C   UNL A   1      41.227  23.322  27.318  1.00  0.00     0.010 A 
ATOM     38  C   UNL A   1      39.458  24.503  26.173  1.00  0.00     0.010 A 
ATOM     39  C   UNL A   1      40.644  24.537  26.923  1.00  0.00    -0.014 A 
BRANCH  39  40
ATOM     40  C   UNL A   1      41.263  25.836  27.307  1.00  0.00     0.031 A 
ATOM     41  C   UNL A   1      42.650  26.194  26.837  1.00  0.00     0.074 A 
ATOM     42  C   UNL A   1      40.584  26.688  28.102  1.00  0.00     0.049 A 
ATOM     43  N   UNL A   1      43.362  27.263  27.093  1.00  0.00    -0.248 NA
ATOM     44  C   UNL A   1      43.332  25.210  25.985  1.00  0.00     0.031 C 
ATOM     45  C   UNL A   1      39.251  26.441  28.657  1.00  0.00     0.029 A 
ATOM     46  N   UNL A   1      40.918  27.929  28.584  1.00  0.00    -0.354 N 
ATOM     47  C   UNL A   1      44.577  27.079  26.441  1.00  0.00     0.074 A 
ATOM     48  C   UNL A   1      44.523  25.770  25.822  1.00  0.00     0.031 C 
ATOM     49  C   UNL A   1      38.874  27.506  29.385  1.00  0.00     0.029 A 
ATOM     50  C   UNL A   1      39.946  28.496  29.376  1.00  0.00     0.049 A 
ATOM     51  H   UNL A   1      41.773  28.373  28.381  1.00  0.00     0.167 HD
ATOM     52  C   UNL A   1      45.632  27.928  26.347  1.00  0.00     0.034 A 
ATOM     53  C   UNL A   1      39.922  29.677  30.024  1.00  0.00     0.034 A 
ATOM     54  C   UNL A   1      45.673  29.238  26.954  1.00  0.00     0.049 A 
ATOM     55  C   UNL A   1      41.100  30.608  29.893  1.00  0.00     0.074 A 
ATOM     56  C   UNL A   1      46.679  30.187  26.896  1.00  0.00     0.029 A 
ATOM     57  N   UNL A   1      44.660  29.786  27.730  1.00  0.00    -0.354 N 
ATOM     58  N   UNL A   1      42.226  30.427  29.243  1.00  0.00    -0.248 NA
ATOM     59  C   UNL A   1      40.993  31.908  30.568  1.00  0.00     0.031 C 
ATOM     60  C   UNL A   1      46.296  31.287  27.674  1.00  0.00     0.029 A 
ATOM     61  C   UNL A   1      45.024  31.051  28.167  1.00  0.00     0.049 A 
ATOM     62  H   UNL A   1      43.806  29.341  27.938  1.00  0.00     0.167 HD
ATOM     63  C   UNL A   1      42.952  31.603  29.416  1.00  0.00     0.074 A 
ATOM     64  C   UNL A   1      42.125  32.492  30.203  1.00  0.00     0.031 C 
ATOM     65  C   UNL A   1      44.194  31.920  28.967  1.00  0.00     0.034 A 
BRANCH  52  66
ATOM     66  C   UNL A   1      46.837  27.455  25.570  1.00  0.00     0.023 A 
ATOM     67  C   UNL A   1      47.070  27.872  24.248  1.00  0.00     0.031 A 
ATOM     68  C   UNL A   1      47.760  26.569  26.154  1.00  0.00     0.131 A 
ATOM     69  C   UNL A   1      48.159  27.354  23.531  1.00  0.00     0.055 A 
ATOM     70  C   UNL A   1      48.883  26.113  25.458  1.00  0.00     0.041 A 
ATOM     71  F   UNL A   1      47.581  26.122  27.406  1.00  0.00    -0.206 F 
ATOM     72  C   UNL A   1      49.081  26.496  24.135  1.00  0.00     0.022 A 
BRANCH  69  73
ATOM     73  S   UNL A   1      48.289  27.725  21.761  1.00  0.00     0.124 S 
ATOM     74  O   UNL A   1      47.010  28.382  21.504  1.00  0.00    -0.237 OA
ATOM     75  O   UNL A   1      49.470  28.577  21.701  1.00  0.00    -0.237 OA
ATOM     76  O   UNL A   1      48.441  26.407  21.145  1.00  0.00    -0.744 OA
ENDBRANCH  69  73
ENDBRANCH  52  66
BRANCH  53  77
ATOM     77  C   UNL A   1      38.751  30.055  30.866  1.00  0.00     0.023 A 
ATOM     78  C   UNL A   1      37.697  30.818  30.338  1.00  0.00     0.031 A 
ATOM     79  C   UNL A   1      38.700  29.713  32.228  1.00  0.00     0.131 A 
ATOM     80  C   UNL A   1      36.664  31.260  31.179  1.00  0.00     0.055 A 
ATOM     81  C   UNL A   1      37.643  30.110  33.049  1.00  0.00     0.041 A 
ATOM     82  F   UNL A   1      39.679  28.980  32.780  1.00  0.00    -0.206 F 
ATOM     83  C   UNL A   1      36.625  30.904  32.529  1.00  0.00     0.022 A 
BRANCH  80  84
ATOM     84  S   UNL A   1      35.424  32.399  30.504  1.00  0.00     0.124 S 
ATOM     85  O   UNL A   1      36.192  33.632  30.367  1.00  0.00    -0.237 OA
ATOM     86  O   UNL A   1      35.051  31.734  29.260  1.00  0.00    -0.237 OA
ATOM     87  O   UNL A   1      34.386  32.421  31.532  1.00  0.00    -0.744 OA
ENDBRANCH  80  84
ENDBRANCH  53  77
BRANCH  65  88
ATOM     88  C   UNL A   1      44.702  33.299  29.303  1.00  0.00     0.023 A 
ATOM     89  C   UNL A   1      44.579  34.368  28.397  1.00  0.00     0.031 A 
ATOM     90  C   UNL A   1      45.360  33.536  30.522  1.00  0.00     0.131 A 
ATOM     91  C   UNL A   1      45.167  35.607  28.693  1.00  0.00     0.055 A 
ATOM     92  C   UNL A   1      45.893  34.787  30.836  1.00  0.00     0.041 A 
ATOM     93  F   UNL A   1      45.505  32.552  31.422  1.00  0.00    -0.206 F 
ATOM     94  C   UNL A   1      45.813  35.827  29.913  1.00  0.00     0.022 A 
BRANCH  91  95
ATOM     95  S   UNL A   1      45.169  36.895  27.417  1.00  0.00     0.124 S 
ATOM     96  O   UNL A   1      46.047  36.318  26.403  1.00  0.00    -0.237 OA
ATOM     97  O   UNL A   1      43.757  36.983  27.061  1.00  0.00    -0.237 OA
ATOM     98  O   UNL A   1      45.708  38.064  28.110  1.00  0.00    -0.744 OA
ENDBRANCH  91  95
ENDBRANCH  65  88
ENDBRANCH  39  40
ENDBRANCH  31  34
ENDBRANCH  29  30
ENDBRANCH   1  29
TORSDOF 15
ENDMDL
