MODEL 1
REMARK VINA RESULT:     -13.1      0.000      0.000
REMARK SMILES Cc1ccc(Nc2c(Cl)cc(Cl)cc2Cl)c(CC(=O)NCCCNC(=O)c2ccc(-c3c4nc(c(-c5cc(S(=O)(=O)[O-])ccc5F)c5ccc([nH]5)c(-c5cc(S(=O)(=O)[O-])ccc5F)c5nc(c(-c6cc(S(=O)(=O)[O-])ccc6F)c6ccc3[nH]6)C=C5)C=C4)cc2)c1
REMARK SMILES IDX 22 1 21 2 20 3 18 4 19 5 17 7 16 8 1 9 2 10 3 11 90 12 4 13
REMARK SMILES IDX 5 14 6 15 7 17 8 18 14 19 9 20 10 21 13 22 15 23 11 24 12 25
REMARK SMILES IDX 23 26 24 27 25 28 26 30 27 31 28 32 89 33 29 34 88 35 30 36
REMARK SMILES IDX 31 37 32 38 82 39 33 40 87 41 81 42 83 43 34 44 86 45 80 46
REMARK SMILES IDX 79 47 35 49 67 50 47 51 66 52 48 53 51 54 65 55 84 56 49 57
REMARK SMILES IDX 50 58 64 60 85 61 52 62 36 63 37 64 45 65 38 66 44 67 46 68
REMARK SMILES IDX 43 69 39 70 40 71 41 72 42 73 68 74 69 75 77 76 70 77 76 78
REMARK SMILES IDX 78 79 75 80 71 81 72 82 73 83 74 84 53 85 54 86 62 87 55 88
REMARK SMILES IDX 61 89 63 90 60 91 56 92 57 93 58 94 59 95
REMARK H PARENT 20 6 6 16 24 29 83 48 51 59
REMARK Flexibility Score: inf
ROOT
ATOM      1  C   UNL A   1      33.475  31.810  27.492  1.00  0.00     0.042 C 
ENDROOT
BRANCH   1   2
ATOM      2  C   UNL A   1      32.454  30.912  26.797  1.00  0.00     0.117 C 
BRANCH   2   3
ATOM      3  N   UNL A   1      32.079  29.768  27.616  1.00  0.00    -0.356 N 
ATOM      4  C   UNL A   1      31.937  28.459  27.251  1.00  0.00     0.224 C 
ATOM      5  O   UNL A   1      31.451  27.640  28.036  1.00  0.00    -0.275 OA
ATOM      6  H   UNL A   1      31.906  29.965  28.564  1.00  0.00     0.163 HD
BRANCH   4   7
ATOM      7  C   UNL A   1      32.361  28.001  25.863  1.00  0.00     0.137 C 
BRANCH   7   8
ATOM      8  C   UNL A   1      31.209  27.536  24.997  1.00  0.00    -0.015 A 
ATOM      9  C   UNL A   1      28.783  29.226  22.573  1.00  0.00     0.044 C 
ATOM     10  C   UNL A   1      29.472  28.179  23.394  1.00  0.00    -0.051 A 
ATOM     11  C   UNL A   1      28.947  26.891  23.474  1.00  0.00     0.005 A 
ATOM     12  C   UNL A   1      30.620  28.482  24.130  1.00  0.00     0.009 A 
ATOM     13  C   UNL A   1      29.554  25.931  24.287  1.00  0.00     0.026 A 
ATOM     14  C   UNL A   1      30.681  26.229  25.072  1.00  0.00     0.042 A 
BRANCH  14  15
ATOM     15  N   UNL A   1      31.292  25.241  25.879  1.00  0.00    -0.353 N 
ATOM     16  H   UNL A   1      31.364  25.462  26.836  1.00  0.00     0.167 HD
BRANCH  15  17
ATOM     17  C   UNL A   1      31.816  23.978  25.504  1.00  0.00     0.076 A 
ATOM     18  C   UNL A   1      32.904  23.828  24.621  1.00  0.00     0.067 A 
ATOM     19  C   UNL A   1      31.176  22.800  25.950  1.00  0.00     0.067 A 
ATOM     20  Cl  UNL A   1      33.847  25.178  24.075  1.00  0.00    -0.082 Cl
ATOM     21  C   UNL A   1      33.314  22.563  24.184  1.00  0.00     0.043 A 
ATOM     22  C   UNL A   1      31.590  21.534  25.523  1.00  0.00     0.043 A 
ATOM     23  Cl  UNL A   1      29.817  22.876  27.018  1.00  0.00    -0.082 Cl
ATOM     24  C   UNL A   1      32.651  21.426  24.633  1.00  0.00     0.044 A 
ATOM     25  Cl  UNL A   1      33.150  19.878  24.074  1.00  0.00    -0.084 Cl
ENDBRANCH  15  17
ENDBRANCH  14  15
ENDBRANCH   7   8
ENDBRANCH   4   7
ENDBRANCH   2   3
ENDBRANCH   1   2
BRANCH   1  26
ATOM     26  C   UNL A   1      34.700  31.071  28.016  1.00  0.00     0.118 C 
BRANCH  26  27
ATOM     27  N   UNL A   1      35.226  31.654  29.253  1.00  0.00    -0.352 N 
ATOM     28  C   UNL A   1      36.285  31.221  30.040  1.00  0.00     0.251 C 
ATOM     29  H   UNL A   1      34.765  32.463  29.571  1.00  0.00     0.163 HD
ATOM     30  O   UNL A   1      36.634  31.805  31.035  1.00  0.00    -0.269 OA
BRANCH  28  31
ATOM     31  C   UNL A   1      37.063  30.061  29.542  1.00  0.00     0.039 A 
ATOM     32  C   UNL A   1      37.241  28.990  30.423  1.00  0.00     0.014 A 
ATOM     33  C   UNL A   1      37.806  30.160  28.369  1.00  0.00     0.014 A 
ATOM     34  C   UNL A   1      38.328  28.142  30.244  1.00  0.00     0.010 A 
ATOM     35  C   UNL A   1      38.932  29.367  28.237  1.00  0.00     0.010 A 
ATOM     36  C   UNL A   1      39.231  28.406  29.213  1.00  0.00    -0.014 A 
BRANCH  36  37
ATOM     37  C   UNL A   1      40.584  27.852  29.196  1.00  0.00     0.031 A 
ATOM     38  C   UNL A   1      40.850  26.476  28.735  1.00  0.00     0.074 A 
ATOM     39  C   UNL A   1      41.628  28.617  29.583  1.00  0.00     0.049 A 
ATOM     40  N   UNL A   1      41.870  25.774  29.101  1.00  0.00    -0.248 NA
ATOM     41  C   UNL A   1      39.949  25.763  27.841  1.00  0.00     0.031 C 
ATOM     42  C   UNL A   1      43.050  28.329  29.415  1.00  0.00     0.029 A 
ATOM     43  N   UNL A   1      41.594  29.693  30.468  1.00  0.00    -0.354 N 
ATOM     44  C   UNL A   1      41.930  24.670  28.285  1.00  0.00     0.074 A 
ATOM     45  C   UNL A   1      40.672  24.672  27.571  1.00  0.00     0.031 C 
ATOM     46  C   UNL A   1      43.735  28.984  30.363  1.00  0.00     0.029 A 
ATOM     47  C   UNL A   1      42.770  29.615  31.243  1.00  0.00     0.049 A 
ATOM     48  H   UNL A   1      40.887  30.375  30.539  1.00  0.00     0.167 HD
ATOM     49  C   UNL A   1      43.089  23.954  28.199  1.00  0.00     0.034 A 
ATOM     50  C   UNL A   1      42.710  29.483  32.600  1.00  0.00     0.034 A 
ATOM     51  C   UNL A   1      44.123  24.446  29.112  1.00  0.00     0.049 A 
ATOM     52  C   UNL A   1      43.367  28.226  33.135  1.00  0.00     0.074 A 
ATOM     53  C   UNL A   1      45.288  25.181  28.961  1.00  0.00     0.029 A 
ATOM     54  N   UNL A   1      43.896  24.380  30.476  1.00  0.00    -0.354 N 
ATOM     55  N   UNL A   1      43.934  27.315  32.392  1.00  0.00    -0.248 NA
ATOM     56  C   UNL A   1      43.349  27.850  34.550  1.00  0.00     0.031 C 
ATOM     57  C   UNL A   1      45.756  25.550  30.258  1.00  0.00     0.029 A 
ATOM     58  C   UNL A   1      44.881  25.031  31.193  1.00  0.00     0.049 A 
ATOM     59  H   UNL A   1      43.125  23.924  30.885  1.00  0.00     0.167 HD
ATOM     60  C   UNL A   1      44.267  26.235  33.168  1.00  0.00     0.074 A 
ATOM     61  C   UNL A   1      43.892  26.621  34.515  1.00  0.00     0.031 C 
ATOM     62  C   UNL A   1      44.772  25.079  32.643  1.00  0.00     0.034 A 
BRANCH  49  63
ATOM     63  C   UNL A   1      43.370  22.963  27.091  1.00  0.00     0.023 A 
ATOM     64  C   UNL A   1      42.796  21.677  27.151  1.00  0.00     0.031 A 
ATOM     65  C   UNL A   1      44.208  23.198  25.985  1.00  0.00     0.131 A 
ATOM     66  C   UNL A   1      43.149  20.671  26.233  1.00  0.00     0.055 A 
ATOM     67  C   UNL A   1      44.618  22.181  25.113  1.00  0.00     0.041 A 
ATOM     68  F   UNL A   1      44.619  24.434  25.666  1.00  0.00    -0.206 F 
ATOM     69  C   UNL A   1      44.101  20.902  25.244  1.00  0.00     0.022 A 
BRANCH  66  70
ATOM     70  S   UNL A   1      42.333  19.055  26.339  1.00  0.00     0.124 S 
ATOM     71  O   UNL A   1      42.434  18.747  27.761  1.00  0.00    -0.237 OA
ATOM     72  O   UNL A   1      40.997  19.354  25.835  1.00  0.00    -0.237 OA
ATOM     73  O   UNL A   1      43.144  18.208  25.466  1.00  0.00    -0.744 OA
ENDBRANCH  66  70
ENDBRANCH  49  63
BRANCH  50  74
ATOM     74  C   UNL A   1      41.528  30.180  33.191  1.00  0.00     0.023 A 
ATOM     75  C   UNL A   1      41.623  31.583  33.320  1.00  0.00     0.031 A 
ATOM     76  C   UNL A   1      40.252  29.606  33.235  1.00  0.00     0.131 A 
ATOM     77  C   UNL A   1      40.469  32.376  33.277  1.00  0.00     0.055 A 
ATOM     78  C   UNL A   1      39.100  30.401  33.305  1.00  0.00     0.041 A 
ATOM     79  F   UNL A   1      40.086  28.284  33.083  1.00  0.00    -0.206 F 
ATOM     80  C   UNL A   1      39.203  31.794  33.274  1.00  0.00     0.022 A 
BRANCH  77  81
ATOM     81  S   UNL A   1      40.671  34.139  32.884  1.00  0.00     0.124 S 
ATOM     82  O   UNL A   1      41.927  34.465  33.550  1.00  0.00    -0.237 OA
ATOM     83  O   UNL A   1      40.703  34.138  31.421  1.00  0.00    -0.237 OA
ATOM     84  O   UNL A   1      39.479  34.767  33.449  1.00  0.00    -0.744 OA
ENDBRANCH  77  81
ENDBRANCH  50  74
BRANCH  62  85
ATOM     85  C   UNL A   1      45.162  23.881  33.473  1.00  0.00     0.023 A 
ATOM     86  C   UNL A   1      46.487  23.646  33.871  1.00  0.00     0.031 A 
ATOM     87  C   UNL A   1      44.220  22.888  33.827  1.00  0.00     0.131 A 
ATOM     88  C   UNL A   1      46.818  22.520  34.649  1.00  0.00     0.055 A 
ATOM     89  C   UNL A   1      44.566  21.731  34.530  1.00  0.00     0.041 A 
ATOM     90  F   UNL A   1      42.916  23.016  33.541  1.00  0.00    -0.206 F 
ATOM     91  C   UNL A   1      45.870  21.548  34.960  1.00  0.00     0.022 A 
BRANCH  88  92
ATOM     92  S   UNL A   1      48.498  22.387  35.313  1.00  0.00     0.124 S 
ATOM     93  O   UNL A   1      49.296  23.072  34.301  1.00  0.00    -0.237 OA
ATOM     94  O   UNL A   1      48.366  23.078  36.593  1.00  0.00    -0.237 OA
ATOM     95  O   UNL A   1      48.720  20.945  35.407  1.00  0.00    -0.744 OA
ENDBRANCH  88  92
ENDBRANCH  62  85
ENDBRANCH  36  37
ENDBRANCH  28  31
ENDBRANCH  26  27
ENDBRANCH   1  26
TORSDOF 16
ENDMDL
MODEL 2
REMARK VINA RESULT:     -13.1      4.339     10.816
REMARK SMILES Cc1ccc(Nc2c(Cl)cc(Cl)cc2Cl)c(CC(=O)NCCCNC(=O)c2ccc(-c3c4nc(c(-c5cc(S(=O)(=O)[O-])ccc5F)c5ccc([nH]5)c(-c5cc(S(=O)(=O)[O-])ccc5F)c5nc(c(-c6cc(S(=O)(=O)[O-])ccc6F)c6ccc3[nH]6)C=C5)C=C4)cc2)c1
REMARK SMILES IDX 22 1 21 2 20 3 18 4 19 5 17 7 16 8 1 9 2 10 3 11 90 12 4 13
REMARK SMILES IDX 5 14 6 15 7 17 8 18 14 19 9 20 10 21 13 22 15 23 11 24 12 25
REMARK SMILES IDX 23 26 24 27 25 28 26 30 27 31 28 32 89 33 29 34 88 35 30 36
REMARK SMILES IDX 31 37 32 38 82 39 33 40 87 41 81 42 83 43 34 44 86 45 80 46
REMARK SMILES IDX 79 47 35 49 67 50 47 51 66 52 48 53 51 54 65 55 84 56 49 57
REMARK SMILES IDX 50 58 64 60 85 61 52 62 36 63 37 64 45 65 38 66 44 67 46 68
REMARK SMILES IDX 43 69 39 70 40 71 41 72 42 73 68 74 69 75 77 76 70 77 76 78
REMARK SMILES IDX 78 79 75 80 71 81 72 82 73 83 74 84 53 85 54 86 62 87 55 88
REMARK SMILES IDX 61 89 63 90 60 91 56 92 57 93 58 94 59 95
REMARK H PARENT 20 6 6 16 24 29 83 48 51 59
REMARK Flexibility Score: inf
ROOT
ATOM      1  C   UNL A   1      39.203  21.381  26.103  1.00  0.00     0.042 C 
ENDROOT
BRANCH   1   2
ATOM      2  C   UNL A   1      37.834  21.226  25.445  1.00  0.00     0.117 C 
BRANCH   2   3
ATOM      3  N   UNL A   1      37.686  22.076  24.273  1.00  0.00    -0.356 N 
ATOM      4  C   UNL A   1      36.596  22.789  23.860  1.00  0.00     0.224 C 
ATOM      5  O   UNL A   1      36.587  23.330  22.750  1.00  0.00    -0.275 OA
ATOM      6  H   UNL A   1      38.482  22.149  23.699  1.00  0.00     0.163 HD
BRANCH   4   7
ATOM      7  C   UNL A   1      35.375  22.909  24.759  1.00  0.00     0.137 C 
BRANCH   7   8
ATOM      8  C   UNL A   1      34.120  22.304  24.165  1.00  0.00    -0.015 A 
ATOM      9  C   UNL A   1      32.535  18.825  24.143  1.00  0.00     0.044 C 
ATOM     10  C   UNL A   1      32.764  20.283  23.885  1.00  0.00    -0.051 A 
ATOM     11  C   UNL A   1      31.946  20.976  22.997  1.00  0.00     0.005 A 
ATOM     12  C   UNL A   1      33.825  20.962  24.489  1.00  0.00     0.009 A 
ATOM     13  C   UNL A   1      32.197  22.320  22.710  1.00  0.00     0.026 A 
ATOM     14  C   UNL A   1      33.286  23.008  23.270  1.00  0.00     0.042 A 
BRANCH  14  15
ATOM     15  N   UNL A   1      33.517  24.373  22.979  1.00  0.00    -0.353 N 
ATOM     16  H   UNL A   1      34.408  24.584  22.618  1.00  0.00     0.167 HD
BRANCH  15  17
ATOM     17  C   UNL A   1      32.645  25.481  23.136  1.00  0.00     0.076 A 
ATOM     18  C   UNL A   1      32.221  25.954  24.395  1.00  0.00     0.067 A 
ATOM     19  C   UNL A   1      32.090  26.096  21.992  1.00  0.00     0.067 A 
ATOM     20  Cl  UNL A   1      32.895  25.366  25.880  1.00  0.00    -0.082 Cl
ATOM     21  C   UNL A   1      31.268  26.974  24.501  1.00  0.00     0.043 A 
ATOM     22  C   UNL A   1      31.145  27.121  22.096  1.00  0.00     0.043 A 
ATOM     23  Cl  UNL A   1      32.527  25.573  20.401  1.00  0.00    -0.082 Cl
ATOM     24  C   UNL A   1      30.733  27.545  23.352  1.00  0.00     0.044 A 
ATOM     25  Cl  UNL A   1      29.547  28.784  23.496  1.00  0.00    -0.084 Cl
ENDBRANCH  15  17
ENDBRANCH  14  15
ENDBRANCH   7   8
ENDBRANCH   4   7
ENDBRANCH   2   3
ENDBRANCH   1   2
BRANCH   1  26
ATOM     26  C   UNL A   1      39.525  22.803  26.543  1.00  0.00     0.118 C 
BRANCH  26  27
ATOM     27  N   UNL A   1      40.939  23.143  26.369  1.00  0.00    -0.352 N 
ATOM     28  C   UNL A   1      41.564  24.375  26.508  1.00  0.00     0.251 C 
ATOM     29  H   UNL A   1      41.527  22.395  26.119  1.00  0.00     0.163 HD
ATOM     30  O   UNL A   1      42.750  24.521  26.353  1.00  0.00    -0.269 OA
BRANCH  28  31
ATOM     31  C   UNL A   1      40.726  25.506  26.976  1.00  0.00     0.039 A 
ATOM     32  C   UNL A   1      40.800  26.696  26.245  1.00  0.00     0.014 A 
ATOM     33  C   UNL A   1      40.122  25.465  28.229  1.00  0.00     0.014 A 
ATOM     34  C   UNL A   1      40.476  27.894  26.873  1.00  0.00     0.010 A 
ATOM     35  C   UNL A   1      39.878  26.662  28.878  1.00  0.00     0.010 A 
ATOM     36  C   UNL A   1      40.124  27.878  28.224  1.00  0.00    -0.014 A 
BRANCH  36  37
ATOM     37  C   UNL A   1      40.174  29.076  29.060  1.00  0.00     0.031 A 
ATOM     38  C   UNL A   1      39.091  30.078  29.040  1.00  0.00     0.074 A 
ATOM     39  C   UNL A   1      41.217  29.268  29.897  1.00  0.00     0.049 A 
ATOM     40  N   UNL A   1      39.247  31.319  29.361  1.00  0.00    -0.248 NA
ATOM     41  C   UNL A   1      37.737  29.759  28.612  1.00  0.00     0.031 C 
ATOM     42  C   UNL A   1      41.330  30.261  30.961  1.00  0.00     0.029 A 
ATOM     43  N   UNL A   1      42.510  28.767  29.751  1.00  0.00    -0.354 N 
ATOM     44  C   UNL A   1      37.998  31.879  29.479  1.00  0.00     0.074 A 
ATOM     45  C   UNL A   1      37.098  30.889  28.929  1.00  0.00     0.031 C 
ATOM     46  C   UNL A   1      42.628  30.514  31.177  1.00  0.00     0.029 A 
ATOM     47  C   UNL A   1      43.387  29.786  30.177  1.00  0.00     0.049 A 
ATOM     48  H   UNL A   1      42.762  27.876  29.415  1.00  0.00     0.167 HD
ATOM     49  C   UNL A   1      37.845  33.057  30.151  1.00  0.00     0.034 A 
ATOM     50  C   UNL A   1      44.316  30.314  29.328  1.00  0.00     0.034 A 
ATOM     51  C   UNL A   1      39.122  33.623  30.592  1.00  0.00     0.049 A 
ATOM     52  C   UNL A   1      44.169  31.803  29.089  1.00  0.00     0.074 A 
ATOM     53  C   UNL A   1      39.777  33.724  31.809  1.00  0.00     0.029 A 
ATOM     54  N   UNL A   1      40.047  34.007  29.636  1.00  0.00    -0.354 N 
ATOM     55  N   UNL A   1      43.235  32.547  29.614  1.00  0.00    -0.248 NA
ATOM     56  C   UNL A   1      45.010  32.553  28.155  1.00  0.00     0.031 C 
ATOM     57  C   UNL A   1      41.107  34.177  31.565  1.00  0.00     0.029 A 
ATOM     58  C   UNL A   1      41.256  34.361  30.204  1.00  0.00     0.049 A 
ATOM     59  H   UNL A   1      39.866  34.025  28.668  1.00  0.00     0.167 HD
ATOM     60  C   UNL A   1      43.279  33.799  29.057  1.00  0.00     0.074 A 
ATOM     61  C   UNL A   1      44.416  33.759  28.156  1.00  0.00     0.031 C 
ATOM     62  C   UNL A   1      42.347  34.760  29.329  1.00  0.00     0.034 A 
BRANCH  49  63
ATOM     63  C   UNL A   1      36.506  33.565  30.637  1.00  0.00     0.023 A 
ATOM     64  C   UNL A   1      35.628  34.187  29.725  1.00  0.00     0.031 A 
ATOM     65  C   UNL A   1      36.049  33.506  31.967  1.00  0.00     0.131 A 
ATOM     66  C   UNL A   1      34.445  34.813  30.155  1.00  0.00     0.055 A 
ATOM     67  C   UNL A   1      34.910  34.191  32.410  1.00  0.00     0.041 A 
ATOM     68  F   UNL A   1      36.653  32.735  32.883  1.00  0.00    -0.206 F 
ATOM     69  C   UNL A   1      34.108  34.865  31.504  1.00  0.00     0.022 A 
BRANCH  66  70
ATOM     70  S   UNL A   1      33.339  35.550  28.920  1.00  0.00     0.124 S 
ATOM     71  O   UNL A   1      32.525  36.451  29.728  1.00  0.00    -0.237 OA
ATOM     72  O   UNL A   1      34.283  36.179  28.002  1.00  0.00    -0.237 OA
ATOM     73  O   UNL A   1      32.626  34.397  28.374  1.00  0.00    -0.744 OA
ENDBRANCH  66  70
ENDBRANCH  49  63
BRANCH  50  74
ATOM     74  C   UNL A   1      44.833  29.310  28.350  1.00  0.00     0.023 A 
ATOM     75  C   UNL A   1      45.740  28.350  28.851  1.00  0.00     0.031 A 
ATOM     76  C   UNL A   1      44.190  29.030  27.139  1.00  0.00     0.131 A 
ATOM     77  C   UNL A   1      45.822  27.081  28.263  1.00  0.00     0.055 A 
ATOM     78  C   UNL A   1      44.361  27.798  26.493  1.00  0.00     0.041 A 
ATOM     79  F   UNL A   1      43.290  29.880  26.624  1.00  0.00    -0.206 F 
ATOM     80  C   UNL A   1      45.139  26.797  27.081  1.00  0.00     0.022 A 
BRANCH  77  81
ATOM     81  S   UNL A   1      46.550  25.740  29.249  1.00  0.00     0.124 S 
ATOM     82  O   UNL A   1      46.040  24.549  28.581  1.00  0.00    -0.237 OA
ATOM     83  O   UNL A   1      47.986  25.987  29.112  1.00  0.00    -0.237 OA
ATOM     84  O   UNL A   1      46.037  25.972  30.597  1.00  0.00    -0.744 OA
ENDBRANCH  77  81
ENDBRANCH  50  74
BRANCH  62  85
ATOM     85  C   UNL A   1      42.380  36.151  28.744  1.00  0.00     0.023 A 
ATOM     86  C   UNL A   1      42.758  37.271  29.499  1.00  0.00     0.031 A 
ATOM     87  C   UNL A   1      41.955  36.406  27.420  1.00  0.00     0.131 A 
ATOM     88  C   UNL A   1      42.782  38.555  28.922  1.00  0.00     0.055 A 
ATOM     89  C   UNL A   1      41.903  37.691  26.875  1.00  0.00     0.041 A 
ATOM     90  F   UNL A   1      41.608  35.416  26.585  1.00  0.00    -0.206 F 
ATOM     91  C   UNL A   1      42.333  38.776  27.622  1.00  0.00     0.022 A 
BRANCH  88  92
ATOM     92  S   UNL A   1      43.484  39.924  29.878  1.00  0.00     0.124 S 
ATOM     93  O   UNL A   1      44.324  40.602  28.896  1.00  0.00    -0.237 OA
ATOM     94  O   UNL A   1      42.282  40.645  30.290  1.00  0.00    -0.237 OA
ATOM     95  O   UNL A   1      44.207  39.257  30.958  1.00  0.00    -0.744 OA
ENDBRANCH  88  92
ENDBRANCH  62  85
ENDBRANCH  36  37
ENDBRANCH  28  31
ENDBRANCH  26  27
ENDBRANCH   1  26
TORSDOF 16
ENDMDL
MODEL 3
REMARK VINA RESULT:     -12.9      1.367      3.078
REMARK SMILES Cc1ccc(Nc2c(Cl)cc(Cl)cc2Cl)c(CC(=O)NCCCNC(=O)c2ccc(-c3c4nc(c(-c5cc(S(=O)(=O)[O-])ccc5F)c5ccc([nH]5)c(-c5cc(S(=O)(=O)[O-])ccc5F)c5nc(c(-c6cc(S(=O)(=O)[O-])ccc6F)c6ccc3[nH]6)C=C5)C=C4)cc2)c1
REMARK SMILES IDX 22 1 21 2 20 3 18 4 19 5 17 7 16 8 1 9 2 10 3 11 90 12 4 13
REMARK SMILES IDX 5 14 6 15 7 17 8 18 14 19 9 20 10 21 13 22 15 23 11 24 12 25
REMARK SMILES IDX 23 26 24 27 25 28 26 30 27 31 28 32 89 33 29 34 88 35 30 36
REMARK SMILES IDX 31 37 32 38 82 39 33 40 87 41 81 42 83 43 34 44 86 45 80 46
REMARK SMILES IDX 79 47 35 49 67 50 47 51 66 52 48 53 51 54 65 55 84 56 49 57
REMARK SMILES IDX 50 58 64 60 85 61 52 62 36 63 37 64 45 65 38 66 44 67 46 68
REMARK SMILES IDX 43 69 39 70 40 71 41 72 42 73 68 74 69 75 77 76 70 77 76 78
REMARK SMILES IDX 78 79 75 80 71 81 72 82 73 83 74 84 53 85 54 86 62 87 55 88
REMARK SMILES IDX 61 89 63 90 60 91 56 92 57 93 58 94 59 95
REMARK H PARENT 20 6 6 16 24 29 83 48 51 59
REMARK Flexibility Score: inf
ROOT
ATOM      1  C   UNL A   1      33.860  29.582  27.646  1.00  0.00     0.042 C 
ENDROOT
BRANCH   1   2
ATOM      2  C   UNL A   1      33.038  29.129  26.442  1.00  0.00     0.117 C 
BRANCH   2   3
ATOM      3  N   UNL A   1      32.327  27.884  26.697  1.00  0.00    -0.356 N 
ATOM      4  C   UNL A   1      32.654  26.614  26.315  1.00  0.00     0.224 C 
ATOM      5  O   UNL A   1      31.854  25.687  26.474  1.00  0.00    -0.275 OA
ATOM      6  H   UNL A   1      31.496  27.970  27.217  1.00  0.00     0.163 HD
BRANCH   4   7
ATOM      7  C   UNL A   1      34.005  26.330  25.676  1.00  0.00     0.137 C 
BRANCH   7   8
ATOM      8  C   UNL A   1      34.091  24.973  25.009  1.00  0.00    -0.015 A 
ATOM      9  C   UNL A   1      35.213  21.484  26.096  1.00  0.00     0.044 C 
ATOM     10  C   UNL A   1      34.697  22.613  25.257  1.00  0.00    -0.051 A 
ATOM     11  C   UNL A   1      34.484  22.434  23.892  1.00  0.00     0.005 A 
ATOM     12  C   UNL A   1      34.465  23.874  25.811  1.00  0.00     0.009 A 
ATOM     13  C   UNL A   1      34.062  23.502  23.098  1.00  0.00     0.026 A 
ATOM     14  C   UNL A   1      33.869  24.789  23.627  1.00  0.00     0.042 A 
BRANCH  14  15
ATOM     15  N   UNL A   1      33.426  25.857  22.812  1.00  0.00    -0.353 N 
ATOM     16  H   UNL A   1      33.985  26.047  22.024  1.00  0.00     0.167 HD
BRANCH  15  17
ATOM     17  C   UNL A   1      32.291  26.693  22.970  1.00  0.00     0.076 A 
ATOM     18  C   UNL A   1      30.978  26.192  23.084  1.00  0.00     0.067 A 
ATOM     19  C   UNL A   1      32.448  28.096  22.920  1.00  0.00     0.067 A 
ATOM     20  Cl  UNL A   1      30.643  24.500  23.260  1.00  0.00    -0.082 Cl
ATOM     21  C   UNL A   1      29.875  27.054  23.120  1.00  0.00     0.043 A 
ATOM     22  C   UNL A   1      31.349  28.959  22.965  1.00  0.00     0.043 A 
ATOM     23  Cl  UNL A   1      34.016  28.810  22.758  1.00  0.00    -0.082 Cl
ATOM     24  C   UNL A   1      30.068  28.430  23.053  1.00  0.00     0.044 A 
ATOM     25  Cl  UNL A   1      28.704  29.478  23.077  1.00  0.00    -0.084 Cl
ENDBRANCH  15  17
ENDBRANCH  14  15
ENDBRANCH   7   8
ENDBRANCH   4   7
ENDBRANCH   2   3
ENDBRANCH   1   2
BRANCH   1  26
ATOM     26  C   UNL A   1      34.622  30.882  27.426  1.00  0.00     0.118 C 
BRANCH  26  27
ATOM     27  N   UNL A   1      35.046  31.509  28.680  1.00  0.00    -0.352 N 
ATOM     28  C   UNL A   1      36.022  31.095  29.576  1.00  0.00     0.251 C 
ATOM     29  H   UNL A   1      34.573  32.337  28.921  1.00  0.00     0.163 HD
ATOM     30  O   UNL A   1      36.291  31.715  30.574  1.00  0.00    -0.269 OA
BRANCH  28  31
ATOM     31  C   UNL A   1      36.821  29.904  29.198  1.00  0.00     0.039 A 
ATOM     32  C   UNL A   1      37.054  28.953  30.197  1.00  0.00     0.014 A 
ATOM     33  C   UNL A   1      37.527  29.878  27.999  1.00  0.00     0.014 A 
ATOM     34  C   UNL A   1      38.161  28.118  30.088  1.00  0.00     0.010 A 
ATOM     35  C   UNL A   1      38.672  29.105  27.929  1.00  0.00     0.010 A 
ATOM     36  C   UNL A   1      39.027  28.279  29.005  1.00  0.00    -0.014 A 
BRANCH  36  37
ATOM     37  C   UNL A   1      40.394  27.762  29.013  1.00  0.00     0.031 A 
ATOM     38  C   UNL A   1      40.704  26.386  28.578  1.00  0.00     0.074 A 
ATOM     39  C   UNL A   1      41.413  28.562  29.399  1.00  0.00     0.049 A 
ATOM     40  N   UNL A   1      41.739  25.719  28.968  1.00  0.00    -0.248 NA
ATOM     41  C   UNL A   1      39.834  25.634  27.686  1.00  0.00     0.031 C 
ATOM     42  C   UNL A   1      42.843  28.311  29.253  1.00  0.00     0.029 A 
ATOM     43  N   UNL A   1      41.338  29.652  30.265  1.00  0.00    -0.354 N 
ATOM     44  C   UNL A   1      41.839  24.604  28.171  1.00  0.00     0.074 A 
ATOM     45  C   UNL A   1      40.590  24.559  27.443  1.00  0.00     0.031 C 
ATOM     46  C   UNL A   1      43.499  29.000  30.197  1.00  0.00     0.029 A 
ATOM     47  C   UNL A   1      42.507  29.619  31.054  1.00  0.00     0.049 A 
ATOM     48  H   UNL A   1      40.612  30.315  30.317  1.00  0.00     0.167 HD
ATOM     49  C   UNL A   1      43.018  23.919  28.110  1.00  0.00     0.034 A 
ATOM     50  C   UNL A   1      42.433  29.507  32.413  1.00  0.00     0.034 A 
ATOM     51  C   UNL A   1      44.027  24.455  29.027  1.00  0.00     0.049 A 
ATOM     52  C   UNL A   1      43.119  28.279  32.977  1.00  0.00     0.074 A 
ATOM     53  C   UNL A   1      45.174  25.220  28.878  1.00  0.00     0.029 A 
ATOM     54  N   UNL A   1      43.786  24.405  30.390  1.00  0.00    -0.354 N 
ATOM     55  N   UNL A   1      43.720  27.372  32.256  1.00  0.00    -0.248 NA
ATOM     56  C   UNL A   1      43.094  27.926  34.397  1.00  0.00     0.031 C 
ATOM     57  C   UNL A   1      45.615  25.622  30.173  1.00  0.00     0.029 A 
ATOM     58  C   UNL A   1      44.743  25.095  31.107  1.00  0.00     0.049 A 
ATOM     59  H   UNL A   1      43.023  23.934  30.798  1.00  0.00     0.167 HD
ATOM     60  C   UNL A   1      44.073  26.314  33.053  1.00  0.00     0.074 A 
ATOM     61  C   UNL A   1      43.671  26.712  34.389  1.00  0.00     0.031 C 
ATOM     62  C   UNL A   1      44.616  25.164  32.554  1.00  0.00     0.034 A 
BRANCH  49  63
ATOM     63  C   UNL A   1      43.339  22.918  27.023  1.00  0.00     0.023 A 
ATOM     64  C   UNL A   1      42.752  21.637  27.065  1.00  0.00     0.031 A 
ATOM     65  C   UNL A   1      44.228  23.138  25.954  1.00  0.00     0.131 A 
ATOM     66  C   UNL A   1      43.137  20.622  26.171  1.00  0.00     0.055 A 
ATOM     67  C   UNL A   1      44.668  22.112  25.108  1.00  0.00     0.041 A 
ATOM     68  F   UNL A   1      44.663  24.369  25.645  1.00  0.00    -0.206 F 
ATOM     69  C   UNL A   1      44.135  20.838  25.225  1.00  0.00     0.022 A 
BRANCH  66  70
ATOM     70  S   UNL A   1      42.304  19.014  26.251  1.00  0.00     0.124 S 
ATOM     71  O   UNL A   1      40.974  19.325  25.739  1.00  0.00    -0.237 OA
ATOM     72  O   UNL A   1      43.149  18.189  25.395  1.00  0.00    -0.237 OA
ATOM     73  O   UNL A   1      42.354  18.678  27.673  1.00  0.00    -0.744 OA
ENDBRANCH  66  70
ENDBRANCH  49  63
BRANCH  50  74
ATOM     74  C   UNL A   1      41.226  30.181  32.978  1.00  0.00     0.023 A 
ATOM     75  C   UNL A   1      41.264  31.592  33.046  1.00  0.00     0.031 A 
ATOM     76  C   UNL A   1      39.975  29.558  33.054  1.00  0.00     0.131 A 
ATOM     77  C   UNL A   1      40.078  32.334  32.973  1.00  0.00     0.055 A 
ATOM     78  C   UNL A   1      38.791  30.307  33.094  1.00  0.00     0.041 A 
ATOM     79  F   UNL A   1      39.863  28.225  32.960  1.00  0.00    -0.206 F 
ATOM     80  C   UNL A   1      38.837  31.701  33.001  1.00  0.00     0.022 A 
BRANCH  77  81
ATOM     81  S   UNL A   1      40.207  34.085  32.503  1.00  0.00     0.124 S 
ATOM     82  O   UNL A   1      38.848  34.393  32.073  1.00  0.00    -0.237 OA
ATOM     83  O   UNL A   1      40.645  34.718  33.747  1.00  0.00    -0.237 OA
ATOM     84  O   UNL A   1      41.218  34.095  31.447  1.00  0.00    -0.744 OA
ENDBRANCH  77  81
ENDBRANCH  50  74
BRANCH  62  85
ATOM     85  C   UNL A   1      45.029  23.991  33.409  1.00  0.00     0.023 A 
ATOM     86  C   UNL A   1      46.346  23.824  33.864  1.00  0.00     0.031 A 
ATOM     87  C   UNL A   1      44.123  22.955  33.731  1.00  0.00     0.131 A 
ATOM     88  C   UNL A   1      46.699  22.720  34.663  1.00  0.00     0.055 A 
ATOM     89  C   UNL A   1      44.495  21.821  34.456  1.00  0.00     0.041 A 
ATOM     90  F   UNL A   1      42.827  23.017  33.389  1.00  0.00    -0.206 F 
ATOM     91  C   UNL A   1      45.788  21.704  34.942  1.00  0.00     0.022 A 
BRANCH  88  92
ATOM     92  S   UNL A   1      48.353  22.674  35.398  1.00  0.00     0.124 S 
ATOM     93  O   UNL A   1      48.141  21.893  36.613  1.00  0.00    -0.237 OA
ATOM     94  O   UNL A   1      49.126  22.015  34.348  1.00  0.00    -0.237 OA
ATOM     95  O   UNL A   1      48.676  24.082  35.615  1.00  0.00    -0.744 OA
ENDBRANCH  88  92
ENDBRANCH  62  85
ENDBRANCH  36  37
ENDBRANCH  28  31
ENDBRANCH  26  27
ENDBRANCH   1  26
TORSDOF 16
ENDMDL
