MODEL 1
REMARK VINA RESULT:     -10.1      0.000      0.000
REMARK SMILES NS(=O)(=O)c1ccc(-n2nc(NC(=O)NCCCC(=O)NCCCNC(=O)c3ccc(-c4c5nc(c(-c6cc(S(=O)(=O)[O-])ccc6F)c6ccc([nH]6)c(-c6cc(S(=O)(=O)[O-])ccc6F)c6nc(c(-c7cc(S(=O)(=O)[O-])ccc7F)c7ccc4[nH]7)C=C6)C=C5)cc3)cc2-c2ccccc2)cc1
REMARK SMILES IDX 19 1 20 2 21 3 18 5 17 6 16 7 15 8 12 9 13 10 14 12 11 14
REMARK SMILES IDX 9 15 10 16 92 17 91 18 8 19 5 20 6 21 100 22 7 23 99 24 2 25
REMARK SMILES IDX 3 26 4 27 1 28 93 31 94 32 98 33 95 34 97 35 96 36 22 37
REMARK SMILES IDX 23 38 24 39 25 40 26 41 27 43 28 44 29 45 90 46 30 47 89 48
REMARK SMILES IDX 31 49 32 50 33 51 83 52 34 53 88 54 82 55 84 56 35 57 87 58
REMARK SMILES IDX 81 59 80 60 36 62 68 63 48 64 67 65 49 66 52 67 66 68 85 69
REMARK SMILES IDX 50 70 51 71 65 73 86 74 53 75 37 76 38 77 46 78 39 79 45 80
REMARK SMILES IDX 47 81 44 82 40 83 41 84 42 85 43 86 69 87 70 88 78 89 71 90
REMARK SMILES IDX 77 91 79 92 76 93 72 94 73 95 74 96 75 97 54 98 55 99 63 100
REMARK SMILES IDX 56 101 62 102 64 103 61 104 57 105 58 106 59 107 60 108
REMARK H PARENT 21 4 12 11 15 13 1 29 1 30 25 42 84 61 52 72
REMARK Flexibility Score: inf
ROOT
ATOM      1  C   UNL A   1      44.873  24.679  31.623  1.00  0.00     0.220 C 
ATOM      2  O   UNL A   1      45.760  25.510  31.421  1.00  0.00    -0.275 OA
ATOM      3  N   UNL A   1      44.803  24.086  32.848  1.00  0.00    -0.356 N 
ATOM      4  H   UNL A   1      45.432  24.448  33.513  1.00  0.00     0.163 HD
ENDROOT
BRANCH   1   5
ATOM      5  C   UNL A   1      43.873  24.345  30.532  1.00  0.00     0.102 C 
BRANCH   5   6
ATOM      6  C   UNL A   1      43.996  22.919  29.993  1.00  0.00     0.031 C 
BRANCH   6   7
ATOM      7  C   UNL A   1      43.587  22.755  28.538  1.00  0.00     0.118 C 
BRANCH   7   8
ATOM      8  N   UNL A   1      42.871  21.527  28.231  1.00  0.00    -0.338 N 
ATOM      9  N   UNL A   1      40.666  22.268  27.690  1.00  0.00    -0.291 N 
ATOM     10  C   UNL A   1      41.593  21.301  27.855  1.00  0.00     0.320 C 
ATOM     11  H   UNL A   1      39.735  21.951  27.735  1.00  0.00     0.173 HD
ATOM     12  O   UNL A   1      41.234  20.121  27.764  1.00  0.00    -0.248 OA
ATOM     13  H   UNL A   1      43.417  20.711  28.313  1.00  0.00     0.165 HD
BRANCH   9  14
ATOM     14  C   UNL A   1      40.796  23.617  27.470  1.00  0.00     0.157 A 
ATOM     15  N   UNL A   1      41.694  25.454  26.916  1.00  0.00    -0.231 N 
ATOM     16  N   UNL A   1      41.611  24.159  26.573  1.00  0.00    -0.149 NA
ATOM     17  C   UNL A   1      40.624  25.820  27.722  1.00  0.00     0.076 A 
ATOM     18  C   UNL A   1      40.032  24.625  28.096  1.00  0.00     0.078 A 
BRANCH  15  19
ATOM     19  C   UNL A   1      42.834  26.206  26.526  1.00  0.00     0.065 A 
ATOM     20  C   UNL A   1      45.104  27.627  25.775  1.00  0.00     0.082 A 
ATOM     21  C   UNL A   1      44.185  27.232  24.800  1.00  0.00     0.024 A 
ATOM     22  C   UNL A   1      44.866  27.373  27.129  1.00  0.00     0.024 A 
ATOM     23  C   UNL A   1      43.053  26.508  25.175  1.00  0.00     0.030 A 
ATOM     24  C   UNL A   1      43.717  26.677  27.508  1.00  0.00     0.030 A 
BRANCH  20  25
ATOM     25  S   UNL A   1      46.576  28.479  25.284  1.00  0.00     0.238 S 
ATOM     26  O   UNL A   1      47.726  27.809  25.861  1.00  0.00    -0.207 OA
ATOM     27  O   UNL A   1      46.362  29.895  25.406  1.00  0.00    -0.207 OA
BRANCH  25  28
ATOM     28  N   UNL A   1      46.617  28.145  23.639  1.00  0.00    -0.225 NA
ATOM     29  H   UNL A   1      47.581  28.195  23.306  1.00  0.00     0.137 HD
ATOM     30  H   UNL A   1      46.049  28.830  23.139  1.00  0.00     0.137 HD
ENDBRANCH  25  28
ENDBRANCH  20  25
ENDBRANCH  15  19
BRANCH  17  31
ATOM     31  C   UNL A   1      40.276  27.203  28.021  1.00  0.00     0.000 A 
ATOM     32  C   UNL A   1      40.003  27.578  29.346  1.00  0.00     0.010 A 
ATOM     33  C   UNL A   1      40.142  28.147  27.000  1.00  0.00     0.010 A 
ATOM     34  C   UNL A   1      39.555  28.862  29.641  1.00  0.00     0.001 A 
ATOM     35  C   UNL A   1      39.698  29.437  27.299  1.00  0.00     0.001 A 
ATOM     36  C   UNL A   1      39.397  29.790  28.615  1.00  0.00     0.000 A 
ENDBRANCH  17  31
ENDBRANCH   9  14
ENDBRANCH   7   8
ENDBRANCH   6   7
ENDBRANCH   5   6
ENDBRANCH   1   5
BRANCH   3  37
ATOM     37  C   UNL A   1      43.954  23.006  33.343  1.00  0.00     0.117 C 
BRANCH  37  38
ATOM     38  C   UNL A   1      43.243  23.378  34.646  1.00  0.00     0.042 C 
BRANCH  38  39
ATOM     39  C   UNL A   1      44.092  24.148  35.632  1.00  0.00     0.118 C 
BRANCH  39  40
ATOM     40  N   UNL A   1      43.346  24.597  36.800  1.00  0.00    -0.352 N 
ATOM     41  C   UNL A   1      42.850  25.864  37.047  1.00  0.00     0.251 C 
ATOM     42  H   UNL A   1      43.175  23.920  37.493  1.00  0.00     0.163 HD
ATOM     43  O   UNL A   1      42.645  26.219  38.204  1.00  0.00    -0.269 OA
BRANCH  41  44
ATOM     44  C   UNL A   1      42.594  26.781  35.914  1.00  0.00     0.039 A 
ATOM     45  C   UNL A   1      41.604  26.505  34.969  1.00  0.00     0.014 A 
ATOM     46  C   UNL A   1      43.365  27.937  35.790  1.00  0.00     0.014 A 
ATOM     47  C   UNL A   1      41.367  27.432  33.954  1.00  0.00     0.010 A 
ATOM     48  C   UNL A   1      43.013  28.930  34.909  1.00  0.00     0.010 A 
ATOM     49  C   UNL A   1      42.061  28.659  33.945  1.00  0.00    -0.014 A 
BRANCH  49  50
ATOM     50  C   UNL A   1      41.700  29.725  33.018  1.00  0.00     0.031 A 
ATOM     51  C   UNL A   1      42.723  29.941  31.973  1.00  0.00     0.074 A 
ATOM     52  C   UNL A   1      40.510  30.365  32.974  1.00  0.00     0.049 A 
ATOM     53  N   UNL A   1      43.660  30.825  32.003  1.00  0.00    -0.248 NA
ATOM     54  C   UNL A   1      42.885  28.943  30.906  1.00  0.00     0.031 C 
ATOM     55  C   UNL A   1      39.290  30.089  33.736  1.00  0.00     0.029 A 
ATOM     56  N   UNL A   1      40.124  31.394  32.164  1.00  0.00    -0.354 N 
ATOM     57  C   UNL A   1      44.346  30.689  30.807  1.00  0.00     0.074 A 
ATOM     58  C   UNL A   1      44.000  29.383  30.314  1.00  0.00     0.031 C 
ATOM     59  C   UNL A   1      38.255  30.790  33.216  1.00  0.00     0.029 A 
ATOM     60  C   UNL A   1      38.760  31.691  32.194  1.00  0.00     0.049 A 
ATOM     61  H   UNL A   1      40.761  31.891  31.601  1.00  0.00     0.167 HD
ATOM     62  C   UNL A   1      44.901  31.782  30.214  1.00  0.00     0.034 A 
ATOM     63  C   UNL A   1      38.097  32.620  31.447  1.00  0.00     0.034 A 
ATOM     64  C   UNL A   1      44.915  32.906  31.136  1.00  0.00     0.049 A 
ATOM     65  C   UNL A   1      39.107  33.631  31.044  1.00  0.00     0.074 A 
ATOM     66  C   UNL A   1      45.442  33.116  32.398  1.00  0.00     0.029 A 
ATOM     67  N   UNL A   1      43.950  33.880  30.973  1.00  0.00    -0.354 N 
ATOM     68  N   UNL A   1      39.704  34.415  31.898  1.00  0.00    -0.248 NA
ATOM     69  C   UNL A   1      39.817  33.427  29.792  1.00  0.00     0.031 C 
ATOM     70  C   UNL A   1      44.439  33.852  33.096  1.00  0.00     0.029 A 
ATOM     71  C   UNL A   1      43.406  34.152  32.204  1.00  0.00     0.049 A 
ATOM     72  H   UNL A   1      43.696  34.305  30.121  1.00  0.00     0.167 HD
ATOM     73  C   UNL A   1      41.033  34.425  31.504  1.00  0.00     0.074 A 
ATOM     74  C   UNL A   1      41.024  33.882  30.145  1.00  0.00     0.031 C 
ATOM     75  C   UNL A   1      42.038  34.596  32.413  1.00  0.00     0.034 A 
BRANCH  62  76
ATOM     76  C   UNL A   1      45.050  31.983  28.723  1.00  0.00     0.023 A 
ATOM     77  C   UNL A   1      46.133  32.778  28.303  1.00  0.00     0.031 A 
ATOM     78  C   UNL A   1      44.076  31.708  27.737  1.00  0.00     0.131 A 
ATOM     79  C   UNL A   1      46.148  33.367  27.030  1.00  0.00     0.055 A 
ATOM     80  C   UNL A   1      44.131  32.241  26.446  1.00  0.00     0.041 A 
ATOM     81  F   UNL A   1      42.975  30.989  27.979  1.00  0.00    -0.206 F 
ATOM     82  C   UNL A   1      45.151  33.106  26.097  1.00  0.00     0.022 A 
BRANCH  79  83
ATOM     83  S   UNL A   1      47.400  34.628  26.695  1.00  0.00     0.124 S 
ATOM     84  O   UNL A   1      48.317  34.425  27.810  1.00  0.00    -0.237 OA
ATOM     85  O   UNL A   1      47.884  34.229  25.379  1.00  0.00    -0.237 OA
ATOM     86  O   UNL A   1      46.638  35.875  26.728  1.00  0.00    -0.744 OA
ENDBRANCH  79  83
ENDBRANCH  62  76
BRANCH  63  87
ATOM     87  C   UNL A   1      36.738  32.539  30.831  1.00  0.00     0.023 A 
ATOM     88  C   UNL A   1      35.927  33.674  30.581  1.00  0.00     0.031 A 
ATOM     89  C   UNL A   1      36.332  31.333  30.220  1.00  0.00     0.131 A 
ATOM     90  C   UNL A   1      34.785  33.573  29.745  1.00  0.00     0.055 A 
ATOM     91  C   UNL A   1      35.207  31.240  29.393  1.00  0.00     0.041 A 
ATOM     92  F   UNL A   1      37.073  30.220  30.327  1.00  0.00    -0.206 F 
ATOM     93  C   UNL A   1      34.436  32.363  29.143  1.00  0.00     0.022 A 
BRANCH  90  94
ATOM     94  S   UNL A   1      33.778  35.043  29.337  1.00  0.00     0.124 S 
ATOM     95  O   UNL A   1      34.688  35.823  28.506  1.00  0.00    -0.237 OA
ATOM     96  O   UNL A   1      32.623  34.459  28.666  1.00  0.00    -0.237 OA
ATOM     97  O   UNL A   1      33.488  35.633  30.645  1.00  0.00    -0.744 OA
ENDBRANCH  90  94
ENDBRANCH  63  87
BRANCH  75  98
ATOM     98  C   UNL A   1      41.688  35.122  33.795  1.00  0.00     0.023 A 
ATOM     99  C   UNL A   1      40.996  34.406  34.801  1.00  0.00     0.031 A 
ATOM    100  C   UNL A   1      42.184  36.395  34.131  1.00  0.00     0.131 A 
ATOM    101  C   UNL A   1      40.818  34.980  36.078  1.00  0.00     0.055 A 
ATOM    102  C   UNL A   1      42.029  36.946  35.401  1.00  0.00     0.041 A 
ATOM    103  F   UNL A   1      42.862  37.121  33.226  1.00  0.00    -0.206 F 
ATOM    104  C   UNL A   1      41.340  36.242  36.379  1.00  0.00     0.022 A 
BRANCH 101 105
ATOM    105  S   UNL A   1      39.876  34.110  37.376  1.00  0.00     0.124 S 
ATOM    106  O   UNL A   1      40.214  34.840  38.592  1.00  0.00    -0.237 OA
ATOM    107  O   UNL A   1      38.499  34.245  36.911  1.00  0.00    -0.237 OA
ATOM    108  O   UNL A   1      40.404  32.744  37.321  1.00  0.00    -0.744 OA
ENDBRANCH 101 105
ENDBRANCH  75  98
ENDBRANCH  49  50
ENDBRANCH  41  44
ENDBRANCH  39  40
ENDBRANCH  38  39
ENDBRANCH  37  38
ENDBRANCH   3  37
TORSDOF 21
ENDMDL
MODEL 2
REMARK VINA RESULT:      -9.9      3.748     10.396
REMARK SMILES NS(=O)(=O)c1ccc(-n2nc(NC(=O)NCCCC(=O)NCCCNC(=O)c3ccc(-c4c5nc(c(-c6cc(S(=O)(=O)[O-])ccc6F)c6ccc([nH]6)c(-c6cc(S(=O)(=O)[O-])ccc6F)c6nc(c(-c7cc(S(=O)(=O)[O-])ccc7F)c7ccc4[nH]7)C=C6)C=C5)cc3)cc2-c2ccccc2)cc1
REMARK SMILES IDX 19 1 20 2 21 3 18 5 17 6 16 7 15 8 12 9 13 10 14 12 11 14
REMARK SMILES IDX 9 15 10 16 92 17 91 18 8 19 5 20 6 21 100 22 7 23 99 24 2 25
REMARK SMILES IDX 3 26 4 27 1 28 93 31 94 32 98 33 95 34 97 35 96 36 22 37
REMARK SMILES IDX 23 38 24 39 25 40 26 41 27 43 28 44 29 45 90 46 30 47 89 48
REMARK SMILES IDX 31 49 32 50 33 51 83 52 34 53 88 54 82 55 84 56 35 57 87 58
REMARK SMILES IDX 81 59 80 60 36 62 68 63 48 64 67 65 49 66 52 67 66 68 85 69
REMARK SMILES IDX 50 70 51 71 65 73 86 74 53 75 37 76 38 77 46 78 39 79 45 80
REMARK SMILES IDX 47 81 44 82 40 83 41 84 42 85 43 86 69 87 70 88 78 89 71 90
REMARK SMILES IDX 77 91 79 92 76 93 72 94 73 95 74 96 75 97 54 98 55 99 63 100
REMARK SMILES IDX 56 101 62 102 64 103 61 104 57 105 58 106 59 107 60 108
REMARK H PARENT 21 4 12 11 15 13 1 29 1 30 25 42 84 61 52 72
REMARK Flexibility Score: inf
ROOT
ATOM      1  C   UNL A   1      37.348  32.940  34.350  1.00  0.00     0.220 C 
ATOM      2  O   UNL A   1      37.216  31.808  33.882  1.00  0.00    -0.275 OA
ATOM      3  N   UNL A   1      38.450  33.663  34.004  1.00  0.00    -0.356 N 
ATOM      4  H   UNL A   1      39.019  33.240  33.321  1.00  0.00     0.163 HD
ENDROOT
BRANCH   1   5
ATOM      5  C   UNL A   1      36.291  33.515  35.274  1.00  0.00     0.102 C 
BRANCH   5   6
ATOM      6  C   UNL A   1      35.217  34.332  34.555  1.00  0.00     0.031 C 
BRANCH   6   7
ATOM      7  C   UNL A   1      34.353  33.535  33.591  1.00  0.00     0.118 C 
BRANCH   7   8
ATOM      8  N   UNL A   1      33.357  34.309  32.868  1.00  0.00    -0.338 N 
ATOM      9  N   UNL A   1      34.410  34.786  30.778  1.00  0.00    -0.291 N 
ATOM     10  C   UNL A   1      33.369  34.860  31.634  1.00  0.00     0.320 C 
ATOM     11  H   UNL A   1      34.410  35.479  30.078  1.00  0.00     0.173 HD
ATOM     12  O   UNL A   1      32.400  35.563  31.323  1.00  0.00    -0.248 OA
ATOM     13  H   UNL A   1      32.523  34.461  33.369  1.00  0.00     0.165 HD
BRANCH   9  14
ATOM     14  C   UNL A   1      35.468  33.914  30.712  1.00  0.00     0.157 A 
ATOM     15  N   UNL A   1      37.474  33.243  30.603  1.00  0.00    -0.231 N 
ATOM     16  N   UNL A   1      36.689  34.178  31.162  1.00  0.00    -0.149 NA
ATOM     17  C   UNL A   1      36.721  32.156  30.179  1.00  0.00     0.076 A 
ATOM     18  C   UNL A   1      35.405  32.586  30.241  1.00  0.00     0.078 A 
BRANCH  15  19
ATOM     19  C   UNL A   1      38.860  33.505  30.435  1.00  0.00     0.065 A 
ATOM     20  C   UNL A   1      41.579  33.962  30.073  1.00  0.00     0.082 A 
ATOM     21  C   UNL A   1      40.652  34.724  29.356  1.00  0.00     0.024 A 
ATOM     22  C   UNL A   1      41.158  33.019  31.014  1.00  0.00     0.024 A 
ATOM     23  C   UNL A   1      39.288  34.485  29.529  1.00  0.00     0.030 A 
ATOM     24  C   UNL A   1      39.793  32.803  31.211  1.00  0.00     0.030 A 
BRANCH  20  25
ATOM     25  S   UNL A   1      43.309  34.217  29.794  1.00  0.00     0.238 S 
ATOM     26  O   UNL A   1      43.963  34.456  31.066  1.00  0.00    -0.207 OA
ATOM     27  O   UNL A   1      43.479  35.082  28.659  1.00  0.00    -0.207 OA
BRANCH  25  28
ATOM     28  N   UNL A   1      43.793  32.687  29.300  1.00  0.00    -0.225 NA
ATOM     29  H   UNL A   1      43.572  32.563  28.311  1.00  0.00     0.137 HD
ATOM     30  H   UNL A   1      43.302  31.981  29.849  1.00  0.00     0.137 HD
ENDBRANCH  25  28
ENDBRANCH  20  25
ENDBRANCH  15  19
BRANCH  17  31
ATOM     31  C   UNL A   1      37.298  30.873  29.800  1.00  0.00     0.000 A 
ATOM     32  C   UNL A   1      37.476  29.878  30.774  1.00  0.00     0.010 A 
ATOM     33  C   UNL A   1      37.741  30.642  28.495  1.00  0.00     0.010 A 
ATOM     34  C   UNL A   1      38.131  28.691  30.462  1.00  0.00     0.001 A 
ATOM     35  C   UNL A   1      38.393  29.447  28.183  1.00  0.00     0.001 A 
ATOM     36  C   UNL A   1      38.595  28.479  29.167  1.00  0.00     0.000 A 
ENDBRANCH  17  31
ENDBRANCH   9  14
ENDBRANCH   7   8
ENDBRANCH   6   7
ENDBRANCH   5   6
ENDBRANCH   1   5
BRANCH   3  37
ATOM     37  C   UNL A   1      38.931  34.960  34.473  1.00  0.00     0.117 C 
BRANCH  37  38
ATOM     38  C   UNL A   1      40.444  35.115  34.299  1.00  0.00     0.042 C 
BRANCH  38  39
ATOM     39  C   UNL A   1      41.270  34.038  34.965  1.00  0.00     0.118 C 
BRANCH  39  40
ATOM     40  N   UNL A   1      40.821  33.727  36.315  1.00  0.00    -0.352 N 
ATOM     41  C   UNL A   1      40.416  32.498  36.805  1.00  0.00     0.251 C 
ATOM     42  H   UNL A   1      40.801  34.476  36.951  1.00  0.00     0.163 HD
ATOM     43  O   UNL A   1      39.669  32.451  37.777  1.00  0.00    -0.269 OA
BRANCH  41  44
ATOM     44  C   UNL A   1      40.875  31.259  36.138  1.00  0.00     0.039 A 
ATOM     45  C   UNL A   1      40.034  30.546  35.282  1.00  0.00     0.014 A 
ATOM     46  C   UNL A   1      42.168  30.797  36.381  1.00  0.00     0.014 A 
ATOM     47  C   UNL A   1      40.537  29.416  34.635  1.00  0.00     0.010 A 
ATOM     48  C   UNL A   1      42.720  29.802  35.612  1.00  0.00     0.010 A 
ATOM     49  C   UNL A   1      41.893  29.063  34.787  1.00  0.00    -0.014 A 
BRANCH  49  50
ATOM     50  C   UNL A   1      42.495  28.010  33.977  1.00  0.00     0.031 A 
ATOM     51  C   UNL A   1      42.910  26.841  34.782  1.00  0.00     0.074 A 
ATOM     52  C   UNL A   1      42.548  27.982  32.627  1.00  0.00     0.049 A 
ATOM     53  N   UNL A   1      44.093  26.619  35.240  1.00  0.00    -0.248 NA
ATOM     54  C   UNL A   1      41.882  25.950  35.341  1.00  0.00     0.031 C 
ATOM     55  C   UNL A   1      41.939  28.906  31.666  1.00  0.00     0.029 A 
ATOM     56  N   UNL A   1      43.130  27.054  31.814  1.00  0.00    -0.354 N 
ATOM     57  C   UNL A   1      44.023  25.399  35.891  1.00  0.00     0.074 A 
ATOM     58  C   UNL A   1      42.625  25.177  36.140  1.00  0.00     0.031 C 
ATOM     59  C   UNL A   1      42.016  28.386  30.418  1.00  0.00     0.029 A 
ATOM     60  C   UNL A   1      42.820  27.176  30.458  1.00  0.00     0.049 A 
ATOM     61  H   UNL A   1      43.725  26.349  32.159  1.00  0.00     0.167 HD
ATOM     62  C   UNL A   1      45.105  24.570  35.901  1.00  0.00     0.034 A 
ATOM     63  C   UNL A   1      43.209  26.355  29.441  1.00  0.00     0.034 A 
ATOM     64  C   UNL A   1      46.288  25.279  35.443  1.00  0.00     0.049 A 
ATOM     65  C   UNL A   1      44.449  25.680  29.900  1.00  0.00     0.074 A 
ATOM     66  C   UNL A   1      46.951  26.422  35.851  1.00  0.00     0.029 A 
ATOM     67  N   UNL A   1      46.707  25.054  34.146  1.00  0.00    -0.354 N 
ATOM     68  N   UNL A   1      45.567  26.317  30.112  1.00  0.00    -0.248 NA
ATOM     69  C   UNL A   1      44.318  24.413  30.602  1.00  0.00     0.031 C 
ATOM     70  C   UNL A   1      47.317  27.086  34.641  1.00  0.00     0.029 A 
ATOM     71  C   UNL A   1      46.964  26.270  33.564  1.00  0.00     0.049 A 
ATOM     72  H   UNL A   1      46.803  24.173  33.714  1.00  0.00     0.167 HD
ATOM     73  C   UNL A   1      46.058  25.789  31.295  1.00  0.00     0.074 A 
ATOM     74  C   UNL A   1      45.303  24.553  31.496  1.00  0.00     0.031 C 
ATOM     75  C   UNL A   1      46.819  26.543  32.144  1.00  0.00     0.034 A 
BRANCH  62  76
ATOM     76  C   UNL A   1      45.045  23.060  35.917  1.00  0.00     0.023 A 
ATOM     77  C   UNL A   1      45.632  22.421  37.026  1.00  0.00     0.031 A 
ATOM     78  C   UNL A   1      44.731  22.221  34.825  1.00  0.00     0.131 A 
ATOM     79  C   UNL A   1      46.003  21.070  36.970  1.00  0.00     0.055 A 
ATOM     80  C   UNL A   1      45.039  20.858  34.802  1.00  0.00     0.041 A 
ATOM     81  F   UNL A   1      44.191  22.672  33.687  1.00  0.00    -0.206 F 
ATOM     82  C   UNL A   1      45.714  20.282  35.862  1.00  0.00     0.022 A 
BRANCH  79  83
ATOM     83  S   UNL A   1      47.041  20.422  38.301  1.00  0.00     0.124 S 
ATOM     84  O   UNL A   1      47.415  21.648  38.996  1.00  0.00    -0.237 OA
ATOM     85  O   UNL A   1      46.115  19.538  39.001  1.00  0.00    -0.237 OA
ATOM     86  O   UNL A   1      48.124  19.749  37.587  1.00  0.00    -0.744 OA
ENDBRANCH  79  83
ENDBRANCH  62  76
BRANCH  63  87
ATOM     87  C   UNL A   1      42.437  25.910  28.241  1.00  0.00     0.023 A 
ATOM     88  C   UNL A   1      41.994  24.578  28.049  1.00  0.00     0.031 A 
ATOM     89  C   UNL A   1      41.882  26.884  27.382  1.00  0.00     0.131 A 
ATOM     90  C   UNL A   1      41.033  24.276  27.050  1.00  0.00     0.055 A 
ATOM     91  C   UNL A   1      40.932  26.581  26.402  1.00  0.00     0.041 A 
ATOM     92  F   UNL A   1      42.174  28.185  27.532  1.00  0.00    -0.206 F 
ATOM     93  C   UNL A   1      40.494  25.277  26.240  1.00  0.00     0.022 A 
BRANCH  90  94
ATOM     94  S   UNL A   1      40.380  22.580  26.848  1.00  0.00     0.124 S 
ATOM     95  O   UNL A   1      38.986  22.822  26.497  1.00  0.00    -0.237 OA
ATOM     96  O   UNL A   1      41.232  22.037  25.797  1.00  0.00    -0.237 OA
ATOM     97  O   UNL A   1      40.583  21.976  28.166  1.00  0.00    -0.744 OA
ENDBRANCH  90  94
ENDBRANCH  63  87
BRANCH  75  98
ATOM     98  C   UNL A   1      47.413  27.843  31.628  1.00  0.00     0.023 A 
ATOM     99  C   UNL A   1      46.795  29.116  31.689  1.00  0.00     0.031 A 
ATOM    100  C   UNL A   1      48.731  27.785  31.138  1.00  0.00     0.131 A 
ATOM    101  C   UNL A   1      47.499  30.261  31.257  1.00  0.00     0.055 A 
ATOM    102  C   UNL A   1      49.430  28.922  30.739  1.00  0.00     0.041 A 
ATOM    103  F   UNL A   1      49.378  26.611  31.067  1.00  0.00    -0.206 F 
ATOM    104  C   UNL A   1      48.814  30.165  30.792  1.00  0.00     0.022 A 
BRANCH 101 105
ATOM    105  S   UNL A   1      46.709  31.906  31.263  1.00  0.00     0.124 S 
ATOM    106  O   UNL A   1      47.578  32.700  32.124  1.00  0.00    -0.237 OA
ATOM    107  O   UNL A   1      46.711  32.262  29.847  1.00  0.00    -0.237 OA
ATOM    108  O   UNL A   1      45.380  31.642  31.820  1.00  0.00    -0.744 OA
ENDBRANCH 101 105
ENDBRANCH  75  98
ENDBRANCH  49  50
ENDBRANCH  41  44
ENDBRANCH  39  40
ENDBRANCH  38  39
ENDBRANCH  37  38
ENDBRANCH   3  37
TORSDOF 21
ENDMDL
MODEL 3
REMARK VINA RESULT:      -9.8      5.181      8.669
REMARK SMILES NS(=O)(=O)c1ccc(-n2nc(NC(=O)NCCCC(=O)NCCCNC(=O)c3ccc(-c4c5nc(c(-c6cc(S(=O)(=O)[O-])ccc6F)c6ccc([nH]6)c(-c6cc(S(=O)(=O)[O-])ccc6F)c6nc(c(-c7cc(S(=O)(=O)[O-])ccc7F)c7ccc4[nH]7)C=C6)C=C5)cc3)cc2-c2ccccc2)cc1
REMARK SMILES IDX 19 1 20 2 21 3 18 5 17 6 16 7 15 8 12 9 13 10 14 12 11 14
REMARK SMILES IDX 9 15 10 16 92 17 91 18 8 19 5 20 6 21 100 22 7 23 99 24 2 25
REMARK SMILES IDX 3 26 4 27 1 28 93 31 94 32 98 33 95 34 97 35 96 36 22 37
REMARK SMILES IDX 23 38 24 39 25 40 26 41 27 43 28 44 29 45 90 46 30 47 89 48
REMARK SMILES IDX 31 49 32 50 33 51 83 52 34 53 88 54 82 55 84 56 35 57 87 58
REMARK SMILES IDX 81 59 80 60 36 62 68 63 48 64 67 65 49 66 52 67 66 68 85 69
REMARK SMILES IDX 50 70 51 71 65 73 86 74 53 75 37 76 38 77 46 78 39 79 45 80
REMARK SMILES IDX 47 81 44 82 40 83 41 84 42 85 43 86 69 87 70 88 78 89 71 90
REMARK SMILES IDX 77 91 79 92 76 93 72 94 73 95 74 96 75 97 54 98 55 99 63 100
REMARK SMILES IDX 56 101 62 102 64 103 61 104 57 105 58 106 59 107 60 108
REMARK H PARENT 21 4 12 11 15 13 1 29 1 30 25 42 84 61 52 72
REMARK Flexibility Score: inf
ROOT
ATOM      1  C   UNL A   1      36.400  21.673  24.986  1.00  0.00     0.220 C 
ATOM      2  O   UNL A   1      36.423  20.487  24.653  1.00  0.00    -0.275 OA
ATOM      3  N   UNL A   1      37.514  22.212  25.555  1.00  0.00    -0.356 N 
ATOM      4  H   UNL A   1      38.295  21.612  25.572  1.00  0.00     0.163 HD
ENDROOT
BRANCH   1   5
ATOM      5  C   UNL A   1      35.159  22.512  24.745  1.00  0.00     0.102 C 
BRANCH   5   6
ATOM      6  C   UNL A   1      35.290  23.495  23.581  1.00  0.00     0.031 C 
BRANCH   6   7
ATOM      7  C   UNL A   1      34.015  23.697  22.777  1.00  0.00     0.118 C 
BRANCH   7   8
ATOM      8  N   UNL A   1      33.343  22.475  22.365  1.00  0.00    -0.338 N 
ATOM      9  N   UNL A   1      31.381  22.414  23.725  1.00  0.00    -0.291 N 
ATOM     10  C   UNL A   1      32.187  21.904  22.770  1.00  0.00     0.320 C 
ATOM     11  H   UNL A   1      30.771  21.759  24.135  1.00  0.00     0.173 HD
ATOM     12  O   UNL A   1      31.917  20.790  22.305  1.00  0.00    -0.248 OA
ATOM     13  H   UNL A   1      33.817  21.971  21.664  1.00  0.00     0.165 HD
BRANCH   9  14
ATOM     14  C   UNL A   1      31.262  23.687  24.224  1.00  0.00     0.157 A 
ATOM     15  N   UNL A   1      30.688  25.723  24.334  1.00  0.00    -0.231 N 
ATOM     16  N   UNL A   1      30.256  24.511  23.954  1.00  0.00    -0.149 NA
ATOM     17  C   UNL A   1      31.748  25.613  25.225  1.00  0.00     0.076 A 
ATOM     18  C   UNL A   1      32.135  24.285  25.157  1.00  0.00     0.078 A 
BRANCH  15  19
ATOM     19  C   UNL A   1      30.120  26.883  23.742  1.00  0.00     0.065 A 
ATOM     20  C   UNL A   1      28.992  29.176  22.644  1.00  0.00     0.082 A 
ATOM     21  C   UNL A   1      30.380  29.010  22.617  1.00  0.00     0.024 A 
ATOM     22  C   UNL A   1      28.161  28.177  23.157  1.00  0.00     0.024 A 
ATOM     23  C   UNL A   1      30.946  27.866  23.180  1.00  0.00     0.030 A 
ATOM     24  C   UNL A   1      28.725  27.017  23.691  1.00  0.00     0.030 A 
BRANCH  20  25
ATOM     25  S   UNL A   1      28.285  30.664  21.996  1.00  0.00     0.238 S 
ATOM     26  O   UNL A   1      27.336  31.195  22.956  1.00  0.00    -0.207 OA
ATOM     27  O   UNL A   1      27.958  30.465  20.611  1.00  0.00    -0.207 OA
BRANCH  25  28
ATOM     28  N   UNL A   1      29.608  31.699  22.026  1.00  0.00    -0.225 NA
ATOM     29  H   UNL A   1      29.873  31.884  22.995  1.00  0.00     0.137 HD
ATOM     30  H   UNL A   1      29.365  32.576  21.567  1.00  0.00     0.137 HD
ENDBRANCH  25  28
ENDBRANCH  20  25
ENDBRANCH  15  19
BRANCH  17  31
ATOM     31  C   UNL A   1      32.243  26.722  26.030  1.00  0.00     0.000 A 
ATOM     32  C   UNL A   1      31.378  27.369  26.925  1.00  0.00     0.010 A 
ATOM     33  C   UNL A   1      33.549  27.194  25.875  1.00  0.00     0.010 A 
ATOM     34  C   UNL A   1      31.794  28.503  27.617  1.00  0.00     0.001 A 
ATOM     35  C   UNL A   1      33.966  28.328  26.575  1.00  0.00     0.001 A 
ATOM     36  C   UNL A   1      33.087  28.985  27.437  1.00  0.00     0.000 A 
ENDBRANCH  17  31
ENDBRANCH   9  14
ENDBRANCH   7   8
ENDBRANCH   6   7
ENDBRANCH   5   6
ENDBRANCH   1   5
BRANCH   3  37
ATOM     37  C   UNL A   1      37.749  23.527  26.145  1.00  0.00     0.117 C 
BRANCH  37  38
ATOM     38  C   UNL A   1      39.221  23.750  26.499  1.00  0.00     0.042 C 
BRANCH  38  39
ATOM     39  C   UNL A   1      39.909  22.556  27.121  1.00  0.00     0.118 C 
BRANCH  39  40
ATOM     40  N   UNL A   1      41.074  22.112  26.368  1.00  0.00    -0.352 N 
ATOM     41  C   UNL A   1      42.100  22.892  25.866  1.00  0.00     0.251 C 
ATOM     42  H   UNL A   1      41.139  21.145  26.196  1.00  0.00     0.163 HD
ATOM     43  O   UNL A   1      42.757  22.488  24.911  1.00  0.00    -0.269 OA
BRANCH  41  44
ATOM     44  C   UNL A   1      42.378  24.212  26.475  1.00  0.00     0.039 A 
ATOM     45  C   UNL A   1      42.289  25.387  25.725  1.00  0.00     0.014 A 
ATOM     46  C   UNL A   1      42.743  24.276  27.819  1.00  0.00     0.014 A 
ATOM     47  C   UNL A   1      42.506  26.608  26.364  1.00  0.00     0.010 A 
ATOM     48  C   UNL A   1      42.775  25.475  28.487  1.00  0.00     0.010 A 
ATOM     49  C   UNL A   1      42.725  26.647  27.755  1.00  0.00    -0.014 A 
BRANCH  49  50
ATOM     50  C   UNL A   1      42.760  27.911  28.481  1.00  0.00     0.031 A 
ATOM     51  C   UNL A   1      43.866  28.789  28.041  1.00  0.00     0.074 A 
ATOM     52  C   UNL A   1      41.823  28.351  29.350  1.00  0.00     0.049 A 
ATOM     53  N   UNL A   1      45.021  28.890  28.601  1.00  0.00    -0.248 NA
ATOM     54  C   UNL A   1      43.788  29.440  26.725  1.00  0.00     0.031 C 
ATOM     55  C   UNL A   1      40.531  27.750  29.687  1.00  0.00     0.029 A 
ATOM     56  N   UNL A   1      41.817  29.498  30.090  1.00  0.00    -0.354 N 
ATOM     57  C   UNL A   1      45.709  29.850  27.880  1.00  0.00     0.074 A 
ATOM     58  C   UNL A   1      45.020  29.951  26.622  1.00  0.00     0.031 C 
ATOM     59  C   UNL A   1      39.789  28.628  30.404  1.00  0.00     0.029 A 
ATOM     60  C   UNL A   1      40.606  29.788  30.722  1.00  0.00     0.049 A 
ATOM     61  H   UNL A   1      42.608  30.078  30.172  1.00  0.00     0.167 HD
ATOM     62  C   UNL A   1      46.604  30.663  28.509  1.00  0.00     0.034 A 
ATOM     63  C   UNL A   1      40.301  30.890  31.466  1.00  0.00     0.034 A 
ATOM     64  C   UNL A   1      46.896  30.158  29.840  1.00  0.00     0.049 A 
ATOM     65  C   UNL A   1      41.592  31.423  31.970  1.00  0.00     0.074 A 
ATOM     66  C   UNL A   1      47.380  28.961  30.337  1.00  0.00     0.029 A 
ATOM     67  N   UNL A   1      46.280  30.778  30.909  1.00  0.00    -0.354 N 
ATOM     68  N   UNL A   1      42.341  30.779  32.821  1.00  0.00    -0.248 NA
ATOM     69  C   UNL A   1      42.287  32.411  31.160  1.00  0.00     0.031 C 
ATOM     70  C   UNL A   1      46.601  28.707  31.506  1.00  0.00     0.029 A 
ATOM     71  C   UNL A   1      45.766  29.804  31.729  1.00  0.00     0.049 A 
ATOM     72  H   UNL A   1      46.220  31.750  31.057  1.00  0.00     0.167 HD
ATOM     73  C   UNL A   1      43.633  30.932  32.345  1.00  0.00     0.074 A 
ATOM     74  C   UNL A   1      43.549  32.029  31.380  1.00  0.00     0.031 C 
ATOM     75  C   UNL A   1      44.584  29.974  32.558  1.00  0.00     0.034 A 
BRANCH  62  76
ATOM     76  C   UNL A   1      46.901  32.094  28.125  1.00  0.00     0.023 A 
ATOM     77  C   UNL A   1      45.877  33.032  28.362  1.00  0.00     0.031 A 
ATOM     78  C   UNL A   1      47.959  32.541  27.302  1.00  0.00     0.131 A 
ATOM     79  C   UNL A   1      45.859  34.267  27.697  1.00  0.00     0.055 A 
ATOM     80  C   UNL A   1      47.971  33.801  26.699  1.00  0.00     0.041 A 
ATOM     81  F   UNL A   1      48.996  31.768  26.961  1.00  0.00    -0.206 F 
ATOM     82  C   UNL A   1      46.899  34.659  26.863  1.00  0.00     0.022 A 
BRANCH  79  83
ATOM     83  S   UNL A   1      44.354  35.263  27.804  1.00  0.00     0.124 S 
ATOM     84  O   UNL A   1      44.811  36.390  28.607  1.00  0.00    -0.237 OA
ATOM     85  O   UNL A   1      44.077  35.541  26.399  1.00  0.00    -0.237 OA
ATOM     86  O   UNL A   1      43.404  34.368  28.461  1.00  0.00    -0.744 OA
ENDBRANCH  79  83
ENDBRANCH  62  76
BRANCH  63  87
ATOM     87  C   UNL A   1      39.022  31.660  31.529  1.00  0.00     0.023 A 
ATOM     88  C   UNL A   1      38.561  32.308  32.703  1.00  0.00     0.031 A 
ATOM     89  C   UNL A   1      38.365  32.000  30.327  1.00  0.00     0.131 A 
ATOM     90  C   UNL A   1      37.504  33.252  32.634  1.00  0.00     0.055 A 
ATOM     91  C   UNL A   1      37.326  32.934  30.266  1.00  0.00     0.041 A 
ATOM     92  F   UNL A   1      38.777  31.504  29.150  1.00  0.00    -0.206 F 
ATOM     93  C   UNL A   1      36.899  33.573  31.418  1.00  0.00     0.022 A 
BRANCH  90  94
ATOM     94  S   UNL A   1      36.955  34.166  34.120  1.00  0.00     0.124 S 
ATOM     95  O   UNL A   1      35.998  35.116  33.566  1.00  0.00    -0.237 OA
ATOM     96  O   UNL A   1      36.409  33.106  34.959  1.00  0.00    -0.237 OA
ATOM     97  O   UNL A   1      38.190  34.766  34.627  1.00  0.00    -0.744 OA
ENDBRANCH  90  94
ENDBRANCH  63  87
BRANCH  75  98
ATOM     98  C   UNL A   1      44.320  28.909  33.609  1.00  0.00     0.023 A 
ATOM     99  C   UNL A   1      44.619  29.017  34.989  1.00  0.00     0.031 A 
ATOM    100  C   UNL A   1      43.630  27.759  33.184  1.00  0.00     0.131 A 
ATOM    101  C   UNL A   1      44.234  27.988  35.875  1.00  0.00     0.055 A 
ATOM    102  C   UNL A   1      43.230  26.759  34.067  1.00  0.00     0.041 A 
ATOM    103  F   UNL A   1      43.305  27.601  31.890  1.00  0.00    -0.206 F 
ATOM    104  C   UNL A   1      43.536  26.867  35.417  1.00  0.00     0.022 A 
BRANCH 101 105
ATOM    105  S   UNL A   1      44.660  28.068  37.647  1.00  0.00     0.124 S 
ATOM    106  O   UNL A   1      46.078  27.726  37.675  1.00  0.00    -0.237 OA
ATOM    107  O   UNL A   1      44.328  29.448  37.991  1.00  0.00    -0.237 OA
ATOM    108  O   UNL A   1      43.782  27.064  38.253  1.00  0.00    -0.744 OA
ENDBRANCH 101 105
ENDBRANCH  75  98
ENDBRANCH  49  50
ENDBRANCH  41  44
ENDBRANCH  39  40
ENDBRANCH  38  39
ENDBRANCH  37  38
ENDBRANCH   3  37
TORSDOF 21
ENDMDL
