MODEL 1
REMARK VINA RESULT:     -10.9      0.000      0.000
REMARK SMILES CCC(CC)(CC(=O)Nc1cccc(OC)c1)C(=O)NCCCNC(=O)c1ccc(-c2c3nc(c(-c4cc(S(=O)(=O)[O-])ccc4F)c4ccc([nH]4)c(-c4cc(S(=O)(=O)[O-])ccc4F)c4nc(c(-c5cc(S(=O)(=O)[O-])ccc5F)c5ccc2[nH]5)C=C4)C=C3)cc1
REMARK SMILES IDX 21 1 20 2 18 3 19 4 3 6 2 7 1 8 4 9 5 10 6 11 7 12 8 13 9 14
REMARK SMILES IDX 10 16 11 17 17 18 12 19 14 20 13 21 15 22 16 23 22 24 23 25
REMARK SMILES IDX 24 26 25 27 26 29 27 30 28 31 89 32 29 33 88 34 30 35 31 36
REMARK SMILES IDX 32 37 82 38 33 39 87 40 81 41 83 42 34 43 86 44 80 45 79 46
REMARK SMILES IDX 35 48 67 49 47 50 66 51 48 52 51 53 65 54 84 55 49 56 50 57
REMARK SMILES IDX 64 59 85 60 52 61 36 62 37 63 45 64 38 65 44 66 46 67 43 68
REMARK SMILES IDX 39 69 40 70 41 71 42 72 68 73 69 74 77 75 70 76 76 77 78 78
REMARK SMILES IDX 75 79 71 80 72 81 73 82 74 83 53 84 54 85 62 86 55 87 61 88
REMARK SMILES IDX 63 89 60 90 56 91 57 92 58 93 59 94
REMARK H PARENT 20 5 9 15 24 28 83 47 51 58
REMARK Flexibility Score: inf
ROOT
ATOM      1  C   UNL A   1      31.288  30.384  25.609  1.00  0.00     0.117 C 
ENDROOT
BRANCH   1   2
ATOM      2  N   UNL A   1      31.750  29.396  26.564  1.00  0.00    -0.356 N 
ATOM      3  C   UNL A   1      31.881  28.063  26.354  1.00  0.00     0.226 C 
ATOM      4  O   UNL A   1      31.379  27.322  27.200  1.00  0.00    -0.274 OA
ATOM      5  H   UNL A   1      31.995  29.727  27.458  1.00  0.00     0.163 HD
BRANCH   3   6
ATOM      6  C   UNL A   1      32.742  27.530  25.197  1.00  0.00     0.057 C 
BRANCH   6   7
ATOM      7  C   UNL A   1      33.548  26.367  25.821  1.00  0.00     0.014 C 
ATOM      8  C   UNL A   1      34.339  25.415  24.931  1.00  0.00     0.005 C 
ENDBRANCH   6   7
BRANCH   6   9
ATOM      9  C   UNL A   1      33.788  28.593  24.673  1.00  0.00     0.014 C 
ATOM     10  C   UNL A   1      34.098  28.583  23.178  1.00  0.00     0.005 C 
ENDBRANCH   6   9
BRANCH   6  11
ATOM     11  C   UNL A   1      31.853  26.981  24.037  1.00  0.00     0.117 C 
BRANCH  11  12
ATOM     12  C   UNL A   1      30.402  26.570  24.308  1.00  0.00     0.225 C 
ATOM     13  O   UNL A   1      29.485  27.372  24.112  1.00  0.00    -0.275 OA
ATOM     14  N   UNL A   1      30.071  25.250  24.536  1.00  0.00    -0.326 N 
ATOM     15  H   UNL A   1      29.133  25.036  24.329  1.00  0.00     0.169 HD
BRANCH  14  16
ATOM     16  C   UNL A   1      30.811  24.147  25.009  1.00  0.00     0.044 A 
ATOM     17  C   UNL A   1      30.945  23.962  26.385  1.00  0.00     0.026 A 
ATOM     18  C   UNL A   1      31.550  23.311  24.175  1.00  0.00     0.072 A 
ATOM     19  C   UNL A   1      31.698  22.892  26.891  1.00  0.00     0.006 A 
ATOM     20  C   UNL A   1      32.238  22.195  24.655  1.00  0.00     0.120 A 
ATOM     21  C   UNL A   1      32.323  21.995  26.023  1.00  0.00     0.046 A 
BRANCH  20  22
ATOM     22  O   UNL A   1      32.930  21.317  23.864  1.00  0.00    -0.497 OA
ATOM     23  C   UNL A   1      32.454  19.973  23.915  1.00  0.00     0.278 C 
ENDBRANCH  20  22
ENDBRANCH  14  16
ENDBRANCH  11  12
ENDBRANCH   6  11
ENDBRANCH   3   6
ENDBRANCH   1   2
BRANCH   1  24
ATOM     24  C   UNL A   1      31.188  31.753  26.265  1.00  0.00     0.042 C 
BRANCH  24  25
ATOM     25  C   UNL A   1      32.512  32.256  26.833  1.00  0.00     0.118 C 
BRANCH  25  26
ATOM     26  N   UNL A   1      32.402  33.596  27.411  1.00  0.00    -0.352 N 
ATOM     27  C   UNL A   1      33.185  34.183  28.375  1.00  0.00     0.251 C 
ATOM     28  H   UNL A   1      31.668  34.151  27.062  1.00  0.00     0.163 HD
ATOM     29  O   UNL A   1      32.843  35.237  28.901  1.00  0.00    -0.269 OA
BRANCH  27  30
ATOM     30  C   UNL A   1      34.420  33.493  28.782  1.00  0.00     0.039 A 
ATOM     31  C   UNL A   1      35.656  34.070  28.493  1.00  0.00     0.014 A 
ATOM     32  C   UNL A   1      34.331  32.330  29.549  1.00  0.00     0.014 A 
ATOM     33  C   UNL A   1      36.809  33.523  29.056  1.00  0.00     0.010 A 
ATOM     34  C   UNL A   1      35.463  31.853  30.190  1.00  0.00     0.010 A 
ATOM     35  C   UNL A   1      36.714  32.443  29.948  1.00  0.00    -0.014 A 
BRANCH  35  36
ATOM     36  C   UNL A   1      37.904  31.883  30.639  1.00  0.00     0.031 A 
ATOM     37  C   UNL A   1      38.721  30.830  29.943  1.00  0.00     0.074 A 
ATOM     38  C   UNL A   1      38.180  32.240  31.908  1.00  0.00     0.049 A 
ATOM     39  N   UNL A   1      39.687  30.085  30.413  1.00  0.00    -0.248 NA
ATOM     40  C   UNL A   1      38.372  30.550  28.541  1.00  0.00     0.031 C 
ATOM     41  C   UNL A   1      37.432  33.223  32.696  1.00  0.00     0.029 A 
ATOM     42  N   UNL A   1      39.153  31.802  32.769  1.00  0.00    -0.354 N 
ATOM     43  C   UNL A   1      40.037  29.228  29.375  1.00  0.00     0.074 A 
ATOM     44  C   UNL A   1      39.134  29.502  28.278  1.00  0.00     0.031 C 
ATOM     45  C   UNL A   1      37.986  33.327  33.914  1.00  0.00     0.029 A 
ATOM     46  C   UNL A   1      39.092  32.379  34.018  1.00  0.00     0.049 A 
ATOM     47  H   UNL A   1      39.834  31.136  32.518  1.00  0.00     0.167 HD
ATOM     48  C   UNL A   1      41.036  28.313  29.335  1.00  0.00     0.034 A 
ATOM     49  C   UNL A   1      39.828  32.153  35.125  1.00  0.00     0.034 A 
ATOM     50  C   UNL A   1      41.937  28.075  30.434  1.00  0.00     0.049 A 
ATOM     51  C   UNL A   1      40.923  31.117  35.064  1.00  0.00     0.074 A 
ATOM     52  C   UNL A   1      43.020  27.217  30.490  1.00  0.00     0.029 A 
ATOM     53  N   UNL A   1      41.857  28.697  31.674  1.00  0.00    -0.354 N 
ATOM     54  N   UNL A   1      41.270  30.340  34.063  1.00  0.00    -0.248 NA
ATOM     55  C   UNL A   1      41.731  30.931  36.277  1.00  0.00     0.031 C 
ATOM     56  C   UNL A   1      43.553  27.271  31.781  1.00  0.00     0.029 A 
ATOM     57  C   UNL A   1      42.856  28.222  32.508  1.00  0.00     0.049 A 
ATOM     58  H   UNL A   1      41.189  29.375  31.924  1.00  0.00     0.167 HD
ATOM     59  C   UNL A   1      42.362  29.604  34.514  1.00  0.00     0.074 A 
ATOM     60  C   UNL A   1      42.617  30.031  35.875  1.00  0.00     0.031 C 
ATOM     61  C   UNL A   1      43.096  28.668  33.860  1.00  0.00     0.034 A 
BRANCH  48  62
ATOM     62  C   UNL A   1      41.181  27.498  28.072  1.00  0.00     0.023 A 
ATOM     63  C   UNL A   1      40.804  26.144  28.019  1.00  0.00     0.031 A 
ATOM     64  C   UNL A   1      41.739  28.070  26.916  1.00  0.00     0.131 A 
ATOM     65  C   UNL A   1      41.066  25.388  26.868  1.00  0.00     0.055 A 
ATOM     66  C   UNL A   1      41.916  27.334  25.742  1.00  0.00     0.041 A 
ATOM     67  F   UNL A   1      42.140  29.350  26.910  1.00  0.00    -0.206 F 
ATOM     68  C   UNL A   1      41.594  25.979  25.719  1.00  0.00     0.022 A 
BRANCH  65  69
ATOM     69  S   UNL A   1      40.850  23.589  26.948  1.00  0.00     0.124 S 
ATOM     70  O   UNL A   1      41.860  23.128  25.998  1.00  0.00    -0.237 OA
ATOM     71  O   UNL A   1      41.118  23.301  28.353  1.00  0.00    -0.237 OA
ATOM     72  O   UNL A   1      39.467  23.390  26.522  1.00  0.00    -0.744 OA
ENDBRANCH  65  69
ENDBRANCH  48  62
BRANCH  49  73
ATOM     73  C   UNL A   1      39.556  32.905  36.383  1.00  0.00     0.023 A 
ATOM     74  C   UNL A   1      38.660  32.407  37.342  1.00  0.00     0.031 A 
ATOM     75  C   UNL A   1      40.158  34.151  36.631  1.00  0.00     0.131 A 
ATOM     76  C   UNL A   1      38.353  33.171  38.479  1.00  0.00     0.055 A 
ATOM     77  C   UNL A   1      39.893  34.883  37.790  1.00  0.00     0.041 A 
ATOM     78  F   UNL A   1      41.028  34.673  35.751  1.00  0.00    -0.206 F 
ATOM     79  C   UNL A   1      38.974  34.399  38.717  1.00  0.00     0.022 A 
BRANCH  76  80
ATOM     80  S   UNL A   1      37.062  32.574  39.604  1.00  0.00     0.124 S 
ATOM     81  O   UNL A   1      35.873  32.664  38.765  1.00  0.00    -0.237 OA
ATOM     82  O   UNL A   1      37.530  31.228  39.915  1.00  0.00    -0.237 OA
ATOM     83  O   UNL A   1      37.115  33.522  40.715  1.00  0.00    -0.744 OA
ENDBRANCH  76  80
ENDBRANCH  49  73
BRANCH  61  84
ATOM     84  C   UNL A   1      44.287  28.094  34.584  1.00  0.00     0.023 A 
ATOM     85  C   UNL A   1      44.174  27.005  35.465  1.00  0.00     0.031 A 
ATOM     86  C   UNL A   1      45.566  28.638  34.362  1.00  0.00     0.131 A 
ATOM     87  C   UNL A   1      45.314  26.519  36.121  1.00  0.00     0.055 A 
ATOM     88  C   UNL A   1      46.704  28.113  34.973  1.00  0.00     0.041 A 
ATOM     89  F   UNL A   1      45.729  29.680  33.531  1.00  0.00    -0.206 F 
ATOM     90  C   UNL A   1      46.580  27.054  35.866  1.00  0.00     0.022 A 
BRANCH  87  91
ATOM     91  S   UNL A   1      45.116  25.214  37.366  1.00  0.00     0.124 S 
ATOM     92  O   UNL A   1      44.422  24.177  36.609  1.00  0.00    -0.237 OA
ATOM     93  O   UNL A   1      46.497  24.919  37.733  1.00  0.00    -0.237 OA
ATOM     94  O   UNL A   1      44.321  25.856  38.411  1.00  0.00    -0.744 OA
ENDBRANCH  87  91
ENDBRANCH  61  84
ENDBRANCH  35  36
ENDBRANCH  27  30
ENDBRANCH  25  26
ENDBRANCH  24  25
ENDBRANCH   1  24
TORSDOF 19
ENDMDL
MODEL 2
REMARK VINA RESULT:     -10.7      2.011      7.873
REMARK SMILES CCC(CC)(CC(=O)Nc1cccc(OC)c1)C(=O)NCCCNC(=O)c1ccc(-c2c3nc(c(-c4cc(S(=O)(=O)[O-])ccc4F)c4ccc([nH]4)c(-c4cc(S(=O)(=O)[O-])ccc4F)c4nc(c(-c5cc(S(=O)(=O)[O-])ccc5F)c5ccc2[nH]5)C=C4)C=C3)cc1
REMARK SMILES IDX 21 1 20 2 18 3 19 4 3 6 2 7 1 8 4 9 5 10 6 11 7 12 8 13 9 14
REMARK SMILES IDX 10 16 11 17 17 18 12 19 14 20 13 21 15 22 16 23 22 24 23 25
REMARK SMILES IDX 24 26 25 27 26 29 27 30 28 31 89 32 29 33 88 34 30 35 31 36
REMARK SMILES IDX 32 37 82 38 33 39 87 40 81 41 83 42 34 43 86 44 80 45 79 46
REMARK SMILES IDX 35 48 67 49 47 50 66 51 48 52 51 53 65 54 84 55 49 56 50 57
REMARK SMILES IDX 64 59 85 60 52 61 36 62 37 63 45 64 38 65 44 66 46 67 43 68
REMARK SMILES IDX 39 69 40 70 41 71 42 72 68 73 69 74 77 75 70 76 76 77 78 78
REMARK SMILES IDX 75 79 71 80 72 81 73 82 74 83 53 84 54 85 62 86 55 87 61 88
REMARK SMILES IDX 63 89 60 90 56 91 57 92 58 93 59 94
REMARK H PARENT 20 5 9 15 24 28 83 47 51 58
REMARK Flexibility Score: inf
ROOT
ATOM      1  C   UNL A   1      31.953  27.813  27.165  1.00  0.00     0.117 C 
ENDROOT
BRANCH   1   2
ATOM      2  N   UNL A   1      30.937  26.824  26.862  1.00  0.00    -0.356 N 
ATOM      3  C   UNL A   1      30.741  26.199  25.675  1.00  0.00     0.226 C 
ATOM      4  O   UNL A   1      29.589  26.192  25.240  1.00  0.00    -0.274 OA
ATOM      5  H   UNL A   1      30.325  26.580  27.594  1.00  0.00     0.163 HD
BRANCH   3   6
ATOM      6  C   UNL A   1      31.881  25.417  25.001  1.00  0.00     0.057 C 
BRANCH   6   7
ATOM      7  C   UNL A   1      32.286  24.350  26.044  1.00  0.00     0.014 C 
ATOM      8  C   UNL A   1      31.280  23.300  26.501  1.00  0.00     0.005 C 
ENDBRANCH   6   7
BRANCH   6   9
ATOM      9  C   UNL A   1      33.158  26.309  24.729  1.00  0.00     0.014 C 
ATOM     10  C   UNL A   1      34.420  25.975  25.522  1.00  0.00     0.005 C 
ENDBRANCH   6   9
BRANCH   6  11
ATOM     11  C   UNL A   1      31.389  24.710  23.699  1.00  0.00     0.117 C 
BRANCH  11  12
ATOM     12  C   UNL A   1      32.359  24.476  22.536  1.00  0.00     0.225 C 
ATOM     13  O   UNL A   1      32.337  25.222  21.554  1.00  0.00    -0.275 OA
ATOM     14  N   UNL A   1      33.419  23.602  22.664  1.00  0.00    -0.326 N 
ATOM     15  H   UNL A   1      34.164  23.792  22.049  1.00  0.00     0.169 HD
BRANCH  14  16
ATOM     16  C   UNL A   1      33.645  22.489  23.499  1.00  0.00     0.044 A 
ATOM     17  C   UNL A   1      34.798  22.455  24.284  1.00  0.00     0.026 A 
ATOM     18  C   UNL A   1      32.854  21.342  23.471  1.00  0.00     0.072 A 
ATOM     19  C   UNL A   1      35.069  21.350  25.105  1.00  0.00     0.006 A 
ATOM     20  C   UNL A   1      33.064  20.269  24.339  1.00  0.00     0.120 A 
ATOM     21  C   UNL A   1      34.188  20.270  25.149  1.00  0.00     0.046 A 
BRANCH  20  22
ATOM     22  O   UNL A   1      32.279  19.148  24.383  1.00  0.00    -0.497 OA
ATOM     23  C   UNL A   1      32.163  18.458  23.139  1.00  0.00     0.278 C 
ENDBRANCH  20  22
ENDBRANCH  14  16
ENDBRANCH  11  12
ENDBRANCH   6  11
ENDBRANCH   3   6
ENDBRANCH   1   2
BRANCH   1  24
ATOM     24  C   UNL A   1      31.483  29.201  26.756  1.00  0.00     0.042 C 
BRANCH  24  25
ATOM     25  C   UNL A   1      32.583  30.060  26.139  1.00  0.00     0.118 C 
BRANCH  25  26
ATOM     26  N   UNL A   1      32.451  31.475  26.486  1.00  0.00    -0.352 N 
ATOM     27  C   UNL A   1      33.249  32.237  27.305  1.00  0.00     0.251 C 
ATOM     28  H   UNL A   1      31.689  31.944  26.077  1.00  0.00     0.163 HD
ATOM     29  O   UNL A   1      32.892  33.356  27.658  1.00  0.00    -0.269 OA
BRANCH  27  30
ATOM     30  C   UNL A   1      34.518  31.657  27.774  1.00  0.00     0.039 A 
ATOM     31  C   UNL A   1      35.620  32.488  27.973  1.00  0.00     0.014 A 
ATOM     32  C   UNL A   1      34.564  30.305  28.118  1.00  0.00     0.014 A 
ATOM     33  C   UNL A   1      36.750  31.975  28.609  1.00  0.00     0.010 A 
ATOM     34  C   UNL A   1      35.645  29.828  28.841  1.00  0.00     0.010 A 
ATOM     35  C   UNL A   1      36.751  30.657  29.093  1.00  0.00    -0.014 A 
BRANCH  35  36
ATOM     36  C   UNL A   1      37.897  30.095  29.851  1.00  0.00     0.031 A 
ATOM     37  C   UNL A   1      38.137  30.562  31.260  1.00  0.00     0.074 A 
ATOM     38  C   UNL A   1      38.764  29.261  29.247  1.00  0.00     0.049 A 
ATOM     39  N   UNL A   1      39.160  30.343  32.044  1.00  0.00    -0.248 NA
ATOM     40  C   UNL A   1      37.104  31.431  31.847  1.00  0.00     0.031 C 
ATOM     41  C   UNL A   1      38.653  28.770  27.870  1.00  0.00     0.029 A 
ATOM     42  N   UNL A   1      39.926  28.691  29.705  1.00  0.00    -0.354 N 
ATOM     43  C   UNL A   1      38.908  31.071  33.201  1.00  0.00     0.074 A 
ATOM     44  C   UNL A   1      37.670  31.789  32.988  1.00  0.00     0.031 C 
ATOM     45  C   UNL A   1      39.690  27.960  27.605  1.00  0.00     0.029 A 
ATOM     46  C   UNL A   1      40.571  27.916  28.768  1.00  0.00     0.049 A 
ATOM     47  H   UNL A   1      40.266  28.824  30.619  1.00  0.00     0.167 HD
ATOM     48  C   UNL A   1      39.631  31.115  34.346  1.00  0.00     0.034 A 
ATOM     49  C   UNL A   1      41.750  27.264  28.833  1.00  0.00     0.034 A 
ATOM     50  C   UNL A   1      40.850  30.372  34.543  1.00  0.00     0.049 A 
ATOM     51  C   UNL A   1      42.549  27.342  30.110  1.00  0.00     0.074 A 
ATOM     52  C   UNL A   1      41.637  30.293  35.677  1.00  0.00     0.029 A 
ATOM     53  N   UNL A   1      41.460  29.579  33.578  1.00  0.00    -0.354 N 
ATOM     54  N   UNL A   1      42.279  28.003  31.213  1.00  0.00    -0.248 NA
ATOM     55  C   UNL A   1      43.805  26.583  30.157  1.00  0.00     0.031 C 
ATOM     56  C   UNL A   1      42.755  29.508  35.379  1.00  0.00     0.029 A 
ATOM     57  C   UNL A   1      42.625  29.029  34.085  1.00  0.00     0.049 A 
ATOM     58  H   UNL A   1      41.114  29.430  32.669  1.00  0.00     0.167 HD
ATOM     59  C   UNL A   1      43.313  27.705  32.097  1.00  0.00     0.074 A 
ATOM     60  C   UNL A   1      44.208  26.804  31.400  1.00  0.00     0.031 C 
ATOM     61  C   UNL A   1      43.500  28.127  33.374  1.00  0.00     0.034 A 
BRANCH  48  62
ATOM     62  C   UNL A   1      39.128  32.013  35.452  1.00  0.00     0.023 A 
ATOM     63  C   UNL A   1      39.575  33.340  35.588  1.00  0.00     0.031 A 
ATOM     64  C   UNL A   1      38.217  31.527  36.405  1.00  0.00     0.131 A 
ATOM     65  C   UNL A   1      39.181  34.103  36.695  1.00  0.00     0.055 A 
ATOM     66  C   UNL A   1      37.757  32.323  37.457  1.00  0.00     0.041 A 
ATOM     67  F   UNL A   1      37.770  30.263  36.343  1.00  0.00    -0.206 F 
ATOM     68  C   UNL A   1      38.252  33.614  37.616  1.00  0.00     0.022 A 
BRANCH  65  69
ATOM     69  S   UNL A   1      40.014  35.685  36.996  1.00  0.00     0.124 S 
ATOM     70  O   UNL A   1      39.647  36.444  35.803  1.00  0.00    -0.237 OA
ATOM     71  O   UNL A   1      39.408  36.129  38.246  1.00  0.00    -0.237 OA
ATOM     72  O   UNL A   1      41.426  35.318  37.082  1.00  0.00    -0.744 OA
ENDBRANCH  65  69
ENDBRANCH  48  62
BRANCH  49  73
ATOM     73  C   UNL A   1      42.255  26.492  27.662  1.00  0.00     0.023 A 
ATOM     74  C   UNL A   1      41.925  25.138  27.493  1.00  0.00     0.031 A 
ATOM     75  C   UNL A   1      43.107  27.084  26.712  1.00  0.00     0.131 A 
ATOM     76  C   UNL A   1      42.481  24.407  26.430  1.00  0.00     0.055 A 
ATOM     77  C   UNL A   1      43.614  26.368  25.625  1.00  0.00     0.041 A 
ATOM     78  F   UNL A   1      43.452  28.377  26.821  1.00  0.00    -0.206 F 
ATOM     79  C   UNL A   1      43.311  25.016  25.488  1.00  0.00     0.022 A 
BRANCH  76  80
ATOM     80  S   UNL A   1      42.169  22.623  26.348  1.00  0.00     0.124 S 
ATOM     81  O   UNL A   1      42.984  22.128  27.451  1.00  0.00    -0.237 OA
ATOM     82  O   UNL A   1      40.724  22.559  26.536  1.00  0.00    -0.237 OA
ATOM     83  O   UNL A   1      42.638  22.258  25.012  1.00  0.00    -0.744 OA
ENDBRANCH  76  80
ENDBRANCH  49  73
BRANCH  61  84
ATOM     84  C   UNL A   1      44.681  27.563  34.122  1.00  0.00     0.023 A 
ATOM     85  C   UNL A   1      44.614  26.341  34.812  1.00  0.00     0.031 A 
ATOM     86  C   UNL A   1      45.905  28.257  34.119  1.00  0.00     0.131 A 
ATOM     87  C   UNL A   1      45.740  25.868  35.502  1.00  0.00     0.055 A 
ATOM     88  C   UNL A   1      47.037  27.755  34.759  1.00  0.00     0.041 A 
ATOM     89  F   UNL A   1      46.021  29.431  33.476  1.00  0.00    -0.206 F 
ATOM     90  C   UNL A   1      46.956  26.558  35.463  1.00  0.00     0.022 A 
BRANCH  87  91
ATOM     91  S   UNL A   1      45.583  24.367  36.508  1.00  0.00     0.124 S 
ATOM     92  O   UNL A   1      44.276  24.554  37.128  1.00  0.00    -0.237 OA
ATOM     93  O   UNL A   1      45.668  23.309  35.506  1.00  0.00    -0.237 OA
ATOM     94  O   UNL A   1      46.721  24.446  37.422  1.00  0.00    -0.744 OA
ENDBRANCH  87  91
ENDBRANCH  61  84
ENDBRANCH  35  36
ENDBRANCH  27  30
ENDBRANCH  25  26
ENDBRANCH  24  25
ENDBRANCH   1  24
TORSDOF 19
ENDMDL
MODEL 3
REMARK VINA RESULT:     -10.6      2.284      2.814
REMARK SMILES CCC(CC)(CC(=O)Nc1cccc(OC)c1)C(=O)NCCCNC(=O)c1ccc(-c2c3nc(c(-c4cc(S(=O)(=O)[O-])ccc4F)c4ccc([nH]4)c(-c4cc(S(=O)(=O)[O-])ccc4F)c4nc(c(-c5cc(S(=O)(=O)[O-])ccc5F)c5ccc2[nH]5)C=C4)C=C3)cc1
REMARK SMILES IDX 21 1 20 2 18 3 19 4 3 6 2 7 1 8 4 9 5 10 6 11 7 12 8 13 9 14
REMARK SMILES IDX 10 16 11 17 17 18 12 19 14 20 13 21 15 22 16 23 22 24 23 25
REMARK SMILES IDX 24 26 25 27 26 29 27 30 28 31 89 32 29 33 88 34 30 35 31 36
REMARK SMILES IDX 32 37 82 38 33 39 87 40 81 41 83 42 34 43 86 44 80 45 79 46
REMARK SMILES IDX 35 48 67 49 47 50 66 51 48 52 51 53 65 54 84 55 49 56 50 57
REMARK SMILES IDX 64 59 85 60 52 61 36 62 37 63 45 64 38 65 44 66 46 67 43 68
REMARK SMILES IDX 39 69 40 70 41 71 42 72 68 73 69 74 77 75 70 76 76 77 78 78
REMARK SMILES IDX 75 79 71 80 72 81 73 82 74 83 53 84 54 85 62 86 55 87 61 88
REMARK SMILES IDX 63 89 60 90 56 91 57 92 58 93 59 94
REMARK H PARENT 20 5 9 15 24 28 83 47 51 58
REMARK Flexibility Score: inf
ROOT
ATOM      1  C   UNL A   1      33.276  29.560  25.891  1.00  0.00     0.117 C 
ENDROOT
BRANCH   1   2
ATOM      2  N   UNL A   1      33.309  29.653  24.444  1.00  0.00    -0.356 N 
ATOM      3  C   UNL A   1      33.615  28.659  23.574  1.00  0.00     0.226 C 
ATOM      4  O   UNL A   1      34.447  28.926  22.705  1.00  0.00    -0.274 OA
ATOM      5  H   UNL A   1      33.086  30.528  24.053  1.00  0.00     0.163 HD
BRANCH   3   6
ATOM      6  C   UNL A   1      32.844  27.329  23.596  1.00  0.00     0.057 C 
BRANCH   6   7
ATOM      7  C   UNL A   1      31.371  27.734  23.354  1.00  0.00     0.014 C 
ATOM      8  C   UNL A   1      30.286  27.310  24.337  1.00  0.00     0.005 C 
ENDBRANCH   6   7
BRANCH   6   9
ATOM      9  C   UNL A   1      32.903  26.611  25.003  1.00  0.00     0.014 C 
ATOM     10  C   UNL A   1      34.157  25.797  25.315  1.00  0.00     0.005 C 
ENDBRANCH   6   9
BRANCH   6  11
ATOM     11  C   UNL A   1      33.318  26.382  22.449  1.00  0.00     0.117 C 
BRANCH  11  12
ATOM     12  C   UNL A   1      32.295  25.556  21.661  1.00  0.00     0.225 C 
ATOM     13  O   UNL A   1      31.644  26.081  20.753  1.00  0.00    -0.275 OA
ATOM     14  N   UNL A   1      32.254  24.182  21.778  1.00  0.00    -0.326 N 
ATOM     15  H   UNL A   1      31.857  23.731  20.999  1.00  0.00     0.169 HD
BRANCH  14  16
ATOM     16  C   UNL A   1      32.668  23.296  22.794  1.00  0.00     0.044 A 
ATOM     17  C   UNL A   1      31.716  22.788  23.677  1.00  0.00     0.026 A 
ATOM     18  C   UNL A   1      34.007  23.018  23.063  1.00  0.00     0.072 A 
ATOM     19  C   UNL A   1      32.097  21.926  24.717  1.00  0.00     0.006 A 
ATOM     20  C   UNL A   1      34.396  22.102  24.042  1.00  0.00     0.120 A 
ATOM     21  C   UNL A   1      33.434  21.565  24.882  1.00  0.00     0.046 A 
BRANCH  20  22
ATOM     22  O   UNL A   1      35.696  21.758  24.302  1.00  0.00    -0.497 OA
ATOM     23  C   UNL A   1      36.665  22.640  23.739  1.00  0.00     0.278 C 
ENDBRANCH  20  22
ENDBRANCH  14  16
ENDBRANCH  11  12
ENDBRANCH   6  11
ENDBRANCH   3   6
ENDBRANCH   1   2
BRANCH   1  24
ATOM     24  C   UNL A   1      32.519  30.739  26.482  1.00  0.00     0.042 C 
BRANCH  24  25
ATOM     25  C   UNL A   1      33.328  31.535  27.503  1.00  0.00     0.118 C 
BRANCH  25  26
ATOM     26  N   UNL A   1      32.981  32.956  27.510  1.00  0.00    -0.352 N 
ATOM     27  C   UNL A   1      33.434  33.947  28.347  1.00  0.00     0.251 C 
ATOM     28  H   UNL A   1      32.336  33.240  26.823  1.00  0.00     0.163 HD
ATOM     29  O   UNL A   1      32.896  35.049  28.357  1.00  0.00    -0.269 OA
BRANCH  27  30
ATOM     30  C   UNL A   1      34.553  33.635  29.251  1.00  0.00     0.039 A 
ATOM     31  C   UNL A   1      34.337  32.806  30.351  1.00  0.00     0.014 A 
ATOM     32  C   UNL A   1      35.836  34.085  28.929  1.00  0.00     0.014 A 
ATOM     33  C   UNL A   1      35.433  32.349  31.082  1.00  0.00     0.010 A 
ATOM     34  C   UNL A   1      36.927  33.547  29.592  1.00  0.00     0.010 A 
ATOM     35  C   UNL A   1      36.737  32.675  30.677  1.00  0.00    -0.014 A 
BRANCH  35  36
ATOM     36  C   UNL A   1      37.936  32.142  31.372  1.00  0.00     0.031 A 
ATOM     37  C   UNL A   1      38.718  31.030  30.727  1.00  0.00     0.074 A 
ATOM     38  C   UNL A   1      38.253  32.578  32.606  1.00  0.00     0.049 A 
ATOM     39  N   UNL A   1      39.684  30.301  31.221  1.00  0.00    -0.248 NA
ATOM     40  C   UNL A   1      38.325  30.663  29.357  1.00  0.00     0.031 C 
ATOM     41  C   UNL A   1      37.542  33.625  33.345  1.00  0.00     0.029 A 
ATOM     42  N   UNL A   1      39.242  32.182  33.469  1.00  0.00    -0.354 N 
ATOM     43  C   UNL A   1      39.992  29.370  30.235  1.00  0.00     0.074 A 
ATOM     44  C   UNL A   1      39.064  29.586  29.146  1.00  0.00     0.031 C 
ATOM     45  C   UNL A   1      38.132  33.801  34.539  1.00  0.00     0.029 A 
ATOM     46  C   UNL A   1      39.224  32.843  34.677  1.00  0.00     0.049 A 
ATOM     47  H   UNL A   1      39.906  31.489  33.246  1.00  0.00     0.167 HD
ATOM     48  C   UNL A   1      40.975  28.438  30.231  1.00  0.00     0.034 A 
ATOM     49  C   UNL A   1      39.987  32.678  35.777  1.00  0.00     0.034 A 
ATOM     50  C   UNL A   1      41.902  28.258  31.319  1.00  0.00     0.049 A 
ATOM     51  C   UNL A   1      41.063  31.622  35.757  1.00  0.00     0.074 A 
ATOM     52  C   UNL A   1      42.972  27.387  31.404  1.00  0.00     0.029 A 
ATOM     53  N   UNL A   1      41.865  28.963  32.516  1.00  0.00    -0.354 N 
ATOM     54  N   UNL A   1      41.370  30.773  34.803  1.00  0.00    -0.248 NA
ATOM     55  C   UNL A   1      41.901  31.503  36.958  1.00  0.00     0.031 C 
ATOM     56  C   UNL A   1      43.541  27.518  32.675  1.00  0.00     0.029 A 
ATOM     57  C   UNL A   1      42.879  28.528  33.353  1.00  0.00     0.049 A 
ATOM     58  H   UNL A   1      41.215  29.668  32.737  1.00  0.00     0.167 HD
ATOM     59  C   UNL A   1      42.463  30.050  35.274  1.00  0.00     0.074 A 
ATOM     60  C   UNL A   1      42.761  30.563  36.596  1.00  0.00     0.031 C 
ATOM     61  C   UNL A   1      43.164  29.059  34.666  1.00  0.00     0.034 A 
BRANCH  48  62
ATOM     62  C   UNL A   1      41.072  27.537  29.022  1.00  0.00     0.023 A 
ATOM     63  C   UNL A   1      42.083  27.701  28.058  1.00  0.00     0.031 A 
ATOM     64  C   UNL A   1      40.121  26.525  28.810  1.00  0.00     0.131 A 
ATOM     65  C   UNL A   1      42.069  26.928  26.889  1.00  0.00     0.055 A 
ATOM     66  C   UNL A   1      40.165  25.696  27.686  1.00  0.00     0.041 A 
ATOM     67  F   UNL A   1      39.119  26.332  29.682  1.00  0.00    -0.206 F 
ATOM     68  C   UNL A   1      41.134  25.907  26.709  1.00  0.00     0.022 A 
BRANCH  65  69
ATOM     69  S   UNL A   1      43.197  27.377  25.542  1.00  0.00     0.124 S 
ATOM     70  O   UNL A   1      44.230  28.122  26.258  1.00  0.00    -0.237 OA
ATOM     71  O   UNL A   1      43.597  26.076  25.018  1.00  0.00    -0.237 OA
ATOM     72  O   UNL A   1      42.363  28.180  24.650  1.00  0.00    -0.744 OA
ENDBRANCH  65  69
ENDBRANCH  48  62
BRANCH  49  73
ATOM     73  C   UNL A   1      39.761  33.518  36.989  1.00  0.00     0.023 A 
ATOM     74  C   UNL A   1      40.590  34.614  37.271  1.00  0.00     0.031 A 
ATOM     75  C   UNL A   1      38.737  33.214  37.904  1.00  0.00     0.131 A 
ATOM     76  C   UNL A   1      40.414  35.339  38.461  1.00  0.00     0.055 A 
ATOM     77  C   UNL A   1      38.530  33.971  39.059  1.00  0.00     0.041 A 
ATOM     78  F   UNL A   1      37.911  32.180  37.681  1.00  0.00    -0.206 F 
ATOM     79  C   UNL A   1      39.381  35.034  39.350  1.00  0.00     0.022 A 
BRANCH  76  80
ATOM     80  S   UNL A   1      41.613  36.636  38.873  1.00  0.00     0.124 S 
ATOM     81  O   UNL A   1      41.997  37.115  37.551  1.00  0.00    -0.237 OA
ATOM     82  O   UNL A   1      40.807  37.548  39.679  1.00  0.00    -0.237 OA
ATOM     83  O   UNL A   1      42.653  35.916  39.605  1.00  0.00    -0.744 OA
ENDBRANCH  76  80
ENDBRANCH  49  73
BRANCH  61  84
ATOM     84  C   UNL A   1      44.365  28.514  35.395  1.00  0.00     0.023 A 
ATOM     85  C   UNL A   1      44.255  27.510  36.371  1.00  0.00     0.031 A 
ATOM     86  C   UNL A   1      45.649  28.998  35.082  1.00  0.00     0.131 A 
ATOM     87  C   UNL A   1      45.405  27.048  37.027  1.00  0.00     0.055 A 
ATOM     88  C   UNL A   1      46.794  28.494  35.697  1.00  0.00     0.041 A 
ATOM     89  F   UNL A   1      45.809  29.959  34.158  1.00  0.00    -0.206 F 
ATOM     90  C   UNL A   1      46.675  27.520  36.682  1.00  0.00     0.022 A 
BRANCH  87  91
ATOM     91  S   UNL A   1      45.218  25.862  38.387  1.00  0.00     0.124 S 
ATOM     92  O   UNL A   1      44.298  26.563  39.276  1.00  0.00    -0.237 OA
ATOM     93  O   UNL A   1      44.679  24.688  37.708  1.00  0.00    -0.237 OA
ATOM     94  O   UNL A   1      46.579  25.709  38.898  1.00  0.00    -0.744 OA
ENDBRANCH  87  91
ENDBRANCH  61  84
ENDBRANCH  35  36
ENDBRANCH  27  30
ENDBRANCH  25  26
ENDBRANCH  24  25
ENDBRANCH   1  24
TORSDOF 19
ENDMDL
