MODEL 1
REMARK VINA RESULT:     -10.4      0.000      0.000
REMARK SMILES C=CCCCOc1ccc(C(=O)NCCCNC(=O)c2ccc(-c3c4nc(c(-c5cc(S(=O)(=O)[O-])ccc5F)c5ccc([nH]5)c(-c5cc(S(=O)(=O)[O-])ccc5F)c5nc(c(-c6cc(S(=O)(=O)[O-])ccc6F)c6ccc3[nH]6)C=C5)C=C4)cc2)cc1[N+](=O)[O-]
REMARK SMILES IDX 14 1 13 2 11 3 12 4 10 6 7 7 8 8 84 9 9 10 83 11 6 12 5 13
REMARK SMILES IDX 4 14 3 15 2 16 1 17 85 18 86 19 87 20 15 21 16 22 17 23
REMARK SMILES IDX 18 24 19 26 20 27 21 28 82 29 22 30 81 31 23 32 24 33 25 34
REMARK SMILES IDX 75 35 26 36 80 37 74 38 76 39 27 40 79 41 73 42 72 43 28 45
REMARK SMILES IDX 60 46 40 47 59 48 41 49 44 50 58 51 77 52 42 53 43 54 57 56
REMARK SMILES IDX 78 57 45 58 29 59 30 60 38 61 31 62 37 63 39 64 36 65 32 66
REMARK SMILES IDX 33 67 34 68 35 69 61 70 62 71 70 72 63 73 69 74 71 75 68 76
REMARK SMILES IDX 64 77 65 78 66 79 67 80 46 81 47 82 55 83 48 84 54 85 56 86
REMARK SMILES IDX 53 87 49 88 50 89 51 90 52 91
REMARK H PARENT 13 5 17 25 76 44 44 55
REMARK Flexibility Score: inf
ROOT
ATOM      1  C   UNL A   1      36.072  20.184  25.035  1.00  0.00     0.118 C 
ENDROOT
BRANCH   1   2
ATOM      2  N   UNL A   1      34.977  19.238  24.860  1.00  0.00    -0.352 N 
ATOM      3  C   UNL A   1      33.624  19.450  24.767  1.00  0.00     0.251 C 
ATOM      4  O   UNL A   1      32.882  18.530  24.428  1.00  0.00    -0.269 OA
ATOM      5  H   UNL A   1      35.252  18.294  24.798  1.00  0.00     0.163 HD
BRANCH   3   6
ATOM      6  C   UNL A   1      33.043  20.789  25.006  1.00  0.00     0.046 A 
ATOM      7  C   UNL A   1      31.722  23.197  25.563  1.00  0.00     0.197 A 
ATOM      8  C   UNL A   1      32.228  22.421  26.609  1.00  0.00     0.055 A 
ATOM      9  C   UNL A   1      32.018  22.835  24.246  1.00  0.00     0.311 A 
ATOM     10  C   UNL A   1      32.880  21.217  26.331  1.00  0.00     0.018 A 
ATOM     11  C   UNL A   1      32.676  21.635  23.959  1.00  0.00     0.103 A 
BRANCH   7  12
ATOM     12  O   UNL A   1      30.960  24.297  25.832  1.00  0.00    -0.487 OA
BRANCH  12  13
ATOM     13  C   UNL A   1      31.689  25.361  26.468  1.00  0.00     0.230 C 
BRANCH  13  14
ATOM     14  C   UNL A   1      32.543  26.148  25.465  1.00  0.00     0.046 C 
BRANCH  14  15
ATOM     15  C   UNL A   1      34.061  26.069  25.688  1.00  0.00     0.030 C 
BRANCH  15  16
ATOM     16  C   UNL A   1      34.762  25.009  24.887  1.00  0.00    -0.035 C 
ATOM     17  C   UNL A   1      35.434  24.001  25.461  1.00  0.00     0.004 C 
ENDBRANCH  15  16
ENDBRANCH  14  15
ENDBRANCH  13  14
ENDBRANCH  12  13
ENDBRANCH   7  12
BRANCH   9  18
ATOM     18  N   UNL A   1      31.530  23.630  23.128  1.00  0.00     0.066 N 
ATOM     19  O   UNL A   1      32.385  24.053  22.336  1.00  0.00    -0.258 OA
ATOM     20  O   UNL A   1      30.314  23.840  23.045  1.00  0.00    -0.258 OA
ENDBRANCH   9  18
ENDBRANCH   3   6
ENDBRANCH   1   2
BRANCH   1  21
ATOM     21  C   UNL A   1      37.438  19.536  24.822  1.00  0.00     0.042 C 
BRANCH  21  22
ATOM     22  C   UNL A   1      38.590  20.282  25.488  1.00  0.00     0.118 C 
BRANCH  22  23
ATOM     23  N   UNL A   1      39.674  19.394  25.877  1.00  0.00    -0.352 N 
ATOM     24  C   UNL A   1      40.964  19.686  26.247  1.00  0.00     0.251 C 
ATOM     25  H   UNL A   1      39.448  18.436  25.876  1.00  0.00     0.163 HD
ATOM     26  O   UNL A   1      41.778  18.765  26.331  1.00  0.00    -0.269 OA
BRANCH  24  27
ATOM     27  C   UNL A   1      41.387  21.079  26.522  1.00  0.00     0.039 A 
ATOM     28  C   UNL A   1      41.298  21.564  27.831  1.00  0.00     0.014 A 
ATOM     29  C   UNL A   1      41.829  21.924  25.501  1.00  0.00     0.014 A 
ATOM     30  C   UNL A   1      41.706  22.869  28.122  1.00  0.00     0.010 A 
ATOM     31  C   UNL A   1      42.309  23.197  25.806  1.00  0.00     0.010 A 
ATOM     32  C   UNL A   1      42.246  23.688  27.118  1.00  0.00    -0.014 A 
BRANCH  32  33
ATOM     33  C   UNL A   1      42.735  25.061  27.420  1.00  0.00     0.031 A 
ATOM     34  C   UNL A   1      41.828  26.056  28.095  1.00  0.00     0.074 A 
ATOM     35  C   UNL A   1      43.975  25.430  27.040  1.00  0.00     0.049 A 
ATOM     36  N   UNL A   1      42.039  27.318  28.372  1.00  0.00    -0.248 NA
ATOM     37  C   UNL A   1      40.494  25.574  28.485  1.00  0.00     0.031 C 
ATOM     38  C   UNL A   1      44.937  24.566  26.352  1.00  0.00     0.029 A 
ATOM     39  N   UNL A   1      44.638  26.625  27.170  1.00  0.00    -0.354 N 
ATOM     40  C   UNL A   1      40.865  27.782  28.956  1.00  0.00     0.074 A 
ATOM     41  C   UNL A   1      39.925  26.682  28.932  1.00  0.00     0.031 C 
ATOM     42  C   UNL A   1      46.073  25.251  26.144  1.00  0.00     0.029 A 
ATOM     43  C   UNL A   1      45.906  26.616  26.635  1.00  0.00     0.049 A 
ATOM     44  H   UNL A   1      44.244  27.414  27.606  1.00  0.00     0.167 HD
ATOM     45  C   UNL A   1      40.603  29.005  29.482  1.00  0.00     0.034 A 
ATOM     46  C   UNL A   1      46.824  27.598  26.535  1.00  0.00     0.034 A 
ATOM     47  C   UNL A   1      41.555  30.090  29.504  1.00  0.00     0.049 A 
ATOM     48  C   UNL A   1      46.497  28.960  27.093  1.00  0.00     0.074 A 
ATOM     49  C   UNL A   1      41.411  31.353  30.052  1.00  0.00     0.029 A 
ATOM     50  N   UNL A   1      42.827  30.045  28.946  1.00  0.00    -0.354 N 
ATOM     51  N   UNL A   1      45.396  29.370  27.681  1.00  0.00    -0.248 NA
ATOM     52  C   UNL A   1      47.539  29.989  26.984  1.00  0.00     0.031 C 
ATOM     53  C   UNL A   1      42.562  32.092  29.762  1.00  0.00     0.029 A 
ATOM     54  C   UNL A   1      43.463  31.268  29.108  1.00  0.00     0.049 A 
ATOM     55  H   UNL A   1      43.220  29.261  28.500  1.00  0.00     0.167 HD
ATOM     56  C   UNL A   1      45.631  30.695  28.044  1.00  0.00     0.074 A 
ATOM     57  C   UNL A   1      46.980  31.007  27.621  1.00  0.00     0.031 C 
ATOM     58  C   UNL A   1      44.807  31.570  28.675  1.00  0.00     0.034 A 
BRANCH  45  59
ATOM     59  C   UNL A   1      39.220  29.238  30.049  1.00  0.00     0.023 A 
ATOM     60  C   UNL A   1      38.231  29.929  29.328  1.00  0.00     0.031 A 
ATOM     61  C   UNL A   1      38.892  28.783  31.340  1.00  0.00     0.131 A 
ATOM     62  C   UNL A   1      36.995  30.214  29.928  1.00  0.00     0.055 A 
ATOM     63  C   UNL A   1      37.629  28.994  31.898  1.00  0.00     0.041 A 
ATOM     64  F   UNL A   1      39.800  28.134  32.088  1.00  0.00    -0.206 F 
ATOM     65  C   UNL A   1      36.677  29.728  31.198  1.00  0.00     0.022 A 
BRANCH  62  66
ATOM     66  S   UNL A   1      35.869  31.360  29.087  1.00  0.00     0.124 S 
ATOM     67  O   UNL A   1      35.143  30.458  28.194  1.00  0.00    -0.237 OA
ATOM     68  O   UNL A   1      35.100  31.918  30.193  1.00  0.00    -0.237 OA
ATOM     69  O   UNL A   1      36.768  32.296  28.416  1.00  0.00    -0.744 OA
ENDBRANCH  62  66
ENDBRANCH  45  59
BRANCH  46  70
ATOM     70  C   UNL A   1      48.137  27.344  25.872  1.00  0.00     0.023 A 
ATOM     71  C   UNL A   1      48.296  27.525  24.488  1.00  0.00     0.031 A 
ATOM     72  C   UNL A   1      49.240  26.870  26.603  1.00  0.00     0.131 A 
ATOM     73  C   UNL A   1      49.510  27.185  23.872  1.00  0.00     0.055 A 
ATOM     74  C   UNL A   1      50.465  26.590  25.995  1.00  0.00     0.041 A 
ATOM     75  F   UNL A   1      49.145  26.680  27.929  1.00  0.00    -0.206 F 
ATOM     76  C   UNL A   1      50.601  26.733  24.617  1.00  0.00     0.022 A 
BRANCH  73  77
ATOM     77  S   UNL A   1      49.613  27.251  22.061  1.00  0.00     0.124 S 
ATOM     78  O   UNL A   1      49.214  28.627  21.792  1.00  0.00    -0.237 OA
ATOM     79  O   UNL A   1      51.017  26.931  21.827  1.00  0.00    -0.237 OA
ATOM     80  O   UNL A   1      48.662  26.229  21.629  1.00  0.00    -0.744 OA
ENDBRANCH  73  77
ENDBRANCH  46  70
BRANCH  58  81
ATOM     81  C   UNL A   1      45.370  32.935  28.994  1.00  0.00     0.023 A 
ATOM     82  C   UNL A   1      45.324  33.994  28.070  1.00  0.00     0.031 A 
ATOM     83  C   UNL A   1      45.973  33.175  30.242  1.00  0.00     0.131 A 
ATOM     84  C   UNL A   1      45.922  35.224  28.385  1.00  0.00     0.055 A 
ATOM     85  C   UNL A   1      46.508  34.420  30.575  1.00  0.00     0.041 A 
ATOM     86  F   UNL A   1      46.049  32.200  31.163  1.00  0.00    -0.206 F 
ATOM     87  C   UNL A   1      46.497  35.449  29.638  1.00  0.00     0.022 A 
BRANCH  84  88
ATOM     88  S   UNL A   1      46.029  36.497  27.097  1.00  0.00     0.124 S 
ATOM     89  O   UNL A   1      47.283  37.163  27.433  1.00  0.00    -0.237 OA
ATOM     90  O   UNL A   1      46.037  35.702  25.873  1.00  0.00    -0.237 OA
ATOM     91  O   UNL A   1      44.825  37.299  27.306  1.00  0.00    -0.744 OA
ENDBRANCH  84  88
ENDBRANCH  58  81
ENDBRANCH  32  33
ENDBRANCH  24  27
ENDBRANCH  22  23
ENDBRANCH  21  22
ENDBRANCH   1  21
TORSDOF 19
ENDMDL
MODEL 2
REMARK VINA RESULT:     -10.4      1.690      7.848
REMARK SMILES C=CCCCOc1ccc(C(=O)NCCCNC(=O)c2ccc(-c3c4nc(c(-c5cc(S(=O)(=O)[O-])ccc5F)c5ccc([nH]5)c(-c5cc(S(=O)(=O)[O-])ccc5F)c5nc(c(-c6cc(S(=O)(=O)[O-])ccc6F)c6ccc3[nH]6)C=C5)C=C4)cc2)cc1[N+](=O)[O-]
REMARK SMILES IDX 14 1 13 2 11 3 12 4 10 6 7 7 8 8 84 9 9 10 83 11 6 12 5 13
REMARK SMILES IDX 4 14 3 15 2 16 1 17 85 18 86 19 87 20 15 21 16 22 17 23
REMARK SMILES IDX 18 24 19 26 20 27 21 28 82 29 22 30 81 31 23 32 24 33 25 34
REMARK SMILES IDX 75 35 26 36 80 37 74 38 76 39 27 40 79 41 73 42 72 43 28 45
REMARK SMILES IDX 60 46 40 47 59 48 41 49 44 50 58 51 77 52 42 53 43 54 57 56
REMARK SMILES IDX 78 57 45 58 29 59 30 60 38 61 31 62 37 63 39 64 36 65 32 66
REMARK SMILES IDX 33 67 34 68 35 69 61 70 62 71 70 72 63 73 69 74 71 75 68 76
REMARK SMILES IDX 64 77 65 78 66 79 67 80 46 81 47 82 55 83 48 84 54 85 56 86
REMARK SMILES IDX 53 87 49 88 50 89 51 90 52 91
REMARK H PARENT 13 5 17 25 76 44 44 55
REMARK Flexibility Score: inf
ROOT
ATOM      1  C   UNL A   1      35.321  20.695  24.993  1.00  0.00     0.118 C 
ENDROOT
BRANCH   1   2
ATOM      2  N   UNL A   1      34.309  19.693  25.303  1.00  0.00    -0.352 N 
ATOM      3  C   UNL A   1      32.940  19.758  25.224  1.00  0.00     0.251 C 
ATOM      4  O   UNL A   1      32.271  18.734  25.350  1.00  0.00    -0.269 OA
ATOM      5  H   UNL A   1      34.664  18.832  25.621  1.00  0.00     0.163 HD
BRANCH   3   6
ATOM      6  C   UNL A   1      32.252  21.032  24.923  1.00  0.00     0.046 A 
ATOM      7  C   UNL A   1      31.196  23.547  24.283  1.00  0.00     0.197 A 
ATOM      8  C   UNL A   1      31.645  22.701  23.267  1.00  0.00     0.055 A 
ATOM      9  C   UNL A   1      31.138  23.064  25.592  1.00  0.00     0.311 A 
ATOM     10  C   UNL A   1      32.179  21.450  23.587  1.00  0.00     0.018 A 
ATOM     11  C   UNL A   1      31.663  21.810  25.921  1.00  0.00     0.103 A 
BRANCH   7  12
ATOM     12  O   UNL A   1      30.810  24.824  23.991  1.00  0.00    -0.487 OA
BRANCH  12  13
ATOM     13  C   UNL A   1      31.761  25.543  23.187  1.00  0.00     0.230 C 
BRANCH  13  14
ATOM     14  C   UNL A   1      32.587  26.529  24.024  1.00  0.00     0.046 C 
BRANCH  14  15
ATOM     15  C   UNL A   1      34.049  26.124  24.266  1.00  0.00     0.030 C 
BRANCH  15  16
ATOM     16  C   UNL A   1      34.280  25.305  25.504  1.00  0.00    -0.035 C 
ATOM     17  C   UNL A   1      35.062  24.217  25.511  1.00  0.00     0.004 C 
ENDBRANCH  15  16
ENDBRANCH  14  15
ENDBRANCH  13  14
ENDBRANCH  12  13
ENDBRANCH   7  12
BRANCH   9  18
ATOM     18  N   UNL A   1      30.653  23.906  26.677  1.00  0.00     0.066 N 
ATOM     19  O   UNL A   1      29.645  23.508  27.278  1.00  0.00    -0.258 OA
ATOM     20  O   UNL A   1      31.261  24.955  26.920  1.00  0.00    -0.258 OA
ENDBRANCH   9  18
ENDBRANCH   3   6
ENDBRANCH   1   2
BRANCH   1  21
ATOM     21  C   UNL A   1      36.689  20.073  24.721  1.00  0.00     0.042 C 
BRANCH  21  22
ATOM     22  C   UNL A   1      37.849  20.808  25.384  1.00  0.00     0.118 C 
BRANCH  22  23
ATOM     23  N   UNL A   1      38.882  19.900  25.859  1.00  0.00    -0.352 N 
ATOM     24  C   UNL A   1      40.137  20.169  26.347  1.00  0.00     0.251 C 
ATOM     25  H   UNL A   1      38.643  18.945  25.827  1.00  0.00     0.163 HD
ATOM     26  O   UNL A   1      40.927  19.236  26.493  1.00  0.00    -0.269 OA
BRANCH  24  27
ATOM     27  C   UNL A   1      40.552  21.553  26.675  1.00  0.00     0.039 A 
ATOM     28  C   UNL A   1      41.383  21.763  27.780  1.00  0.00     0.014 A 
ATOM     29  C   UNL A   1      40.100  22.648  25.934  1.00  0.00     0.014 A 
ATOM     30  C   UNL A   1      41.805  23.056  28.103  1.00  0.00     0.010 A 
ATOM     31  C   UNL A   1      40.583  23.926  26.208  1.00  0.00     0.010 A 
ATOM     32  C   UNL A   1      41.435  24.148  27.300  1.00  0.00    -0.014 A 
BRANCH  32  33
ATOM     33  C   UNL A   1      41.918  25.524  27.597  1.00  0.00     0.031 A 
ATOM     34  C   UNL A   1      43.292  25.955  27.158  1.00  0.00     0.074 A 
ATOM     35  C   UNL A   1      41.142  26.368  28.308  1.00  0.00     0.049 A 
ATOM     36  N   UNL A   1      43.923  27.079  27.387  1.00  0.00    -0.248 NA
ATOM     37  C   UNL A   1      44.072  24.980  26.381  1.00  0.00     0.031 C 
ATOM     38  C   UNL A   1      39.804  26.057  28.816  1.00  0.00     0.029 A 
ATOM     39  N   UNL A   1      41.366  27.653  28.734  1.00  0.00    -0.354 N 
ATOM     40  C   UNL A   1      45.173  26.943  26.795  1.00  0.00     0.074 A 
ATOM     41  C   UNL A   1      45.234  25.602  26.253  1.00  0.00     0.031 C 
ATOM     42  C   UNL A   1      39.318  27.129  29.461  1.00  0.00     0.029 A 
ATOM     43  C   UNL A   1      40.325  28.186  29.459  1.00  0.00     0.049 A 
ATOM     44  H   UNL A   1      42.194  28.149  28.537  1.00  0.00     0.167 HD
ATOM     45  C   UNL A   1      46.171  27.857  26.693  1.00  0.00     0.034 A 
ATOM     46  C   UNL A   1      40.200  29.383  30.069  1.00  0.00     0.034 A 
ATOM     47  C   UNL A   1      46.092  29.194  27.232  1.00  0.00     0.049 A 
ATOM     48  C   UNL A   1      41.336  30.369  29.974  1.00  0.00     0.074 A 
ATOM     49  C   UNL A   1      47.022  30.215  27.146  1.00  0.00     0.029 A 
ATOM     50  N   UNL A   1      45.024  29.695  27.967  1.00  0.00    -0.354 N 
ATOM     51  N   UNL A   1      42.497  30.239  29.372  1.00  0.00    -0.248 NA
ATOM     52  C   UNL A   1      41.143  31.668  30.631  1.00  0.00     0.031 C 
ATOM     53  C   UNL A   1      46.551  31.303  27.889  1.00  0.00     0.029 A 
ATOM     54  C   UNL A   1      45.288  30.996  28.368  1.00  0.00     0.049 A 
ATOM     55  H   UNL A   1      44.199  29.198  28.174  1.00  0.00     0.167 HD
ATOM     56  C   UNL A   1      43.154  31.455  29.548  1.00  0.00     0.074 A 
ATOM     57  C   UNL A   1      42.255  32.306  30.299  1.00  0.00     0.031 C 
ATOM     58  C   UNL A   1      44.386  31.834  29.123  1.00  0.00     0.034 A 
BRANCH  45  59
ATOM     59  C   UNL A   1      47.441  27.427  25.994  1.00  0.00     0.023 A 
ATOM     60  C   UNL A   1      48.511  26.845  26.697  1.00  0.00     0.031 A 
ATOM     61  C   UNL A   1      47.597  27.623  24.610  1.00  0.00     0.131 A 
ATOM     62  C   UNL A   1      49.712  26.554  26.033  1.00  0.00     0.055 A 
ATOM     63  C   UNL A   1      48.764  27.251  23.939  1.00  0.00     0.041 A 
ATOM     64  F   UNL A   1      46.620  28.194  23.886  1.00  0.00    -0.206 F 
ATOM     65  C   UNL A   1      49.837  26.728  24.653  1.00  0.00     0.022 A 
BRANCH  62  66
ATOM     66  S   UNL A   1      51.160  26.092  27.024  1.00  0.00     0.124 S 
ATOM     67  O   UNL A   1      51.266  27.228  27.937  1.00  0.00    -0.237 OA
ATOM     68  O   UNL A   1      50.743  24.828  27.622  1.00  0.00    -0.237 OA
ATOM     69  O   UNL A   1      52.234  25.993  26.038  1.00  0.00    -0.744 OA
ENDBRANCH  62  66
ENDBRANCH  45  59
BRANCH  46  70
ATOM     70  C   UNL A   1      38.963  29.718  30.834  1.00  0.00     0.023 A 
ATOM     71  C   UNL A   1      37.973  30.546  30.281  1.00  0.00     0.031 A 
ATOM     72  C   UNL A   1      38.773  29.255  32.147  1.00  0.00     0.131 A 
ATOM     73  C   UNL A   1      36.867  30.929  31.055  1.00  0.00     0.055 A 
ATOM     74  C   UNL A   1      37.641  29.588  32.893  1.00  0.00     0.041 A 
ATOM     75  F   UNL A   1      39.687  28.458  32.725  1.00  0.00    -0.206 F 
ATOM     76  C   UNL A   1      36.686  30.443  32.352  1.00  0.00     0.022 A 
BRANCH  73  77
ATOM     77  S   UNL A   1      35.711  32.151  30.374  1.00  0.00     0.124 S 
ATOM     78  O   UNL A   1      35.106  31.407  29.276  1.00  0.00    -0.237 OA
ATOM     79  O   UNL A   1      34.849  32.421  31.519  1.00  0.00    -0.237 OA
ATOM     80  O   UNL A   1      36.580  33.256  29.976  1.00  0.00    -0.744 OA
ENDBRANCH  73  77
ENDBRANCH  46  70
BRANCH  58  81
ATOM     81  C   UNL A   1      44.808  33.254  29.416  1.00  0.00     0.023 A 
ATOM     82  C   UNL A   1      44.549  34.308  28.522  1.00  0.00     0.031 A 
ATOM     83  C   UNL A   1      45.492  33.554  30.608  1.00  0.00     0.131 A 
ATOM     84  C   UNL A   1      45.022  35.599  28.806  1.00  0.00     0.055 A 
ATOM     85  C   UNL A   1      45.902  34.851  30.916  1.00  0.00     0.041 A 
ATOM     86  F   UNL A   1      45.770  32.587  31.499  1.00  0.00    -0.206 F 
ATOM     87  C   UNL A   1      45.681  35.881  30.006  1.00  0.00     0.022 A 
BRANCH  84  88
ATOM     88  S   UNL A   1      44.855  36.887  27.540  1.00  0.00     0.124 S 
ATOM     89  O   UNL A   1      45.514  36.271  26.392  1.00  0.00    -0.237 OA
ATOM     90  O   UNL A   1      43.407  37.038  27.438  1.00  0.00    -0.237 OA
ATOM     91  O   UNL A   1      45.558  38.030  28.119  1.00  0.00    -0.744 OA
ENDBRANCH  84  88
ENDBRANCH  58  81
ENDBRANCH  32  33
ENDBRANCH  24  27
ENDBRANCH  22  23
ENDBRANCH  21  22
ENDBRANCH   1  21
TORSDOF 19
ENDMDL
MODEL 3
REMARK VINA RESULT:     -10.3      1.583      2.012
REMARK SMILES C=CCCCOc1ccc(C(=O)NCCCNC(=O)c2ccc(-c3c4nc(c(-c5cc(S(=O)(=O)[O-])ccc5F)c5ccc([nH]5)c(-c5cc(S(=O)(=O)[O-])ccc5F)c5nc(c(-c6cc(S(=O)(=O)[O-])ccc6F)c6ccc3[nH]6)C=C5)C=C4)cc2)cc1[N+](=O)[O-]
REMARK SMILES IDX 14 1 13 2 11 3 12 4 10 6 7 7 8 8 84 9 9 10 83 11 6 12 5 13
REMARK SMILES IDX 4 14 3 15 2 16 1 17 85 18 86 19 87 20 15 21 16 22 17 23
REMARK SMILES IDX 18 24 19 26 20 27 21 28 82 29 22 30 81 31 23 32 24 33 25 34
REMARK SMILES IDX 75 35 26 36 80 37 74 38 76 39 27 40 79 41 73 42 72 43 28 45
REMARK SMILES IDX 60 46 40 47 59 48 41 49 44 50 58 51 77 52 42 53 43 54 57 56
REMARK SMILES IDX 78 57 45 58 29 59 30 60 38 61 31 62 37 63 39 64 36 65 32 66
REMARK SMILES IDX 33 67 34 68 35 69 61 70 62 71 70 72 63 73 69 74 71 75 68 76
REMARK SMILES IDX 64 77 65 78 66 79 67 80 46 81 47 82 55 83 48 84 54 85 56 86
REMARK SMILES IDX 53 87 49 88 50 89 51 90 52 91
REMARK H PARENT 13 5 17 25 76 44 44 55
REMARK Flexibility Score: inf
ROOT
ATOM      1  C   UNL A   1      35.992  20.409  25.018  1.00  0.00     0.118 C 
ENDROOT
BRANCH   1   2
ATOM      2  N   UNL A   1      35.051  19.296  24.986  1.00  0.00    -0.352 N 
ATOM      3  C   UNL A   1      33.692  19.286  24.794  1.00  0.00     0.251 C 
ATOM      4  O   UNL A   1      33.108  18.219  24.611  1.00  0.00    -0.269 OA
ATOM      5  H   UNL A   1      35.455  18.409  25.124  1.00  0.00     0.163 HD
BRANCH   3   6
ATOM      6  C   UNL A   1      32.919  20.546  24.738  1.00  0.00     0.046 A 
ATOM      7  C   UNL A   1      31.696  23.062  24.585  1.00  0.00     0.197 A 
ATOM      8  C   UNL A   1      32.204  22.463  23.430  1.00  0.00     0.055 A 
ATOM      9  C   UNL A   1      31.669  22.329  25.774  1.00  0.00     0.311 A 
ATOM     10  C   UNL A   1      32.821  21.211  23.508  1.00  0.00     0.018 A 
ATOM     11  C   UNL A   1      32.277  21.072  25.859  1.00  0.00     0.103 A 
BRANCH   7  12
ATOM     12  O   UNL A   1      31.224  24.343  24.542  1.00  0.00    -0.487 OA
BRANCH  12  13
ATOM     13  C   UNL A   1      32.226  25.313  24.192  1.00  0.00     0.230 C 
BRANCH  13  14
ATOM     14  C   UNL A   1      33.408  25.293  25.171  1.00  0.00     0.046 C 
BRANCH  14  15
ATOM     15  C   UNL A   1      34.739  24.796  24.586  1.00  0.00     0.030 C 
BRANCH  15  16
ATOM     16  C   UNL A   1      35.626  24.075  25.561  1.00  0.00    -0.035 C 
ATOM     17  C   UNL A   1      35.139  23.369  26.591  1.00  0.00     0.004 C 
ENDBRANCH  15  16
ENDBRANCH  14  15
ENDBRANCH  13  14
ENDBRANCH  12  13
ENDBRANCH   7  12
BRANCH   9  18
ATOM     18  N   UNL A   1      31.125  22.908  26.995  1.00  0.00     0.066 N 
ATOM     19  O   UNL A   1      31.939  23.437  27.766  1.00  0.00    -0.258 OA
ATOM     20  O   UNL A   1      29.906  22.826  27.189  1.00  0.00    -0.258 OA
ENDBRANCH   9  18
ENDBRANCH   3   6
ENDBRANCH   1   2
BRANCH   1  21
ATOM     21  C   UNL A   1      37.409  19.981  24.644  1.00  0.00     0.042 C 
BRANCH  21  22
ATOM     22  C   UNL A   1      38.482  20.472  25.610  1.00  0.00     0.118 C 
BRANCH  22  23
ATOM     23  N   UNL A   1      39.513  19.474  25.849  1.00  0.00    -0.352 N 
ATOM     24  C   UNL A   1      40.848  19.633  26.126  1.00  0.00     0.251 C 
ATOM     25  H   UNL A   1      39.204  18.540  25.807  1.00  0.00     0.163 HD
ATOM     26  O   UNL A   1      41.583  18.646  26.082  1.00  0.00    -0.269 OA
BRANCH  24  27
ATOM     27  C   UNL A   1      41.411  20.964  26.451  1.00  0.00     0.039 A 
ATOM     28  C   UNL A   1      41.789  21.810  25.403  1.00  0.00     0.014 A 
ATOM     29  C   UNL A   1      41.608  21.372  27.773  1.00  0.00     0.014 A 
ATOM     30  C   UNL A   1      42.308  23.078  25.681  1.00  0.00     0.010 A 
ATOM     31  C   UNL A   1      42.051  22.665  28.048  1.00  0.00     0.010 A 
ATOM     32  C   UNL A   1      42.413  23.532  27.006  1.00  0.00    -0.014 A 
BRANCH  32  33
ATOM     33  C   UNL A   1      42.912  24.899  27.318  1.00  0.00     0.031 A 
ATOM     34  C   UNL A   1      42.001  25.906  27.968  1.00  0.00     0.074 A 
ATOM     35  C   UNL A   1      44.166  25.251  26.967  1.00  0.00     0.049 A 
ATOM     36  N   UNL A   1      42.222  27.166  28.249  1.00  0.00    -0.248 NA
ATOM     37  C   UNL A   1      40.653  25.441  28.326  1.00  0.00     0.031 C 
ATOM     38  C   UNL A   1      45.133  24.374  26.304  1.00  0.00     0.029 A 
ATOM     39  N   UNL A   1      44.840  26.437  27.111  1.00  0.00    -0.354 N 
ATOM     40  C   UNL A   1      41.040  27.646  28.803  1.00  0.00     0.074 A 
ATOM     41  C   UNL A   1      40.087  26.558  28.758  1.00  0.00     0.031 C 
ATOM     42  C   UNL A   1      46.282  25.044  26.122  1.00  0.00     0.029 A 
ATOM     43  C   UNL A   1      46.121  26.411  26.607  1.00  0.00     0.049 A 
ATOM     44  H   UNL A   1      44.446  27.233  27.536  1.00  0.00     0.167 HD
ATOM     45  C   UNL A   1      40.781  28.873  29.320  1.00  0.00     0.034 A 
ATOM     46  C   UNL A   1      47.054  27.382  26.527  1.00  0.00     0.034 A 
ATOM     47  C   UNL A   1      41.746  29.946  29.364  1.00  0.00     0.049 A 
ATOM     48  C   UNL A   1      46.730  28.749  27.075  1.00  0.00     0.074 A 
ATOM     49  C   UNL A   1      41.605  31.212  29.906  1.00  0.00     0.029 A 
ATOM     50  N   UNL A   1      43.030  29.884  28.837  1.00  0.00    -0.354 N 
ATOM     51  N   UNL A   1      45.621  29.174  27.635  1.00  0.00    -0.248 NA
ATOM     52  C   UNL A   1      47.787  29.765  26.990  1.00  0.00     0.031 C 
ATOM     53  C   UNL A   1      42.772  31.936  29.642  1.00  0.00     0.029 A 
ATOM     54  C   UNL A   1      43.678  31.098  29.012  1.00  0.00     0.049 A 
ATOM     55  H   UNL A   1      43.424  29.094  28.402  1.00  0.00     0.167 HD
ATOM     56  C   UNL A   1      45.863  30.496  28.003  1.00  0.00     0.074 A 
ATOM     57  C   UNL A   1      47.226  30.790  27.612  1.00  0.00     0.031 C 
ATOM     58  C   UNL A   1      45.036  31.383  28.612  1.00  0.00     0.034 A 
BRANCH  45  59
ATOM     59  C   UNL A   1      39.388  29.124  29.854  1.00  0.00     0.023 A 
ATOM     60  C   UNL A   1      38.436  29.856  29.121  1.00  0.00     0.031 A 
ATOM     61  C   UNL A   1      39.012  28.646  31.122  1.00  0.00     0.131 A 
ATOM     62  C   UNL A   1      37.190  30.156  29.693  1.00  0.00     0.055 A 
ATOM     63  C   UNL A   1      37.739  28.873  31.649  1.00  0.00     0.041 A 
ATOM     64  F   UNL A   1      39.882  27.958  31.879  1.00  0.00    -0.206 F 
ATOM     65  C   UNL A   1      36.824  29.646  30.941  1.00  0.00     0.022 A 
BRANCH  62  66
ATOM     66  S   UNL A   1      36.115  31.348  28.849  1.00  0.00     0.124 S 
ATOM     67  O   UNL A   1      35.668  30.574  27.692  1.00  0.00    -0.237 OA
ATOM     68  O   UNL A   1      35.101  31.630  29.859  1.00  0.00    -0.237 OA
ATOM     69  O   UNL A   1      37.012  32.458  28.535  1.00  0.00    -0.744 OA
ENDBRANCH  62  66
ENDBRANCH  45  59
BRANCH  46  70
ATOM     70  C   UNL A   1      48.379  27.110  25.897  1.00  0.00     0.023 A 
ATOM     71  C   UNL A   1      49.457  26.632  26.658  1.00  0.00     0.031 A 
ATOM     72  C   UNL A   1      48.601  27.368  24.533  1.00  0.00     0.131 A 
ATOM     73  C   UNL A   1      50.720  26.478  26.065  1.00  0.00     0.055 A 
ATOM     74  C   UNL A   1      49.843  27.155  23.933  1.00  0.00     0.041 A 
ATOM     75  F   UNL A   1      47.604  27.823  23.757  1.00  0.00    -0.206 F 
ATOM     76  C   UNL A   1      50.917  26.721  24.704  1.00  0.00     0.022 A 
BRANCH  73  77
ATOM     77  S   UNL A   1      52.129  26.045  27.123  1.00  0.00     0.124 S 
ATOM     78  O   UNL A   1      52.964  27.235  27.006  1.00  0.00    -0.237 OA
ATOM     79  O   UNL A   1      51.485  25.836  28.415  1.00  0.00    -0.237 OA
ATOM     80  O   UNL A   1      52.668  24.840  26.495  1.00  0.00    -0.744 OA
ENDBRANCH  73  77
ENDBRANCH  46  70
BRANCH  58  81
ATOM     81  C   UNL A   1      45.607  32.742  28.941  1.00  0.00     0.023 A 
ATOM     82  C   UNL A   1      45.338  33.875  28.154  1.00  0.00     0.031 A 
ATOM     83  C   UNL A   1      46.447  32.900  30.059  1.00  0.00     0.131 A 
ATOM     84  C   UNL A   1      45.948  35.101  28.460  1.00  0.00     0.055 A 
ATOM     85  C   UNL A   1      46.999  34.136  30.397  1.00  0.00     0.041 A 
ATOM     86  F   UNL A   1      46.743  31.852  30.846  1.00  0.00    -0.206 F 
ATOM     87  C   UNL A   1      46.762  35.243  29.587  1.00  0.00     0.022 A 
BRANCH  84  88
ATOM     88  S   UNL A   1      45.747  36.487  27.307  1.00  0.00     0.124 S 
ATOM     89  O   UNL A   1      45.466  37.597  28.213  1.00  0.00    -0.237 OA
ATOM     90  O   UNL A   1      47.042  36.525  26.636  1.00  0.00    -0.237 OA
ATOM     91  O   UNL A   1      44.625  36.074  26.466  1.00  0.00    -0.744 OA
ENDBRANCH  84  88
ENDBRANCH  58  81
ENDBRANCH  32  33
ENDBRANCH  24  27
ENDBRANCH  22  23
ENDBRANCH  21  22
ENDBRANCH   1  21
TORSDOF 19
ENDMDL
