MODEL 1
REMARK VINA RESULT:     -10.7      0.000      0.000
REMARK SMILES O=C(NCCCNC(=O)c1cc(-c2ccn(C(F)F)c(=O)c2)ccc1O)c1ccc(-c2c3nc(c(-c4cc(S(=O)(=O)[O-])ccc4F)c4ccc([nH]4)c(-c4cc(S(=O)(=O)[O-])ccc4F)c4nc(c(-c5cc(S(=O)(=O)[O-])ccc5F)c5ccc2[nH]5)C=C4)C=C3)cc1
REMARK SMILES IDX 4 1 3 2 1 3 2 4 27 6 28 7 89 8 29 9 88 10 30 11 31 12 32 13
REMARK SMILES IDX 82 14 33 15 87 16 81 17 83 18 34 19 86 20 80 21 79 22 35 24
REMARK SMILES IDX 67 25 47 26 66 27 48 28 51 29 65 30 84 31 49 32 50 33 64 35
REMARK SMILES IDX 85 36 52 37 36 38 37 39 45 40 38 41 44 42 46 43 43 44 39 45
REMARK SMILES IDX 40 46 41 47 42 48 68 49 69 50 77 51 70 52 76 53 78 54 75 55
REMARK SMILES IDX 71 56 72 57 73 58 74 59 53 60 54 61 62 62 55 63 61 64 63 65
REMARK SMILES IDX 60 66 56 67 57 68 58 69 59 70 5 71 6 72 7 73 8 74 9 76 10 77
REMARK SMILES IDX 11 78 25 79 12 80 24 81 23 82 26 83 13 85 14 86 22 87 15 88
REMARK SMILES IDX 20 89 16 90 21 91 17 92 18 93 19 94
REMARK H PARENT 3 5 83 23 51 34 7 75 26 84
REMARK Flexibility Score: inf
ROOT
ATOM      1  C   UNL A   1      41.622  20.355  27.344  1.00  0.00     0.118 C 
ENDROOT
BRANCH   1   2
ATOM      2  N   UNL A   1      40.414  20.460  26.541  1.00  0.00    -0.352 N 
ATOM      3  O   UNL A   1      38.471  21.310  25.814  1.00  0.00    -0.269 OA
ATOM      4  C   UNL A   1      39.551  21.512  26.364  1.00  0.00     0.251 C 
ATOM      5  H   UNL A   1      40.177  19.643  26.044  1.00  0.00     0.163 HD
BRANCH   4   6
ATOM      6  C   UNL A   1      39.903  22.876  26.821  1.00  0.00     0.039 A 
ATOM      7  C   UNL A   1      39.293  23.972  26.201  1.00  0.00     0.014 A 
ATOM      8  C   UNL A   1      40.888  23.089  27.788  1.00  0.00     0.014 A 
ATOM      9  C   UNL A   1      39.662  25.273  26.559  1.00  0.00     0.010 A 
ATOM     10  C   UNL A   1      41.187  24.381  28.210  1.00  0.00     0.010 A 
ATOM     11  C   UNL A   1      40.611  25.487  27.569  1.00  0.00    -0.014 A 
BRANCH  11  12
ATOM     12  C   UNL A   1      41.103  26.848  27.905  1.00  0.00     0.031 A 
ATOM     13  C   UNL A   1      42.538  27.203  27.615  1.00  0.00     0.074 A 
ATOM     14  C   UNL A   1      40.294  27.741  28.507  1.00  0.00     0.049 A 
ATOM     15  N   UNL A   1      43.204  28.280  27.939  1.00  0.00    -0.248 NA
ATOM     16  C   UNL A   1      43.339  26.203  26.885  1.00  0.00     0.031 C 
ATOM     17  C   UNL A   1      38.893  27.505  28.852  1.00  0.00     0.029 A 
ATOM     18  N   UNL A   1      40.539  29.018  28.956  1.00  0.00    -0.354 N 
ATOM     19  C   UNL A   1      44.500  28.075  27.479  1.00  0.00     0.074 A 
ATOM     20  C   UNL A   1      44.544  26.754  26.899  1.00  0.00     0.031 C 
ATOM     21  C   UNL A   1      38.401  28.599  29.453  1.00  0.00     0.029 A 
ATOM     22  C   UNL A   1      39.464  29.595  29.591  1.00  0.00     0.049 A 
ATOM     23  H   UNL A   1      41.402  29.474  28.835  1.00  0.00     0.167 HD
ATOM     24  C   UNL A   1      45.550  28.926  27.516  1.00  0.00     0.034 A 
ATOM     25  C   UNL A   1      39.350  30.777  30.236  1.00  0.00     0.034 A 
ATOM     26  C   UNL A   1      45.474  30.261  28.049  1.00  0.00     0.049 A 
ATOM     27  C   UNL A   1      40.536  31.710  30.266  1.00  0.00     0.074 A 
ATOM     28  C   UNL A   1      46.466  31.223  28.064  1.00  0.00     0.029 A 
ATOM     29  N   UNL A   1      44.358  30.823  28.647  1.00  0.00    -0.354 N 
ATOM     30  N   UNL A   1      41.734  31.535  29.757  1.00  0.00    -0.248 NA
ATOM     31  C   UNL A   1      40.364  33.005  30.942  1.00  0.00     0.031 C 
ATOM     32  C   UNL A   1      45.979  32.338  28.741  1.00  0.00     0.029 A 
ATOM     33  C   UNL A   1      44.650  32.110  29.065  1.00  0.00     0.049 A 
ATOM     34  H   UNL A   1      43.489  30.375  28.760  1.00  0.00     0.167 HD
ATOM     35  C   UNL A   1      42.443  32.702  30.026  1.00  0.00     0.074 A 
ATOM     36  C   UNL A   1      41.537  33.587  30.722  1.00  0.00     0.031 C 
ATOM     37  C   UNL A   1      43.731  33.006  29.726  1.00  0.00     0.034 A 
BRANCH  24  38
ATOM     38  C   UNL A   1      46.874  28.490  26.944  1.00  0.00     0.023 A 
ATOM     39  C   UNL A   1      47.028  28.387  25.549  1.00  0.00     0.031 A 
ATOM     40  C   UNL A   1      47.904  27.999  27.767  1.00  0.00     0.131 A 
ATOM     41  C   UNL A   1      48.156  27.750  25.020  1.00  0.00     0.055 A 
ATOM     42  C   UNL A   1      49.050  27.413  27.231  1.00  0.00     0.041 A 
ATOM     43  F   UNL A   1      47.803  28.073  29.104  1.00  0.00    -0.206 F 
ATOM     44  C   UNL A   1      49.171  27.268  25.852  1.00  0.00     0.022 A 
BRANCH  41  45
ATOM     45  S   UNL A   1      48.299  27.436  23.239  1.00  0.00     0.124 S 
ATOM     46  O   UNL A   1      48.206  25.978  23.183  1.00  0.00    -0.237 OA
ATOM     47  O   UNL A   1      47.145  28.154  22.710  1.00  0.00    -0.237 OA
ATOM     48  O   UNL A   1      49.604  27.987  22.889  1.00  0.00    -0.744 OA
ENDBRANCH  41  45
ENDBRANCH  24  38
BRANCH  25  49
ATOM     49  C   UNL A   1      38.047  31.133  30.873  1.00  0.00     0.023 A 
ATOM     50  C   UNL A   1      37.034  31.767  30.129  1.00  0.00     0.031 A 
ATOM     51  C   UNL A   1      37.832  30.944  32.248  1.00  0.00     0.131 A 
ATOM     52  C   UNL A   1      35.893  32.259  30.778  1.00  0.00     0.055 A 
ATOM     53  C   UNL A   1      36.656  31.362  32.876  1.00  0.00     0.041 A 
ATOM     54  F   UNL A   1      38.771  30.356  33.006  1.00  0.00    -0.206 F 
ATOM     55  C   UNL A   1      35.689  32.042  32.143  1.00  0.00     0.022 A 
BRANCH  52  56
ATOM     56  S   UNL A   1      34.715  33.326  29.901  1.00  0.00     0.124 S 
ATOM     57  O   UNL A   1      35.600  34.284  29.247  1.00  0.00    -0.237 OA
ATOM     58  O   UNL A   1      34.052  32.370  29.017  1.00  0.00    -0.237 OA
ATOM     59  O   UNL A   1      33.877  33.863  30.968  1.00  0.00    -0.744 OA
ENDBRANCH  52  56
ENDBRANCH  25  49
BRANCH  37  60
ATOM     60  C   UNL A   1      44.283  34.358  30.111  1.00  0.00     0.023 A 
ATOM     61  C   UNL A   1      44.239  35.417  29.181  1.00  0.00     0.031 A 
ATOM     62  C   UNL A   1      45.036  34.535  31.284  1.00  0.00     0.131 A 
ATOM     63  C   UNL A   1      44.992  36.575  29.406  1.00  0.00     0.055 A 
ATOM     64  C   UNL A   1      45.737  35.715  31.532  1.00  0.00     0.041 A 
ATOM     65  F   UNL A   1      45.120  33.551  32.193  1.00  0.00    -0.206 F 
ATOM     66  C   UNL A   1      45.735  36.734  30.580  1.00  0.00     0.022 A 
BRANCH  63  67
ATOM     67  S   UNL A   1      45.133  37.861  28.135  1.00  0.00     0.124 S 
ATOM     68  O   UNL A   1      44.362  37.286  27.035  1.00  0.00    -0.237 OA
ATOM     69  O   UNL A   1      44.518  39.011  28.791  1.00  0.00    -0.237 OA
ATOM     70  O   UNL A   1      46.569  37.967  27.896  1.00  0.00    -0.744 OA
ENDBRANCH  63  67
ENDBRANCH  37  60
ENDBRANCH  11  12
ENDBRANCH   4   6
ENDBRANCH   1   2
BRANCH   1  71
ATOM     71  C   UNL A   1      42.678  19.470  26.698  1.00  0.00     0.042 C 
BRANCH  71  72
ATOM     72  C   UNL A   1      43.825  20.230  26.052  1.00  0.00     0.118 C 
BRANCH  72  73
ATOM     73  N   UNL A   1      43.388  21.155  25.019  1.00  0.00    -0.352 N 
ATOM     74  C   UNL A   1      43.813  22.436  24.771  1.00  0.00     0.255 C 
ATOM     75  H   UNL A   1      42.690  20.815  24.413  1.00  0.00     0.163 HD
ATOM     76  O   UNL A   1      43.287  23.099  23.879  1.00  0.00    -0.269 OA
BRANCH  74  77
ATOM     77  C   UNL A   1      44.853  23.061  25.615  1.00  0.00     0.082 A 
ATOM     78  C   UNL A   1      44.579  23.177  26.987  1.00  0.00     0.026 A 
ATOM     79  C   UNL A   1      46.055  23.562  25.097  1.00  0.00     0.128 A 
ATOM     80  C   UNL A   1      45.527  23.745  27.844  1.00  0.00    -0.017 A 
ATOM     81  C   UNL A   1      47.018  24.092  25.951  1.00  0.00     0.047 A 
ATOM     82  C   UNL A   1      46.755  24.176  27.319  1.00  0.00     0.012 A 
BRANCH  79  83
ATOM     83  O   UNL A   1      46.297  23.545  23.752  1.00  0.00    -0.507 OA
ATOM     84  H   UNL A   1      45.801  24.098  23.179  1.00  0.00     0.293 HD
ENDBRANCH  79  83
BRANCH  80  85
ATOM     85  C   UNL A   1      45.253  23.962  29.275  1.00  0.00    -0.011 A 
ATOM     86  C   UNL A   1      44.341  23.103  30.008  1.00  0.00     0.027 A 
ATOM     87  C   UNL A   1      45.812  25.011  29.905  1.00  0.00     0.080 A 
ATOM     88  C   UNL A   1      44.006  23.383  31.271  1.00  0.00     0.095 A 
ATOM     89  C   UNL A   1      45.461  25.323  31.322  1.00  0.00     0.255 A 
ATOM     90  N   UNL A   1      44.538  24.479  31.920  1.00  0.00    -0.258 N 
ATOM     91  O   UNL A   1      45.981  26.299  31.856  1.00  0.00    -0.269 OA
BRANCH  90  92
ATOM     92  C   UNL A   1      44.120  24.807  33.258  1.00  0.00     0.451 C 
ATOM     93  F   UNL A   1      43.475  25.997  33.303  1.00  0.00    -0.185 F 
ATOM     94  F   UNL A   1      43.292  23.856  33.755  1.00  0.00    -0.185 F 
ENDBRANCH  90  92
ENDBRANCH  80  85
ENDBRANCH  74  77
ENDBRANCH  72  73
ENDBRANCH  71  72
ENDBRANCH   1  71
TORSDOF 16
ENDMDL
MODEL 2
REMARK VINA RESULT:     -10.7      5.986     10.596
REMARK SMILES O=C(NCCCNC(=O)c1cc(-c2ccn(C(F)F)c(=O)c2)ccc1O)c1ccc(-c2c3nc(c(-c4cc(S(=O)(=O)[O-])ccc4F)c4ccc([nH]4)c(-c4cc(S(=O)(=O)[O-])ccc4F)c4nc(c(-c5cc(S(=O)(=O)[O-])ccc5F)c5ccc2[nH]5)C=C4)C=C3)cc1
REMARK SMILES IDX 4 1 3 2 1 3 2 4 27 6 28 7 89 8 29 9 88 10 30 11 31 12 32 13
REMARK SMILES IDX 82 14 33 15 87 16 81 17 83 18 34 19 86 20 80 21 79 22 35 24
REMARK SMILES IDX 67 25 47 26 66 27 48 28 51 29 65 30 84 31 49 32 50 33 64 35
REMARK SMILES IDX 85 36 52 37 36 38 37 39 45 40 38 41 44 42 46 43 43 44 39 45
REMARK SMILES IDX 40 46 41 47 42 48 68 49 69 50 77 51 70 52 76 53 78 54 75 55
REMARK SMILES IDX 71 56 72 57 73 58 74 59 53 60 54 61 62 62 55 63 61 64 63 65
REMARK SMILES IDX 60 66 56 67 57 68 58 69 59 70 5 71 6 72 7 73 8 74 9 76 10 77
REMARK SMILES IDX 11 78 25 79 12 80 24 81 23 82 26 83 13 85 14 86 22 87 15 88
REMARK SMILES IDX 20 89 16 90 21 91 17 92 18 93 19 94
REMARK H PARENT 3 5 83 23 51 34 7 75 26 84
REMARK Flexibility Score: inf
ROOT
ATOM      1  C   UNL A   1      32.150  31.763  26.700  1.00  0.00     0.118 C 
ENDROOT
BRANCH   1   2
ATOM      2  N   UNL A   1      32.218  33.179  27.031  1.00  0.00    -0.352 N 
ATOM      3  O   UNL A   1      32.809  35.020  28.164  1.00  0.00    -0.269 OA
ATOM      4  C   UNL A   1      33.071  33.858  27.862  1.00  0.00     0.251 C 
ATOM      5  H   UNL A   1      31.542  33.739  26.584  1.00  0.00     0.163 HD
BRANCH   4   6
ATOM      6  C   UNL A   1      34.296  33.217  28.394  1.00  0.00     0.039 A 
ATOM      7  C   UNL A   1      34.185  31.976  29.031  1.00  0.00     0.014 A 
ATOM      8  C   UNL A   1      35.534  33.862  28.351  1.00  0.00     0.014 A 
ATOM      9  C   UNL A   1      35.312  31.383  29.610  1.00  0.00     0.010 A 
ATOM     10  C   UNL A   1      36.671  33.231  28.843  1.00  0.00     0.010 A 
ATOM     11  C   UNL A   1      36.565  32.006  29.517  1.00  0.00    -0.014 A 
BRANCH  11  12
ATOM     12  C   UNL A   1      37.763  31.458  30.206  1.00  0.00     0.031 A 
ATOM     13  C   UNL A   1      38.584  30.398  29.520  1.00  0.00     0.074 A 
ATOM     14  C   UNL A   1      38.086  31.865  31.449  1.00  0.00     0.049 A 
ATOM     15  N   UNL A   1      39.584  29.699  29.987  1.00  0.00    -0.248 NA
ATOM     16  C   UNL A   1      38.216  30.061  28.132  1.00  0.00     0.031 C 
ATOM     17  C   UNL A   1      37.356  32.872  32.218  1.00  0.00     0.029 A 
ATOM     18  N   UNL A   1      39.095  31.466  32.292  1.00  0.00    -0.354 N 
ATOM     19  C   UNL A   1      39.944  28.826  28.966  1.00  0.00     0.074 A 
ATOM     20  C   UNL A   1      39.026  29.045  27.873  1.00  0.00     0.031 C 
ATOM     21  C   UNL A   1      37.942  33.016  33.416  1.00  0.00     0.029 A 
ATOM     22  C   UNL A   1      39.054  32.071  33.527  1.00  0.00     0.049 A 
ATOM     23  H   UNL A   1      39.782  30.809  32.037  1.00  0.00     0.167 HD
ATOM     24  C   UNL A   1      40.966  27.941  28.936  1.00  0.00     0.034 A 
ATOM     25  C   UNL A   1      39.806  31.873  34.633  1.00  0.00     0.034 A 
ATOM     26  C   UNL A   1      41.905  27.773  30.013  1.00  0.00     0.049 A 
ATOM     27  C   UNL A   1      40.940  30.878  34.577  1.00  0.00     0.074 A 
ATOM     28  C   UNL A   1      43.017  26.953  30.046  1.00  0.00     0.029 A 
ATOM     29  N   UNL A   1      41.854  28.433  31.231  1.00  0.00    -0.354 N 
ATOM     30  N   UNL A   1      41.317  30.116  33.576  1.00  0.00    -0.248 NA
ATOM     31  C   UNL A   1      41.762  30.717  35.786  1.00  0.00     0.031 C 
ATOM     32  C   UNL A   1      43.593  27.054  31.309  1.00  0.00     0.029 A 
ATOM     33  C   UNL A   1      42.900  28.010  32.035  1.00  0.00     0.049 A 
ATOM     34  H   UNL A   1      41.178  29.100  31.487  1.00  0.00     0.167 HD
ATOM     35  C   UNL A   1      42.431  29.412  34.025  1.00  0.00     0.074 A 
ATOM     36  C   UNL A   1      42.682  29.852  35.379  1.00  0.00     0.031 C 
ATOM     37  C   UNL A   1      43.170  28.481  33.373  1.00  0.00     0.034 A 
BRANCH  24  38
ATOM     38  C   UNL A   1      41.173  27.095  27.706  1.00  0.00     0.023 A 
ATOM     39  C   UNL A   1      40.826  25.732  27.735  1.00  0.00     0.031 A 
ATOM     40  C   UNL A   1      41.879  27.580  26.591  1.00  0.00     0.131 A 
ATOM     41  C   UNL A   1      41.241  24.886  26.700  1.00  0.00     0.055 A 
ATOM     42  C   UNL A   1      42.243  26.743  25.536  1.00  0.00     0.041 A 
ATOM     43  F   UNL A   1      42.234  28.873  26.517  1.00  0.00    -0.206 F 
ATOM     44  C   UNL A   1      41.942  25.385  25.598  1.00  0.00     0.022 A 
BRANCH  41  45
ATOM     45  S   UNL A   1      40.973  23.095  26.794  1.00  0.00     0.124 S 
ATOM     46  O   UNL A   1      41.340  22.809  28.179  1.00  0.00    -0.237 OA
ATOM     47  O   UNL A   1      39.549  22.985  26.491  1.00  0.00    -0.237 OA
ATOM     48  O   UNL A   1      41.878  22.551  25.788  1.00  0.00    -0.744 OA
ENDBRANCH  41  45
ENDBRANCH  24  38
BRANCH  25  49
ATOM     49  C   UNL A   1      39.507  32.665  35.864  1.00  0.00     0.023 A 
ATOM     50  C   UNL A   1      38.700  32.128  36.884  1.00  0.00     0.031 A 
ATOM     51  C   UNL A   1      39.931  33.998  35.994  1.00  0.00     0.131 A 
ATOM     52  C   UNL A   1      38.279  32.942  37.944  1.00  0.00     0.055 A 
ATOM     53  C   UNL A   1      39.576  34.781  37.094  1.00  0.00     0.041 A 
ATOM     54  F   UNL A   1      40.691  34.563  35.042  1.00  0.00    -0.206 F 
ATOM     55  C   UNL A   1      38.728  34.259  38.066  1.00  0.00     0.022 A 
BRANCH  52  56
ATOM     56  S   UNL A   1      37.015  32.363  39.111  1.00  0.00     0.124 S 
ATOM     57  O   UNL A   1      35.780  32.777  38.454  1.00  0.00    -0.237 OA
ATOM     58  O   UNL A   1      37.268  30.924  39.134  1.00  0.00    -0.237 OA
ATOM     59  O   UNL A   1      37.341  33.066  40.348  1.00  0.00    -0.744 OA
ENDBRANCH  52  56
ENDBRANCH  25  49
BRANCH  37  60
ATOM     60  C   UNL A   1      44.357  27.855  34.068  1.00  0.00     0.023 A 
ATOM     61  C   UNL A   1      44.165  26.725  34.889  1.00  0.00     0.031 A 
ATOM     62  C   UNL A   1      45.608  28.493  34.097  1.00  0.00     0.131 A 
ATOM     63  C   UNL A   1      45.182  26.314  35.758  1.00  0.00     0.055 A 
ATOM     64  C   UNL A   1      46.640  28.042  34.921  1.00  0.00     0.041 A 
ATOM     65  F   UNL A   1      45.835  29.581  33.343  1.00  0.00    -0.206 F 
ATOM     66  C   UNL A   1      46.422  26.961  35.772  1.00  0.00     0.022 A 
BRANCH  63  67
ATOM     67  S   UNL A   1      44.895  25.005  36.982  1.00  0.00     0.124 S 
ATOM     68  O   UNL A   1      44.566  23.863  36.132  1.00  0.00    -0.237 OA
ATOM     69  O   UNL A   1      46.186  24.928  37.657  1.00  0.00    -0.237 OA
ATOM     70  O   UNL A   1      43.792  25.514  37.790  1.00  0.00    -0.744 OA
ENDBRANCH  63  67
ENDBRANCH  37  60
ENDBRANCH  11  12
ENDBRANCH   4   6
ENDBRANCH   1   2
BRANCH   1  71
ATOM     71  C   UNL A   1      30.957  31.426  25.819  1.00  0.00     0.042 C 
BRANCH  71  72
ATOM     72  C   UNL A   1      31.113  30.147  25.013  1.00  0.00     0.118 C 
BRANCH  72  73
ATOM     73  N   UNL A   1      30.588  30.256  23.661  1.00  0.00    -0.352 N 
ATOM     74  C   UNL A   1      30.154  29.261  22.821  1.00  0.00     0.255 C 
ATOM     75  H   UNL A   1      30.535  31.170  23.299  1.00  0.00     0.163 HD
ATOM     76  O   UNL A   1      29.789  29.535  21.679  1.00  0.00    -0.269 OA
BRANCH  74  77
ATOM     77  C   UNL A   1      30.187  27.846  23.247  1.00  0.00     0.082 A 
ATOM     78  C   UNL A   1      31.442  27.219  23.283  1.00  0.00     0.026 A 
ATOM     79  C   UNL A   1      29.033  27.122  23.572  1.00  0.00     0.128 A 
ATOM     80  C   UNL A   1      31.546  25.886  23.692  1.00  0.00    -0.017 A 
ATOM     81  C   UNL A   1      29.135  25.807  24.017  1.00  0.00     0.047 A 
ATOM     82  C   UNL A   1      30.388  25.197  24.083  1.00  0.00     0.012 A 
BRANCH  79  83
ATOM     83  O   UNL A   1      27.795  27.688  23.449  1.00  0.00    -0.507 OA
ATOM     84  H   UNL A   1      27.183  27.634  24.158  1.00  0.00     0.293 HD
ENDBRANCH  79  83
BRANCH  80  85
ATOM     85  C   UNL A   1      32.829  25.161  23.669  1.00  0.00    -0.011 A 
ATOM     86  C   UNL A   1      33.188  24.299  22.558  1.00  0.00     0.027 A 
ATOM     87  C   UNL A   1      33.659  25.250  24.723  1.00  0.00     0.080 A 
ATOM     88  C   UNL A   1      34.295  23.552  22.605  1.00  0.00     0.095 A 
ATOM     89  C   UNL A   1      34.909  24.435  24.778  1.00  0.00     0.255 A 
ATOM     90  N   UNL A   1      35.139  23.600  23.696  1.00  0.00    -0.258 N 
ATOM     91  O   UNL A   1      35.633  24.533  25.765  1.00  0.00    -0.269 OA
BRANCH  90  92
ATOM     92  C   UNL A   1      36.293  22.742  23.763  1.00  0.00     0.451 C 
ATOM     93  F   UNL A   1      35.992  21.540  24.311  1.00  0.00    -0.185 F 
ATOM     94  F   UNL A   1      36.812  22.529  22.530  1.00  0.00    -0.185 F 
ENDBRANCH  90  92
ENDBRANCH  80  85
ENDBRANCH  74  77
ENDBRANCH  72  73
ENDBRANCH  71  72
ENDBRANCH   1  71
TORSDOF 16
ENDMDL
MODEL 3
REMARK VINA RESULT:     -10.6      5.891     10.439
REMARK SMILES O=C(NCCCNC(=O)c1cc(-c2ccn(C(F)F)c(=O)c2)ccc1O)c1ccc(-c2c3nc(c(-c4cc(S(=O)(=O)[O-])ccc4F)c4ccc([nH]4)c(-c4cc(S(=O)(=O)[O-])ccc4F)c4nc(c(-c5cc(S(=O)(=O)[O-])ccc5F)c5ccc2[nH]5)C=C4)C=C3)cc1
REMARK SMILES IDX 4 1 3 2 1 3 2 4 27 6 28 7 89 8 29 9 88 10 30 11 31 12 32 13
REMARK SMILES IDX 82 14 33 15 87 16 81 17 83 18 34 19 86 20 80 21 79 22 35 24
REMARK SMILES IDX 67 25 47 26 66 27 48 28 51 29 65 30 84 31 49 32 50 33 64 35
REMARK SMILES IDX 85 36 52 37 36 38 37 39 45 40 38 41 44 42 46 43 43 44 39 45
REMARK SMILES IDX 40 46 41 47 42 48 68 49 69 50 77 51 70 52 76 53 78 54 75 55
REMARK SMILES IDX 71 56 72 57 73 58 74 59 53 60 54 61 62 62 55 63 61 64 63 65
REMARK SMILES IDX 60 66 56 67 57 68 58 69 59 70 5 71 6 72 7 73 8 74 9 76 10 77
REMARK SMILES IDX 11 78 25 79 12 80 24 81 23 82 26 83 13 85 14 86 22 87 15 88
REMARK SMILES IDX 20 89 16 90 21 91 17 92 18 93 19 94
REMARK H PARENT 3 5 83 23 51 34 7 75 26 84
REMARK Flexibility Score: inf
ROOT
ATOM      1  C   UNL A   1      33.014  32.199  27.014  1.00  0.00     0.118 C 
ENDROOT
BRANCH   1   2
ATOM      2  N   UNL A   1      32.696  33.563  27.405  1.00  0.00    -0.352 N 
ATOM      3  O   UNL A   1      32.588  35.374  28.723  1.00  0.00    -0.269 OA
ATOM      4  C   UNL A   1      33.157  34.319  28.453  1.00  0.00     0.251 C 
ATOM      5  H   UNL A   1      32.043  34.017  26.823  1.00  0.00     0.163 HD
BRANCH   4   6
ATOM      6  C   UNL A   1      34.326  33.887  29.254  1.00  0.00     0.039 A 
ATOM      7  C   UNL A   1      35.605  34.287  28.851  1.00  0.00     0.014 A 
ATOM      8  C   UNL A   1      34.183  33.023  30.342  1.00  0.00     0.014 A 
ATOM      9  C   UNL A   1      36.731  33.831  29.543  1.00  0.00     0.010 A 
ATOM     10  C   UNL A   1      35.296  32.645  31.088  1.00  0.00     0.010 A 
ATOM     11  C   UNL A   1      36.584  33.008  30.670  1.00  0.00    -0.014 A 
BRANCH  11  12
ATOM     12  C   UNL A   1      37.757  32.422  31.368  1.00  0.00     0.031 A 
ATOM     13  C   UNL A   1      38.502  31.283  30.722  1.00  0.00     0.074 A 
ATOM     14  C   UNL A   1      38.125  32.866  32.586  1.00  0.00     0.049 A 
ATOM     15  N   UNL A   1      39.466  30.546  31.209  1.00  0.00    -0.248 NA
ATOM     16  C   UNL A   1      38.092  30.903  29.358  1.00  0.00     0.031 C 
ATOM     17  C   UNL A   1      37.470  33.950  33.315  1.00  0.00     0.029 A 
ATOM     18  N   UNL A   1      39.122  32.446  33.433  1.00  0.00    -0.354 N 
ATOM     19  C   UNL A   1      39.756  29.606  30.226  1.00  0.00     0.074 A 
ATOM     20  C   UNL A   1      38.835  29.829  29.136  1.00  0.00     0.031 C 
ATOM     21  C   UNL A   1      38.083  34.115  34.497  1.00  0.00     0.029 A 
ATOM     22  C   UNL A   1      39.138  33.111  34.638  1.00  0.00     0.049 A 
ATOM     23  H   UNL A   1      39.763  31.737  33.201  1.00  0.00     0.167 HD
ATOM     24  C   UNL A   1      40.721  28.660  30.225  1.00  0.00     0.034 A 
ATOM     25  C   UNL A   1      39.894  32.919  35.742  1.00  0.00     0.034 A 
ATOM     26  C   UNL A   1      41.667  28.486  31.297  1.00  0.00     0.049 A 
ATOM     27  C   UNL A   1      40.965  31.856  35.718  1.00  0.00     0.074 A 
ATOM     28  C   UNL A   1      42.728  27.602  31.354  1.00  0.00     0.029 A 
ATOM     29  N   UNL A   1      41.676  29.204  32.482  1.00  0.00    -0.354 N 
ATOM     30  N   UNL A   1      41.279  31.026  34.751  1.00  0.00    -0.248 NA
ATOM     31  C   UNL A   1      41.795  31.702  36.923  1.00  0.00     0.031 C 
ATOM     32  C   UNL A   1      43.329  27.727  32.603  1.00  0.00     0.029 A 
ATOM     33  C   UNL A   1      42.706  28.757  33.291  1.00  0.00     0.049 A 
ATOM     34  H   UNL A   1      41.044  29.922  32.715  1.00  0.00     0.167 HD
ATOM     35  C   UNL A   1      42.356  30.276  35.218  1.00  0.00     0.074 A 
ATOM     36  C   UNL A   1      42.655  30.764  36.545  1.00  0.00     0.031 C 
ATOM     37  C   UNL A   1      43.027  29.272  34.601  1.00  0.00     0.034 A 
BRANCH  24  38
ATOM     38  C   UNL A   1      40.858  27.745  29.035  1.00  0.00     0.023 A 
ATOM     39  C   UNL A   1      41.850  28.003  28.072  1.00  0.00     0.031 A 
ATOM     40  C   UNL A   1      39.901  26.752  28.758  1.00  0.00     0.131 A 
ATOM     41  C   UNL A   1      41.827  27.321  26.850  1.00  0.00     0.055 A 
ATOM     42  C   UNL A   1      39.916  26.038  27.560  1.00  0.00     0.041 A 
ATOM     43  F   UNL A   1      38.933  26.470  29.645  1.00  0.00    -0.206 F 
ATOM     44  C   UNL A   1      40.870  26.336  26.591  1.00  0.00     0.022 A 
BRANCH  41  45
ATOM     45  S   UNL A   1      42.976  27.757  25.516  1.00  0.00     0.124 S 
ATOM     46  O   UNL A   1      42.119  28.536  24.624  1.00  0.00    -0.237 OA
ATOM     47  O   UNL A   1      43.993  28.524  26.230  1.00  0.00    -0.237 OA
ATOM     48  O   UNL A   1      43.409  26.468  24.989  1.00  0.00    -0.744 OA
ENDBRANCH  41  45
ENDBRANCH  24  38
BRANCH  25  49
ATOM     49  C   UNL A   1      39.664  33.784  36.937  1.00  0.00     0.023 A 
ATOM     50  C   UNL A   1      40.490  34.896  37.189  1.00  0.00     0.031 A 
ATOM     51  C   UNL A   1      38.692  33.458  37.897  1.00  0.00     0.131 A 
ATOM     52  C   UNL A   1      40.382  35.588  38.402  1.00  0.00     0.055 A 
ATOM     53  C   UNL A   1      38.532  34.202  39.068  1.00  0.00     0.041 A 
ATOM     54  F   UNL A   1      37.887  32.400  37.713  1.00  0.00    -0.206 F 
ATOM     55  C   UNL A   1      39.394  35.261  39.335  1.00  0.00     0.022 A 
BRANCH  52  56
ATOM     56  S   UNL A   1      41.616  36.834  38.872  1.00  0.00     0.124 S 
ATOM     57  O   UNL A   1      40.777  37.950  39.293  1.00  0.00    -0.237 OA
ATOM     58  O   UNL A   1      42.338  36.147  39.941  1.00  0.00    -0.237 OA
ATOM     59  O   UNL A   1      42.379  37.042  37.646  1.00  0.00    -0.744 OA
ENDBRANCH  52  56
ENDBRANCH  25  49
BRANCH  37  60
ATOM     60  C   UNL A   1      44.185  28.609  35.309  1.00  0.00     0.023 A 
ATOM     61  C   UNL A   1      43.939  27.528  36.181  1.00  0.00     0.031 A 
ATOM     62  C   UNL A   1      45.470  29.174  35.298  1.00  0.00     0.131 A 
ATOM     63  C   UNL A   1      44.943  27.095  37.055  1.00  0.00     0.055 A 
ATOM     64  C   UNL A   1      46.486  28.699  36.129  1.00  0.00     0.041 A 
ATOM     65  F   UNL A   1      45.750  30.214  34.495  1.00  0.00    -0.206 F 
ATOM     66  C   UNL A   1      46.218  27.669  37.028  1.00  0.00     0.022 A 
BRANCH  63  67
ATOM     67  S   UNL A   1      44.597  25.858  38.337  1.00  0.00     0.124 S 
ATOM     68  O   UNL A   1      43.586  25.025  37.690  1.00  0.00    -0.237 OA
ATOM     69  O   UNL A   1      45.901  25.228  38.515  1.00  0.00    -0.237 OA
ATOM     70  O   UNL A   1      44.120  26.646  39.468  1.00  0.00    -0.744 OA
ENDBRANCH  63  67
ENDBRANCH  37  60
ENDBRANCH  11  12
ENDBRANCH   4   6
ENDBRANCH   1   2
BRANCH   1  71
ATOM     71  C   UNL A   1      31.782  31.310  26.940  1.00  0.00     0.042 C 
BRANCH  71  72
ATOM     72  C   UNL A   1      32.055  29.836  27.188  1.00  0.00     0.118 C 
BRANCH  72  73
ATOM     73  N   UNL A   1      33.438  29.562  27.543  1.00  0.00    -0.352 N 
ATOM     74  C   UNL A   1      34.325  28.696  26.954  1.00  0.00     0.255 C 
ATOM     75  H   UNL A   1      33.786  30.068  28.313  1.00  0.00     0.163 HD
ATOM     76  O   UNL A   1      35.451  28.552  27.428  1.00  0.00    -0.269 OA
BRANCH  74  77
ATOM     77  C   UNL A   1      33.921  27.876  25.793  1.00  0.00     0.082 A 
ATOM     78  C   UNL A   1      33.949  26.482  25.956  1.00  0.00     0.026 A 
ATOM     79  C   UNL A   1      33.556  28.430  24.559  1.00  0.00     0.128 A 
ATOM     80  C   UNL A   1      33.564  25.648  24.902  1.00  0.00    -0.017 A 
ATOM     81  C   UNL A   1      33.134  27.605  23.520  1.00  0.00     0.047 A 
ATOM     82  C   UNL A   1      33.133  26.221  23.696  1.00  0.00     0.012 A 
BRANCH  79  83
ATOM     83  O   UNL A   1      33.617  29.780  24.354  1.00  0.00    -0.507 OA
ATOM     84  H   UNL A   1      34.041  30.331  24.983  1.00  0.00     0.293 HD
ENDBRANCH  79  83
BRANCH  80  85
ATOM     85  C   UNL A   1      33.653  24.180  24.996  1.00  0.00    -0.011 A 
ATOM     86  C   UNL A   1      33.552  23.340  23.817  1.00  0.00     0.027 A 
ATOM     87  C   UNL A   1      33.772  23.600  26.203  1.00  0.00     0.080 A 
ATOM     88  C   UNL A   1      33.510  22.009  23.928  1.00  0.00     0.095 A 
ATOM     89  C   UNL A   1      33.748  22.113  26.340  1.00  0.00     0.255 A 
ATOM     90  N   UNL A   1      33.590  21.397  25.163  1.00  0.00    -0.258 N 
ATOM     91  O   UNL A   1      33.843  21.623  27.461  1.00  0.00    -0.269 OA
BRANCH  90  92
ATOM     92  C   UNL A   1      33.479  19.967  25.276  1.00  0.00     0.451 C 
ATOM     93  F   UNL A   1      32.222  19.540  25.005  1.00  0.00    -0.185 F 
ATOM     94  F   UNL A   1      34.331  19.345  24.426  1.00  0.00    -0.185 F 
ENDBRANCH  90  92
ENDBRANCH  80  85
ENDBRANCH  74  77
ENDBRANCH  72  73
ENDBRANCH  71  72
ENDBRANCH   1  71
TORSDOF 16
ENDMDL
