MODEL 1
REMARK VINA RESULT:     -11.8      0.000      0.000
REMARK SMILES CC[N@@H+]1CCO[C@H](c2nc(C)c(C(=O)NCCCNC(=O)c3ccc(-c4c5nc(c(-c6cc(S(=O)(=O)[O-])ccc6F)c6ccc([nH]6)c(-c6cc(S(=O)(=O)[O-])ccc6F)c6nc(c(-c7cc(S(=O)(=O)[O-])ccc7F)c7ccc4[nH]7)C=C6)C=C5)cc3)s2)C1
REMARK SMILES IDX 17 1 16 2 15 3 13 4 14 5 12 7 8 8 9 9 85 10 10 11 11 12 7 13
REMARK SMILES IDX 3 14 4 15 86 16 5 18 6 19 2 20 1 21 18 22 19 23 20 24 21 26
REMARK SMILES IDX 22 27 23 28 84 29 24 30 83 31 25 32 26 33 27 34 77 35 28 36
REMARK SMILES IDX 82 37 76 38 78 39 29 40 81 41 75 42 74 43 30 45 62 46 42 47
REMARK SMILES IDX 61 48 43 49 46 50 60 51 79 52 44 53 45 54 59 56 80 57 47 58
REMARK SMILES IDX 31 59 32 60 40 61 33 62 39 63 41 64 38 65 34 66 35 67 36 68
REMARK SMILES IDX 37 69 63 70 64 71 72 72 65 73 71 74 73 75 70 76 66 77 67 78
REMARK SMILES IDX 68 79 69 80 48 81 49 82 57 83 50 84 56 85 58 86 55 87 51 88
REMARK SMILES IDX 52 89 53 90 54 91
REMARK H PARENT 15 6 3 17 19 25 78 44 46 55
REMARK Flexibility Score: inf
ROOT
ATOM      1  C   UNL A   1      31.560  32.000  26.503  1.00  0.00     0.042 C 
ENDROOT
BRANCH   1   2
ATOM      2  C   UNL A   1      31.771  30.579  25.994  1.00  0.00     0.118 C 
BRANCH   2   3
ATOM      3  N   UNL A   1      30.880  30.305  24.897  1.00  0.00    -0.351 N 
ATOM      4  C   UNL A   1      30.804  29.291  23.981  1.00  0.00     0.263 C 
ATOM      5  O   UNL A   1      29.947  29.508  23.113  1.00  0.00    -0.268 OA
ATOM      6  H   UNL A   1      30.181  30.989  24.781  1.00  0.00     0.163 HD
BRANCH   4   7
ATOM      7  C   UNL A   1      31.546  28.038  24.048  1.00  0.00     0.115 A 
ATOM      8  C   UNL A   1      32.199  25.978  25.186  1.00  0.00     0.128 A 
ATOM      9  N   UNL A   1      33.126  26.341  24.330  1.00  0.00    -0.243 NA
ATOM     10  S   UNL A   1      30.707  26.763  24.912  1.00  0.00    -0.110 S 
ATOM     11  C   UNL A   1      32.739  27.466  23.606  1.00  0.00     0.062 A 
ATOM     12  C   UNL A   1      33.728  27.846  22.568  1.00  0.00     0.068 C 
BRANCH   8  13
ATOM     13  C   UNL A   1      32.379  24.929  26.260  1.00  0.00     0.232 C 
ATOM     14  N   UNL A   1      33.436  22.797  25.165  1.00  0.00    -0.331 N 
ATOM     15  C   UNL A   1      32.099  22.205  25.365  1.00  0.00     0.291 C 
ATOM     16  C   UNL A   1      33.584  23.953  26.091  1.00  0.00     0.302 C 
ATOM     17  H   UNL A   1      34.164  22.120  25.395  1.00  0.00     0.348 HD
ATOM     18  C   UNL A   1      30.963  23.232  25.353  1.00  0.00     0.222 C 
ATOM     19  O   UNL A   1      31.142  24.188  26.405  1.00  0.00    -0.359 OA
BRANCH  14  20
ATOM     20  C   UNL A   1      33.678  23.120  23.753  1.00  0.00     0.258 C 
ATOM     21  C   UNL A   1      35.143  23.457  23.491  1.00  0.00     0.071 C 
ENDBRANCH  14  20
ENDBRANCH   8  13
ENDBRANCH   4   7
ENDBRANCH   2   3
ENDBRANCH   1   2
BRANCH   1  22
ATOM     22  C   UNL A   1      32.721  32.499  27.351  1.00  0.00     0.118 C 
BRANCH  22  23
ATOM     23  N   UNL A   1      32.588  33.924  27.627  1.00  0.00    -0.352 N 
ATOM     24  C   UNL A   1      33.153  34.674  28.630  1.00  0.00     0.251 C 
ATOM     25  H   UNL A   1      32.008  34.420  27.005  1.00  0.00     0.163 HD
ATOM     26  O   UNL A   1      32.676  35.772  28.897  1.00  0.00    -0.269 OA
BRANCH  24  27
ATOM     27  C   UNL A   1      34.317  34.153  29.383  1.00  0.00     0.039 A 
ATOM     28  C   UNL A   1      34.103  33.305  30.472  1.00  0.00     0.014 A 
ATOM     29  C   UNL A   1      35.617  34.524  29.031  1.00  0.00     0.014 A 
ATOM     30  C   UNL A   1      35.196  32.784  31.169  1.00  0.00     0.010 A 
ATOM     31  C   UNL A   1      36.703  33.934  29.666  1.00  0.00     0.010 A 
ATOM     32  C   UNL A   1      36.505  33.065  30.748  1.00  0.00    -0.014 A 
BRANCH  32  33
ATOM     33  C   UNL A   1      37.690  32.485  31.434  1.00  0.00     0.031 A 
ATOM     34  C   UNL A   1      38.433  31.340  30.797  1.00  0.00     0.074 A 
ATOM     35  C   UNL A   1      38.041  32.930  32.655  1.00  0.00     0.049 A 
ATOM     36  N   UNL A   1      39.402  30.609  31.283  1.00  0.00    -0.248 NA
ATOM     37  C   UNL A   1      38.002  30.944  29.448  1.00  0.00     0.031 C 
ATOM     38  C   UNL A   1      37.375  34.014  33.383  1.00  0.00     0.029 A 
ATOM     39  N   UNL A   1      39.034  32.521  33.509  1.00  0.00    -0.354 N 
ATOM     40  C   UNL A   1      39.683  29.657  30.309  1.00  0.00     0.074 A 
ATOM     41  C   UNL A   1      38.737  29.865  29.234  1.00  0.00     0.031 C 
ATOM     42  C   UNL A   1      37.991  34.196  34.562  1.00  0.00     0.029 A 
ATOM     43  C   UNL A   1      39.056  33.208  34.702  1.00  0.00     0.049 A 
ATOM     44  H   UNL A   1      39.670  31.803  33.290  1.00  0.00     0.167 HD
ATOM     45  C   UNL A   1      40.656  28.711  30.303  1.00  0.00     0.034 A 
ATOM     46  C   UNL A   1      39.832  33.045  35.793  1.00  0.00     0.034 A 
ATOM     47  C   UNL A   1      41.597  28.530  31.380  1.00  0.00     0.049 A 
ATOM     48  C   UNL A   1      40.882  31.962  35.779  1.00  0.00     0.074 A 
ATOM     49  C   UNL A   1      42.655  27.642  31.461  1.00  0.00     0.029 A 
ATOM     50  N   UNL A   1      41.589  29.246  32.571  1.00  0.00    -0.354 N 
ATOM     51  N   UNL A   1      41.164  31.096  34.832  1.00  0.00    -0.248 NA
ATOM     52  C   UNL A   1      41.723  31.838  36.975  1.00  0.00     0.031 C 
ATOM     53  C   UNL A   1      43.238  27.768  32.726  1.00  0.00     0.029 A 
ATOM     54  C   UNL A   1      42.602  28.796  33.405  1.00  0.00     0.049 A 
ATOM     55  H   UNL A   1      40.957  29.968  32.792  1.00  0.00     0.167 HD
ATOM     56  C   UNL A   1      42.240  30.351  35.307  1.00  0.00     0.074 A 
ATOM     57  C   UNL A   1      42.561  30.876  36.617  1.00  0.00     0.031 C 
ATOM     58  C   UNL A   1      42.907  29.329  34.712  1.00  0.00     0.034 A 
BRANCH  45  59
ATOM     59  C   UNL A   1      40.726  27.789  29.108  1.00  0.00     0.023 A 
ATOM     60  C   UNL A   1      41.669  27.979  28.081  1.00  0.00     0.031 A 
ATOM     61  C   UNL A   1      39.822  26.719  28.978  1.00  0.00     0.131 A 
ATOM     62  C   UNL A   1      41.635  27.166  26.939  1.00  0.00     0.055 A 
ATOM     63  C   UNL A   1      39.852  25.858  27.879  1.00  0.00     0.041 A 
ATOM     64  F   UNL A   1      38.884  26.500  29.913  1.00  0.00    -0.206 F 
ATOM     65  C   UNL A   1      40.750  26.089  26.842  1.00  0.00     0.022 A 
BRANCH  62  66
ATOM     66  S   UNL A   1      42.658  27.632  25.515  1.00  0.00     0.124 S 
ATOM     67  O   UNL A   1      41.948  28.808  25.017  1.00  0.00    -0.237 OA
ATOM     68  O   UNL A   1      43.956  27.882  26.128  1.00  0.00    -0.237 OA
ATOM     69  O   UNL A   1      42.591  26.459  24.645  1.00  0.00    -0.744 OA
ENDBRANCH  62  66
ENDBRANCH  45  59
BRANCH  46  70
ATOM     70  C   UNL A   1      39.641  33.909  36.993  1.00  0.00     0.023 A 
ATOM     71  C   UNL A   1      39.035  33.408  38.155  1.00  0.00     0.031 A 
ATOM     72  C   UNL A   1      40.021  35.264  36.981  1.00  0.00     0.131 A 
ATOM     73  C   UNL A   1      38.780  34.265  39.238  1.00  0.00     0.055 A 
ATOM     74  C   UNL A   1      39.820  36.097  38.084  1.00  0.00     0.041 A 
ATOM     75  F   UNL A   1      40.608  35.796  35.898  1.00  0.00    -0.206 F 
ATOM     76  C   UNL A   1      39.182  35.602  39.216  1.00  0.00     0.022 A 
BRANCH  73  77
ATOM     77  S   UNL A   1      37.824  33.627  40.641  1.00  0.00     0.124 S 
ATOM     78  O   UNL A   1      37.575  34.843  41.407  1.00  0.00    -0.237 OA
ATOM     79  O   UNL A   1      36.667  33.038  39.976  1.00  0.00    -0.237 OA
ATOM     80  O   UNL A   1      38.735  32.670  41.266  1.00  0.00    -0.744 OA
ENDBRANCH  73  77
ENDBRANCH  46  70
BRANCH  58  81
ATOM     81  C   UNL A   1      44.088  28.751  35.453  1.00  0.00     0.023 A 
ATOM     82  C   UNL A   1      43.949  27.686  36.359  1.00  0.00     0.031 A 
ATOM     83  C   UNL A   1      45.375  29.277  35.241  1.00  0.00     0.131 A 
ATOM     84  C   UNL A   1      45.071  27.212  37.056  1.00  0.00     0.055 A 
ATOM     85  C   UNL A   1      46.496  28.759  35.889  1.00  0.00     0.041 A 
ATOM     86  F   UNL A   1      45.565  30.297  34.389  1.00  0.00    -0.206 F 
ATOM     87  C   UNL A   1      46.346  27.729  36.811  1.00  0.00     0.022 A 
BRANCH  84  88
ATOM     88  S   UNL A   1      44.829  25.968  38.353  1.00  0.00     0.124 S 
ATOM     89  O   UNL A   1      46.202  25.654  38.733  1.00  0.00    -0.237 OA
ATOM     90  O   UNL A   1      44.045  26.698  39.344  1.00  0.00    -0.237 OA
ATOM     91  O   UNL A   1      44.113  24.893  37.667  1.00  0.00    -0.744 OA
ENDBRANCH  84  88
ENDBRANCH  58  81
ENDBRANCH  32  33
ENDBRANCH  24  27
ENDBRANCH  22  23
ENDBRANCH   1  22
TORSDOF 15
ENDMDL
MODEL 2
REMARK VINA RESULT:     -11.6      5.899     11.905
REMARK SMILES CC[N@@H+]1CCO[C@H](c2nc(C)c(C(=O)NCCCNC(=O)c3ccc(-c4c5nc(c(-c6cc(S(=O)(=O)[O-])ccc6F)c6ccc([nH]6)c(-c6cc(S(=O)(=O)[O-])ccc6F)c6nc(c(-c7cc(S(=O)(=O)[O-])ccc7F)c7ccc4[nH]7)C=C6)C=C5)cc3)s2)C1
REMARK SMILES IDX 17 1 16 2 15 3 13 4 14 5 12 7 8 8 9 9 85 10 10 11 11 12 7 13
REMARK SMILES IDX 3 14 4 15 86 16 5 18 6 19 2 20 1 21 18 22 19 23 20 24 21 26
REMARK SMILES IDX 22 27 23 28 84 29 24 30 83 31 25 32 26 33 27 34 77 35 28 36
REMARK SMILES IDX 82 37 76 38 78 39 29 40 81 41 75 42 74 43 30 45 62 46 42 47
REMARK SMILES IDX 61 48 43 49 46 50 60 51 79 52 44 53 45 54 59 56 80 57 47 58
REMARK SMILES IDX 31 59 32 60 40 61 33 62 39 63 41 64 38 65 34 66 35 67 36 68
REMARK SMILES IDX 37 69 63 70 64 71 72 72 65 73 71 74 73 75 70 76 66 77 67 78
REMARK SMILES IDX 68 79 69 80 48 81 49 82 57 83 50 84 56 85 58 86 55 87 51 88
REMARK SMILES IDX 52 89 53 90 54 91
REMARK H PARENT 15 6 3 17 19 25 78 44 46 55
REMARK Flexibility Score: inf
ROOT
ATOM      1  C   UNL A   1      37.941  19.895  25.031  1.00  0.00     0.042 C 
ENDROOT
BRANCH   1   2
ATOM      2  C   UNL A   1      36.747  20.841  25.080  1.00  0.00     0.118 C 
BRANCH   2   3
ATOM      3  N   UNL A   1      35.517  20.093  25.047  1.00  0.00    -0.351 N 
ATOM      4  C   UNL A   1      34.202  20.443  25.195  1.00  0.00     0.263 C 
ATOM      5  O   UNL A   1      33.456  19.455  25.220  1.00  0.00    -0.268 OA
ATOM      6  H   UNL A   1      35.649  19.131  24.882  1.00  0.00     0.163 HD
BRANCH   4   7
ATOM      7  C   UNL A   1      33.691  21.809  25.211  1.00  0.00     0.115 A 
ATOM      8  C   UNL A   1      33.641  24.101  24.371  1.00  0.00     0.128 A 
ATOM      9  N   UNL A   1      33.231  24.062  25.619  1.00  0.00    -0.243 NA
ATOM     10  S   UNL A   1      33.636  22.564  23.629  1.00  0.00    -0.110 S 
ATOM     11  C   UNL A   1      33.169  22.754  26.093  1.00  0.00     0.062 A 
ATOM     12  C   UNL A   1      32.624  22.671  27.471  1.00  0.00     0.068 C 
BRANCH   8  13
ATOM     13  C   UNL A   1      34.011  25.362  23.624  1.00  0.00     0.232 C 
ATOM     14  N   UNL A   1      31.919  26.939  23.574  1.00  0.00    -0.331 N 
ATOM     15  C   UNL A   1      31.860  26.580  22.143  1.00  0.00     0.291 C 
ATOM     16  C   UNL A   1      33.298  26.676  24.070  1.00  0.00     0.302 C 
ATOM     17  H   UNL A   1      31.728  27.933  23.701  1.00  0.00     0.348 HD
ATOM     18  C   UNL A   1      32.442  25.198  21.831  1.00  0.00     0.222 C 
ATOM     19  O   UNL A   1      33.823  25.139  22.205  1.00  0.00    -0.359 OA
BRANCH  14  20
ATOM     20  C   UNL A   1      30.863  26.268  24.343  1.00  0.00     0.258 C 
ATOM     21  C   UNL A   1      29.475  26.770  23.959  1.00  0.00     0.071 C 
ENDBRANCH  14  20
ENDBRANCH   8  13
ENDBRANCH   4   7
ENDBRANCH   2   3
ENDBRANCH   1   2
BRANCH   1  22
ATOM     22  C   UNL A   1      39.158  20.446  25.760  1.00  0.00     0.118 C 
BRANCH  22  23
ATOM     23  N   UNL A   1      40.148  19.399  25.982  1.00  0.00    -0.352 N 
ATOM     24  C   UNL A   1      41.511  19.504  26.116  1.00  0.00     0.251 C 
ATOM     25  H   UNL A   1      39.787  18.486  26.044  1.00  0.00     0.163 HD
ATOM     26  O   UNL A   1      42.206  18.503  25.970  1.00  0.00    -0.269 OA
BRANCH  24  27
ATOM     27  C   UNL A   1      42.131  20.814  26.422  1.00  0.00     0.039 A 
ATOM     28  C   UNL A   1      42.467  21.673  25.373  1.00  0.00     0.014 A 
ATOM     29  C   UNL A   1      42.406  21.181  27.741  1.00  0.00     0.014 A 
ATOM     30  C   UNL A   1      43.023  22.924  25.654  1.00  0.00     0.010 A 
ATOM     31  C   UNL A   1      42.872  22.460  28.024  1.00  0.00     0.010 A 
ATOM     32  C   UNL A   1      43.195  23.342  26.983  1.00  0.00    -0.014 A 
BRANCH  32  33
ATOM     33  C   UNL A   1      43.734  24.686  27.318  1.00  0.00     0.031 A 
ATOM     34  C   UNL A   1      42.805  25.753  27.834  1.00  0.00     0.074 A 
ATOM     35  C   UNL A   1      45.030  24.965  27.082  1.00  0.00     0.049 A 
ATOM     36  N   UNL A   1      43.043  27.020  28.059  1.00  0.00    -0.248 NA
ATOM     37  C   UNL A   1      41.416  25.348  28.095  1.00  0.00     0.031 C 
ATOM     38  C   UNL A   1      46.016  24.019  26.555  1.00  0.00     0.029 A 
ATOM     39  N   UNL A   1      45.740  26.129  27.238  1.00  0.00    -0.354 N 
ATOM     40  C   UNL A   1      41.831  27.565  28.470  1.00  0.00     0.074 A 
ATOM     41  C   UNL A   1      40.849  26.504  28.399  1.00  0.00     0.031 C 
ATOM     42  C   UNL A   1      47.206  24.633  26.452  1.00  0.00     0.029 A 
ATOM     43  C   UNL A   1      47.058  26.029  26.849  1.00  0.00     0.049 A 
ATOM     44  H   UNL A   1      45.346  26.957  27.594  1.00  0.00     0.167 HD
ATOM     45  C   UNL A   1      41.568  28.827  28.890  1.00  0.00     0.034 A 
ATOM     46  C   UNL A   1      48.029  26.963  26.796  1.00  0.00     0.034 A 
ATOM     47  C   UNL A   1      42.566  29.866  28.965  1.00  0.00     0.049 A 
ATOM     48  C   UNL A   1      47.704  28.371  27.232  1.00  0.00     0.074 A 
ATOM     49  C   UNL A   1      42.427  31.164  29.423  1.00  0.00     0.029 A 
ATOM     50  N   UNL A   1      43.889  29.727  28.564  1.00  0.00    -0.354 N 
ATOM     51  N   UNL A   1      46.563  28.861  27.659  1.00  0.00    -0.248 NA
ATOM     52  C   UNL A   1      48.798  29.348  27.186  1.00  0.00     0.031 C 
ATOM     53  C   UNL A   1      43.641  31.830  29.229  1.00  0.00     0.029 A 
ATOM     54  C   UNL A   1      44.567  30.925  28.733  1.00  0.00     0.049 A 
ATOM     55  H   UNL A   1      44.289  28.899  28.212  1.00  0.00     0.167 HD
ATOM     56  C   UNL A   1      46.814  30.195  27.967  1.00  0.00     0.074 A 
ATOM     57  C   UNL A   1      48.215  30.428  27.687  1.00  0.00     0.031 C 
ATOM     58  C   UNL A   1      45.965  31.141  28.445  1.00  0.00     0.034 A 
BRANCH  45  59
ATOM     59  C   UNL A   1      40.143  29.155  29.269  1.00  0.00     0.023 A 
ATOM     60  C   UNL A   1      39.729  29.212  30.612  1.00  0.00     0.031 A 
ATOM     61  C   UNL A   1      39.175  29.389  28.275  1.00  0.00     0.131 A 
ATOM     62  C   UNL A   1      38.376  29.415  30.921  1.00  0.00     0.055 A 
ATOM     63  C   UNL A   1      37.847  29.680  28.592  1.00  0.00     0.041 A 
ATOM     64  F   UNL A   1      39.502  29.326  26.975  1.00  0.00    -0.206 F 
ATOM     65  C   UNL A   1      37.436  29.677  29.922  1.00  0.00     0.022 A 
BRANCH  62  66
ATOM     66  S   UNL A   1      37.836  29.179  32.637  1.00  0.00     0.124 S 
ATOM     67  O   UNL A   1      38.905  29.847  33.376  1.00  0.00    -0.237 OA
ATOM     68  O   UNL A   1      36.537  29.842  32.653  1.00  0.00    -0.237 OA
ATOM     69  O   UNL A   1      37.799  27.726  32.789  1.00  0.00    -0.744 OA
ENDBRANCH  62  66
ENDBRANCH  45  59
BRANCH  46  70
ATOM     70  C   UNL A   1      49.391  26.612  26.302  1.00  0.00     0.023 A 
ATOM     71  C   UNL A   1      49.863  27.103  25.075  1.00  0.00     0.031 A 
ATOM     72  C   UNL A   1      50.226  25.742  27.027  1.00  0.00     0.131 A 
ATOM     73  C   UNL A   1      51.110  26.683  24.585  1.00  0.00     0.055 A 
ATOM     74  C   UNL A   1      51.491  25.375  26.564  1.00  0.00     0.041 A 
ATOM     75  F   UNL A   1      49.826  25.244  28.208  1.00  0.00    -0.206 F 
ATOM     76  C   UNL A   1      51.933  25.834  25.328  1.00  0.00     0.022 A 
BRANCH  73  77
ATOM     77  S   UNL A   1      51.598  27.188  22.913  1.00  0.00     0.124 S 
ATOM     78  O   UNL A   1      50.424  26.810  22.135  1.00  0.00    -0.237 OA
ATOM     79  O   UNL A   1      51.823  28.619  23.082  1.00  0.00    -0.237 OA
ATOM     80  O   UNL A   1      52.800  26.396  22.656  1.00  0.00    -0.744 OA
ENDBRANCH  73  77
ENDBRANCH  46  70
BRANCH  58  81
ATOM     81  C   UNL A   1      46.547  32.501  28.747  1.00  0.00     0.023 A 
ATOM     82  C   UNL A   1      46.560  33.533  27.795  1.00  0.00     0.031 A 
ATOM     83  C   UNL A   1      47.093  32.763  30.017  1.00  0.00     0.131 A 
ATOM     84  C   UNL A   1      47.152  34.766  28.110  1.00  0.00     0.055 A 
ATOM     85  C   UNL A   1      47.622  34.012  30.345  1.00  0.00     0.041 A 
ATOM     86  F   UNL A   1      47.110  31.812  30.964  1.00  0.00    -0.206 F 
ATOM     87  C   UNL A   1      47.664  35.018  29.386  1.00  0.00     0.022 A 
BRANCH  84  88
ATOM     88  S   UNL A   1      47.321  36.011  26.802  1.00  0.00     0.124 S 
ATOM     89  O   UNL A   1      46.288  35.602  25.858  1.00  0.00    -0.237 OA
ATOM     90  O   UNL A   1      47.070  37.256  27.521  1.00  0.00    -0.237 OA
ATOM     91  O   UNL A   1      48.696  35.833  26.336  1.00  0.00    -0.744 OA
ENDBRANCH  84  88
ENDBRANCH  58  81
ENDBRANCH  32  33
ENDBRANCH  24  27
ENDBRANCH  22  23
ENDBRANCH   1  22
TORSDOF 15
ENDMDL
MODEL 3
REMARK VINA RESULT:     -11.5      1.367      1.619
REMARK SMILES CC[N@@H+]1CCO[C@H](c2nc(C)c(C(=O)NCCCNC(=O)c3ccc(-c4c5nc(c(-c6cc(S(=O)(=O)[O-])ccc6F)c6ccc([nH]6)c(-c6cc(S(=O)(=O)[O-])ccc6F)c6nc(c(-c7cc(S(=O)(=O)[O-])ccc7F)c7ccc4[nH]7)C=C6)C=C5)cc3)s2)C1
REMARK SMILES IDX 17 1 16 2 15 3 13 4 14 5 12 7 8 8 9 9 85 10 10 11 11 12 7 13
REMARK SMILES IDX 3 14 4 15 86 16 5 18 6 19 2 20 1 21 18 22 19 23 20 24 21 26
REMARK SMILES IDX 22 27 23 28 84 29 24 30 83 31 25 32 26 33 27 34 77 35 28 36
REMARK SMILES IDX 82 37 76 38 78 39 29 40 81 41 75 42 74 43 30 45 62 46 42 47
REMARK SMILES IDX 61 48 43 49 46 50 60 51 79 52 44 53 45 54 59 56 80 57 47 58
REMARK SMILES IDX 31 59 32 60 40 61 33 62 39 63 41 64 38 65 34 66 35 67 36 68
REMARK SMILES IDX 37 69 63 70 64 71 72 72 65 73 71 74 73 75 70 76 66 77 67 78
REMARK SMILES IDX 68 79 69 80 48 81 49 82 57 83 50 84 56 85 58 86 55 87 51 88
REMARK SMILES IDX 52 89 53 90 54 91
REMARK H PARENT 15 6 3 17 19 25 78 44 46 55
REMARK Flexibility Score: inf
ROOT
ATOM      1  C   UNL A   1      31.642  32.042  26.547  1.00  0.00     0.042 C 
ENDROOT
BRANCH   1   2
ATOM      2  C   UNL A   1      31.787  30.582  26.132  1.00  0.00     0.118 C 
BRANCH   2   3
ATOM      3  N   UNL A   1      30.955  30.303  24.991  1.00  0.00    -0.351 N 
ATOM      4  C   UNL A   1      30.966  29.319  24.040  1.00  0.00     0.263 C 
ATOM      5  O   UNL A   1      30.134  29.524  23.145  1.00  0.00    -0.268 OA
ATOM      6  H   UNL A   1      30.227  30.956  24.869  1.00  0.00     0.163 HD
BRANCH   4   7
ATOM      7  C   UNL A   1      31.766  28.101  24.097  1.00  0.00     0.115 A 
ATOM      8  C   UNL A   1      32.524  26.072  25.225  1.00  0.00     0.128 A 
ATOM      9  N   UNL A   1      33.426  26.479  24.360  1.00  0.00    -0.243 NA
ATOM     10  S   UNL A   1      30.995  26.787  24.967  1.00  0.00    -0.110 S 
ATOM     11  C   UNL A   1      32.979  27.586  23.643  1.00  0.00     0.062 A 
ATOM     12  C   UNL A   1      33.939  28.014  22.596  1.00  0.00     0.068 C 
BRANCH   8  13
ATOM     13  C   UNL A   1      32.763  25.031  26.295  1.00  0.00     0.232 C 
ATOM     14  N   UNL A   1      32.976  22.689  25.138  1.00  0.00    -0.331 N 
ATOM     15  C   UNL A   1      31.653  22.431  25.738  1.00  0.00     0.291 C 
ATOM     16  C   UNL A   1      33.628  23.797  25.890  1.00  0.00     0.302 C 
ATOM     17  H   UNL A   1      33.573  21.866  25.220  1.00  0.00     0.348 HD
ATOM     18  C   UNL A   1      30.814  23.695  25.946  1.00  0.00     0.222 C 
ATOM     19  O   UNL A   1      31.486  24.603  26.827  1.00  0.00    -0.359 OA
BRANCH  14  20
ATOM     20  C   UNL A   1      32.878  22.920  23.691  1.00  0.00     0.258 C 
ATOM     21  C   UNL A   1      32.229  21.742  22.971  1.00  0.00     0.071 C 
ENDBRANCH  14  20
ENDBRANCH   8  13
ENDBRANCH   4   7
ENDBRANCH   2   3
ENDBRANCH   1   2
BRANCH   1  22
ATOM     22  C   UNL A   1      32.845  32.553  27.327  1.00  0.00     0.118 C 
BRANCH  22  23
ATOM     23  N   UNL A   1      32.680  33.959  27.672  1.00  0.00    -0.352 N 
ATOM     24  C   UNL A   1      33.222  34.669  28.716  1.00  0.00     0.251 C 
ATOM     25  H   UNL A   1      32.096  34.474  27.070  1.00  0.00     0.163 HD
ATOM     26  O   UNL A   1      32.721  35.743  29.033  1.00  0.00    -0.269 OA
BRANCH  24  27
ATOM     27  C   UNL A   1      34.390  34.135  29.452  1.00  0.00     0.039 A 
ATOM     28  C   UNL A   1      34.182  33.325  30.571  1.00  0.00     0.014 A 
ATOM     29  C   UNL A   1      35.691  34.457  29.056  1.00  0.00     0.014 A 
ATOM     30  C   UNL A   1      35.277  32.790  31.253  1.00  0.00     0.010 A 
ATOM     31  C   UNL A   1      36.776  33.852  29.678  1.00  0.00     0.010 A 
ATOM     32  C   UNL A   1      36.583  33.020  30.790  1.00  0.00    -0.014 A 
BRANCH  32  33
ATOM     33  C   UNL A   1      37.768  32.424  31.460  1.00  0.00     0.031 A 
ATOM     34  C   UNL A   1      38.500  31.283  30.804  1.00  0.00     0.074 A 
ATOM     35  C   UNL A   1      38.130  32.852  32.685  1.00  0.00     0.049 A 
ATOM     36  N   UNL A   1      39.468  30.540  31.274  1.00  0.00    -0.248 NA
ATOM     37  C   UNL A   1      38.058  30.908  29.453  1.00  0.00     0.031 C 
ATOM     38  C   UNL A   1      37.475  33.930  33.432  1.00  0.00     0.029 A 
ATOM     39  N   UNL A   1      39.125  32.425  33.527  1.00  0.00    -0.354 N 
ATOM     40  C   UNL A   1      39.737  29.599  30.286  1.00  0.00     0.074 A 
ATOM     41  C   UNL A   1      38.785  29.827  29.221  1.00  0.00     0.031 C 
ATOM     42  C   UNL A   1      38.100  34.093  34.609  1.00  0.00     0.029 A 
ATOM     43  C   UNL A   1      39.159  33.097  34.729  1.00  0.00     0.049 A 
ATOM     44  H   UNL A   1      39.756  31.707  33.295  1.00  0.00     0.167 HD
ATOM     45  C   UNL A   1      40.703  28.648  30.262  1.00  0.00     0.034 A 
ATOM     46  C   UNL A   1      39.941  32.915  35.812  1.00  0.00     0.034 A 
ATOM     47  C   UNL A   1      41.650  28.447  31.331  1.00  0.00     0.049 A 
ATOM     48  C   UNL A   1      40.985  31.826  35.778  1.00  0.00     0.074 A 
ATOM     49  C   UNL A   1      42.703  27.551  31.393  1.00  0.00     0.029 A 
ATOM     50  N   UNL A   1      41.655  29.148  32.531  1.00  0.00    -0.354 N 
ATOM     51  N   UNL A   1      41.255  30.971  34.818  1.00  0.00    -0.248 NA
ATOM     52  C   UNL A   1      41.833  31.682  36.967  1.00  0.00     0.031 C 
ATOM     53  C   UNL A   1      43.295  27.658  32.656  1.00  0.00     0.029 A 
ATOM     54  C   UNL A   1      42.670  28.681  33.352  1.00  0.00     0.049 A 
ATOM     55  H   UNL A   1      41.029  29.871  32.765  1.00  0.00     0.167 HD
ATOM     56  C   UNL A   1      42.329  30.213  35.277  1.00  0.00     0.074 A 
ATOM     57  C   UNL A   1      42.662  30.720  36.591  1.00  0.00     0.031 C 
ATOM     58  C   UNL A   1      42.986  29.195  34.663  1.00  0.00     0.034 A 
BRANCH  45  59
ATOM     59  C   UNL A   1      40.760  27.740  29.055  1.00  0.00     0.023 A 
ATOM     60  C   UNL A   1      41.719  27.918  28.041  1.00  0.00     0.031 A 
ATOM     61  C   UNL A   1      39.828  26.699  28.900  1.00  0.00     0.131 A 
ATOM     62  C   UNL A   1      41.675  27.122  26.887  1.00  0.00     0.055 A 
ATOM     63  C   UNL A   1      39.845  25.852  27.790  1.00  0.00     0.041 A 
ATOM     64  F   UNL A   1      38.874  26.493  29.822  1.00  0.00    -0.206 F 
ATOM     65  C   UNL A   1      40.761  26.072  26.766  1.00  0.00     0.022 A 
BRANCH  62  66
ATOM     66  S   UNL A   1      42.726  27.578  25.480  1.00  0.00     0.124 S 
ATOM     67  O   UNL A   1      42.629  26.385  24.642  1.00  0.00    -0.237 OA
ATOM     68  O   UNL A   1      42.066  28.773  24.968  1.00  0.00    -0.237 OA
ATOM     69  O   UNL A   1      44.036  27.798  26.088  1.00  0.00    -0.744 OA
ENDBRANCH  62  66
ENDBRANCH  45  59
BRANCH  46  70
ATOM     70  C   UNL A   1      39.764  33.765  37.025  1.00  0.00     0.023 A 
ATOM     71  C   UNL A   1      40.614  34.854  37.274  1.00  0.00     0.031 A 
ATOM     72  C   UNL A   1      38.770  33.476  37.977  1.00  0.00     0.131 A 
ATOM     73  C   UNL A   1      40.489  35.583  38.467  1.00  0.00     0.055 A 
ATOM     74  C   UNL A   1      38.611  34.241  39.134  1.00  0.00     0.041 A 
ATOM     75  F   UNL A   1      37.927  32.448  37.789  1.00  0.00    -0.206 F 
ATOM     76  C   UNL A   1      39.484  35.292  39.392  1.00  0.00     0.022 A 
BRANCH  73  77
ATOM     77  S   UNL A   1      41.725  36.856  38.839  1.00  0.00     0.124 S 
ATOM     78  O   UNL A   1      40.886  37.960  39.292  1.00  0.00    -0.237 OA
ATOM     79  O   UNL A   1      42.535  36.203  39.862  1.00  0.00    -0.237 OA
ATOM     80  O   UNL A   1      42.394  37.065  37.556  1.00  0.00    -0.744 OA
ENDBRANCH  73  77
ENDBRANCH  46  70
BRANCH  58  81
ATOM     81  C   UNL A   1      44.169  28.601  35.390  1.00  0.00     0.023 A 
ATOM     82  C   UNL A   1      44.017  27.602  36.365  1.00  0.00     0.031 A 
ATOM     83  C   UNL A   1      45.470  29.043  35.091  1.00  0.00     0.131 A 
ATOM     84  C   UNL A   1      45.143  27.111  37.043  1.00  0.00     0.055 A 
ATOM     85  C   UNL A   1      46.591  28.505  35.723  1.00  0.00     0.041 A 
ATOM     86  F   UNL A   1      45.673  29.998  34.170  1.00  0.00    -0.206 F 
ATOM     87  C   UNL A   1      46.431  27.542  36.714  1.00  0.00     0.022 A 
BRANCH  84  88
ATOM     88  S   UNL A   1      44.897  25.962  38.425  1.00  0.00     0.124 S 
ATOM     89  O   UNL A   1      46.082  26.207  39.239  1.00  0.00    -0.237 OA
ATOM     90  O   UNL A   1      43.631  26.419  38.990  1.00  0.00    -0.237 OA
ATOM     91  O   UNL A   1      44.848  24.652  37.777  1.00  0.00    -0.744 OA
ENDBRANCH  84  88
ENDBRANCH  58  81
ENDBRANCH  32  33
ENDBRANCH  24  27
ENDBRANCH  22  23
ENDBRANCH   1  22
TORSDOF 15
ENDMDL
