MODEL 1
REMARK VINA RESULT:     -11.9      0.000      0.000
REMARK SMILES [NH3+][C@H]1CCCN(C(=O)NC[C@H]2CC[C@@H](C(=O)NCCCNC(=O)c3ccc(-c4c5nc(c(-c6cc(S(=O)(=O)[O-])ccc6F)c6ccc([nH]6)c(-c6cc(S(=O)(=O)[O-])ccc6F)c6nc(c(-c7cc(S(=O)(=O)[O-])ccc7F)c7ccc4[nH]7)C=C6)C=C5)cc3)CC2)C1
REMARK SMILES IDX 18 1 17 2 15 3 16 4 14 6 11 7 12 8 88 9 13 10 87 11 10 12
REMARK SMILES IDX 9 13 7 14 8 15 6 17 2 18 3 19 89 20 4 21 5 22 1 23 19 27
REMARK SMILES IDX 20 28 21 29 22 30 23 32 24 33 25 34 86 35 26 36 85 37 27 38
REMARK SMILES IDX 28 39 29 40 79 41 30 42 84 43 78 44 80 45 31 46 83 47 77 48
REMARK SMILES IDX 76 49 32 51 64 52 44 53 63 54 45 55 48 56 62 57 81 58 46 59
REMARK SMILES IDX 47 60 61 62 82 63 49 64 33 65 34 66 42 67 35 68 41 69 43 70
REMARK SMILES IDX 40 71 36 72 37 73 38 74 39 75 65 76 66 77 74 78 67 79 73 80
REMARK SMILES IDX 75 81 72 82 68 83 69 84 70 85 71 86 50 87 51 88 59 89 52 90
REMARK SMILES IDX 58 91 60 92 57 93 53 94 54 95 55 96 56 97
REMARK H PARENT 17 5 9 16 1 24 1 25 1 26 21 31 80 50 48 61
REMARK Flexibility Score: inf
ROOT
ATOM      1  C   UNL A   1      35.068  21.546  25.632  1.00  0.00     0.117 C 
ENDROOT
BRANCH   1   2
ATOM      2  N   UNL A   1      34.293  20.332  25.820  1.00  0.00    -0.356 N 
ATOM      3  C   UNL A   1      33.000  20.037  25.515  1.00  0.00     0.223 C 
ATOM      4  O   UNL A   1      32.601  18.894  25.753  1.00  0.00    -0.275 OA
ATOM      5  H   UNL A   1      34.789  19.594  26.241  1.00  0.00     0.163 HD
BRANCH   3   6
ATOM      6  C   UNL A   1      32.061  21.062  24.882  1.00  0.00     0.078 C 
ATOM      7  C   UNL A   1      31.731  23.836  23.826  1.00  0.00     0.008 C 
ATOM      8  C   UNL A   1      31.764  22.629  22.874  1.00  0.00     0.006 C 
ATOM      9  C   UNL A   1      31.067  23.396  25.137  1.00  0.00     0.006 C 
ATOM     10  C   UNL A   1      32.496  21.420  23.454  1.00  0.00     0.014 C 
ATOM     11  C   UNL A   1      31.798  22.248  25.819  1.00  0.00     0.014 C 
BRANCH   7  12
ATOM     12  C   UNL A   1      33.135  24.461  24.011  1.00  0.00     0.121 C 
BRANCH  12  13
ATOM     13  N   UNL A   1      33.479  25.324  22.894  1.00  0.00    -0.338 N 
ATOM     14  C   UNL A   1      33.397  26.631  22.595  1.00  0.00     0.317 C 
ATOM     15  O   UNL A   1      34.041  26.962  21.594  1.00  0.00    -0.249 OA
ATOM     16  H   UNL A   1      33.881  24.811  22.156  1.00  0.00     0.165 HD
BRANCH  14  17
ATOM     17  N   UNL A   1      32.685  27.532  23.326  1.00  0.00    -0.319 N 
ATOM     18  C   UNL A   1      33.216  28.620  25.494  1.00  0.00     0.200 C 
ATOM     19  C   UNL A   1      31.726  28.528  25.867  1.00  0.00     0.068 C 
ATOM     20  C   UNL A   1      33.413  28.638  23.960  1.00  0.00     0.186 C 
ATOM     21  C   UNL A   1      31.012  27.417  25.087  1.00  0.00     0.028 C 
ATOM     22  C   UNL A   1      31.256  27.593  23.592  1.00  0.00     0.122 C 
BRANCH  18  23
ATOM     23  N   UNL A   1      33.798  29.814  26.114  1.00  0.00    -0.354 N 
ATOM     24  H   UNL A   1      34.727  29.594  26.471  1.00  0.00     0.344 HD
ATOM     25  H   UNL A   1      33.202  30.122  26.883  1.00  0.00     0.344 HD
ATOM     26  H   UNL A   1      33.868  30.558  25.420  1.00  0.00     0.344 HD
ENDBRANCH  18  23
ENDBRANCH  14  17
ENDBRANCH  12  13
ENDBRANCH   7  12
ENDBRANCH   3   6
ENDBRANCH   1   2
BRANCH   1  27
ATOM     27  C   UNL A   1      35.884  21.537  24.345  1.00  0.00     0.042 C 
BRANCH  27  28
ATOM     28  C   UNL A   1      37.354  21.889  24.538  1.00  0.00     0.118 C 
BRANCH  28  29
ATOM     29  N   UNL A   1      38.064  20.892  25.324  1.00  0.00    -0.352 N 
ATOM     30  C   UNL A   1      39.160  21.012  26.143  1.00  0.00     0.251 C 
ATOM     31  H   UNL A   1      37.698  19.980  25.259  1.00  0.00     0.163 HD
ATOM     32  O   UNL A   1      39.712  19.989  26.539  1.00  0.00    -0.269 OA
BRANCH  30  33
ATOM     33  C   UNL A   1      39.690  22.341  26.526  1.00  0.00     0.039 A 
ATOM     34  C   UNL A   1      40.787  22.398  27.390  1.00  0.00     0.014 A 
ATOM     35  C   UNL A   1      39.099  23.527  26.079  1.00  0.00     0.014 A 
ATOM     36  C   UNL A   1      41.326  23.635  27.752  1.00  0.00     0.010 A 
ATOM     37  C   UNL A   1      39.690  24.756  26.371  1.00  0.00     0.010 A 
ATOM     38  C   UNL A   1      40.807  24.824  27.214  1.00  0.00    -0.014 A 
BRANCH  38  39
ATOM     39  C   UNL A   1      41.438  26.136  27.520  1.00  0.00     0.031 A 
ATOM     40  C   UNL A   1      40.682  27.189  28.285  1.00  0.00     0.074 A 
ATOM     41  C   UNL A   1      42.683  26.388  27.072  1.00  0.00     0.049 A 
ATOM     42  N   UNL A   1      41.061  28.395  28.628  1.00  0.00    -0.248 NA
ATOM     43  C   UNL A   1      39.309  26.854  28.696  1.00  0.00     0.031 C 
ATOM     44  C   UNL A   1      43.497  25.464  26.275  1.00  0.00     0.029 A 
ATOM     45  N   UNL A   1      43.488  27.490  27.219  1.00  0.00    -0.354 N 
ATOM     46  C   UNL A   1      39.976  28.963  29.288  1.00  0.00     0.074 A 
ATOM     47  C   UNL A   1      38.903  27.992  29.239  1.00  0.00     0.031 C 
ATOM     48  C   UNL A   1      44.693  26.024  26.038  1.00  0.00     0.029 A 
ATOM     49  C   UNL A   1      44.721  27.359  26.623  1.00  0.00     0.049 A 
ATOM     50  H   UNL A   1      43.208  28.298  27.707  1.00  0.00     0.167 HD
ATOM     51  C   UNL A   1      39.891  30.170  29.900  1.00  0.00     0.034 A 
ATOM     52  C   UNL A   1      45.756  28.219  26.554  1.00  0.00     0.034 A 
ATOM     53  C   UNL A   1      40.973  31.125  29.948  1.00  0.00     0.049 A 
ATOM     54  C   UNL A   1      45.632  29.558  27.233  1.00  0.00     0.074 A 
ATOM     55  C   UNL A   1      41.013  32.354  30.583  1.00  0.00     0.029 A 
ATOM     56  N   UNL A   1      42.208  30.960  29.331  1.00  0.00    -0.354 N 
ATOM     57  N   UNL A   1      44.618  30.055  27.905  1.00  0.00    -0.248 NA
ATOM     58  C   UNL A   1      46.799  30.446  27.158  1.00  0.00     0.031 C 
ATOM     59  C   UNL A   1      42.242  32.959  30.295  1.00  0.00     0.029 A 
ATOM     60  C   UNL A   1      43.003  32.077  29.544  1.00  0.00     0.049 A 
ATOM     61  H   UNL A   1      42.479  30.165  28.816  1.00  0.00     0.167 HD
ATOM     62  C   UNL A   1      45.038  31.304  28.352  1.00  0.00     0.074 A 
ATOM     63  C   UNL A   1      46.405  31.467  27.901  1.00  0.00     0.031 C 
ATOM     64  C   UNL A   1      44.356  32.236  29.069  1.00  0.00     0.034 A 
BRANCH  51  65
ATOM     65  C   UNL A   1      38.575  30.532  30.550  1.00  0.00     0.023 A 
ATOM     66  C   UNL A   1      37.541  31.152  29.827  1.00  0.00     0.031 A 
ATOM     67  C   UNL A   1      38.355  30.269  31.913  1.00  0.00     0.131 A 
ATOM     68  C   UNL A   1      36.365  31.549  30.481  1.00  0.00     0.055 A 
ATOM     69  C   UNL A   1      37.151  30.594  32.542  1.00  0.00     0.041 A 
ATOM     70  F   UNL A   1      39.312  29.698  32.662  1.00  0.00    -0.206 F 
ATOM     71  C   UNL A   1      36.152  31.250  31.829  1.00  0.00     0.022 A 
BRANCH  68  72
ATOM     72  S   UNL A   1      35.175  32.578  29.580  1.00  0.00     0.124 S 
ATOM     73  O   UNL A   1      34.344  33.089  30.668  1.00  0.00    -0.237 OA
ATOM     74  O   UNL A   1      36.035  33.553  28.921  1.00  0.00    -0.237 OA
ATOM     75  O   UNL A   1      34.507  31.631  28.688  1.00  0.00    -0.744 OA
ENDBRANCH  68  72
ENDBRANCH  51  65
BRANCH  52  76
ATOM     76  C   UNL A   1      46.999  27.853  25.814  1.00  0.00     0.023 A 
ATOM     77  C   UNL A   1      47.117  28.095  24.436  1.00  0.00     0.031 A 
ATOM     78  C   UNL A   1      48.067  27.208  26.463  1.00  0.00     0.131 A 
ATOM     79  C   UNL A   1      48.249  27.644  23.740  1.00  0.00     0.055 A 
ATOM     80  C   UNL A   1      49.217  26.813  25.777  1.00  0.00     0.041 A 
ATOM     81  F   UNL A   1      48.011  26.959  27.781  1.00  0.00    -0.206 F 
ATOM     82  C   UNL A   1      49.305  27.016  24.404  1.00  0.00     0.022 A 
BRANCH  79  83
ATOM     83  S   UNL A   1      48.277  27.803  21.934  1.00  0.00     0.124 S 
ATOM     84  O   UNL A   1      46.937  28.309  21.659  1.00  0.00    -0.237 OA
ATOM     85  O   UNL A   1      49.373  28.745  21.731  1.00  0.00    -0.237 OA
ATOM     86  O   UNL A   1      48.537  26.440  21.476  1.00  0.00    -0.744 OA
ENDBRANCH  79  83
ENDBRANCH  52  76
BRANCH  64  87
ATOM     87  C   UNL A   1      45.106  33.499  29.422  1.00  0.00     0.023 A 
ATOM     88  C   UNL A   1      45.090  34.624  28.579  1.00  0.00     0.031 A 
ATOM     89  C   UNL A   1      45.883  33.561  30.593  1.00  0.00     0.131 A 
ATOM     90  C   UNL A   1      45.898  35.731  28.876  1.00  0.00     0.055 A 
ATOM     91  C   UNL A   1      46.629  34.694  30.919  1.00  0.00     0.041 A 
ATOM     92  F   UNL A   1      45.937  32.516  31.434  1.00  0.00    -0.206 F 
ATOM     93  C   UNL A   1      46.655  35.781  30.049  1.00  0.00     0.022 A 
BRANCH  90  94
ATOM     94  S   UNL A   1      46.044  37.054  27.643  1.00  0.00     0.124 S 
ATOM     95  O   UNL A   1      47.102  37.882  28.212  1.00  0.00    -0.237 OA
ATOM     96  O   UNL A   1      46.396  36.315  26.435  1.00  0.00    -0.237 OA
ATOM     97  O   UNL A   1      44.716  37.662  27.633  1.00  0.00    -0.744 OA
ENDBRANCH  90  94
ENDBRANCH  64  87
ENDBRANCH  38  39
ENDBRANCH  30  33
ENDBRANCH  28  29
ENDBRANCH  27  28
ENDBRANCH   1  27
TORSDOF 17
ENDMDL
MODEL 2
REMARK VINA RESULT:     -11.8      0.893      7.536
REMARK SMILES [NH3+][C@H]1CCCN(C(=O)NC[C@H]2CC[C@@H](C(=O)NCCCNC(=O)c3ccc(-c4c5nc(c(-c6cc(S(=O)(=O)[O-])ccc6F)c6ccc([nH]6)c(-c6cc(S(=O)(=O)[O-])ccc6F)c6nc(c(-c7cc(S(=O)(=O)[O-])ccc7F)c7ccc4[nH]7)C=C6)C=C5)cc3)CC2)C1
REMARK SMILES IDX 18 1 17 2 15 3 16 4 14 6 11 7 12 8 88 9 13 10 87 11 10 12
REMARK SMILES IDX 9 13 7 14 8 15 6 17 2 18 3 19 89 20 4 21 5 22 1 23 19 27
REMARK SMILES IDX 20 28 21 29 22 30 23 32 24 33 25 34 86 35 26 36 85 37 27 38
REMARK SMILES IDX 28 39 29 40 79 41 30 42 84 43 78 44 80 45 31 46 83 47 77 48
REMARK SMILES IDX 76 49 32 51 64 52 44 53 63 54 45 55 48 56 62 57 81 58 46 59
REMARK SMILES IDX 47 60 61 62 82 63 49 64 33 65 34 66 42 67 35 68 41 69 43 70
REMARK SMILES IDX 40 71 36 72 37 73 38 74 39 75 65 76 66 77 74 78 67 79 73 80
REMARK SMILES IDX 75 81 72 82 68 83 69 84 70 85 71 86 50 87 51 88 59 89 52 90
REMARK SMILES IDX 58 91 60 92 57 93 53 94 54 95 55 96 56 97
REMARK H PARENT 17 5 9 16 1 24 1 25 1 26 21 31 80 50 48 61
REMARK Flexibility Score: inf
ROOT
ATOM      1  C   UNL A   1      35.205  21.489  25.260  1.00  0.00     0.117 C 
ENDROOT
BRANCH   1   2
ATOM      2  N   UNL A   1      34.380  20.299  25.373  1.00  0.00    -0.356 N 
ATOM      3  C   UNL A   1      33.029  20.138  25.339  1.00  0.00     0.223 C 
ATOM      4  O   UNL A   1      32.587  18.989  25.421  1.00  0.00    -0.275 OA
ATOM      5  H   UNL A   1      34.886  19.464  25.494  1.00  0.00     0.163 HD
BRANCH   3   6
ATOM      6  C   UNL A   1      32.074  21.320  25.186  1.00  0.00     0.078 C 
ATOM      7  C   UNL A   1      31.779  24.250  24.689  1.00  0.00     0.008 C 
ATOM      8  C   UNL A   1      31.377  23.225  23.617  1.00  0.00     0.006 C 
ATOM      9  C   UNL A   1      31.493  23.641  26.068  1.00  0.00     0.006 C 
ATOM     10  C   UNL A   1      32.098  21.885  23.759  1.00  0.00     0.014 C 
ATOM     11  C   UNL A   1      32.251  22.344  26.315  1.00  0.00     0.014 C 
BRANCH   7  12
ATOM     12  C   UNL A   1      33.238  24.733  24.505  1.00  0.00     0.121 C 
BRANCH  12  13
ATOM     13  N   UNL A   1      33.446  25.285  23.178  1.00  0.00    -0.338 N 
ATOM     14  C   UNL A   1      33.382  26.491  22.589  1.00  0.00     0.317 C 
ATOM     15  O   UNL A   1      33.879  26.530  21.459  1.00  0.00    -0.249 OA
ATOM     16  H   UNL A   1      33.705  24.586  22.535  1.00  0.00     0.165 HD
BRANCH  14  17
ATOM     17  N   UNL A   1      32.834  27.591  23.175  1.00  0.00    -0.319 N 
ATOM     18  C   UNL A   1      33.299  28.636  25.380  1.00  0.00     0.200 C 
ATOM     19  C   UNL A   1      31.799  28.962  25.503  1.00  0.00     0.068 C 
ATOM     20  C   UNL A   1      33.726  28.506  23.899  1.00  0.00     0.186 C 
ATOM     21  C   UNL A   1      30.942  28.031  24.638  1.00  0.00     0.028 C 
ATOM     22  C   UNL A   1      31.451  28.042  23.201  1.00  0.00     0.122 C 
BRANCH  18  23
ATOM     23  N   UNL A   1      34.077  29.673  26.064  1.00  0.00    -0.354 N 
ATOM     24  H   UNL A   1      35.005  29.311  26.286  1.00  0.00     0.344 HD
ATOM     25  H   UNL A   1      33.601  29.941  26.925  1.00  0.00     0.344 HD
ATOM     26  H   UNL A   1      34.166  30.487  25.457  1.00  0.00     0.344 HD
ENDBRANCH  18  23
ENDBRANCH  14  17
ENDBRANCH  12  13
ENDBRANCH   7  12
ENDBRANCH   3   6
ENDBRANCH   1   2
BRANCH   1  27
ATOM     27  C   UNL A   1      36.489  21.251  24.475  1.00  0.00     0.042 C 
BRANCH  27  28
ATOM     28  C   UNL A   1      37.717  21.928  25.071  1.00  0.00     0.118 C 
BRANCH  28  29
ATOM     29  N   UNL A   1      38.578  20.992  25.778  1.00  0.00    -0.352 N 
ATOM     30  C   UNL A   1      39.697  21.208  26.544  1.00  0.00     0.251 C 
ATOM     31  H   UNL A   1      38.314  20.047  25.695  1.00  0.00     0.163 HD
ATOM     32  O   UNL A   1      40.382  20.242  26.870  1.00  0.00    -0.269 OA
BRANCH  30  33
ATOM     33  C   UNL A   1      40.094  22.575  26.953  1.00  0.00     0.039 A 
ATOM     34  C   UNL A   1      41.064  22.717  27.950  1.00  0.00     0.014 A 
ATOM     35  C   UNL A   1      39.500  23.712  26.400  1.00  0.00     0.014 A 
ATOM     36  C   UNL A   1      41.480  23.992  28.342  1.00  0.00     0.010 A 
ATOM     37  C   UNL A   1      39.975  24.981  26.730  1.00  0.00     0.010 A 
ATOM     38  C   UNL A   1      40.968  25.135  27.707  1.00  0.00    -0.014 A 
BRANCH  38  39
ATOM     39  C   UNL A   1      41.475  26.489  28.054  1.00  0.00     0.031 A 
ATOM     40  C   UNL A   1      42.884  26.891  27.708  1.00  0.00     0.074 A 
ATOM     41  C   UNL A   1      40.672  27.344  28.717  1.00  0.00     0.049 A 
ATOM     42  N   UNL A   1      43.505  28.019  27.947  1.00  0.00    -0.248 NA
ATOM     43  C   UNL A   1      43.714  25.884  27.029  1.00  0.00     0.031 C 
ATOM     44  C   UNL A   1      39.303  27.049  29.153  1.00  0.00     0.029 A 
ATOM     45  N   UNL A   1      40.880  28.632  29.142  1.00  0.00    -0.354 N 
ATOM     46  C   UNL A   1      44.796  27.856  27.453  1.00  0.00     0.074 A 
ATOM     47  C   UNL A   1      44.886  26.498  26.962  1.00  0.00     0.031 C 
ATOM     48  C   UNL A   1      38.786  28.135  29.748  1.00  0.00     0.029 A 
ATOM     49  C   UNL A   1      39.794  29.188  29.778  1.00  0.00     0.049 A 
ATOM     50  H   UNL A   1      41.728  29.113  29.003  1.00  0.00     0.167 HD
ATOM     51  C   UNL A   1      45.803  28.763  27.392  1.00  0.00     0.034 A 
ATOM     52  C   UNL A   1      39.631  30.408  30.326  1.00  0.00     0.034 A 
ATOM     53  C   UNL A   1      45.695  30.118  27.880  1.00  0.00     0.049 A 
ATOM     54  C   UNL A   1      40.769  31.393  30.254  1.00  0.00     0.074 A 
ATOM     55  C   UNL A   1      46.633  31.133  27.823  1.00  0.00     0.029 A 
ATOM     56  N   UNL A   1      44.581  30.647  28.521  1.00  0.00    -0.354 N 
ATOM     57  N   UNL A   1      41.964  31.241  29.729  1.00  0.00    -0.248 NA
ATOM     58  C   UNL A   1      40.530  32.720  30.835  1.00  0.00     0.031 C 
ATOM     59  C   UNL A   1      46.114  32.251  28.486  1.00  0.00     0.029 A 
ATOM     60  C   UNL A   1      44.821  31.962  28.891  1.00  0.00     0.049 A 
ATOM     61  H   UNL A   1      43.742  30.159  28.688  1.00  0.00     0.167 HD
ATOM     62  C   UNL A   1      42.608  32.464  29.897  1.00  0.00     0.074 A 
ATOM     63  C   UNL A   1      41.657  33.347  30.540  1.00  0.00     0.031 C 
ATOM     64  C   UNL A   1      43.872  32.825  29.553  1.00  0.00     0.034 A 
BRANCH  51  65
ATOM     65  C   UNL A   1      47.115  28.310  26.794  1.00  0.00     0.023 A 
ATOM     66  C   UNL A   1      47.299  28.221  25.403  1.00  0.00     0.031 A 
ATOM     67  C   UNL A   1      48.191  27.948  27.623  1.00  0.00     0.131 A 
ATOM     68  C   UNL A   1      48.503  27.718  24.884  1.00  0.00     0.055 A 
ATOM     69  C   UNL A   1      49.414  27.524  27.099  1.00  0.00     0.041 A 
ATOM     70  F   UNL A   1      48.070  27.992  28.959  1.00  0.00    -0.206 F 
ATOM     71  C   UNL A   1      49.571  27.393  25.722  1.00  0.00     0.022 A 
BRANCH  68  72
ATOM     72  S   UNL A   1      48.603  27.369  23.107  1.00  0.00     0.124 S 
ATOM     73  O   UNL A   1      47.459  28.120  22.594  1.00  0.00    -0.237 OA
ATOM     74  O   UNL A   1      49.919  27.890  22.756  1.00  0.00    -0.237 OA
ATOM     75  O   UNL A   1      48.467  25.915  23.034  1.00  0.00    -0.744 OA
ENDBRANCH  68  72
ENDBRANCH  51  65
BRANCH  52  76
ATOM     76  C   UNL A   1      38.349  30.775  30.995  1.00  0.00     0.023 A 
ATOM     77  C   UNL A   1      37.332  31.443  30.292  1.00  0.00     0.031 A 
ATOM     78  C   UNL A   1      38.140  30.511  32.360  1.00  0.00     0.131 A 
ATOM     79  C   UNL A   1      36.181  31.876  30.968  1.00  0.00     0.055 A 
ATOM     80  C   UNL A   1      36.968  30.892  33.015  1.00  0.00     0.041 A 
ATOM     81  F   UNL A   1      39.075  29.868  33.078  1.00  0.00    -0.206 F 
ATOM     82  C   UNL A   1      35.987  31.593  32.322  1.00  0.00     0.022 A 
BRANCH  79  83
ATOM     83  S   UNL A   1      34.984  32.901  30.071  1.00  0.00     0.124 S 
ATOM     84  O   UNL A   1      34.484  31.967  29.069  1.00  0.00    -0.237 OA
ATOM     85  O   UNL A   1      34.049  33.267  31.130  1.00  0.00    -0.237 OA
ATOM     86  O   UNL A   1      35.798  33.999  29.554  1.00  0.00    -0.744 OA
ENDBRANCH  79  83
ENDBRANCH  52  76
BRANCH  64  87
ATOM     87  C   UNL A   1      44.272  34.250  29.852  1.00  0.00     0.023 A 
ATOM     88  C   UNL A   1      44.204  35.255  28.869  1.00  0.00     0.031 A 
ATOM     89  C   UNL A   1      44.774  34.598  31.118  1.00  0.00     0.131 A 
ATOM     90  C   UNL A   1      44.702  36.536  29.145  1.00  0.00     0.055 A 
ATOM     91  C   UNL A   1      45.202  35.894  31.408  1.00  0.00     0.041 A 
ATOM     92  F   UNL A   1      44.864  33.680  32.094  1.00  0.00    -0.206 F 
ATOM     93  C   UNL A   1      45.186  36.868  30.412  1.00  0.00     0.022 A 
BRANCH  90  94
ATOM     94  S   UNL A   1      44.828  37.729  27.783  1.00  0.00     0.124 S 
ATOM     95  O   UNL A   1      43.456  38.216  27.680  1.00  0.00    -0.237 OA
ATOM     96  O   UNL A   1      45.805  38.684  28.296  1.00  0.00    -0.237 OA
ATOM     97  O   UNL A   1      45.286  36.917  26.657  1.00  0.00    -0.744 OA
ENDBRANCH  90  94
ENDBRANCH  64  87
ENDBRANCH  38  39
ENDBRANCH  30  33
ENDBRANCH  28  29
ENDBRANCH  27  28
ENDBRANCH   1  27
TORSDOF 17
ENDMDL
MODEL 3
REMARK VINA RESULT:     -11.8      5.742     11.043
REMARK SMILES [NH3+][C@H]1CCCN(C(=O)NC[C@H]2CC[C@@H](C(=O)NCCCNC(=O)c3ccc(-c4c5nc(c(-c6cc(S(=O)(=O)[O-])ccc6F)c6ccc([nH]6)c(-c6cc(S(=O)(=O)[O-])ccc6F)c6nc(c(-c7cc(S(=O)(=O)[O-])ccc7F)c7ccc4[nH]7)C=C6)C=C5)cc3)CC2)C1
REMARK SMILES IDX 18 1 17 2 15 3 16 4 14 6 11 7 12 8 88 9 13 10 87 11 10 12
REMARK SMILES IDX 9 13 7 14 8 15 6 17 2 18 3 19 89 20 4 21 5 22 1 23 19 27
REMARK SMILES IDX 20 28 21 29 22 30 23 32 24 33 25 34 86 35 26 36 85 37 27 38
REMARK SMILES IDX 28 39 29 40 79 41 30 42 84 43 78 44 80 45 31 46 83 47 77 48
REMARK SMILES IDX 76 49 32 51 64 52 44 53 63 54 45 55 48 56 62 57 81 58 46 59
REMARK SMILES IDX 47 60 61 62 82 63 49 64 33 65 34 66 42 67 35 68 41 69 43 70
REMARK SMILES IDX 40 71 36 72 37 73 38 74 39 75 65 76 66 77 74 78 67 79 73 80
REMARK SMILES IDX 75 81 72 82 68 83 69 84 70 85 71 86 50 87 51 88 59 89 52 90
REMARK SMILES IDX 58 91 60 92 57 93 53 94 54 95 55 96 56 97
REMARK H PARENT 17 5 9 16 1 24 1 25 1 26 21 31 80 50 48 61
REMARK Flexibility Score: inf
ROOT
ATOM      1  C   UNL A   1      31.659  30.967  26.120  1.00  0.00     0.117 C 
ENDROOT
BRANCH   1   2
ATOM      2  N   UNL A   1      31.652  29.761  26.930  1.00  0.00    -0.356 N 
ATOM      3  C   UNL A   1      31.676  28.446  26.580  1.00  0.00     0.223 C 
ATOM      4  O   UNL A   1      31.702  27.612  27.489  1.00  0.00    -0.275 OA
ATOM      5  H   UNL A   1      31.624  29.924  27.900  1.00  0.00     0.163 HD
BRANCH   3   6
ATOM      6  C   UNL A   1      31.692  27.993  25.121  1.00  0.00     0.078 C 
ATOM      7  C   UNL A   1      32.444  25.861  23.170  1.00  0.00     0.008 C 
ATOM      8  C   UNL A   1      30.971  26.115  23.532  1.00  0.00     0.006 C 
ATOM      9  C   UNL A   1      33.187  27.203  23.214  1.00  0.00     0.006 C 
ATOM     10  C   UNL A   1      30.788  26.773  24.899  1.00  0.00     0.014 C 
ATOM     11  C   UNL A   1      33.121  27.877  24.577  1.00  0.00     0.014 C 
BRANCH   7  12
ATOM     12  C   UNL A   1      33.074  24.764  24.062  1.00  0.00     0.121 C 
BRANCH  12  13
ATOM     13  N   UNL A   1      34.225  24.158  23.416  1.00  0.00    -0.338 N 
ATOM     14  C   UNL A   1      35.079  23.151  23.663  1.00  0.00     0.317 C 
ATOM     15  O   UNL A   1      35.783  22.836  22.698  1.00  0.00    -0.249 OA
ATOM     16  H   UNL A   1      34.436  24.606  22.565  1.00  0.00     0.165 HD
BRANCH  14  17
ATOM     17  N   UNL A   1      35.167  22.510  24.861  1.00  0.00    -0.319 N 
ATOM     18  C   UNL A   1      33.596  20.930  25.957  1.00  0.00     0.200 C 
ATOM     19  C   UNL A   1      33.960  21.562  27.313  1.00  0.00     0.068 C 
ATOM     20  C   UNL A   1      34.738  21.108  24.929  1.00  0.00     0.186 C 
ATOM     21  C   UNL A   1      34.497  22.988  27.150  1.00  0.00     0.028 C 
ATOM     22  C   UNL A   1      35.645  22.999  26.146  1.00  0.00     0.122 C 
BRANCH  18  23
ATOM     23  N   UNL A   1      33.280  19.513  26.153  1.00  0.00    -0.354 N 
ATOM     24  H   UNL A   1      32.513  19.424  26.821  1.00  0.00     0.344 HD
ATOM     25  H   UNL A   1      34.102  19.027  26.513  1.00  0.00     0.344 HD
ATOM     26  H   UNL A   1      33.004  19.099  25.263  1.00  0.00     0.344 HD
ENDBRANCH  18  23
ENDBRANCH  14  17
ENDBRANCH  12  13
ENDBRANCH   7  12
ENDBRANCH   3   6
ENDBRANCH   1   2
BRANCH   1  27
ATOM     27  C   UNL A   1      31.502  32.238  26.944  1.00  0.00     0.042 C 
BRANCH  27  28
ATOM     28  C   UNL A   1      32.808  32.774  27.517  1.00  0.00     0.118 C 
BRANCH  28  29
ATOM     29  N   UNL A   1      32.743  34.196  27.812  1.00  0.00    -0.352 N 
ATOM     30  C   UNL A   1      33.424  34.952  28.735  1.00  0.00     0.251 C 
ATOM     31  H   UNL A   1      32.106  34.702  27.257  1.00  0.00     0.163 HD
ATOM     32  O   UNL A   1      33.049  36.103  28.943  1.00  0.00    -0.269 OA
BRANCH  30  33
ATOM     33  C   UNL A   1      34.571  34.394  29.487  1.00  0.00     0.039 A 
ATOM     34  C   UNL A   1      34.323  33.758  30.706  1.00  0.00     0.014 A 
ATOM     35  C   UNL A   1      35.885  34.523  29.028  1.00  0.00     0.014 A 
ATOM     36  C   UNL A   1      35.380  33.200  31.429  1.00  0.00     0.010 A 
ATOM     37  C   UNL A   1      36.927  33.891  29.707  1.00  0.00     0.010 A 
ATOM     38  C   UNL A   1      36.687  33.226  30.916  1.00  0.00    -0.014 A 
BRANCH  38  39
ATOM     39  C   UNL A   1      37.800  32.550  31.635  1.00  0.00     0.031 A 
ATOM     40  C   UNL A   1      38.555  31.420  30.988  1.00  0.00     0.074 A 
ATOM     41  C   UNL A   1      38.103  32.935  32.890  1.00  0.00     0.049 A 
ATOM     42  N   UNL A   1      39.540  30.701  31.467  1.00  0.00    -0.248 NA
ATOM     43  C   UNL A   1      38.131  31.026  29.636  1.00  0.00     0.031 C 
ATOM     44  C   UNL A   1      37.408  33.985  33.642  1.00  0.00     0.029 A 
ATOM     45  N   UNL A   1      39.071  32.497  33.759  1.00  0.00    -0.354 N 
ATOM     46  C   UNL A   1      39.849  29.770  30.481  1.00  0.00     0.074 A 
ATOM     47  C   UNL A   1      38.902  29.974  29.405  1.00  0.00     0.031 C 
ATOM     48  C   UNL A   1      37.995  34.132  34.839  1.00  0.00     0.029 A 
ATOM     49  C   UNL A   1      39.077  33.162  34.963  1.00  0.00     0.049 A 
ATOM     50  H   UNL A   1      39.702  31.774  33.540  1.00  0.00     0.167 HD
ATOM     51  C   UNL A   1      40.844  28.849  30.463  1.00  0.00     0.034 A 
ATOM     52  C   UNL A   1      39.863  33.006  36.046  1.00  0.00     0.034 A 
ATOM     53  C   UNL A   1      41.786  28.663  31.542  1.00  0.00     0.049 A 
ATOM     54  C   UNL A   1      40.955  31.968  36.005  1.00  0.00     0.074 A 
ATOM     55  C   UNL A   1      42.862  27.796  31.608  1.00  0.00     0.029 A 
ATOM     56  N   UNL A   1      41.760  29.353  32.749  1.00  0.00    -0.354 N 
ATOM     57  N   UNL A   1      41.270  31.136  35.038  1.00  0.00    -0.248 NA
ATOM     58  C   UNL A   1      41.807  31.859  37.196  1.00  0.00     0.031 C 
ATOM     59  C   UNL A   1      43.445  27.913  32.876  1.00  0.00     0.029 A 
ATOM     60  C   UNL A   1      42.782  28.909  33.575  1.00  0.00     0.049 A 
ATOM     61  H   UNL A   1      41.111  30.055  32.983  1.00  0.00     0.167 HD
ATOM     62  C   UNL A   1      42.374  30.424  35.499  1.00  0.00     0.074 A 
ATOM     63  C   UNL A   1      42.686  30.948  36.813  1.00  0.00     0.031 C 
ATOM     64  C   UNL A   1      43.067  29.424  34.893  1.00  0.00     0.034 A 
BRANCH  51  65
ATOM     65  C   UNL A   1      40.951  27.960  29.246  1.00  0.00     0.023 A 
ATOM     66  C   UNL A   1      41.943  28.161  28.270  1.00  0.00     0.031 A 
ATOM     67  C   UNL A   1      40.042  26.906  29.049  1.00  0.00     0.131 A 
ATOM     68  C   UNL A   1      41.962  27.368  27.112  1.00  0.00     0.055 A 
ATOM     69  C   UNL A   1      40.114  26.069  27.933  1.00  0.00     0.041 A 
ATOM     70  F   UNL A   1      39.059  26.677  29.934  1.00  0.00    -0.206 F 
ATOM     71  C   UNL A   1      41.069  26.306  26.950  1.00  0.00     0.022 A 
BRANCH  68  72
ATOM     72  S   UNL A   1      43.082  27.828  25.763  1.00  0.00     0.124 S 
ATOM     73  O   UNL A   1      43.869  26.608  25.604  1.00  0.00    -0.237 OA
ATOM     74  O   UNL A   1      42.159  28.139  24.678  1.00  0.00    -0.237 OA
ATOM     75  O   UNL A   1      43.818  28.970  26.302  1.00  0.00    -0.744 OA
ENDBRANCH  68  72
ENDBRANCH  51  65
BRANCH  52  76
ATOM     76  C   UNL A   1      39.654  33.842  37.264  1.00  0.00     0.023 A 
ATOM     77  C   UNL A   1      38.969  33.335  38.380  1.00  0.00     0.031 A 
ATOM     78  C   UNL A   1      40.089  35.179  37.311  1.00  0.00     0.131 A 
ATOM     79  C   UNL A   1      38.688  34.172  39.470  1.00  0.00     0.055 A 
ATOM     80  C   UNL A   1      39.857  35.992  38.421  1.00  0.00     0.041 A 
ATOM     81  F   UNL A   1      40.755  35.714  36.275  1.00  0.00    -0.206 F 
ATOM     82  C   UNL A   1      39.138  35.494  39.503  1.00  0.00     0.022 A 
BRANCH  79  83
ATOM     83  S   UNL A   1      37.637  33.535  40.803  1.00  0.00     0.124 S 
ATOM     84  O   UNL A   1      38.543  32.618  41.484  1.00  0.00    -0.237 OA
ATOM     85  O   UNL A   1      37.296  34.756  41.527  1.00  0.00    -0.237 OA
ATOM     86  O   UNL A   1      36.528  32.906  40.090  1.00  0.00    -0.744 OA
ENDBRANCH  79  83
ENDBRANCH  52  76
BRANCH  64  87
ATOM     87  C   UNL A   1      44.245  28.862  35.653  1.00  0.00     0.023 A 
ATOM     88  C   UNL A   1      44.099  27.787  36.548  1.00  0.00     0.031 A 
ATOM     89  C   UNL A   1      45.521  29.438  35.516  1.00  0.00     0.131 A 
ATOM     90  C   UNL A   1      45.188  27.375  37.329  1.00  0.00     0.055 A 
ATOM     91  C   UNL A   1      46.617  28.976  36.245  1.00  0.00     0.041 A 
ATOM     92  F   UNL A   1      45.719  30.468  34.677  1.00  0.00    -0.206 F 
ATOM     93  C   UNL A   1      46.451  27.951  37.172  1.00  0.00     0.022 A 
BRANCH  90  94
ATOM     94  S   UNL A   1      44.900  26.160  38.646  1.00  0.00     0.124 S 
ATOM     95  O   UNL A   1      43.567  26.528  39.111  1.00  0.00    -0.237 OA
ATOM     96  O   UNL A   1      44.996  24.894  37.928  1.00  0.00    -0.237 OA
ATOM     97  O   UNL A   1      45.982  26.419  39.594  1.00  0.00    -0.744 OA
ENDBRANCH  90  94
ENDBRANCH  64  87
ENDBRANCH  38  39
ENDBRANCH  30  33
ENDBRANCH  28  29
ENDBRANCH  27  28
ENDBRANCH   1  27
TORSDOF 17
ENDMDL
