MODEL 1
REMARK VINA RESULT:     -11.7      0.000      0.000
REMARK SMILES C[C@@](COc1ccccc1)(NC(=O)CN1CSCC1=O)C(=O)NCCCNC(=O)c1ccc(-c2c3nc(c(-c4cc(S(=O)(=O)[O-])ccc4F)c4ccc([nH]4)c(-c4cc(S(=O)(=O)[O-])ccc4F)c4nc(c(-c5cc(S(=O)(=O)[O-])ccc5F)c5ccc2[nH]5)C=C4)C=C3)cc1
REMARK SMILES IDX 25 1 24 2 23 3 21 4 22 5 2 7 1 8 3 9 4 10 5 11 6 12 10 13
REMARK SMILES IDX 7 14 9 15 8 16 11 17 12 18 13 20 14 21 15 22 16 23 19 24
REMARK SMILES IDX 17 25 18 26 20 27 26 28 27 29 28 30 29 32 30 33 31 34 92 35
REMARK SMILES IDX 32 36 91 37 33 38 34 39 35 40 85 41 36 42 90 43 84 44 86 45
REMARK SMILES IDX 37 46 89 47 83 48 82 49 38 51 70 52 50 53 69 54 51 55 54 56
REMARK SMILES IDX 68 57 87 58 52 59 53 60 67 62 88 63 55 64 39 65 40 66 48 67
REMARK SMILES IDX 41 68 47 69 49 70 46 71 42 72 43 73 44 74 45 75 71 76 72 77
REMARK SMILES IDX 80 78 73 79 79 80 81 81 78 82 74 83 75 84 76 85 77 86 56 87
REMARK SMILES IDX 57 88 65 89 58 90 64 91 66 92 63 93 59 94 60 95 61 96 62 97
REMARK H PARENT 23 6 11 19 27 31 86 50 54 61
REMARK Flexibility Score: inf
ROOT
ATOM      1  C   UNL A   1      31.811  28.993  27.124  1.00  0.00     0.042 C 
ENDROOT
BRANCH   1   2
ATOM      2  C   UNL A   1      31.315  27.661  26.572  1.00  0.00     0.117 C 
BRANCH   2   3
ATOM      3  N   UNL A   1      32.128  27.101  25.504  1.00  0.00    -0.354 N 
ATOM      4  C   UNL A   1      31.829  26.247  24.486  1.00  0.00     0.249 C 
ATOM      5  O   UNL A   1      32.598  26.256  23.518  1.00  0.00    -0.272 OA
ATOM      6  H   UNL A   1      33.067  27.393  25.520  1.00  0.00     0.163 HD
BRANCH   4   7
ATOM      7  C   UNL A   1      30.512  25.437  24.435  1.00  0.00     0.150 C 
ATOM      8  C   UNL A   1      30.627  24.349  23.344  1.00  0.00     0.049 C 
BRANCH   7   9
ATOM      9  C   UNL A   1      29.399  26.455  24.011  1.00  0.00     0.267 C 
BRANCH   9  10
ATOM     10  O   UNL A   1      29.912  27.430  23.074  1.00  0.00    -0.491 OA
BRANCH  10  11
ATOM     11  C   UNL A   1      29.302  28.643  23.217  1.00  0.00     0.119 A 
ATOM     12  C   UNL A   1      30.003  29.728  23.734  1.00  0.00     0.046 A 
ATOM     13  C   UNL A   1      27.952  28.759  22.896  1.00  0.00     0.046 A 
ATOM     14  C   UNL A   1      29.365  30.963  23.851  1.00  0.00     0.004 A 
ATOM     15  C   UNL A   1      27.325  29.999  22.981  1.00  0.00     0.004 A 
ATOM     16  C   UNL A   1      28.034  31.103  23.453  1.00  0.00     0.000 A 
ENDBRANCH  10  11
ENDBRANCH   9  10
ENDBRANCH   7   9
BRANCH   7  17
ATOM     17  N   UNL A   1      30.107  24.822  25.726  1.00  0.00    -0.338 N 
ATOM     18  C   UNL A   1      30.670  23.882  26.529  1.00  0.00     0.240 C 
ATOM     19  H   UNL A   1      29.252  25.168  26.072  1.00  0.00     0.164 HD
ATOM     20  O   UNL A   1      29.917  23.282  27.302  1.00  0.00    -0.273 OA
BRANCH  18  21
ATOM     21  C   UNL A   1      32.177  23.644  26.585  1.00  0.00     0.220 C 
BRANCH  21  22
ATOM     22  N   UNL A   1      32.692  22.531  25.818  1.00  0.00    -0.323 N 
ATOM     23  C   UNL A   1      31.792  21.525  25.325  1.00  0.00     0.190 C 
ATOM     24  C   UNL A   1      34.050  22.270  25.762  1.00  0.00     0.233 C 
ATOM     25  S   UNL A   1      32.787  20.250  24.544  1.00  0.00    -0.130 SA
ATOM     26  C   UNL A   1      34.363  21.059  24.918  1.00  0.00     0.171 C 
ATOM     27  O   UNL A   1      34.906  22.953  26.308  1.00  0.00    -0.274 OA
ENDBRANCH  21  22
ENDBRANCH  18  21
ENDBRANCH   7  17
ENDBRANCH   4   7
ENDBRANCH   2   3
ENDBRANCH   1   2
BRANCH   1  28
ATOM     28  C   UNL A   1      32.597  29.854  26.142  1.00  0.00     0.118 C 
BRANCH  28  29
ATOM     29  N   UNL A   1      32.451  31.275  26.404  1.00  0.00    -0.352 N 
ATOM     30  C   UNL A   1      33.180  32.099  27.226  1.00  0.00     0.251 C 
ATOM     31  H   UNL A   1      31.717  31.715  25.918  1.00  0.00     0.163 HD
ATOM     32  O   UNL A   1      32.762  33.229  27.460  1.00  0.00    -0.269 OA
BRANCH  30  33
ATOM     33  C   UNL A   1      34.437  31.625  27.850  1.00  0.00     0.039 A 
ATOM     34  C   UNL A   1      35.516  32.509  27.937  1.00  0.00     0.014 A 
ATOM     35  C   UNL A   1      34.573  30.316  28.320  1.00  0.00     0.014 A 
ATOM     36  C   UNL A   1      36.705  32.100  28.546  1.00  0.00     0.010 A 
ATOM     37  C   UNL A   1      35.732  29.934  28.997  1.00  0.00     0.010 A 
ATOM     38  C   UNL A   1      36.814  30.819  29.113  1.00  0.00    -0.014 A 
BRANCH  38  39
ATOM     39  C   UNL A   1      38.056  30.394  29.815  1.00  0.00     0.031 A 
ATOM     40  C   UNL A   1      38.343  30.878  31.212  1.00  0.00     0.074 A 
ATOM     41  C   UNL A   1      38.946  29.604  29.180  1.00  0.00     0.049 A 
ATOM     42  N   UNL A   1      39.391  30.658  31.966  1.00  0.00    -0.248 NA
ATOM     43  C   UNL A   1      37.329  31.744  31.832  1.00  0.00     0.031 C 
ATOM     44  C   UNL A   1      38.797  29.094  27.814  1.00  0.00     0.029 A 
ATOM     45  N   UNL A   1      40.151  29.091  29.594  1.00  0.00    -0.354 N 
ATOM     46  C   UNL A   1      39.167  31.364  33.143  1.00  0.00     0.074 A 
ATOM     47  C   UNL A   1      37.914  32.070  32.974  1.00  0.00     0.031 C 
ATOM     48  C   UNL A   1      39.854  28.322  27.517  1.00  0.00     0.029 A 
ATOM     49  C   UNL A   1      40.781  28.320  28.644  1.00  0.00     0.049 A 
ATOM     50  H   UNL A   1      40.529  29.261  30.487  1.00  0.00     0.167 HD
ATOM     51  C   UNL A   1      39.923  31.403  34.269  1.00  0.00     0.034 A 
ATOM     52  C   UNL A   1      41.974  27.692  28.671  1.00  0.00     0.034 A 
ATOM     53  C   UNL A   1      41.169  30.690  34.424  1.00  0.00     0.049 A 
ATOM     54  C   UNL A   1      42.817  27.783  29.918  1.00  0.00     0.074 A 
ATOM     55  C   UNL A   1      41.988  30.619  35.538  1.00  0.00     0.029 A 
ATOM     56  N   UNL A   1      41.782  29.931  33.435  1.00  0.00    -0.354 N 
ATOM     57  N   UNL A   1      42.567  28.416  31.042  1.00  0.00    -0.248 NA
ATOM     58  C   UNL A   1      44.099  27.066  29.906  1.00  0.00     0.031 C 
ATOM     59  C   UNL A   1      43.130  29.887  35.198  1.00  0.00     0.029 A 
ATOM     60  C   UNL A   1      42.985  29.421  33.902  1.00  0.00     0.049 A 
ATOM     61  H   UNL A   1      41.415  29.777  32.534  1.00  0.00     0.167 HD
ATOM     62  C   UNL A   1      43.646  28.144  31.879  1.00  0.00     0.074 A 
ATOM     63  C   UNL A   1      44.538  27.277  31.137  1.00  0.00     0.031 C 
ATOM     64  C   UNL A   1      43.875  28.567  33.149  1.00  0.00     0.034 A 
BRANCH  51  65
ATOM     65  C   UNL A   1      39.435  32.270  35.408  1.00  0.00     0.023 A 
ATOM     66  C   UNL A   1      39.776  33.631  35.501  1.00  0.00     0.031 A 
ATOM     67  C   UNL A   1      38.634  31.724  36.426  1.00  0.00     0.131 A 
ATOM     68  C   UNL A   1      39.386  34.377  36.623  1.00  0.00     0.055 A 
ATOM     69  C   UNL A   1      38.175  32.494  37.497  1.00  0.00     0.041 A 
ATOM     70  F   UNL A   1      38.290  30.426  36.404  1.00  0.00    -0.206 F 
ATOM     71  C   UNL A   1      38.565  33.825  37.609  1.00  0.00     0.022 A 
BRANCH  68  72
ATOM     72  S   UNL A   1      40.091  36.032  36.852  1.00  0.00     0.124 S 
ATOM     73  O   UNL A   1      41.505  35.724  37.059  1.00  0.00    -0.237 OA
ATOM     74  O   UNL A   1      39.759  36.693  35.595  1.00  0.00    -0.237 OA
ATOM     75  O   UNL A   1      39.394  36.543  38.030  1.00  0.00    -0.744 OA
ENDBRANCH  68  72
ENDBRANCH  51  65
BRANCH  52  76
ATOM     76  C   UNL A   1      42.458  26.935  27.480  1.00  0.00     0.023 A 
ATOM     77  C   UNL A   1      42.151  25.576  27.311  1.00  0.00     0.031 A 
ATOM     78  C   UNL A   1      43.275  27.549  26.514  1.00  0.00     0.131 A 
ATOM     79  C   UNL A   1      42.698  24.863  26.232  1.00  0.00     0.055 A 
ATOM     80  C   UNL A   1      43.768  26.851  25.410  1.00  0.00     0.041 A 
ATOM     81  F   UNL A   1      43.600  28.848  26.625  1.00  0.00    -0.206 F 
ATOM     82  C   UNL A   1      43.491  25.495  25.272  1.00  0.00     0.022 A 
BRANCH  79  83
ATOM     83  S   UNL A   1      42.432  23.070  26.150  1.00  0.00     0.124 S 
ATOM     84  O   UNL A   1      41.008  22.967  26.450  1.00  0.00    -0.237 OA
ATOM     85  O   UNL A   1      42.822  22.767  24.777  1.00  0.00    -0.237 OA
ATOM     86  O   UNL A   1      43.327  22.547  27.181  1.00  0.00    -0.744 OA
ENDBRANCH  79  83
ENDBRANCH  52  76
BRANCH  64  87
ATOM     87  C   UNL A   1      45.122  28.054  33.831  1.00  0.00     0.023 A 
ATOM     88  C   UNL A   1      45.128  26.856  34.566  1.00  0.00     0.031 A 
ATOM     89  C   UNL A   1      46.321  28.785  33.751  1.00  0.00     0.131 A 
ATOM     90  C   UNL A   1      46.292  26.454  35.240  1.00  0.00     0.055 A 
ATOM     91  C   UNL A   1      47.493  28.346  34.368  1.00  0.00     0.041 A 
ATOM     92  F   UNL A   1      46.374  29.939  33.067  1.00  0.00    -0.206 F 
ATOM     93  C   UNL A   1      47.480  27.182  35.130  1.00  0.00     0.022 A 
BRANCH  90  94
ATOM     94  S   UNL A   1      46.208  25.018  36.345  1.00  0.00     0.124 S 
ATOM     95  O   UNL A   1      47.412  25.187  37.153  1.00  0.00    -0.237 OA
ATOM     96  O   UNL A   1      44.941  25.229  37.038  1.00  0.00    -0.237 OA
ATOM     97  O   UNL A   1      46.230  23.878  35.430  1.00  0.00    -0.744 OA
ENDBRANCH  90  94
ENDBRANCH  64  87
ENDBRANCH  38  39
ENDBRANCH  30  33
ENDBRANCH  28  29
ENDBRANCH   1  28
TORSDOF 19
ENDMDL
MODEL 2
REMARK VINA RESULT:     -11.6      0.636      7.654
REMARK SMILES C[C@@](COc1ccccc1)(NC(=O)CN1CSCC1=O)C(=O)NCCCNC(=O)c1ccc(-c2c3nc(c(-c4cc(S(=O)(=O)[O-])ccc4F)c4ccc([nH]4)c(-c4cc(S(=O)(=O)[O-])ccc4F)c4nc(c(-c5cc(S(=O)(=O)[O-])ccc5F)c5ccc2[nH]5)C=C4)C=C3)cc1
REMARK SMILES IDX 25 1 24 2 23 3 21 4 22 5 2 7 1 8 3 9 4 10 5 11 6 12 10 13
REMARK SMILES IDX 7 14 9 15 8 16 11 17 12 18 13 20 14 21 15 22 16 23 19 24
REMARK SMILES IDX 17 25 18 26 20 27 26 28 27 29 28 30 29 32 30 33 31 34 92 35
REMARK SMILES IDX 32 36 91 37 33 38 34 39 35 40 85 41 36 42 90 43 84 44 86 45
REMARK SMILES IDX 37 46 89 47 83 48 82 49 38 51 70 52 50 53 69 54 51 55 54 56
REMARK SMILES IDX 68 57 87 58 52 59 53 60 67 62 88 63 55 64 39 65 40 66 48 67
REMARK SMILES IDX 41 68 47 69 49 70 46 71 42 72 43 73 44 74 45 75 71 76 72 77
REMARK SMILES IDX 80 78 73 79 79 80 81 81 78 82 74 83 75 84 76 85 77 86 56 87
REMARK SMILES IDX 57 88 65 89 58 90 64 91 66 92 63 93 59 94 60 95 61 96 62 97
REMARK H PARENT 23 6 11 19 27 31 86 50 54 61
REMARK Flexibility Score: inf
ROOT
ATOM      1  C   UNL A   1      31.432  28.707  26.222  1.00  0.00     0.042 C 
ENDROOT
BRANCH   1   2
ATOM      2  C   UNL A   1      31.808  27.264  26.541  1.00  0.00     0.117 C 
BRANCH   2   3
ATOM      3  N   UNL A   1      32.523  26.569  25.482  1.00  0.00    -0.354 N 
ATOM      4  C   UNL A   1      32.096  25.745  24.486  1.00  0.00     0.249 C 
ATOM      5  O   UNL A   1      32.851  25.622  23.514  1.00  0.00    -0.272 OA
ATOM      6  H   UNL A   1      33.495  26.724  25.487  1.00  0.00     0.163 HD
BRANCH   4   7
ATOM      7  C   UNL A   1      30.676  25.132  24.461  1.00  0.00     0.150 C 
ATOM      8  C   UNL A   1      30.637  23.985  23.425  1.00  0.00     0.049 C 
BRANCH   7   9
ATOM      9  C   UNL A   1      29.723  26.277  23.976  1.00  0.00     0.267 C 
BRANCH   9  10
ATOM     10  O   UNL A   1      30.473  27.379  23.416  1.00  0.00    -0.491 OA
BRANCH  10  11
ATOM     11  C   UNL A   1      29.653  28.364  22.945  1.00  0.00     0.119 A 
ATOM     12  C   UNL A   1      30.176  29.426  22.213  1.00  0.00     0.046 A 
ATOM     13  C   UNL A   1      28.297  28.318  23.260  1.00  0.00     0.046 A 
ATOM     14  C   UNL A   1      29.316  30.408  21.722  1.00  0.00     0.004 A 
ATOM     15  C   UNL A   1      27.435  29.281  22.742  1.00  0.00     0.004 A 
ATOM     16  C   UNL A   1      27.943  30.322  21.968  1.00  0.00     0.000 A 
ENDBRANCH  10  11
ENDBRANCH   9  10
ENDBRANCH   7   9
BRANCH   7  17
ATOM     17  N   UNL A   1      30.182  24.646  25.776  1.00  0.00    -0.338 N 
ATOM     18  C   UNL A   1      30.645  23.729  26.665  1.00  0.00     0.240 C 
ATOM     19  H   UNL A   1      29.346  25.079  26.062  1.00  0.00     0.164 HD
ATOM     20  O   UNL A   1      29.823  23.246  27.450  1.00  0.00    -0.273 OA
BRANCH  18  21
ATOM     21  C   UNL A   1      32.127  23.385  26.797  1.00  0.00     0.220 C 
BRANCH  21  22
ATOM     22  N   UNL A   1      32.679  22.485  25.809  1.00  0.00    -0.323 N 
ATOM     23  C   UNL A   1      32.005  21.253  25.508  1.00  0.00     0.190 C 
ATOM     24  C   UNL A   1      33.967  22.654  25.331  1.00  0.00     0.233 C 
ATOM     25  S   UNL A   1      33.035  20.345  24.350  1.00  0.00    -0.130 SA
ATOM     26  C   UNL A   1      34.341  21.599  24.320  1.00  0.00     0.171 C 
ATOM     27  O   UNL A   1      34.712  23.566  25.664  1.00  0.00    -0.274 OA
ENDBRANCH  21  22
ENDBRANCH  18  21
ENDBRANCH   7  17
ENDBRANCH   4   7
ENDBRANCH   2   3
ENDBRANCH   1   2
BRANCH   1  28
ATOM     28  C   UNL A   1      32.594  29.612  25.829  1.00  0.00     0.118 C 
BRANCH  28  29
ATOM     29  N   UNL A   1      32.334  31.011  26.116  1.00  0.00    -0.352 N 
ATOM     30  C   UNL A   1      32.962  31.863  26.991  1.00  0.00     0.251 C 
ATOM     31  H   UNL A   1      31.592  31.411  25.607  1.00  0.00     0.163 HD
ATOM     32  O   UNL A   1      32.453  32.954  27.231  1.00  0.00    -0.269 OA
BRANCH  30  33
ATOM     33  C   UNL A   1      34.221  31.465  27.663  1.00  0.00     0.039 A 
ATOM     34  C   UNL A   1      35.166  32.451  27.954  1.00  0.00     0.014 A 
ATOM     35  C   UNL A   1      34.491  30.129  27.979  1.00  0.00     0.014 A 
ATOM     36  C   UNL A   1      36.351  32.109  28.613  1.00  0.00     0.010 A 
ATOM     37  C   UNL A   1      35.636  29.802  28.706  1.00  0.00     0.010 A 
ATOM     38  C   UNL A   1      36.583  30.787  29.026  1.00  0.00    -0.014 A 
BRANCH  38  39
ATOM     39  C   UNL A   1      37.814  30.424  29.779  1.00  0.00     0.031 A 
ATOM     40  C   UNL A   1      38.821  29.479  29.178  1.00  0.00     0.074 A 
ATOM     41  C   UNL A   1      38.009  30.913  31.021  1.00  0.00     0.049 A 
ATOM     42  N   UNL A   1      39.926  29.005  29.697  1.00  0.00    -0.248 NA
ATOM     43  C   UNL A   1      38.533  28.981  27.825  1.00  0.00     0.031 C 
ATOM     44  C   UNL A   1      37.091  31.813  31.725  1.00  0.00     0.029 A 
ATOM     45  N   UNL A   1      39.035  30.724  31.913  1.00  0.00    -0.354 N 
ATOM     46  C   UNL A   1      40.460  28.149  28.740  1.00  0.00     0.074 A 
ATOM     47  C   UNL A   1      39.522  28.120  27.637  1.00  0.00     0.031 C 
ATOM     48  C   UNL A   1      37.611  32.118  32.925  1.00  0.00     0.029 A 
ATOM     49  C   UNL A   1      38.869  31.399  33.101  1.00  0.00     0.049 A 
ATOM     50  H   UNL A   1      39.817  30.158  31.720  1.00  0.00     0.167 HD
ATOM     51  C   UNL A   1      41.632  27.467  28.767  1.00  0.00     0.034 A 
ATOM     52  C   UNL A   1      39.634  31.427  34.211  1.00  0.00     0.034 A 
ATOM     53  C   UNL A   1      42.560  27.509  29.873  1.00  0.00     0.049 A 
ATOM     54  C   UNL A   1      40.913  30.629  34.234  1.00  0.00     0.074 A 
ATOM     55  C   UNL A   1      43.797  26.898  29.983  1.00  0.00     0.029 A 
ATOM     56  N   UNL A   1      42.350  28.192  31.064  1.00  0.00    -0.354 N 
ATOM     57  N   UNL A   1      41.428  29.862  33.300  1.00  0.00    -0.248 NA
ATOM     58  C   UNL A   1      41.722  30.709  35.458  1.00  0.00     0.031 C 
ATOM     59  C   UNL A   1      44.298  27.145  31.266  1.00  0.00     0.029 A 
ATOM     60  C   UNL A   1      43.417  27.986  31.927  1.00  0.00     0.049 A 
ATOM     61  H   UNL A   1      41.559  28.742  31.267  1.00  0.00     0.167 HD
ATOM     62  C   UNL A   1      42.635  29.396  33.814  1.00  0.00     0.074 A 
ATOM     63  C   UNL A   1      42.779  29.981  35.131  1.00  0.00     0.031 C 
ATOM     64  C   UNL A   1      43.546  28.565  33.245  1.00  0.00     0.034 A 
BRANCH  51  65
ATOM     65  C   UNL A   1      41.960  26.595  27.576  1.00  0.00     0.023 A 
ATOM     66  C   UNL A   1      41.623  25.231  27.542  1.00  0.00     0.031 A 
ATOM     67  C   UNL A   1      42.638  27.130  26.466  1.00  0.00     0.131 A 
ATOM     68  C   UNL A   1      42.032  24.433  26.463  1.00  0.00     0.055 A 
ATOM     69  C   UNL A   1      42.965  26.350  25.355  1.00  0.00     0.041 A 
ATOM     70  F   UNL A   1      43.004  28.422  26.446  1.00  0.00    -0.206 F 
ATOM     71  C   UNL A   1      42.677  24.989  25.356  1.00  0.00     0.022 A 
BRANCH  68  72
ATOM     72  S   UNL A   1      41.843  22.634  26.593  1.00  0.00     0.124 S 
ATOM     73  O   UNL A   1      42.303  22.193  25.278  1.00  0.00    -0.237 OA
ATOM     74  O   UNL A   1      42.713  22.306  27.717  1.00  0.00    -0.237 OA
ATOM     75  O   UNL A   1      40.414  22.455  26.837  1.00  0.00    -0.744 OA
ENDBRANCH  68  72
ENDBRANCH  51  65
BRANCH  52  76
ATOM     76  C   UNL A   1      39.211  32.222  35.401  1.00  0.00     0.023 A 
ATOM     77  C   UNL A   1      39.643  33.546  35.579  1.00  0.00     0.031 A 
ATOM     78  C   UNL A   1      38.407  31.653  36.404  1.00  0.00     0.131 A 
ATOM     79  C   UNL A   1      39.310  34.240  36.753  1.00  0.00     0.055 A 
ATOM     80  C   UNL A   1      38.029  32.366  37.543  1.00  0.00     0.041 A 
ATOM     81  F   UNL A   1      37.966  30.390  36.285  1.00  0.00    -0.206 F 
ATOM     82  C   UNL A   1      38.493  33.664  37.729  1.00  0.00     0.022 A 
BRANCH  79  83
ATOM     83  S   UNL A   1      40.038  35.878  37.032  1.00  0.00     0.124 S 
ATOM     84  O   UNL A   1      41.453  35.553  37.175  1.00  0.00    -0.237 OA
ATOM     85  O   UNL A   1      39.663  36.588  35.813  1.00  0.00    -0.237 OA
ATOM     86  O   UNL A   1      39.377  36.342  38.250  1.00  0.00    -0.744 OA
ENDBRANCH  79  83
ENDBRANCH  52  76
BRANCH  64  87
ATOM     87  C   UNL A   1      44.804  28.280  34.031  1.00  0.00     0.023 A 
ATOM     88  C   UNL A   1      44.905  27.178  34.898  1.00  0.00     0.031 A 
ATOM     89  C   UNL A   1      45.915  29.133  33.917  1.00  0.00     0.131 A 
ATOM     90  C   UNL A   1      46.069  26.992  35.661  1.00  0.00     0.055 A 
ATOM     91  C   UNL A   1      47.095  28.906  34.628  1.00  0.00     0.041 A 
ATOM     92  F   UNL A   1      45.875  30.205  33.108  1.00  0.00    -0.206 F 
ATOM     93  C   UNL A   1      47.171  27.838  35.516  1.00  0.00     0.022 A 
BRANCH  90  94
ATOM     94  S   UNL A   1      46.088  25.686  36.919  1.00  0.00     0.124 S 
ATOM     95  O   UNL A   1      44.818  25.009  36.672  1.00  0.00    -0.237 OA
ATOM     96  O   UNL A   1      47.289  24.934  36.573  1.00  0.00    -0.237 OA
ATOM     97  O   UNL A   1      46.162  26.424  38.179  1.00  0.00    -0.744 OA
ENDBRANCH  90  94
ENDBRANCH  64  87
ENDBRANCH  38  39
ENDBRANCH  30  33
ENDBRANCH  28  29
ENDBRANCH   1  28
TORSDOF 19
ENDMDL
MODEL 3
REMARK VINA RESULT:     -11.5      4.814     10.025
REMARK SMILES C[C@@](COc1ccccc1)(NC(=O)CN1CSCC1=O)C(=O)NCCCNC(=O)c1ccc(-c2c3nc(c(-c4cc(S(=O)(=O)[O-])ccc4F)c4ccc([nH]4)c(-c4cc(S(=O)(=O)[O-])ccc4F)c4nc(c(-c5cc(S(=O)(=O)[O-])ccc5F)c5ccc2[nH]5)C=C4)C=C3)cc1
REMARK SMILES IDX 25 1 24 2 23 3 21 4 22 5 2 7 1 8 3 9 4 10 5 11 6 12 10 13
REMARK SMILES IDX 7 14 9 15 8 16 11 17 12 18 13 20 14 21 15 22 16 23 19 24
REMARK SMILES IDX 17 25 18 26 20 27 26 28 27 29 28 30 29 32 30 33 31 34 92 35
REMARK SMILES IDX 32 36 91 37 33 38 34 39 35 40 85 41 36 42 90 43 84 44 86 45
REMARK SMILES IDX 37 46 89 47 83 48 82 49 38 51 70 52 50 53 69 54 51 55 54 56
REMARK SMILES IDX 68 57 87 58 52 59 53 60 67 62 88 63 55 64 39 65 40 66 48 67
REMARK SMILES IDX 41 68 47 69 49 70 46 71 42 72 43 73 44 74 45 75 71 76 72 77
REMARK SMILES IDX 80 78 73 79 79 80 81 81 78 82 74 83 75 84 76 85 77 86 56 87
REMARK SMILES IDX 57 88 65 89 58 90 64 91 66 92 63 93 59 94 60 95 61 96 62 97
REMARK H PARENT 23 6 11 19 27 31 86 50 54 61
REMARK Flexibility Score: inf
ROOT
ATOM      1  C   UNL A   1      36.511  22.961  24.596  1.00  0.00     0.042 C 
ENDROOT
BRANCH   1   2
ATOM      2  C   UNL A   1      35.104  22.730  24.054  1.00  0.00     0.117 C 
BRANCH   2   3
ATOM      3  N   UNL A   1      34.045  23.389  24.801  1.00  0.00    -0.354 N 
ATOM      4  C   UNL A   1      32.731  23.604  24.517  1.00  0.00     0.249 C 
ATOM      5  O   UNL A   1      31.991  23.832  25.481  1.00  0.00    -0.272 OA
ATOM      6  H   UNL A   1      34.331  23.745  25.673  1.00  0.00     0.163 HD
BRANCH   4   7
ATOM      7  C   UNL A   1      32.138  23.401  23.103  1.00  0.00     0.150 C 
ATOM      8  C   UNL A   1      30.622  23.700  23.140  1.00  0.00     0.049 C 
BRANCH   7   9
ATOM      9  C   UNL A   1      32.341  21.884  22.767  1.00  0.00     0.267 C 
BRANCH   9  10
ATOM     10  O   UNL A   1      32.155  21.060  23.941  1.00  0.00    -0.491 OA
BRANCH  10  11
ATOM     11  C   UNL A   1      32.700  19.818  23.781  1.00  0.00     0.119 A 
ATOM     12  C   UNL A   1      32.201  18.948  22.817  1.00  0.00     0.046 A 
ATOM     13  C   UNL A   1      33.722  19.417  24.638  1.00  0.00     0.046 A 
ATOM     14  C   UNL A   1      32.788  17.693  22.656  1.00  0.00     0.004 A 
ATOM     15  C   UNL A   1      34.330  18.177  24.455  1.00  0.00     0.004 A 
ATOM     16  C   UNL A   1      33.867  17.318  23.460  1.00  0.00     0.000 A 
ENDBRANCH  10  11
ENDBRANCH   9  10
ENDBRANCH   7   9
BRANCH   7  17
ATOM     17  N   UNL A   1      32.787  24.201  22.032  1.00  0.00    -0.338 N 
ATOM     18  C   UNL A   1      32.459  25.361  21.405  1.00  0.00     0.240 C 
ATOM     19  H   UNL A   1      33.631  23.810  21.710  1.00  0.00     0.164 HD
ATOM     20  O   UNL A   1      32.959  25.558  20.294  1.00  0.00    -0.273 OA
BRANCH  18  21
ATOM     21  C   UNL A   1      31.615  26.446  22.070  1.00  0.00     0.220 C 
BRANCH  21  22
ATOM     22  N   UNL A   1      32.108  26.984  23.319  1.00  0.00    -0.323 N 
ATOM     23  C   UNL A   1      33.523  27.077  23.549  1.00  0.00     0.190 C 
ATOM     24  C   UNL A   1      31.261  27.174  24.397  1.00  0.00     0.233 C 
ATOM     25  S   UNL A   1      33.756  27.659  25.232  1.00  0.00    -0.130 SA
ATOM     26  C   UNL A   1      31.985  27.732  25.598  1.00  0.00     0.171 C 
ATOM     27  O   UNL A   1      30.060  26.944  24.379  1.00  0.00    -0.274 OA
ENDBRANCH  21  22
ENDBRANCH  18  21
ENDBRANCH   7  17
ENDBRANCH   4   7
ENDBRANCH   2   3
ENDBRANCH   1   2
BRANCH   1  28
ATOM     28  C   UNL A   1      36.764  22.427  26.001  1.00  0.00     0.118 C 
BRANCH  28  29
ATOM     29  N   UNL A   1      37.873  21.492  26.052  1.00  0.00    -0.352 N 
ATOM     30  C   UNL A   1      39.209  21.719  26.274  1.00  0.00     0.251 C 
ATOM     31  H   UNL A   1      37.631  20.549  25.902  1.00  0.00     0.163 HD
ATOM     32  O   UNL A   1      40.011  20.811  26.072  1.00  0.00    -0.269 OA
BRANCH  30  33
ATOM     33  C   UNL A   1      39.686  23.048  26.722  1.00  0.00     0.039 A 
ATOM     34  C   UNL A   1      40.533  23.117  27.830  1.00  0.00     0.014 A 
ATOM     35  C   UNL A   1      39.283  24.224  26.081  1.00  0.00     0.014 A 
ATOM     36  C   UNL A   1      41.022  24.355  28.259  1.00  0.00     0.010 A 
ATOM     37  C   UNL A   1      39.834  25.449  26.460  1.00  0.00     0.010 A 
ATOM     38  C   UNL A   1      40.705  25.530  27.557  1.00  0.00    -0.014 A 
BRANCH  38  39
ATOM     39  C   UNL A   1      41.267  26.845  27.970  1.00  0.00     0.031 A 
ATOM     40  C   UNL A   1      42.703  27.185  27.671  1.00  0.00     0.074 A 
ATOM     41  C   UNL A   1      40.496  27.719  28.650  1.00  0.00     0.049 A 
ATOM     42  N   UNL A   1      43.385  28.255  27.994  1.00  0.00    -0.248 NA
ATOM     43  C   UNL A   1      43.481  26.177  26.936  1.00  0.00     0.031 C 
ATOM     44  C   UNL A   1      39.098  27.493  29.027  1.00  0.00     0.029 A 
ATOM     45  N   UNL A   1      40.773  28.968  29.146  1.00  0.00    -0.354 N 
ATOM     46  C   UNL A   1      44.672  28.047  27.509  1.00  0.00     0.074 A 
ATOM     47  C   UNL A   1      44.689  26.720  26.929  1.00  0.00     0.031 C 
ATOM     48  C   UNL A   1      38.636  28.577  29.669  1.00  0.00     0.029 A 
ATOM     49  C   UNL A   1      39.712  29.555  29.796  1.00  0.00     0.049 A 
ATOM     50  H   UNL A   1      41.651  29.403  29.047  1.00  0.00     0.167 HD
ATOM     51  C   UNL A   1      45.735  28.890  27.525  1.00  0.00     0.034 A 
ATOM     52  C   UNL A   1      39.617  30.739  30.435  1.00  0.00     0.034 A 
ATOM     53  C   UNL A   1      45.701  30.212  28.103  1.00  0.00     0.049 A 
ATOM     54  C   UNL A   1      40.824  31.643  30.475  1.00  0.00     0.074 A 
ATOM     55  C   UNL A   1      46.704  31.167  28.128  1.00  0.00     0.029 A 
ATOM     56  N   UNL A   1      44.612  30.766  28.765  1.00  0.00    -0.354 N 
ATOM     57  N   UNL A   1      42.021  31.450  29.969  1.00  0.00    -0.248 NA
ATOM     58  C   UNL A   1      40.664  32.931  31.165  1.00  0.00     0.031 C 
ATOM     59  C   UNL A   1      46.251  32.261  28.872  1.00  0.00     0.029 A 
ATOM     60  C   UNL A   1      44.933  32.032  29.235  1.00  0.00     0.049 A 
ATOM     61  H   UNL A   1      43.741  30.324  28.884  1.00  0.00     0.167 HD
ATOM     62  C   UNL A   1      42.743  32.606  30.251  1.00  0.00     0.074 A 
ATOM     63  C   UNL A   1      41.844  33.496  30.956  1.00  0.00     0.031 C 
ATOM     64  C   UNL A   1      44.032  32.907  29.949  1.00  0.00     0.034 A 
BRANCH  51  65
ATOM     65  C   UNL A   1      47.030  28.391  26.924  1.00  0.00     0.023 A 
ATOM     66  C   UNL A   1      47.224  28.327  25.534  1.00  0.00     0.031 A 
ATOM     67  C   UNL A   1      48.078  27.954  27.754  1.00  0.00     0.131 A 
ATOM     68  C   UNL A   1      48.401  27.766  25.014  1.00  0.00     0.055 A 
ATOM     69  C   UNL A   1      49.283  27.477  27.231  1.00  0.00     0.041 A 
ATOM     70  F   UNL A   1      47.947  27.972  29.090  1.00  0.00    -0.206 F 
ATOM     71  C   UNL A   1      49.443  27.365  25.853  1.00  0.00     0.022 A 
BRANCH  68  72
ATOM     72  S   UNL A   1      48.488  27.427  23.235  1.00  0.00     0.124 S 
ATOM     73  O   UNL A   1      48.392  25.969  23.207  1.00  0.00    -0.237 OA
ATOM     74  O   UNL A   1      47.333  28.153  22.719  1.00  0.00    -0.237 OA
ATOM     75  O   UNL A   1      49.789  27.966  22.846  1.00  0.00    -0.744 OA
ENDBRANCH  68  72
ENDBRANCH  51  65
BRANCH  52  76
ATOM     76  C   UNL A   1      38.345  31.139  31.103  1.00  0.00     0.023 A 
ATOM     77  C   UNL A   1      37.301  31.737  30.378  1.00  0.00     0.031 A 
ATOM     78  C   UNL A   1      38.170  30.972  32.488  1.00  0.00     0.131 A 
ATOM     79  C   UNL A   1      36.153  32.191  31.047  1.00  0.00     0.055 A 
ATOM     80  C   UNL A   1      37.002  31.371  33.140  1.00  0.00     0.041 A 
ATOM     81  F   UNL A   1      39.135  30.405  33.231  1.00  0.00    -0.206 F 
ATOM     82  C   UNL A   1      35.990  31.998  32.421  1.00  0.00     0.022 A 
BRANCH  79  83
ATOM     83  S   UNL A   1      34.912  33.124  30.109  1.00  0.00     0.124 S 
ATOM     84  O   UNL A   1      34.397  32.104  29.203  1.00  0.00    -0.237 OA
ATOM     85  O   UNL A   1      34.004  33.564  31.163  1.00  0.00    -0.237 OA
ATOM     86  O   UNL A   1      35.692  34.186  29.477  1.00  0.00    -0.744 OA
ENDBRANCH  79  83
ENDBRANCH  52  76
BRANCH  64  87
ATOM     87  C   UNL A   1      44.528  34.280  30.340  1.00  0.00     0.023 A 
ATOM     88  C   UNL A   1      44.349  35.400  29.509  1.00  0.00     0.031 A 
ATOM     89  C   UNL A   1      45.200  34.465  31.561  1.00  0.00     0.131 A 
ATOM     90  C   UNL A   1      44.888  36.642  29.882  1.00  0.00     0.055 A 
ATOM     91  C   UNL A   1      45.675  35.716  31.958  1.00  0.00     0.041 A 
ATOM     92  F   UNL A   1      45.404  33.431  32.394  1.00  0.00    -0.206 F 
ATOM     93  C   UNL A   1      45.533  36.810  31.111  1.00  0.00     0.022 A 
BRANCH  90  94
ATOM     94  S   UNL A   1      44.822  38.013  28.697  1.00  0.00     0.124 S 
ATOM     95  O   UNL A   1      45.223  39.147  29.524  1.00  0.00    -0.237 OA
ATOM     96  O   UNL A   1      45.780  37.594  27.680  1.00  0.00    -0.237 OA
ATOM     97  O   UNL A   1      43.425  38.025  28.264  1.00  0.00    -0.744 OA
ENDBRANCH  90  94
ENDBRANCH  64  87
ENDBRANCH  38  39
ENDBRANCH  30  33
ENDBRANCH  28  29
ENDBRANCH   1  28
TORSDOF 19
ENDMDL
