MODEL 1
REMARK VINA RESULT:     -12.9      0.000      0.000
REMARK SMILES O=C(NCCCNC(=O)[C@H]1CCCN(C(=O)c2ccc(NC(=O)c3ccccc3)cc2)C1)c1ccc(-c2c3nc(c(-c4cc(S(=O)(=O)[O-])ccc4F)c4ccc([nH]4)c(-c4cc(S(=O)(=O)[O-])ccc4F)c4nc(c(-c5cc(S(=O)(=O)[O-])ccc5F)c5ccc2[nH]5)C=C4)C=C3)cc1
REMARK SMILES IDX 5 1 4 2 3 3 1 4 2 5 33 7 34 8 95 9 35 10 94 11 36 12 37 13
REMARK SMILES IDX 38 14 88 15 39 16 93 17 87 18 89 19 40 20 92 21 86 22 85 23
REMARK SMILES IDX 41 25 73 26 53 27 72 28 54 29 57 30 71 31 90 32 55 33 56 34
REMARK SMILES IDX 70 36 91 37 58 38 42 39 43 40 51 41 44 42 50 43 52 44 49 45
REMARK SMILES IDX 45 46 46 47 47 48 48 49 74 50 75 51 83 52 76 53 82 54 84 55
REMARK SMILES IDX 81 56 77 57 78 58 79 59 80 60 59 61 60 62 68 63 61 64 67 65
REMARK SMILES IDX 69 66 66 67 62 68 63 69 64 70 65 71 6 72 7 73 8 74 9 76
REMARK SMILES IDX 10 77 11 78 32 79 12 80 14 81 13 82 15 83 16 84 17 85 18 86
REMARK SMILES IDX 31 87 19 88 30 89 20 90 21 91 22 92 23 94 24 95 25 96 29 97
REMARK SMILES IDX 26 98 28 99 27 100
REMARK H PARENT 3 6 89 24 57 35 7 75 21 93
REMARK Flexibility Score: inf
ROOT
ATOM      1  C   UNL A   1      31.352  31.886  26.507  1.00  0.00     0.042 C 
ENDROOT
BRANCH   1   2
ATOM      2  C   UNL A   1      32.668  32.556  26.870  1.00  0.00     0.118 C 
BRANCH   2   3
ATOM      3  N   UNL A   1      32.508  33.822  27.573  1.00  0.00    -0.352 N 
ATOM      4  O   UNL A   1      32.792  35.411  29.135  1.00  0.00    -0.269 OA
ATOM      5  C   UNL A   1      33.208  34.378  28.622  1.00  0.00     0.251 C 
ATOM      6  H   UNL A   1      31.768  34.380  27.240  1.00  0.00     0.163 HD
BRANCH   5   7
ATOM      7  C   UNL A   1      34.427  33.726  29.157  1.00  0.00     0.039 A 
ATOM      8  C   UNL A   1      34.344  32.579  29.940  1.00  0.00     0.014 A 
ATOM      9  C   UNL A   1      35.686  34.253  28.848  1.00  0.00     0.014 A 
ATOM     10  C   UNL A   1      35.470  32.101  30.596  1.00  0.00     0.010 A 
ATOM     11  C   UNL A   1      36.843  33.673  29.388  1.00  0.00     0.010 A 
ATOM     12  C   UNL A   1      36.742  32.615  30.303  1.00  0.00    -0.014 A 
BRANCH  12  13
ATOM     13  C   UNL A   1      37.931  31.967  30.922  1.00  0.00     0.031 A 
ATOM     14  C   UNL A   1      38.339  32.269  32.340  1.00  0.00     0.074 A 
ATOM     15  C   UNL A   1      38.603  31.040  30.207  1.00  0.00     0.049 A 
ATOM     16  N   UNL A   1      39.330  31.770  33.034  1.00  0.00    -0.248 NA
ATOM     17  C   UNL A   1      37.540  33.266  33.067  1.00  0.00     0.031 C 
ATOM     18  C   UNL A   1      38.299  30.666  28.821  1.00  0.00     0.029 A 
ATOM     19  N   UNL A   1      39.645  30.215  30.545  1.00  0.00    -0.354 N 
ATOM     20  C   UNL A   1      39.286  32.400  34.274  1.00  0.00     0.074 A 
ATOM     21  C   UNL A   1      38.192  33.347  34.219  1.00  0.00     0.031 C 
ATOM     22  C   UNL A   1      39.079  29.641  28.458  1.00  0.00     0.029 A 
ATOM     23  C   UNL A   1      40.006  29.345  29.541  1.00  0.00     0.049 A 
ATOM     24  H   UNL A   1      40.093  30.244  31.421  1.00  0.00     0.167 HD
ATOM     25  C   UNL A   1      40.078  32.197  35.358  1.00  0.00     0.034 A 
ATOM     26  C   UNL A   1      40.991  28.429  29.481  1.00  0.00     0.034 A 
ATOM     27  C   UNL A   1      41.166  31.247  35.392  1.00  0.00     0.049 A 
ATOM     28  C   UNL A   1      41.879  28.256  30.683  1.00  0.00     0.074 A 
ATOM     29  C   UNL A   1      42.036  30.966  36.432  1.00  0.00     0.029 A 
ATOM     30  N   UNL A   1      41.534  30.419  34.338  1.00  0.00    -0.354 N 
ATOM     31  N   UNL A   1      41.829  28.874  31.840  1.00  0.00    -0.248 NA
ATOM     32  C   UNL A   1      42.956  27.266  30.569  1.00  0.00     0.031 C 
ATOM     33  C   UNL A   1      42.964  30.016  35.988  1.00  0.00     0.029 A 
ATOM     34  C   UNL A   1      42.630  29.647  34.696  1.00  0.00     0.049 A 
ATOM     35  H   UNL A   1      41.083  30.386  33.463  1.00  0.00     0.167 HD
ATOM     36  C   UNL A   1      42.862  28.336  32.599  1.00  0.00     0.074 A 
ATOM     37  C   UNL A   1      43.495  27.322  31.778  1.00  0.00     0.031 C 
ATOM     38  C   UNL A   1      43.259  28.654  33.857  1.00  0.00     0.034 A 
BRANCH  25  39
ATOM     39  C   UNL A   1      39.821  33.053  36.577  1.00  0.00     0.023 A 
ATOM     40  C   UNL A   1      39.067  32.582  37.667  1.00  0.00     0.031 A 
ATOM     41  C   UNL A   1      40.321  34.366  36.645  1.00  0.00     0.131 A 
ATOM     42  C   UNL A   1      38.780  33.435  38.744  1.00  0.00     0.055 A 
ATOM     43  C   UNL A   1      40.097  35.185  37.754  1.00  0.00     0.041 A 
ATOM     44  F   UNL A   1      41.029  34.881  35.628  1.00  0.00    -0.206 F 
ATOM     45  C   UNL A   1      39.311  34.725  38.807  1.00  0.00     0.022 A 
BRANCH  42  46
ATOM     46  S   UNL A   1      37.592  32.881  39.998  1.00  0.00     0.124 S 
ATOM     47  O   UNL A   1      37.606  34.001  40.935  1.00  0.00    -0.237 OA
ATOM     48  O   UNL A   1      36.369  32.713  39.223  1.00  0.00    -0.237 OA
ATOM     49  O   UNL A   1      38.183  31.645  40.509  1.00  0.00    -0.744 OA
ENDBRANCH  42  46
ENDBRANCH  25  39
BRANCH  26  50
ATOM     50  C   UNL A   1      41.220  27.648  28.232  1.00  0.00     0.023 A 
ATOM     51  C   UNL A   1      40.886  26.288  28.150  1.00  0.00     0.031 A 
ATOM     52  C   UNL A   1      41.815  28.249  27.106  1.00  0.00     0.131 A 
ATOM     53  C   UNL A   1      41.187  25.564  26.986  1.00  0.00     0.055 A 
ATOM     54  C   UNL A   1      42.054  27.539  25.929  1.00  0.00     0.041 A 
ATOM     55  F   UNL A   1      42.155  29.547  27.128  1.00  0.00    -0.206 F 
ATOM     56  C   UNL A   1      41.753  26.183  25.871  1.00  0.00     0.022 A 
BRANCH  53  57
ATOM     57  S   UNL A   1      40.920  23.770  26.988  1.00  0.00     0.124 S 
ATOM     58  O   UNL A   1      41.809  23.334  25.918  1.00  0.00    -0.237 OA
ATOM     59  O   UNL A   1      41.321  23.407  28.343  1.00  0.00    -0.237 OA
ATOM     60  O   UNL A   1      39.491  23.640  26.706  1.00  0.00    -0.744 OA
ENDBRANCH  53  57
ENDBRANCH  26  50
BRANCH  38  61
ATOM     61  C   UNL A   1      44.412  27.860  34.418  1.00  0.00     0.023 A 
ATOM     62  C   UNL A   1      44.205  26.679  35.153  1.00  0.00     0.031 A 
ATOM     63  C   UNL A   1      45.732  28.314  34.251  1.00  0.00     0.131 A 
ATOM     64  C   UNL A   1      45.294  26.030  35.752  1.00  0.00     0.055 A 
ATOM     65  C   UNL A   1      46.818  27.630  34.798  1.00  0.00     0.041 A 
ATOM     66  F   UNL A   1      45.985  29.438  33.561  1.00  0.00    -0.206 F 
ATOM     67  C   UNL A   1      46.601  26.490  35.566  1.00  0.00     0.022 A 
BRANCH  64  68
ATOM     68  S   UNL A   1      44.970  24.636  36.865  1.00  0.00     0.124 S 
ATOM     69  O   UNL A   1      44.742  23.543  35.925  1.00  0.00    -0.237 OA
ATOM     70  O   UNL A   1      46.203  24.563  37.641  1.00  0.00    -0.237 OA
ATOM     71  O   UNL A   1      43.790  25.064  37.616  1.00  0.00    -0.744 OA
ENDBRANCH  64  68
ENDBRANCH  38  61
ENDBRANCH  12  13
ENDBRANCH   5   7
ENDBRANCH   2   3
ENDBRANCH   1   2
BRANCH   1  72
ATOM     72  C   UNL A   1      31.473  30.401  26.216  1.00  0.00     0.117 C 
BRANCH  72  73
ATOM     73  N   UNL A   1      32.213  30.104  25.000  1.00  0.00    -0.356 N 
ATOM     74  C   UNL A   1      32.130  29.021  24.177  1.00  0.00     0.224 C 
ATOM     75  H   UNL A   1      32.871  30.785  24.731  1.00  0.00     0.163 HD
ATOM     76  O   UNL A   1      32.767  29.053  23.122  1.00  0.00    -0.275 OA
BRANCH  74  77
ATOM     77  C   UNL A   1      31.290  27.827  24.589  1.00  0.00     0.098 C 
ATOM     78  C   UNL A   1      30.203  27.500  23.559  1.00  0.00     0.017 C 
ATOM     79  C   UNL A   1      32.190  26.593  24.780  1.00  0.00     0.133 C 
ATOM     80  C   UNL A   1      29.381  26.320  24.047  1.00  0.00     0.022 C 
ATOM     81  N   UNL A   1      31.411  25.395  25.129  1.00  0.00    -0.338 N 
ATOM     82  C   UNL A   1      30.266  25.106  24.262  1.00  0.00     0.120 C 
BRANCH  81  83
ATOM     83  C   UNL A   1      31.873  24.596  26.180  1.00  0.00     0.253 C 
ATOM     84  O   UNL A   1      31.250  24.424  27.226  1.00  0.00    -0.269 OA
BRANCH  83  85
ATOM     85  C   UNL A   1      33.126  23.825  26.017  1.00  0.00     0.040 A 
ATOM     86  C   UNL A   1      33.509  22.996  27.071  1.00  0.00     0.016 A 
ATOM     87  C   UNL A   1      33.917  23.889  24.870  1.00  0.00     0.016 A 
ATOM     88  C   UNL A   1      34.600  22.138  26.925  1.00  0.00     0.027 A 
ATOM     89  C   UNL A   1      34.970  22.982  24.708  1.00  0.00     0.027 A 
ATOM     90  C   UNL A   1      35.279  22.051  25.710  1.00  0.00     0.041 A 
BRANCH  90  91
ATOM     91  N   UNL A   1      36.261  21.091  25.403  1.00  0.00    -0.322 N 
ATOM     92  C   UNL A   1      36.197  19.775  25.001  1.00  0.00     0.255 C 
ATOM     93  H   UNL A   1      37.181  21.429  25.494  1.00  0.00     0.170 HD
ATOM     94  O   UNL A   1      37.233  19.114  24.927  1.00  0.00    -0.269 OA
BRANCH  92  95
ATOM     95  C   UNL A   1      34.924  19.128  24.638  1.00  0.00     0.040 A 
ATOM     96  C   UNL A   1      34.946  17.768  24.311  1.00  0.00     0.014 A 
ATOM     97  C   UNL A   1      33.720  19.842  24.637  1.00  0.00     0.014 A 
ATOM     98  C   UNL A   1      33.747  17.102  24.059  1.00  0.00     0.001 A 
ATOM     99  C   UNL A   1      32.524  19.167  24.391  1.00  0.00     0.001 A 
ATOM    100  C   UNL A   1      32.538  17.797  24.114  1.00  0.00     0.000 A 
ENDBRANCH  92  95
ENDBRANCH  90  91
ENDBRANCH  83  85
ENDBRANCH  81  83
ENDBRANCH  74  77
ENDBRANCH  72  73
ENDBRANCH   1  72
TORSDOF 17
ENDMDL
MODEL 2
REMARK VINA RESULT:     -12.7      5.384      9.806
REMARK SMILES O=C(NCCCNC(=O)[C@H]1CCCN(C(=O)c2ccc(NC(=O)c3ccccc3)cc2)C1)c1ccc(-c2c3nc(c(-c4cc(S(=O)(=O)[O-])ccc4F)c4ccc([nH]4)c(-c4cc(S(=O)(=O)[O-])ccc4F)c4nc(c(-c5cc(S(=O)(=O)[O-])ccc5F)c5ccc2[nH]5)C=C4)C=C3)cc1
REMARK SMILES IDX 5 1 4 2 3 3 1 4 2 5 33 7 34 8 95 9 35 10 94 11 36 12 37 13
REMARK SMILES IDX 38 14 88 15 39 16 93 17 87 18 89 19 40 20 92 21 86 22 85 23
REMARK SMILES IDX 41 25 73 26 53 27 72 28 54 29 57 30 71 31 90 32 55 33 56 34
REMARK SMILES IDX 70 36 91 37 58 38 42 39 43 40 51 41 44 42 50 43 52 44 49 45
REMARK SMILES IDX 45 46 46 47 47 48 48 49 74 50 75 51 83 52 76 53 82 54 84 55
REMARK SMILES IDX 81 56 77 57 78 58 79 59 80 60 59 61 60 62 68 63 61 64 67 65
REMARK SMILES IDX 69 66 66 67 62 68 63 69 64 70 65 71 6 72 7 73 8 74 9 76
REMARK SMILES IDX 10 77 11 78 32 79 12 80 14 81 13 82 15 83 16 84 17 85 18 86
REMARK SMILES IDX 31 87 19 88 30 89 20 90 21 91 22 92 23 94 24 95 25 96 29 97
REMARK SMILES IDX 26 98 28 99 27 100
REMARK H PARENT 3 6 89 24 57 35 7 75 21 93
REMARK Flexibility Score: inf
ROOT
ATOM      1  C   UNL A   1      37.759  19.545  24.897  1.00  0.00     0.042 C 
ENDROOT
BRANCH   1   2
ATOM      2  C   UNL A   1      38.831  20.306  25.662  1.00  0.00     0.118 C 
BRANCH   2   3
ATOM      3  N   UNL A   1      39.995  19.497  26.000  1.00  0.00    -0.352 N 
ATOM      4  O   UNL A   1      42.122  18.980  26.504  1.00  0.00    -0.269 OA
ATOM      5  C   UNL A   1      41.264  19.850  26.409  1.00  0.00     0.251 C 
ATOM      6  H   UNL A   1      39.850  18.526  25.924  1.00  0.00     0.163 HD
BRANCH   5   7
ATOM      7  C   UNL A   1      41.608  21.263  26.693  1.00  0.00     0.039 A 
ATOM      8  C   UNL A   1      41.505  22.241  25.710  1.00  0.00     0.014 A 
ATOM      9  C   UNL A   1      42.017  21.629  27.981  1.00  0.00     0.014 A 
ATOM     10  C   UNL A   1      42.021  23.510  25.934  1.00  0.00     0.010 A 
ATOM     11  C   UNL A   1      42.392  22.953  28.250  1.00  0.00     0.010 A 
ATOM     12  C   UNL A   1      42.437  23.899  27.216  1.00  0.00    -0.014 A 
BRANCH  12  13
ATOM     13  C   UNL A   1      42.841  25.315  27.434  1.00  0.00     0.031 A 
ATOM     14  C   UNL A   1      41.932  26.290  28.135  1.00  0.00     0.074 A 
ATOM     15  C   UNL A   1      44.078  25.697  27.053  1.00  0.00     0.049 A 
ATOM     16  N   UNL A   1      42.144  27.548  28.427  1.00  0.00    -0.248 NA
ATOM     17  C   UNL A   1      40.612  25.794  28.550  1.00  0.00     0.031 C 
ATOM     18  C   UNL A   1      45.046  24.837  26.361  1.00  0.00     0.029 A 
ATOM     19  N   UNL A   1      44.754  26.878  27.220  1.00  0.00    -0.354 N 
ATOM     20  C   UNL A   1      40.984  28.001  29.047  1.00  0.00     0.074 A 
ATOM     21  C   UNL A   1      40.056  26.889  29.051  1.00  0.00     0.031 C 
ATOM     22  C   UNL A   1      46.208  25.490  26.236  1.00  0.00     0.029 A 
ATOM     23  C   UNL A   1      46.045  26.845  26.743  1.00  0.00     0.049 A 
ATOM     24  H   UNL A   1      44.353  27.673  27.640  1.00  0.00     0.167 HD
ATOM     25  C   UNL A   1      40.724  29.225  29.572  1.00  0.00     0.034 A 
ATOM     26  C   UNL A   1      46.989  27.804  26.691  1.00  0.00     0.034 A 
ATOM     27  C   UNL A   1      41.664  30.323  29.557  1.00  0.00     0.049 A 
ATOM     28  C   UNL A   1      46.657  29.164  27.243  1.00  0.00     0.074 A 
ATOM     29  C   UNL A   1      41.503  31.606  30.052  1.00  0.00     0.029 A 
ATOM     30  N   UNL A   1      42.945  30.267  29.020  1.00  0.00    -0.354 N 
ATOM     31  N   UNL A   1      45.547  29.574  27.811  1.00  0.00    -0.248 NA
ATOM     32  C   UNL A   1      47.704  30.187  27.145  1.00  0.00     0.031 C 
ATOM     33  C   UNL A   1      42.659  32.341  29.761  1.00  0.00     0.029 A 
ATOM     34  C   UNL A   1      43.572  31.498  29.151  1.00  0.00     0.049 A 
ATOM     35  H   UNL A   1      43.348  29.470  28.605  1.00  0.00     0.167 HD
ATOM     36  C   UNL A   1      45.767  30.904  28.151  1.00  0.00     0.074 A 
ATOM     37  C   UNL A   1      47.127  31.213  27.752  1.00  0.00     0.031 C 
ATOM     38  C   UNL A   1      44.923  31.793  28.732  1.00  0.00     0.034 A 
BRANCH  25  39
ATOM     39  C   UNL A   1      39.352  29.451  30.164  1.00  0.00     0.023 A 
ATOM     40  C   UNL A   1      38.346  30.140  29.462  1.00  0.00     0.031 A 
ATOM     41  C   UNL A   1      39.048  28.987  31.456  1.00  0.00     0.131 A 
ATOM     42  C   UNL A   1      37.113  30.402  30.079  1.00  0.00     0.055 A 
ATOM     43  C   UNL A   1      37.792  29.184  32.036  1.00  0.00     0.041 A 
ATOM     44  F   UNL A   1      39.972  28.341  32.186  1.00  0.00    -0.206 F 
ATOM     45  C   UNL A   1      36.820  29.907  31.351  1.00  0.00     0.022 A 
BRANCH  42  46
ATOM     46  S   UNL A   1      35.946  31.515  29.247  1.00  0.00     0.124 S 
ATOM     47  O   UNL A   1      35.050  31.878  30.343  1.00  0.00    -0.237 OA
ATOM     48  O   UNL A   1      36.816  32.576  28.756  1.00  0.00    -0.237 OA
ATOM     49  O   UNL A   1      35.344  30.673  28.215  1.00  0.00    -0.744 OA
ENDBRANCH  42  46
ENDBRANCH  25  39
BRANCH  26  50
ATOM     50  C   UNL A   1      48.308  27.530  26.053  1.00  0.00     0.023 A 
ATOM     51  C   UNL A   1      48.488  27.654  24.667  1.00  0.00     0.031 A 
ATOM     52  C   UNL A   1      49.406  27.101  26.824  1.00  0.00     0.131 A 
ATOM     53  C   UNL A   1      49.721  27.311  24.090  1.00  0.00     0.055 A 
ATOM     54  C   UNL A   1      50.647  26.823  26.252  1.00  0.00     0.041 A 
ATOM     55  F   UNL A   1      49.290  26.966  28.155  1.00  0.00    -0.206 F 
ATOM     56  C   UNL A   1      50.805  26.913  24.874  1.00  0.00     0.022 A 
BRANCH  53  57
ATOM     57  S   UNL A   1      49.857  27.297  22.281  1.00  0.00     0.124 S 
ATOM     58  O   UNL A   1      49.492  28.667  21.944  1.00  0.00    -0.237 OA
ATOM     59  O   UNL A   1      51.258  26.939  22.087  1.00  0.00    -0.237 OA
ATOM     60  O   UNL A   1      48.893  26.274  21.877  1.00  0.00    -0.744 OA
ENDBRANCH  53  57
ENDBRANCH  26  50
BRANCH  38  61
ATOM     61  C   UNL A   1      45.476  33.171  28.995  1.00  0.00     0.023 A 
ATOM     62  C   UNL A   1      45.417  34.186  28.023  1.00  0.00     0.031 A 
ATOM     63  C   UNL A   1      46.107  33.459  30.217  1.00  0.00     0.131 A 
ATOM     64  C   UNL A   1      46.040  35.418  28.265  1.00  0.00     0.055 A 
ATOM     65  C   UNL A   1      46.671  34.708  30.475  1.00  0.00     0.041 A 
ATOM     66  F   UNL A   1      46.193  32.525  31.178  1.00  0.00    -0.206 F 
ATOM     67  C   UNL A   1      46.654  35.691  29.490  1.00  0.00     0.022 A 
BRANCH  64  68
ATOM     68  S   UNL A   1      46.131  36.625  26.914  1.00  0.00     0.124 S 
ATOM     69  O   UNL A   1      44.804  37.233  26.960  1.00  0.00    -0.237 OA
ATOM     70  O   UNL A   1      47.238  37.479  27.332  1.00  0.00    -0.237 OA
ATOM     71  O   UNL A   1      46.395  35.802  25.735  1.00  0.00    -0.744 OA
ENDBRANCH  64  68
ENDBRANCH  38  61
ENDBRANCH  12  13
ENDBRANCH   5   7
ENDBRANCH   2   3
ENDBRANCH   1   2
BRANCH   1  72
ATOM     72  C   UNL A   1      36.382  20.181  24.966  1.00  0.00     0.117 C 
BRANCH  72  73
ATOM     73  N   UNL A   1      35.291  19.221  24.898  1.00  0.00    -0.356 N 
ATOM     74  C   UNL A   1      33.981  19.417  24.580  1.00  0.00     0.224 C 
ATOM     75  H   UNL A   1      35.536  18.292  25.112  1.00  0.00     0.163 HD
ATOM     76  O   UNL A   1      33.266  18.421  24.457  1.00  0.00    -0.275 OA
BRANCH  74  77
ATOM     77  C   UNL A   1      33.452  20.830  24.415  1.00  0.00     0.098 C 
ATOM     78  C   UNL A   1      32.684  21.010  23.100  1.00  0.00     0.017 C 
ATOM     79  C   UNL A   1      32.525  21.184  25.592  1.00  0.00     0.133 C 
ATOM     80  C   UNL A   1      32.212  22.449  22.984  1.00  0.00     0.022 C 
ATOM     81  N   UNL A   1      31.945  22.527  25.448  1.00  0.00    -0.338 N 
ATOM     82  C   UNL A   1      31.318  22.814  24.155  1.00  0.00     0.120 C 
BRANCH  81  83
ATOM     83  C   UNL A   1      31.956  23.370  26.564  1.00  0.00     0.253 C 
ATOM     84  O   UNL A   1      32.023  22.964  27.722  1.00  0.00    -0.269 OA
BRANCH  83  85
ATOM     85  C   UNL A   1      31.986  24.838  26.371  1.00  0.00     0.040 A 
ATOM     86  C   UNL A   1      30.774  25.521  26.473  1.00  0.00     0.016 A 
ATOM     87  C   UNL A   1      33.156  25.549  26.106  1.00  0.00     0.016 A 
ATOM     88  C   UNL A   1      30.754  26.917  26.444  1.00  0.00     0.027 A 
ATOM     89  C   UNL A   1      33.136  26.947  26.141  1.00  0.00     0.027 A 
ATOM     90  C   UNL A   1      31.942  27.644  26.377  1.00  0.00     0.041 A 
BRANCH  90  91
ATOM     91  N   UNL A   1      32.042  29.039  26.531  1.00  0.00    -0.322 N 
ATOM     92  C   UNL A   1      31.690  30.102  25.729  1.00  0.00     0.255 C 
ATOM     93  H   UNL A   1      32.446  29.311  27.387  1.00  0.00     0.170 HD
ATOM     94  O   UNL A   1      32.017  31.243  26.058  1.00  0.00    -0.269 OA
BRANCH  92  95
ATOM     95  C   UNL A   1      30.917  29.924  24.487  1.00  0.00     0.040 A 
ATOM     96  C   UNL A   1      29.815  30.758  24.272  1.00  0.00     0.014 A 
ATOM     97  C   UNL A   1      31.282  28.964  23.536  1.00  0.00     0.014 A 
ATOM     98  C   UNL A   1      29.122  30.682  23.065  1.00  0.00     0.001 A 
ATOM     99  C   UNL A   1      30.587  28.900  22.327  1.00  0.00     0.001 A 
ATOM    100  C   UNL A   1      29.517  29.766  22.088  1.00  0.00     0.000 A 
ENDBRANCH  92  95
ENDBRANCH  90  91
ENDBRANCH  83  85
ENDBRANCH  81  83
ENDBRANCH  74  77
ENDBRANCH  72  73
ENDBRANCH   1  72
TORSDOF 17
ENDMDL
MODEL 3
REMARK VINA RESULT:     -12.7      2.148      2.798
REMARK SMILES O=C(NCCCNC(=O)[C@H]1CCCN(C(=O)c2ccc(NC(=O)c3ccccc3)cc2)C1)c1ccc(-c2c3nc(c(-c4cc(S(=O)(=O)[O-])ccc4F)c4ccc([nH]4)c(-c4cc(S(=O)(=O)[O-])ccc4F)c4nc(c(-c5cc(S(=O)(=O)[O-])ccc5F)c5ccc2[nH]5)C=C4)C=C3)cc1
REMARK SMILES IDX 5 1 4 2 3 3 1 4 2 5 33 7 34 8 95 9 35 10 94 11 36 12 37 13
REMARK SMILES IDX 38 14 88 15 39 16 93 17 87 18 89 19 40 20 92 21 86 22 85 23
REMARK SMILES IDX 41 25 73 26 53 27 72 28 54 29 57 30 71 31 90 32 55 33 56 34
REMARK SMILES IDX 70 36 91 37 58 38 42 39 43 40 51 41 44 42 50 43 52 44 49 45
REMARK SMILES IDX 45 46 46 47 47 48 48 49 74 50 75 51 83 52 76 53 82 54 84 55
REMARK SMILES IDX 81 56 77 57 78 58 79 59 80 60 59 61 60 62 68 63 61 64 67 65
REMARK SMILES IDX 69 66 66 67 62 68 63 69 64 70 65 71 6 72 7 73 8 74 9 76
REMARK SMILES IDX 10 77 11 78 32 79 12 80 14 81 13 82 15 83 16 84 17 85 18 86
REMARK SMILES IDX 31 87 19 88 30 89 20 90 21 91 22 92 23 94 24 95 25 96 29 97
REMARK SMILES IDX 26 98 28 99 27 100
REMARK H PARENT 3 6 89 24 57 35 7 75 21 93
REMARK Flexibility Score: inf
ROOT
ATOM      1  C   UNL A   1      31.539  32.642  26.567  1.00  0.00     0.042 C 
ENDROOT
BRANCH   1   2
ATOM      2  C   UNL A   1      32.817  33.134  27.229  1.00  0.00     0.118 C 
BRANCH   2   3
ATOM      3  N   UNL A   1      32.650  34.371  27.979  1.00  0.00    -0.352 N 
ATOM      4  O   UNL A   1      32.909  35.893  29.611  1.00  0.00    -0.269 OA
ATOM      5  C   UNL A   1      33.329  34.878  29.067  1.00  0.00     0.251 C 
ATOM      6  H   UNL A   1      31.924  34.949  27.651  1.00  0.00     0.163 HD
BRANCH   5   7
ATOM      7  C   UNL A   1      34.529  34.193  29.604  1.00  0.00     0.039 A 
ATOM      8  C   UNL A   1      34.427  33.266  30.636  1.00  0.00     0.014 A 
ATOM      9  C   UNL A   1      35.785  34.459  29.046  1.00  0.00     0.014 A 
ATOM     10  C   UNL A   1      35.572  32.789  31.259  1.00  0.00     0.010 A 
ATOM     11  C   UNL A   1      36.932  33.854  29.578  1.00  0.00     0.010 A 
ATOM     12  C   UNL A   1      36.840  33.044  30.719  1.00  0.00    -0.014 A 
BRANCH  12  13
ATOM     13  C   UNL A   1      38.023  32.386  31.339  1.00  0.00     0.031 A 
ATOM     14  C   UNL A   1      38.527  32.798  32.698  1.00  0.00     0.074 A 
ATOM     15  C   UNL A   1      38.600  31.354  30.688  1.00  0.00     0.049 A 
ATOM     16  N   UNL A   1      39.525  32.308  33.388  1.00  0.00    -0.248 NA
ATOM     17  C   UNL A   1      37.829  33.909  33.361  1.00  0.00     0.031 C 
ATOM     18  C   UNL A   1      38.198  30.868  29.363  1.00  0.00     0.029 A 
ATOM     19  N   UNL A   1      39.610  30.503  31.054  1.00  0.00    -0.354 N 
ATOM     20  C   UNL A   1      39.587  33.056  34.560  1.00  0.00     0.074 A 
ATOM     21  C   UNL A   1      38.547  34.060  34.465  1.00  0.00     0.031 C 
ATOM     22  C   UNL A   1      38.896  29.765  29.066  1.00  0.00     0.029 A 
ATOM     23  C   UNL A   1      39.864  29.519  30.125  1.00  0.00     0.049 A 
ATOM     24  H   UNL A   1      40.107  30.587  31.900  1.00  0.00     0.167 HD
ATOM     25  C   UNL A   1      40.425  32.910  35.617  1.00  0.00     0.034 A 
ATOM     26  C   UNL A   1      40.790  28.541  30.108  1.00  0.00     0.034 A 
ATOM     27  C   UNL A   1      41.457  31.901  35.692  1.00  0.00     0.049 A 
ATOM     28  C   UNL A   1      41.733  28.430  31.275  1.00  0.00     0.074 A 
ATOM     29  C   UNL A   1      42.367  31.669  36.709  1.00  0.00     0.029 A 
ATOM     30  N   UNL A   1      41.718  30.954  34.708  1.00  0.00    -0.354 N 
ATOM     31  N   UNL A   1      41.783  29.159  32.366  1.00  0.00    -0.248 NA
ATOM     32  C   UNL A   1      42.742  27.368  31.207  1.00  0.00     0.031 C 
ATOM     33  C   UNL A   1      43.212  30.624  36.317  1.00  0.00     0.029 A 
ATOM     34  C   UNL A   1      42.786  30.153  35.087  1.00  0.00     0.049 A 
ATOM     35  H   UNL A   1      41.217  30.864  33.865  1.00  0.00     0.167 HD
ATOM     36  C   UNL A   1      42.825  28.633  33.122  1.00  0.00     0.074 A 
ATOM     37  C   UNL A   1      43.351  27.507  32.375  1.00  0.00     0.031 C 
ATOM     38  C   UNL A   1      43.309  29.046  34.321  1.00  0.00     0.034 A 
BRANCH  25  39
ATOM     39  C   UNL A   1      40.286  33.894  36.755  1.00  0.00     0.023 A 
ATOM     40  C   UNL A   1      41.222  34.924  36.963  1.00  0.00     0.031 A 
ATOM     41  C   UNL A   1      39.213  33.793  37.659  1.00  0.00     0.131 A 
ATOM     42  C   UNL A   1      41.105  35.766  38.080  1.00  0.00     0.055 A 
ATOM     43  C   UNL A   1      39.059  34.682  38.725  1.00  0.00     0.041 A 
ATOM     44  F   UNL A   1      38.298  32.819  37.527  1.00  0.00    -0.206 F 
ATOM     45  C   UNL A   1      40.015  35.668  38.948  1.00  0.00     0.022 A 
BRANCH  42  46
ATOM     46  S   UNL A   1      42.467  36.903  38.457  1.00  0.00     0.124 S 
ATOM     47  O   UNL A   1      42.888  37.315  37.120  1.00  0.00    -0.237 OA
ATOM     48  O   UNL A   1      41.812  37.926  39.263  1.00  0.00    -0.237 OA
ATOM     49  O   UNL A   1      43.427  36.064  39.172  1.00  0.00    -0.744 OA
ENDBRANCH  42  46
ENDBRANCH  25  39
BRANCH  26  50
ATOM     50  C   UNL A   1      40.903  27.630  28.933  1.00  0.00     0.023 A 
ATOM     51  C   UNL A   1      41.896  27.815  27.960  1.00  0.00     0.031 A 
ATOM     52  C   UNL A   1      39.989  26.575  28.749  1.00  0.00     0.131 A 
ATOM     53  C   UNL A   1      41.925  26.987  26.826  1.00  0.00     0.055 A 
ATOM     54  C   UNL A   1      40.061  25.716  27.653  1.00  0.00     0.041 A 
ATOM     55  F   UNL A   1      39.019  26.351  29.650  1.00  0.00    -0.206 F 
ATOM     56  C   UNL A   1      41.026  25.930  26.674  1.00  0.00     0.022 A 
BRANCH  53  57
ATOM     57  S   UNL A   1      43.097  27.377  25.497  1.00  0.00     0.124 S 
ATOM     58  O   UNL A   1      44.130  28.113  26.217  1.00  0.00    -0.237 OA
ATOM     59  O   UNL A   1      43.468  26.048  25.023  1.00  0.00    -0.237 OA
ATOM     60  O   UNL A   1      42.299  28.171  24.564  1.00  0.00    -0.744 OA
ENDBRANCH  53  57
ENDBRANCH  26  50
BRANCH  38  61
ATOM     61  C   UNL A   1      44.444  28.240  34.899  1.00  0.00     0.023 A 
ATOM     62  C   UNL A   1      44.211  27.154  35.763  1.00  0.00     0.031 A 
ATOM     63  C   UNL A   1      45.776  28.588  34.617  1.00  0.00     0.131 A 
ATOM     64  C   UNL A   1      45.294  26.500  36.368  1.00  0.00     0.055 A 
ATOM     65  C   UNL A   1      46.850  27.893  35.174  1.00  0.00     0.041 A 
ATOM     66  F   UNL A   1      46.054  29.618  33.801  1.00  0.00    -0.206 F 
ATOM     67  C   UNL A   1      46.612  26.853  36.067  1.00  0.00     0.022 A 
BRANCH  64  68
ATOM     68  S   UNL A   1      44.954  25.249  37.636  1.00  0.00     0.124 S 
ATOM     69  O   UNL A   1      44.020  25.950  38.512  1.00  0.00    -0.237 OA
ATOM     70  O   UNL A   1      44.393  24.154  36.852  1.00  0.00    -0.237 OA
ATOM     71  O   UNL A   1      46.269  24.984  38.218  1.00  0.00    -0.744 OA
ENDBRANCH  64  68
ENDBRANCH  38  61
ENDBRANCH  12  13
ENDBRANCH   5   7
ENDBRANCH   2   3
ENDBRANCH   1   2
BRANCH   1  72
ATOM     72  C   UNL A   1      31.423  31.130  26.495  1.00  0.00     0.117 C 
BRANCH  72  73
ATOM     73  N   UNL A   1      32.490  30.498  25.736  1.00  0.00    -0.356 N 
ATOM     74  C   UNL A   1      32.439  29.432  24.889  1.00  0.00     0.224 C 
ATOM     75  H   UNL A   1      33.381  30.899  25.851  1.00  0.00     0.163 HD
ATOM     76  O   UNL A   1      33.457  29.158  24.251  1.00  0.00    -0.275 OA
BRANCH  74  77
ATOM     77  C   UNL A   1      31.161  28.620  24.780  1.00  0.00     0.098 C 
ATOM     78  C   UNL A   1      30.448  28.841  23.441  1.00  0.00     0.017 C 
ATOM     79  C   UNL A   1      31.476  27.122  24.942  1.00  0.00     0.133 C 
ATOM     80  C   UNL A   1      29.166  28.028  23.411  1.00  0.00     0.022 C 
ATOM     81  N   UNL A   1      30.273  26.290  24.790  1.00  0.00    -0.338 N 
ATOM     82  C   UNL A   1      29.466  26.552  23.596  1.00  0.00     0.120 C 
BRANCH  81  83
ATOM     83  C   UNL A   1      30.054  25.276  25.727  1.00  0.00     0.253 C 
ATOM     84  O   UNL A   1      29.298  25.393  26.690  1.00  0.00    -0.269 OA
BRANCH  83  85
ATOM     85  C   UNL A   1      30.674  23.947  25.526  1.00  0.00     0.040 A 
ATOM     86  C   UNL A   1      31.148  23.650  24.248  1.00  0.00     0.016 A 
ATOM     87  C   UNL A   1      30.806  23.004  26.545  1.00  0.00     0.016 A 
ATOM     88  C   UNL A   1      31.869  22.475  24.027  1.00  0.00     0.027 A 
ATOM     89  C   UNL A   1      31.582  21.861  26.330  1.00  0.00     0.027 A 
ATOM     90  C   UNL A   1      32.177  21.619  25.083  1.00  0.00     0.041 A 
BRANCH  90  91
ATOM     91  N   UNL A   1      33.050  20.519  25.000  1.00  0.00    -0.322 N 
ATOM     92  C   UNL A   1      34.411  20.409  24.816  1.00  0.00     0.255 C 
ATOM     93  H   UNL A   1      32.596  19.650  25.091  1.00  0.00     0.170 HD
ATOM     94  O   UNL A   1      34.911  19.297  24.647  1.00  0.00    -0.269 OA
BRANCH  92  95
ATOM     95  C   UNL A   1      35.301  21.583  24.830  1.00  0.00     0.040 A 
ATOM     96  C   UNL A   1      35.797  22.019  26.063  1.00  0.00     0.014 A 
ATOM     97  C   UNL A   1      35.659  22.238  23.645  1.00  0.00     0.014 A 
ATOM     98  C   UNL A   1      36.718  23.065  26.102  1.00  0.00     0.001 A 
ATOM     99  C   UNL A   1      36.587  23.279  23.692  1.00  0.00     0.001 A 
ATOM    100  C   UNL A   1      37.124  23.683  24.918  1.00  0.00     0.000 A 
ENDBRANCH  92  95
ENDBRANCH  90  91
ENDBRANCH  83  85
ENDBRANCH  81  83
ENDBRANCH  74  77
ENDBRANCH  72  73
ENDBRANCH   1  72
TORSDOF 17
ENDMDL
