MODEL 1
REMARK VINA RESULT:     -12.7      0.000      0.000
REMARK SMILES Cc1cc(Br)cc2c1O[C@H](C(F)(F)F)C(C(=O)NCCCNC(=O)c1ccc(-c3c4nc(c(-c5cc(S(=O)(=O)[O-])ccc5F)c5ccc([nH]5)c(-c5cc(S(=O)(=O)[O-])ccc5F)c5nc(c(-c6cc(S(=O)(=O)[O-])ccc6F)c6ccc3[nH]6)C=C5)C=C4)cc1)=C2
REMARK SMILES IDX 21 1 20 2 19 3 18 4 16 5 17 6 15 8 1 9 2 10 3 11 8 12 4 13
REMARK SMILES IDX 7 14 9 15 5 16 6 17 88 18 10 19 11 20 12 21 13 22 14 23
REMARK SMILES IDX 22 24 23 25 24 27 25 28 26 29 87 30 27 31 86 32 28 33 29 34
REMARK SMILES IDX 30 35 80 36 31 37 85 38 79 39 81 40 32 41 84 42 78 43 77 44
REMARK SMILES IDX 33 46 65 47 45 48 64 49 46 50 49 51 63 52 82 53 47 54 48 55
REMARK SMILES IDX 62 57 83 58 50 59 34 60 35 61 43 62 36 63 42 64 44 65 41 66
REMARK SMILES IDX 37 67 38 68 39 69 40 70 66 71 67 72 75 73 68 74 74 75 76 76
REMARK SMILES IDX 73 77 69 78 70 79 71 80 72 81 51 82 52 83 60 84 53 85 59 86
REMARK SMILES IDX 61 87 58 88 54 89 55 90 56 91 57 92
REMARK H PARENT 18 7 22 26 81 45 49 56
REMARK Flexibility Score: inf
ROOT
ATOM      1  C   UNL A   1      33.081  29.004  25.317  1.00  0.00     0.118 C 
ENDROOT
BRANCH   1   2
ATOM      2  C   UNL A   1      33.292  28.885  23.813  1.00  0.00     0.042 C 
BRANCH   2   3
ATOM      3  C   UNL A   1      32.123  28.197  23.125  1.00  0.00     0.118 C 
BRANCH   3   4
ATOM      4  N   UNL A   1      32.563  27.313  22.055  1.00  0.00    -0.352 N 
ATOM      5  C   UNL A   1      33.032  26.049  21.942  1.00  0.00     0.251 C 
ATOM      6  O   UNL A   1      33.275  25.676  20.789  1.00  0.00    -0.270 OA
ATOM      7  H   UNL A   1      32.500  27.755  21.177  1.00  0.00     0.163 HD
BRANCH   5   8
ATOM      8  C   UNL A   1      33.257  25.115  23.082  1.00  0.00     0.067 C 
ATOM      9  C   UNL A   1      33.184  22.585  27.526  1.00  0.00     0.048 C 
ATOM     10  C   UNL A   1      34.085  22.576  26.324  1.00  0.00    -0.007 A 
ATOM     11  C   UNL A   1      35.155  21.679  26.233  1.00  0.00     0.023 A 
ATOM     12  C   UNL A   1      33.857  23.463  25.263  1.00  0.00     0.130 A 
ATOM     13  C   UNL A   1      35.975  21.682  25.104  1.00  0.00     0.019 A 
ATOM     14  C   UNL A   1      34.676  23.465  24.129  1.00  0.00     0.019 A 
ATOM     15  O   UNL A   1      32.831  24.352  25.412  1.00  0.00    -0.475 OA
ATOM     16  Br  UNL A   1      37.423  20.469  25.002  1.00  0.00    -0.051 Br
ATOM     17  C   UNL A   1      35.744  22.569  24.052  1.00  0.00     0.027 A 
ATOM     18  C   UNL A   1      34.411  24.422  23.059  1.00  0.00     0.025 C 
ATOM     19  C   UNL A   1      32.271  24.899  24.193  1.00  0.00     0.314 C 
BRANCH  19  20
ATOM     20  C   UNL A   1      31.066  24.043  23.762  1.00  0.00     0.429 C 
ATOM     21  F   UNL A   1      30.593  23.325  24.811  1.00  0.00    -0.167 F 
ATOM     22  F   UNL A   1      30.029  24.786  23.307  1.00  0.00    -0.167 F 
ATOM     23  F   UNL A   1      31.374  23.165  22.779  1.00  0.00    -0.167 F 
ENDBRANCH  19  20
ENDBRANCH   5   8
ENDBRANCH   3   4
ENDBRANCH   2   3
ENDBRANCH   1   2
BRANCH   1  24
ATOM     24  N   UNL A   1      32.652  30.348  25.696  1.00  0.00    -0.352 N 
ATOM     25  C   UNL A   1      33.040  31.134  26.751  1.00  0.00     0.251 C 
ATOM     26  H   UNL A   1      31.980  30.752  25.102  1.00  0.00     0.163 HD
ATOM     27  O   UNL A   1      32.346  32.097  27.074  1.00  0.00    -0.269 OA
BRANCH  25  28
ATOM     28  C   UNL A   1      34.278  30.821  27.490  1.00  0.00     0.039 A 
ATOM     29  C   UNL A   1      35.254  31.807  27.649  1.00  0.00     0.014 A 
ATOM     30  C   UNL A   1      34.483  29.539  28.004  1.00  0.00     0.014 A 
ATOM     31  C   UNL A   1      36.407  31.520  28.382  1.00  0.00     0.010 A 
ATOM     32  C   UNL A   1      35.579  29.286  28.818  1.00  0.00     0.010 A 
ATOM     33  C   UNL A   1      36.559  30.269  29.001  1.00  0.00    -0.014 A 
BRANCH  33  34
ATOM     34  C   UNL A   1      37.757  29.948  29.815  1.00  0.00     0.031 A 
ATOM     35  C   UNL A   1      38.816  29.041  29.250  1.00  0.00     0.074 A 
ATOM     36  C   UNL A   1      37.858  30.427  31.069  1.00  0.00     0.049 A 
ATOM     37  N   UNL A   1      39.889  28.569  29.827  1.00  0.00    -0.248 NA
ATOM     38  C   UNL A   1      38.629  28.578  27.865  1.00  0.00     0.031 C 
ATOM     39  C   UNL A   1      36.873  31.289  31.729  1.00  0.00     0.029 A 
ATOM     40  N   UNL A   1      38.837  30.261  32.016  1.00  0.00    -0.354 N 
ATOM     41  C   UNL A   1      40.497  27.751  28.883  1.00  0.00     0.074 A 
ATOM     42  C   UNL A   1      39.641  27.736  27.718  1.00  0.00     0.031 C 
ATOM     43  C   UNL A   1      37.318  31.609  32.955  1.00  0.00     0.029 A 
ATOM     44  C   UNL A   1      38.593  30.938  33.189  1.00  0.00     0.049 A 
ATOM     45  H   UNL A   1      39.640  29.710  31.870  1.00  0.00     0.167 HD
ATOM     46  C   UNL A   1      41.679  27.097  28.968  1.00  0.00     0.034 A 
ATOM     47  C   UNL A   1      39.313  31.004  34.326  1.00  0.00     0.034 A 
ATOM     48  C   UNL A   1      42.538  27.149  30.122  1.00  0.00     0.049 A 
ATOM     49  C   UNL A   1      40.611  30.245  34.406  1.00  0.00     0.074 A 
ATOM     50  C   UNL A   1      43.780  26.566  30.294  1.00  0.00     0.029 A 
ATOM     51  N   UNL A   1      42.245  27.828  31.297  1.00  0.00    -0.354 N 
ATOM     52  N   UNL A   1      41.180  29.490  33.495  1.00  0.00    -0.248 NA
ATOM     53  C   UNL A   1      41.364  30.346  35.662  1.00  0.00     0.031 C 
ATOM     54  C   UNL A   1      44.211  26.840  31.595  1.00  0.00     0.029 A 
ATOM     55  C   UNL A   1      43.271  27.653  32.210  1.00  0.00     0.049 A 
ATOM     56  H   UNL A   1      41.430  28.354  31.458  1.00  0.00     0.167 HD
ATOM     57  C   UNL A   1      42.367  29.040  34.062  1.00  0.00     0.074 A 
ATOM     58  C   UNL A   1      42.438  29.616  35.390  1.00  0.00     0.031 C 
ATOM     59  C   UNL A   1      43.314  28.226  33.533  1.00  0.00     0.034 A 
BRANCH  46  60
ATOM     60  C   UNL A   1      42.111  26.271  27.786  1.00  0.00     0.023 A 
ATOM     61  C   UNL A   1      41.771  24.911  27.678  1.00  0.00     0.031 A 
ATOM     62  C   UNL A   1      42.849  26.854  26.741  1.00  0.00     0.131 A 
ATOM     63  C   UNL A   1      42.205  24.168  26.571  1.00  0.00     0.055 A 
ATOM     64  C   UNL A   1      43.223  26.125  25.611  1.00  0.00     0.041 A 
ATOM     65  F   UNL A   1      43.219  28.143  26.803  1.00  0.00    -0.206 F 
ATOM     66  C   UNL A   1      42.907  24.773  25.524  1.00  0.00     0.022 A 
BRANCH  63  67
ATOM     67  S   UNL A   1      41.905  22.381  26.552  1.00  0.00     0.124 S 
ATOM     68  O   UNL A   1      40.449  22.329  26.445  1.00  0.00    -0.237 OA
ATOM     69  O   UNL A   1      42.648  21.946  25.375  1.00  0.00    -0.237 OA
ATOM     70  O   UNL A   1      42.448  21.930  27.833  1.00  0.00    -0.744 OA
ENDBRANCH  63  67
ENDBRANCH  46  60
BRANCH  47  71
ATOM     71  C   UNL A   1      38.823  31.816  35.474  1.00  0.00     0.023 A 
ATOM     72  C   UNL A   1      38.191  31.207  36.569  1.00  0.00     0.031 A 
ATOM     73  C   UNL A   1      38.985  33.213  35.495  1.00  0.00     0.131 A 
ATOM     74  C   UNL A   1      37.722  31.996  37.632  1.00  0.00     0.055 A 
ATOM     75  C   UNL A   1      38.553  33.989  36.573  1.00  0.00     0.041 A 
ATOM     76  F   UNL A   1      39.592  33.841  34.476  1.00  0.00    -0.206 F 
ATOM     77  C   UNL A   1      37.911  33.380  37.647  1.00  0.00     0.022 A 
BRANCH  74  78
ATOM     78  S   UNL A   1      36.830  31.188  38.989  1.00  0.00     0.124 S 
ATOM     79  O   UNL A   1      37.778  31.326  40.090  1.00  0.00    -0.237 OA
ATOM     80  O   UNL A   1      35.618  31.994  39.079  1.00  0.00    -0.237 OA
ATOM     81  O   UNL A   1      36.633  29.825  38.501  1.00  0.00    -0.744 OA
ENDBRANCH  74  78
ENDBRANCH  47  71
BRANCH  59  82
ATOM     82  C   UNL A   1      44.520  27.923  34.380  1.00  0.00     0.023 A 
ATOM     83  C   UNL A   1      44.556  26.801  35.224  1.00  0.00     0.031 A 
ATOM     84  C   UNL A   1      45.666  28.733  34.295  1.00  0.00     0.131 A 
ATOM     85  C   UNL A   1      45.710  26.532  35.974  1.00  0.00     0.055 A 
ATOM     86  C   UNL A   1      46.828  28.433  35.006  1.00  0.00     0.041 A 
ATOM     87  F   UNL A   1      45.681  29.813  33.498  1.00  0.00    -0.206 F 
ATOM     88  C   UNL A   1      46.853  27.330  35.855  1.00  0.00     0.022 A 
BRANCH  85  89
ATOM     89  S   UNL A   1      45.687  25.142  37.135  1.00  0.00     0.124 S 
ATOM     90  O   UNL A   1      47.087  24.728  37.136  1.00  0.00    -0.237 OA
ATOM     91  O   UNL A   1      45.206  25.764  38.364  1.00  0.00    -0.237 OA
ATOM     92  O   UNL A   1      44.762  24.194  36.518  1.00  0.00    -0.744 OA
ENDBRANCH  85  89
ENDBRANCH  59  82
ENDBRANCH  33  34
ENDBRANCH  25  28
ENDBRANCH   1  24
TORSDOF 14
ENDMDL
MODEL 2
REMARK VINA RESULT:     -12.7      5.330     10.151
REMARK SMILES Cc1cc(Br)cc2c1O[C@H](C(F)(F)F)C(C(=O)NCCCNC(=O)c1ccc(-c3c4nc(c(-c5cc(S(=O)(=O)[O-])ccc5F)c5ccc([nH]5)c(-c5cc(S(=O)(=O)[O-])ccc5F)c5nc(c(-c6cc(S(=O)(=O)[O-])ccc6F)c6ccc3[nH]6)C=C5)C=C4)cc1)=C2
REMARK SMILES IDX 21 1 20 2 19 3 18 4 16 5 17 6 15 8 1 9 2 10 3 11 8 12 4 13
REMARK SMILES IDX 7 14 9 15 5 16 6 17 88 18 10 19 11 20 12 21 13 22 14 23
REMARK SMILES IDX 22 24 23 25 24 27 25 28 26 29 87 30 27 31 86 32 28 33 29 34
REMARK SMILES IDX 30 35 80 36 31 37 85 38 79 39 81 40 32 41 84 42 78 43 77 44
REMARK SMILES IDX 33 46 65 47 45 48 64 49 46 50 49 51 63 52 82 53 47 54 48 55
REMARK SMILES IDX 62 57 83 58 50 59 34 60 35 61 43 62 36 63 42 64 44 65 41 66
REMARK SMILES IDX 37 67 38 68 39 69 40 70 66 71 67 72 75 73 68 74 74 75 76 76
REMARK SMILES IDX 73 77 69 78 70 79 71 80 72 81 51 82 52 83 60 84 53 85 59 86
REMARK SMILES IDX 61 87 58 88 54 89 55 90 56 91 57 92
REMARK H PARENT 18 7 22 26 81 45 49 56
REMARK Flexibility Score: inf
ROOT
ATOM      1  C   UNL A   1      35.717  22.343  26.122  1.00  0.00     0.118 C 
ENDROOT
BRANCH   1   2
ATOM      2  C   UNL A   1      34.499  21.869  26.905  1.00  0.00     0.042 C 
BRANCH   2   3
ATOM      3  C   UNL A   1      33.290  21.660  26.007  1.00  0.00     0.118 C 
BRANCH   3   4
ATOM      4  N   UNL A   1      32.070  22.188  26.602  1.00  0.00    -0.352 N 
ATOM      5  C   UNL A   1      31.386  23.356  26.590  1.00  0.00     0.251 C 
ATOM      6  O   UNL A   1      30.342  23.363  27.251  1.00  0.00    -0.270 OA
ATOM      7  H   UNL A   1      31.623  21.514  27.163  1.00  0.00     0.163 HD
BRANCH   5   8
ATOM      8  C   UNL A   1      31.799  24.582  25.849  1.00  0.00     0.067 C 
ATOM      9  C   UNL A   1      33.781  27.995  22.597  1.00  0.00     0.048 C 
ATOM     10  C   UNL A   1      33.090  28.087  23.927  1.00  0.00    -0.007 A 
ATOM     11  C   UNL A   1      32.801  29.328  24.504  1.00  0.00     0.023 A 
ATOM     12  C   UNL A   1      32.712  26.922  24.609  1.00  0.00     0.130 A 
ATOM     13  C   UNL A   1      32.152  29.391  25.738  1.00  0.00     0.019 A 
ATOM     14  C   UNL A   1      32.057  26.983  25.844  1.00  0.00     0.019 A 
ATOM     15  O   UNL A   1      33.054  25.732  24.033  1.00  0.00    -0.475 OA
ATOM     16  Br  UNL A   1      31.777  31.078  26.508  1.00  0.00    -0.051 Br
ATOM     17  C   UNL A   1      31.778  28.227  26.412  1.00  0.00     0.027 A 
ATOM     18  C   UNL A   1      31.701  25.742  26.525  1.00  0.00     0.025 C 
ATOM     19  C   UNL A   1      32.267  24.579  24.423  1.00  0.00     0.314 C 
BRANCH  19  20
ATOM     20  C   UNL A   1      31.116  24.389  23.418  1.00  0.00     0.429 C 
ATOM     21  F   UNL A   1      31.386  25.038  22.257  1.00  0.00    -0.167 F 
ATOM     22  F   UNL A   1      30.912  23.091  23.091  1.00  0.00    -0.167 F 
ATOM     23  F   UNL A   1      29.936  24.862  23.880  1.00  0.00    -0.167 F 
ENDBRANCH  19  20
ENDBRANCH   5   8
ENDBRANCH   3   4
ENDBRANCH   2   3
ENDBRANCH   1   2
BRANCH   1  24
ATOM     24  N   UNL A   1      36.685  21.266  25.929  1.00  0.00    -0.352 N 
ATOM     25  C   UNL A   1      38.052  21.315  25.817  1.00  0.00     0.251 C 
ATOM     26  H   UNL A   1      36.296  20.363  25.870  1.00  0.00     0.163 HD
ATOM     27  O   UNL A   1      38.655  20.349  25.352  1.00  0.00    -0.269 OA
BRANCH  25  28
ATOM     28  C   UNL A   1      38.785  22.521  26.247  1.00  0.00     0.039 A 
ATOM     29  C   UNL A   1      39.859  22.396  27.129  1.00  0.00     0.014 A 
ATOM     30  C   UNL A   1      38.388  23.782  25.796  1.00  0.00     0.014 A 
ATOM     31  C   UNL A   1      40.577  23.533  27.505  1.00  0.00     0.010 A 
ATOM     32  C   UNL A   1      39.163  24.896  26.087  1.00  0.00     0.010 A 
ATOM     33  C   UNL A   1      40.255  24.785  26.957  1.00  0.00    -0.014 A 
BRANCH  33  34
ATOM     34  C   UNL A   1      41.021  26.005  27.310  1.00  0.00     0.031 A 
ATOM     35  C   UNL A   1      40.370  27.073  28.147  1.00  0.00     0.074 A 
ATOM     36  C   UNL A   1      42.269  26.170  26.834  1.00  0.00     0.049 A 
ATOM     37  N   UNL A   1      40.833  28.246  28.491  1.00  0.00    -0.248 NA
ATOM     38  C   UNL A   1      39.009  26.800  28.637  1.00  0.00     0.031 C 
ATOM     39  C   UNL A   1      42.985  25.212  25.986  1.00  0.00     0.029 A 
ATOM     40  N   UNL A   1      43.163  27.198  26.995  1.00  0.00    -0.354 N 
ATOM     41  C   UNL A   1      39.820  28.851  29.225  1.00  0.00     0.074 A 
ATOM     42  C   UNL A   1      38.693  27.945  29.223  1.00  0.00     0.031 C 
ATOM     43  C   UNL A   1      44.219  25.680  25.737  1.00  0.00     0.029 A 
ATOM     44  C   UNL A   1      44.367  26.990  26.364  1.00  0.00     0.049 A 
ATOM     45  H   UNL A   1      42.960  28.010  27.514  1.00  0.00     0.167 HD
ATOM     46  C   UNL A   1      39.840  30.040  29.871  1.00  0.00     0.034 A 
ATOM     47  C   UNL A   1      45.463  27.769  26.294  1.00  0.00     0.034 A 
ATOM     48  C   UNL A   1      40.982  30.916  29.893  1.00  0.00     0.049 A 
ATOM     49  C   UNL A   1      45.451  29.101  26.998  1.00  0.00     0.074 A 
ATOM     50  C   UNL A   1      41.127  32.120  30.558  1.00  0.00     0.029 A 
ATOM     51  N   UNL A   1      42.175  30.679  29.225  1.00  0.00    -0.354 N 
ATOM     52  N   UNL A   1      44.490  29.649  27.704  1.00  0.00    -0.248 NA
ATOM     53  C   UNL A   1      46.668  29.917  26.897  1.00  0.00     0.031 C 
ATOM     54  C   UNL A   1      42.386  32.641  30.242  1.00  0.00     0.029 A 
ATOM     55  C   UNL A   1      43.052  31.729  29.437  1.00  0.00     0.049 A 
ATOM     56  H   UNL A   1      42.370  29.883  28.679  1.00  0.00     0.167 HD
ATOM     57  C   UNL A   1      44.992  30.868  28.147  1.00  0.00     0.074 A 
ATOM     58  C   UNL A   1      46.345  30.970  27.638  1.00  0.00     0.031 C 
ATOM     59  C   UNL A   1      44.391  31.815  28.908  1.00  0.00     0.034 A 
BRANCH  46  60
ATOM     60  C   UNL A   1      38.594  30.463  30.603  1.00  0.00     0.023 A 
ATOM     61  C   UNL A   1      37.586  31.207  29.965  1.00  0.00     0.031 A 
ATOM     62  C   UNL A   1      38.398  30.097  31.946  1.00  0.00     0.131 A 
ATOM     63  C   UNL A   1      36.447  31.599  30.683  1.00  0.00     0.055 A 
ATOM     64  C   UNL A   1      37.233  30.434  32.636  1.00  0.00     0.041 A 
ATOM     65  F   UNL A   1      39.338  29.404  32.609  1.00  0.00    -0.206 F 
ATOM     66  C   UNL A   1      36.252  31.195  32.007  1.00  0.00     0.022 A 
BRANCH  63  67
ATOM     67  S   UNL A   1      35.257  32.708  29.885  1.00  0.00     0.124 S 
ATOM     68  O   UNL A   1      34.403  33.080  31.011  1.00  0.00    -0.237 OA
ATOM     69  O   UNL A   1      36.111  33.765  29.356  1.00  0.00    -0.237 OA
ATOM     70  O   UNL A   1      34.619  31.860  28.879  1.00  0.00    -0.744 OA
ENDBRANCH  63  67
ENDBRANCH  46  60
BRANCH  47  71
ATOM     71  C   UNL A   1      46.659  27.311  25.533  1.00  0.00     0.023 A 
ATOM     72  C   UNL A   1      46.918  27.793  24.241  1.00  0.00     0.031 A 
ATOM     73  C   UNL A   1      47.562  26.388  26.090  1.00  0.00     0.131 A 
ATOM     74  C   UNL A   1      48.042  27.332  23.536  1.00  0.00     0.055 A 
ATOM     75  C   UNL A   1      48.700  25.964  25.401  1.00  0.00     0.041 A 
ATOM     76  F   UNL A   1      47.364  25.905  27.326  1.00  0.00    -0.206 F 
ATOM     77  C   UNL A   1      48.941  26.432  24.113  1.00  0.00     0.022 A 
BRANCH  74  78
ATOM     78  S   UNL A   1      48.298  27.906  21.835  1.00  0.00     0.124 S 
ATOM     79  O   UNL A   1      48.276  26.650  21.093  1.00  0.00    -0.237 OA
ATOM     80  O   UNL A   1      47.154  28.789  21.636  1.00  0.00    -0.237 OA
ATOM     81  O   UNL A   1      49.595  28.575  21.894  1.00  0.00    -0.744 OA
ENDBRANCH  74  78
ENDBRANCH  47  71
BRANCH  59  82
ATOM     82  C   UNL A   1      45.195  33.039  29.255  1.00  0.00     0.023 A 
ATOM     83  C   UNL A   1      45.143  34.196  28.460  1.00  0.00     0.031 A 
ATOM     84  C   UNL A   1      45.973  33.067  30.425  1.00  0.00     0.131 A 
ATOM     85  C   UNL A   1      45.880  35.328  28.832  1.00  0.00     0.055 A 
ATOM     86  C   UNL A   1      46.665  34.212  30.817  1.00  0.00     0.041 A 
ATOM     87  F   UNL A   1      46.049  31.988  31.220  1.00  0.00    -0.206 F 
ATOM     88  C   UNL A   1      46.625  35.351  30.016  1.00  0.00     0.022 A 
BRANCH  85  89
ATOM     89  S   UNL A   1      45.881  36.767  27.730  1.00  0.00     0.124 S 
ATOM     90  O   UNL A   1      44.720  36.500  26.886  1.00  0.00    -0.237 OA
ATOM     91  O   UNL A   1      45.749  37.880  28.664  1.00  0.00    -0.237 OA
ATOM     92  O   UNL A   1      47.173  36.678  27.052  1.00  0.00    -0.744 OA
ENDBRANCH  85  89
ENDBRANCH  59  82
ENDBRANCH  33  34
ENDBRANCH  25  28
ENDBRANCH   1  24
TORSDOF 14
ENDMDL
MODEL 3
REMARK VINA RESULT:     -12.6      2.476      3.333
REMARK SMILES Cc1cc(Br)cc2c1O[C@H](C(F)(F)F)C(C(=O)NCCCNC(=O)c1ccc(-c3c4nc(c(-c5cc(S(=O)(=O)[O-])ccc5F)c5ccc([nH]5)c(-c5cc(S(=O)(=O)[O-])ccc5F)c5nc(c(-c6cc(S(=O)(=O)[O-])ccc6F)c6ccc3[nH]6)C=C5)C=C4)cc1)=C2
REMARK SMILES IDX 21 1 20 2 19 3 18 4 16 5 17 6 15 8 1 9 2 10 3 11 8 12 4 13
REMARK SMILES IDX 7 14 9 15 5 16 6 17 88 18 10 19 11 20 12 21 13 22 14 23
REMARK SMILES IDX 22 24 23 25 24 27 25 28 26 29 87 30 27 31 86 32 28 33 29 34
REMARK SMILES IDX 30 35 80 36 31 37 85 38 79 39 81 40 32 41 84 42 78 43 77 44
REMARK SMILES IDX 33 46 65 47 45 48 64 49 46 50 49 51 63 52 82 53 47 54 48 55
REMARK SMILES IDX 62 57 83 58 50 59 34 60 35 61 43 62 36 63 42 64 44 65 41 66
REMARK SMILES IDX 37 67 38 68 39 69 40 70 66 71 67 72 75 73 68 74 74 75 76 76
REMARK SMILES IDX 73 77 69 78 70 79 71 80 72 81 51 82 52 83 60 84 53 85 59 86
REMARK SMILES IDX 61 87 58 88 54 89 55 90 56 91 57 92
REMARK H PARENT 18 7 22 26 81 45 49 56
REMARK Flexibility Score: inf
ROOT
ATOM      1  C   UNL A   1      32.730  32.660  27.228  1.00  0.00     0.118 C 
ENDROOT
BRANCH   1   2
ATOM      2  C   UNL A   1      31.452  32.078  26.638  1.00  0.00     0.042 C 
BRANCH   2   3
ATOM      3  C   UNL A   1      31.552  30.574  26.431  1.00  0.00     0.118 C 
BRANCH   3   4
ATOM      4  N   UNL A   1      32.175  30.238  25.159  1.00  0.00    -0.352 N 
ATOM      5  C   UNL A   1      32.475  29.114  24.468  1.00  0.00     0.251 C 
ATOM      6  O   UNL A   1      33.010  29.296  23.369  1.00  0.00    -0.270 OA
ATOM      7  H   UNL A   1      32.450  31.047  24.669  1.00  0.00     0.163 HD
BRANCH   5   8
ATOM      8  C   UNL A   1      32.203  27.725  24.936  1.00  0.00     0.067 C 
ATOM      9  C   UNL A   1      30.178  23.406  26.781  1.00  0.00     0.048 C 
ATOM     10  C   UNL A   1      31.568  23.847  26.420  1.00  0.00    -0.007 A 
ATOM     11  C   UNL A   1      32.647  22.960  26.499  1.00  0.00     0.023 A 
ATOM     12  C   UNL A   1      31.803  25.158  25.984  1.00  0.00     0.130 A 
ATOM     13  C   UNL A   1      33.929  23.388  26.152  1.00  0.00     0.019 A 
ATOM     14  C   UNL A   1      33.087  25.588  25.632  1.00  0.00     0.019 A 
ATOM     15  O   UNL A   1      30.731  26.003  25.966  1.00  0.00    -0.475 OA
ATOM     16  Br  UNL A   1      35.379  22.178  26.273  1.00  0.00    -0.051 Br
ATOM     17  C   UNL A   1      34.157  24.696  25.720  1.00  0.00     0.027 A 
ATOM     18  C   UNL A   1      33.285  26.969  25.204  1.00  0.00     0.025 C 
ATOM     19  C   UNL A   1      30.826  27.146  25.080  1.00  0.00     0.314 C 
BRANCH  19  20
ATOM     20  C   UNL A   1      30.185  26.789  23.725  1.00  0.00     0.429 C 
ATOM     21  F   UNL A   1      29.138  25.945  23.903  1.00  0.00    -0.167 F 
ATOM     22  F   UNL A   1      29.698  27.872  23.074  1.00  0.00    -0.167 F 
ATOM     23  F   UNL A   1      31.051  26.186  22.880  1.00  0.00    -0.167 F 
ENDBRANCH  19  20
ENDBRANCH   5   8
ENDBRANCH   3   4
ENDBRANCH   2   3
ENDBRANCH   1   2
BRANCH   1  24
ATOM     24  N   UNL A   1      32.563  34.065  27.593  1.00  0.00    -0.352 N 
ATOM     25  C   UNL A   1      33.076  34.769  28.653  1.00  0.00     0.251 C 
ATOM     26  H   UNL A   1      31.993  34.587  26.985  1.00  0.00     0.163 HD
ATOM     27  O   UNL A   1      32.575  35.850  28.959  1.00  0.00    -0.269 OA
BRANCH  25  28
ATOM     28  C   UNL A   1      34.215  34.227  29.418  1.00  0.00     0.039 A 
ATOM     29  C   UNL A   1      33.978  33.492  30.581  1.00  0.00     0.014 A 
ATOM     30  C   UNL A   1      35.524  34.470  28.994  1.00  0.00     0.014 A 
ATOM     31  C   UNL A   1      35.055  32.947  31.281  1.00  0.00     0.010 A 
ATOM     32  C   UNL A   1      36.586  33.843  29.631  1.00  0.00     0.010 A 
ATOM     33  C   UNL A   1      36.363  33.089  30.790  1.00  0.00    -0.014 A 
BRANCH  33  34
ATOM     34  C   UNL A   1      37.524  32.491  31.493  1.00  0.00     0.031 A 
ATOM     35  C   UNL A   1      38.272  31.352  30.856  1.00  0.00     0.074 A 
ATOM     36  C   UNL A   1      37.864  32.938  32.717  1.00  0.00     0.049 A 
ATOM     37  N   UNL A   1      39.254  30.638  31.340  1.00  0.00    -0.248 NA
ATOM     38  C   UNL A   1      37.841  30.941  29.509  1.00  0.00     0.031 C 
ATOM     39  C   UNL A   1      37.186  34.015  33.444  1.00  0.00     0.029 A 
ATOM     40  N   UNL A   1      38.864  32.545  33.570  1.00  0.00    -0.354 N 
ATOM     41  C   UNL A   1      39.549  29.692  30.365  1.00  0.00     0.074 A 
ATOM     42  C   UNL A   1      38.601  29.879  29.289  1.00  0.00     0.031 C 
ATOM     43  C   UNL A   1      37.816  34.224  34.611  1.00  0.00     0.029 A 
ATOM     44  C   UNL A   1      38.909  33.266  34.740  1.00  0.00     0.049 A 
ATOM     45  H   UNL A   1      39.492  31.815  33.363  1.00  0.00     0.167 HD
ATOM     46  C   UNL A   1      40.541  28.772  30.355  1.00  0.00     0.034 A 
ATOM     47  C   UNL A   1      39.734  33.162  35.800  1.00  0.00     0.034 A 
ATOM     48  C   UNL A   1      41.499  28.621  31.418  1.00  0.00     0.049 A 
ATOM     49  C   UNL A   1      40.814  32.111  35.777  1.00  0.00     0.074 A 
ATOM     50  C   UNL A   1      42.575  27.755  31.487  1.00  0.00     0.029 A 
ATOM     51  N   UNL A   1      41.498  29.355  32.596  1.00  0.00    -0.354 N 
ATOM     52  N   UNL A   1      41.090  31.237  34.837  1.00  0.00    -0.248 NA
ATOM     53  C   UNL A   1      41.691  32.033  36.951  1.00  0.00     0.031 C 
ATOM     54  C   UNL A   1      43.189  27.923  32.732  1.00  0.00     0.029 A 
ATOM     55  C   UNL A   1      42.538  28.942  33.411  1.00  0.00     0.049 A 
ATOM     56  H   UNL A   1      40.853  30.064  32.820  1.00  0.00     0.167 HD
ATOM     57  C   UNL A   1      42.185  30.515  35.301  1.00  0.00     0.074 A 
ATOM     58  C   UNL A   1      42.526  31.064  36.598  1.00  0.00     0.031 C 
ATOM     59  C   UNL A   1      42.850  29.494  34.706  1.00  0.00     0.034 A 
BRANCH  46  60
ATOM     60  C   UNL A   1      40.641  27.860  29.161  1.00  0.00     0.023 A 
ATOM     61  C   UNL A   1      41.563  28.101  28.128  1.00  0.00     0.031 A 
ATOM     62  C   UNL A   1      39.821  26.721  29.065  1.00  0.00     0.131 A 
ATOM     63  C   UNL A   1      41.615  27.241  27.023  1.00  0.00     0.055 A 
ATOM     64  C   UNL A   1      39.924  25.833  27.994  1.00  0.00     0.041 A 
ATOM     65  F   UNL A   1      38.909  26.454  30.013  1.00  0.00    -0.206 F 
ATOM     66  C   UNL A   1      40.819  26.093  26.961  1.00  0.00     0.022 A 
BRANCH  63  67
ATOM     67  S   UNL A   1      42.685  27.682  25.628  1.00  0.00     0.124 S 
ATOM     68  O   UNL A   1      42.613  26.473  24.810  1.00  0.00    -0.237 OA
ATOM     69  O   UNL A   1      42.025  28.862  25.082  1.00  0.00    -0.237 OA
ATOM     70  O   UNL A   1      43.982  27.927  26.255  1.00  0.00    -0.744 OA
ENDBRANCH  63  67
ENDBRANCH  46  60
BRANCH  47  71
ATOM     71  C   UNL A   1      39.572  34.073  36.967  1.00  0.00     0.023 A 
ATOM     72  C   UNL A   1      38.993  33.619  38.161  1.00  0.00     0.031 A 
ATOM     73  C   UNL A   1      39.999  35.412  36.905  1.00  0.00     0.131 A 
ATOM     74  C   UNL A   1      38.835  34.503  39.241  1.00  0.00     0.055 A 
ATOM     75  C   UNL A   1      39.877  36.276  37.995  1.00  0.00     0.041 A 
ATOM     76  F   UNL A   1      40.569  35.892  35.788  1.00  0.00    -0.206 F 
ATOM     77  C   UNL A   1      39.285  35.823  39.170  1.00  0.00     0.022 A 
BRANCH  74  78
ATOM     78  S   UNL A   1      38.000  33.908  40.738  1.00  0.00     0.124 S 
ATOM     79  O   UNL A   1      36.875  33.170  40.175  1.00  0.00    -0.237 OA
ATOM     80  O   UNL A   1      39.043  33.108  41.370  1.00  0.00    -0.237 OA
ATOM     81  O   UNL A   1      37.651  35.139  41.443  1.00  0.00    -0.744 OA
ENDBRANCH  74  78
ENDBRANCH  47  71
BRANCH  59  82
ATOM     82  C   UNL A   1      44.027  28.913  35.442  1.00  0.00     0.023 A 
ATOM     83  C   UNL A   1      43.869  27.858  36.356  1.00  0.00     0.031 A 
ATOM     84  C   UNL A   1      45.327  29.379  35.179  1.00  0.00     0.131 A 
ATOM     85  C   UNL A   1      44.992  27.320  36.997  1.00  0.00     0.055 A 
ATOM     86  C   UNL A   1      46.446  28.807  35.783  1.00  0.00     0.041 A 
ATOM     87  F   UNL A   1      45.529  30.382  34.309  1.00  0.00    -0.206 F 
ATOM     88  C   UNL A   1      46.282  27.774  36.702  1.00  0.00     0.022 A 
BRANCH  85  89
ATOM     89  S   UNL A   1      44.746  26.036  38.251  1.00  0.00     0.124 S 
ATOM     90  O   UNL A   1      43.782  25.156  37.597  1.00  0.00    -0.237 OA
ATOM     91  O   UNL A   1      46.090  25.496  38.420  1.00  0.00    -0.237 OA
ATOM     92  O   UNL A   1      44.227  26.774  39.401  1.00  0.00    -0.744 OA
ENDBRANCH  85  89
ENDBRANCH  59  82
ENDBRANCH  33  34
ENDBRANCH  25  28
ENDBRANCH   1  24
TORSDOF 14
ENDMDL
