MODEL 1
REMARK VINA RESULT:     -12.9      0.000      0.000
REMARK SMILES C[NH+]1CCC([NH+]2CCC(Oc3ccc4ccccc4c3)(C(=O)NCCCNC(=O)c3ccc(-c4c5nc(c(-c6cc(S(=O)(=O)[O-])ccc6F)c6ccc([nH]6)c(-c6cc(S(=O)(=O)[O-])ccc6F)c6nc(c(-c7cc(S(=O)(=O)[O-])ccc7F)c7ccc4[nH]7)C=C6)C=C5)cc3)CC2)CC1
REMARK SMILES IDX 25 1 24 2 23 3 21 4 22 5 9 7 6 8 7 9 94 10 8 12 93 13 5 14
REMARK SMILES IDX 1 15 2 16 3 17 96 18 4 20 95 21 10 22 11 23 12 24 20 25
REMARK SMILES IDX 13 26 19 27 14 28 18 29 15 30 17 31 16 32 26 33 27 34 28 35
REMARK SMILES IDX 29 37 30 38 31 39 92 40 32 41 91 42 33 43 34 44 35 45 85 46
REMARK SMILES IDX 36 47 90 48 84 49 86 50 37 51 89 52 83 53 82 54 38 56 70 57
REMARK SMILES IDX 50 58 69 59 51 60 54 61 68 62 87 63 52 64 53 65 67 67 88 68
REMARK SMILES IDX 55 69 39 70 40 71 48 72 41 73 47 74 49 75 46 76 42 77 43 78
REMARK SMILES IDX 44 79 45 80 71 81 72 82 80 83 73 84 79 85 81 86 78 87 74 88
REMARK SMILES IDX 75 89 76 90 77 91 56 92 57 93 65 94 58 95 64 96 66 97 63 98
REMARK SMILES IDX 59 99 60 100 61 101 62 102
REMARK H PARENT 23 6 6 11 2 19 27 36 86 55 54 66
REMARK Flexibility Score: inf
ROOT
ATOM      1  C   UNL A   1      34.023  31.254  27.126  1.00  0.00     0.042 C 
ENDROOT
BRANCH   1   2
ATOM      2  C   UNL A   1      34.167  29.757  27.383  1.00  0.00     0.118 C 
BRANCH   2   3
ATOM      3  N   UNL A   1      32.909  29.139  27.766  1.00  0.00    -0.353 N 
ATOM      4  C   UNL A   1      32.210  28.110  27.199  1.00  0.00     0.264 C 
ATOM      5  O   UNL A   1      31.226  27.715  27.835  1.00  0.00    -0.270 OA
ATOM      6  H   UNL A   1      32.490  29.526  28.570  1.00  0.00     0.163 HD
BRANCH   4   7
ATOM      7  C   UNL A   1      32.630  27.485  25.834  1.00  0.00     0.197 C 
ATOM      8  N   UNL A   1      30.846  28.742  23.851  1.00  0.00    -0.332 N 
ATOM      9  C   UNL A   1      31.906  29.509  24.516  1.00  0.00     0.267 C 
ATOM     10  C   UNL A   1      30.324  27.682  24.730  1.00  0.00     0.267 C 
ATOM     11  H   UNL A   1      31.280  28.289  23.047  1.00  0.00     0.348 HD
ATOM     12  C   UNL A   1      33.060  28.573  24.847  1.00  0.00     0.120 C 
ATOM     13  C   UNL A   1      31.430  26.729  25.222  1.00  0.00     0.120 C 
BRANCH   8  14
ATOM     14  C   UNL A   1      29.771  29.589  23.274  1.00  0.00     0.195 C 
ATOM     15  C   UNL A   1      27.853  32.811  21.136  1.00  0.00     0.332 C 
ATOM     16  N   UNL A   1      28.807  31.923  21.796  1.00  0.00    -0.337 N 
ATOM     17  C   UNL A   1      28.845  30.611  21.139  1.00  0.00     0.268 C 
ATOM     18  C   UNL A   1      28.504  31.784  23.223  1.00  0.00     0.268 C 
ATOM     19  H   UNL A   1      29.732  32.343  21.711  1.00  0.00     0.347 HD
ATOM     20  C   UNL A   1      29.943  29.741  21.748  1.00  0.00     0.126 C 
ATOM     21  C   UNL A   1      29.594  30.971  23.927  1.00  0.00     0.126 C 
ENDBRANCH   8  14
BRANCH   7  22
ATOM     22  O   UNL A   1      33.678  26.579  26.264  1.00  0.00    -0.477 OA
BRANCH  22  23
ATOM     23  C   UNL A   1      33.804  25.362  25.667  1.00  0.00     0.121 A 
ATOM     24  C   UNL A   1      34.433  25.189  24.440  1.00  0.00     0.047 A 
ATOM     25  C   UNL A   1      33.433  24.246  26.417  1.00  0.00     0.055 A 
ATOM     26  C   UNL A   1      34.582  23.911  23.901  1.00  0.00     0.012 A 
ATOM     27  C   UNL A   1      33.613  22.949  25.910  1.00  0.00    -0.015 A 
ATOM     28  C   UNL A   1      34.170  22.783  24.621  1.00  0.00    -0.018 A 
ATOM     29  C   UNL A   1      33.263  21.812  26.656  1.00  0.00     0.009 A 
ATOM     30  C   UNL A   1      34.327  21.490  24.098  1.00  0.00     0.009 A 
ATOM     31  C   UNL A   1      33.440  20.532  26.128  1.00  0.00     0.001 A 
ATOM     32  C   UNL A   1      33.962  20.371  24.848  1.00  0.00     0.001 A 
ENDBRANCH  22  23
ENDBRANCH   7  22
ENDBRANCH   4   7
ENDBRANCH   2   3
ENDBRANCH   1   2
BRANCH   1  33
ATOM     33  C   UNL A   1      32.612  31.795  27.331  1.00  0.00     0.118 C 
BRANCH  33  34
ATOM     34  N   UNL A   1      32.593  33.235  27.543  1.00  0.00    -0.352 N 
ATOM     35  C   UNL A   1      33.354  34.022  28.367  1.00  0.00     0.251 C 
ATOM     36  H   UNL A   1      31.924  33.721  27.007  1.00  0.00     0.163 HD
ATOM     37  O   UNL A   1      33.018  35.196  28.541  1.00  0.00    -0.269 OA
BRANCH  35  38
ATOM     38  C   UNL A   1      34.547  33.485  29.058  1.00  0.00     0.039 A 
ATOM     39  C   UNL A   1      34.363  32.585  30.112  1.00  0.00     0.014 A 
ATOM     40  C   UNL A   1      35.840  33.888  28.711  1.00  0.00     0.014 A 
ATOM     41  C   UNL A   1      35.470  32.047  30.773  1.00  0.00     0.010 A 
ATOM     42  C   UNL A   1      36.945  33.292  29.317  1.00  0.00     0.010 A 
ATOM     43  C   UNL A   1      36.773  32.367  30.359  1.00  0.00    -0.014 A 
BRANCH  43  44
ATOM     44  C   UNL A   1      37.959  31.745  31.005  1.00  0.00     0.031 A 
ATOM     45  C   UNL A   1      38.760  30.697  30.280  1.00  0.00     0.074 A 
ATOM     46  C   UNL A   1      38.281  32.084  32.269  1.00  0.00     0.049 A 
ATOM     47  N   UNL A   1      39.786  30.001  30.697  1.00  0.00    -0.248 NA
ATOM     48  C   UNL A   1      38.331  30.369  28.912  1.00  0.00     0.031 C 
ATOM     49  C   UNL A   1      37.555  33.053  33.093  1.00  0.00     0.029 A 
ATOM     50  N   UNL A   1      39.294  31.649  33.088  1.00  0.00    -0.354 N 
ATOM     51  C   UNL A   1      40.118  29.143  29.653  1.00  0.00     0.074 A 
ATOM     52  C   UNL A   1      39.143  29.369  28.606  1.00  0.00     0.031 C 
ATOM     53  C   UNL A   1      38.157  33.155  34.288  1.00  0.00     0.029 A 
ATOM     54  C   UNL A   1      39.284  32.229  34.335  1.00  0.00     0.049 A 
ATOM     55  H   UNL A   1      39.964  30.985  32.808  1.00  0.00     0.167 HD
ATOM     56  C   UNL A   1      41.149  28.267  29.567  1.00  0.00     0.034 A 
ATOM     57  C   UNL A   1      40.082  32.027  35.403  1.00  0.00     0.034 A 
ATOM     58  C   UNL A   1      42.119  28.064  30.618  1.00  0.00     0.049 A 
ATOM     59  C   UNL A   1      41.213  31.039  35.290  1.00  0.00     0.074 A 
ATOM     60  C   UNL A   1      43.239  27.249  30.612  1.00  0.00     0.029 A 
ATOM     61  N   UNL A   1      42.080  28.671  31.868  1.00  0.00    -0.354 N 
ATOM     62  N   UNL A   1      41.549  30.279  34.273  1.00  0.00    -0.248 NA
ATOM     63  C   UNL A   1      42.080  30.890  36.465  1.00  0.00     0.031 C 
ATOM     64  C   UNL A   1      43.835  27.310  31.877  1.00  0.00     0.029 A 
ATOM     65  C   UNL A   1      43.135  28.223  32.650  1.00  0.00     0.049 A 
ATOM     66  H   UNL A   1      41.403  29.324  32.155  1.00  0.00     0.167 HD
ATOM     67  C   UNL A   1      42.684  29.583  34.677  1.00  0.00     0.074 A 
ATOM     68  C   UNL A   1      42.984  30.028  36.023  1.00  0.00     0.031 C 
ATOM     69  C   UNL A   1      43.414  28.661  33.998  1.00  0.00     0.034 A 
BRANCH  56  70
ATOM     70  C   UNL A   1      41.261  27.444  28.304  1.00  0.00     0.023 A 
ATOM     71  C   UNL A   1      40.920  26.081  28.275  1.00  0.00     0.031 A 
ATOM     72  C   UNL A   1      41.741  28.026  27.116  1.00  0.00     0.131 A 
ATOM     73  C   UNL A   1      41.138  25.327  27.112  1.00  0.00     0.055 A 
ATOM     74  C   UNL A   1      41.876  27.289  25.936  1.00  0.00     0.041 A 
ATOM     75  F   UNL A   1      42.102  29.317  27.084  1.00  0.00    -0.206 F 
ATOM     76  C   UNL A   1      41.590  25.927  25.934  1.00  0.00     0.022 A 
BRANCH  73  77
ATOM     77  S   UNL A   1      40.967  23.523  27.203  1.00  0.00     0.124 S 
ATOM     78  O   UNL A   1      41.714  23.097  26.021  1.00  0.00    -0.237 OA
ATOM     79  O   UNL A   1      41.577  23.214  28.490  1.00  0.00    -0.237 OA
ATOM     80  O   UNL A   1      39.524  23.310  27.128  1.00  0.00    -0.744 OA
ENDBRANCH  73  77
ENDBRANCH  56  70
BRANCH  57  81
ATOM     81  C   UNL A   1      39.837  32.764  36.676  1.00  0.00     0.023 A 
ATOM     82  C   UNL A   1      38.893  32.306  37.610  1.00  0.00     0.031 A 
ATOM     83  C   UNL A   1      40.519  33.961  36.962  1.00  0.00     0.131 A 
ATOM     84  C   UNL A   1      38.624  33.063  38.761  1.00  0.00     0.055 A 
ATOM     85  C   UNL A   1      40.285  34.682  38.133  1.00  0.00     0.041 A 
ATOM     86  F   UNL A   1      41.437  34.441  36.106  1.00  0.00    -0.206 F 
ATOM     87  C   UNL A   1      39.322  34.240  39.035  1.00  0.00     0.022 A 
BRANCH  84  88
ATOM     88  S   UNL A   1      37.283  32.526  39.858  1.00  0.00     0.124 S 
ATOM     89  O   UNL A   1      37.217  33.628  40.810  1.00  0.00    -0.237 OA
ATOM     90  O   UNL A   1      36.162  32.409  38.931  1.00  0.00    -0.237 OA
ATOM     91  O   UNL A   1      37.775  31.261  40.400  1.00  0.00    -0.744 OA
ENDBRANCH  84  88
ENDBRANCH  57  81
BRANCH  69  92
ATOM     92  C   UNL A   1      44.632  28.105  34.697  1.00  0.00     0.023 A 
ATOM     93  C   UNL A   1      44.571  26.934  35.474  1.00  0.00     0.031 A 
ATOM     94  C   UNL A   1      45.867  28.771  34.604  1.00  0.00     0.131 A 
ATOM     95  C   UNL A   1      45.705  26.501  36.176  1.00  0.00     0.055 A 
ATOM     96  C   UNL A   1      47.008  28.301  35.253  1.00  0.00     0.041 A 
ATOM     97  F   UNL A   1      45.984  29.896  33.879  1.00  0.00    -0.206 F 
ATOM     98  C   UNL A   1      46.928  27.167  36.058  1.00  0.00     0.022 A 
BRANCH  95  99
ATOM     99  S   UNL A   1      45.536  25.114  37.333  1.00  0.00     0.124 S 
ATOM    100  O   UNL A   1      45.423  23.975  36.427  1.00  0.00    -0.237 OA
ATOM    101  O   UNL A   1      46.774  25.197  38.102  1.00  0.00    -0.237 OA
ATOM    102  O   UNL A   1      44.321  25.435  38.079  1.00  0.00    -0.744 OA
ENDBRANCH  95  99
ENDBRANCH  69  92
ENDBRANCH  43  44
ENDBRANCH  35  38
ENDBRANCH  33  34
ENDBRANCH   1  33
TORSDOF 16
ENDMDL
MODEL 2
REMARK VINA RESULT:     -12.8      5.119      7.860
REMARK SMILES C[NH+]1CCC([NH+]2CCC(Oc3ccc4ccccc4c3)(C(=O)NCCCNC(=O)c3ccc(-c4c5nc(c(-c6cc(S(=O)(=O)[O-])ccc6F)c6ccc([nH]6)c(-c6cc(S(=O)(=O)[O-])ccc6F)c6nc(c(-c7cc(S(=O)(=O)[O-])ccc7F)c7ccc4[nH]7)C=C6)C=C5)cc3)CC2)CC1
REMARK SMILES IDX 25 1 24 2 23 3 21 4 22 5 9 7 6 8 7 9 94 10 8 12 93 13 5 14
REMARK SMILES IDX 1 15 2 16 3 17 96 18 4 20 95 21 10 22 11 23 12 24 20 25
REMARK SMILES IDX 13 26 19 27 14 28 18 29 15 30 17 31 16 32 26 33 27 34 28 35
REMARK SMILES IDX 29 37 30 38 31 39 92 40 32 41 91 42 33 43 34 44 35 45 85 46
REMARK SMILES IDX 36 47 90 48 84 49 86 50 37 51 89 52 83 53 82 54 38 56 70 57
REMARK SMILES IDX 50 58 69 59 51 60 54 61 68 62 87 63 52 64 53 65 67 67 88 68
REMARK SMILES IDX 55 69 39 70 40 71 48 72 41 73 47 74 49 75 46 76 42 77 43 78
REMARK SMILES IDX 44 79 45 80 71 81 72 82 80 83 73 84 79 85 81 86 78 87 74 88
REMARK SMILES IDX 75 89 76 90 77 91 56 92 57 93 65 94 58 95 64 96 66 97 63 98
REMARK SMILES IDX 59 99 60 100 61 101 62 102
REMARK H PARENT 23 6 6 11 2 19 27 36 86 55 54 66
REMARK Flexibility Score: inf
ROOT
ATOM      1  C   UNL A   1      36.869  22.591  24.046  1.00  0.00     0.042 C 
ENDROOT
BRANCH   1   2
ATOM      2  C   UNL A   1      35.587  23.291  23.603  1.00  0.00     0.118 C 
BRANCH   2   3
ATOM      3  N   UNL A   1      35.223  24.384  24.488  1.00  0.00    -0.353 N 
ATOM      4  C   UNL A   1      34.069  24.627  25.180  1.00  0.00     0.264 C 
ATOM      5  O   UNL A   1      34.103  25.583  25.963  1.00  0.00    -0.270 OA
ATOM      6  H   UNL A   1      35.924  25.065  24.609  1.00  0.00     0.163 HD
BRANCH   4   7
ATOM      7  C   UNL A   1      32.794  23.752  24.986  1.00  0.00     0.197 C 
ATOM      8  N   UNL A   1      30.858  25.532  23.651  1.00  0.00    -0.332 N 
ATOM      9  C   UNL A   1      32.046  25.034  22.947  1.00  0.00     0.267 C 
ATOM     10  C   UNL A   1      31.121  25.691  25.092  1.00  0.00     0.267 C 
ATOM     11  H   UNL A   1      30.141  24.814  23.547  1.00  0.00     0.348 HD
ATOM     12  C   UNL A   1      32.414  23.666  23.505  1.00  0.00     0.120 C 
ATOM     13  C   UNL A   1      31.611  24.387  25.748  1.00  0.00     0.120 C 
BRANCH   8  14
ATOM     14  C   UNL A   1      30.268  26.748  23.038  1.00  0.00     0.195 C 
ATOM     15  C   UNL A   1      28.965  30.838  22.585  1.00  0.00     0.332 C 
ATOM     16  N   UNL A   1      29.470  29.563  23.087  1.00  0.00    -0.337 N 
ATOM     17  C   UNL A   1      30.694  29.167  22.382  1.00  0.00     0.268 C 
ATOM     18  C   UNL A   1      28.450  28.515  22.993  1.00  0.00     0.268 C 
ATOM     19  H   UNL A   1      29.701  29.687  24.073  1.00  0.00     0.347 HD
ATOM     20  C   UNL A   1      31.287  27.907  23.009  1.00  0.00     0.126 C 
ATOM     21  C   UNL A   1      28.942  27.225  23.656  1.00  0.00     0.126 C 
ENDBRANCH   8  14
BRANCH   7  22
ATOM     22  O   UNL A   1      33.225  22.507  25.594  1.00  0.00    -0.477 OA
BRANCH  22  23
ATOM     23  C   UNL A   1      33.069  21.336  24.917  1.00  0.00     0.121 A 
ATOM     24  C   UNL A   1      32.210  21.205  23.833  1.00  0.00     0.047 A 
ATOM     25  C   UNL A   1      33.943  20.298  25.237  1.00  0.00     0.055 A 
ATOM     26  C   UNL A   1      32.130  19.995  23.143  1.00  0.00     0.012 A 
ATOM     27  C   UNL A   1      33.908  19.087  24.527  1.00  0.00    -0.015 A 
ATOM     28  C   UNL A   1      32.969  18.925  23.483  1.00  0.00    -0.018 A 
ATOM     29  C   UNL A   1      34.792  18.036  24.820  1.00  0.00     0.009 A 
ATOM     30  C   UNL A   1      32.911  17.708  22.788  1.00  0.00     0.009 A 
ATOM     31  C   UNL A   1      34.733  16.837  24.109  1.00  0.00     0.001 A 
ATOM     32  C   UNL A   1      33.787  16.668  23.101  1.00  0.00     0.001 A 
ENDBRANCH  22  23
ENDBRANCH   7  22
ENDBRANCH   4   7
ENDBRANCH   2   3
ENDBRANCH   1   2
BRANCH   1  33
ATOM     33  C   UNL A   1      36.943  22.297  25.540  1.00  0.00     0.118 C 
BRANCH  33  34
ATOM     34  N   UNL A   1      37.997  21.350  25.871  1.00  0.00    -0.352 N 
ATOM     35  C   UNL A   1      39.283  21.565  26.294  1.00  0.00     0.251 C 
ATOM     36  H   UNL A   1      37.745  20.403  25.775  1.00  0.00     0.163 HD
ATOM     37  O   UNL A   1      40.068  20.614  26.310  1.00  0.00    -0.269 OA
BRANCH  35  38
ATOM     38  C   UNL A   1      39.743  22.909  26.708  1.00  0.00     0.039 A 
ATOM     39  C   UNL A   1      40.624  23.015  27.788  1.00  0.00     0.014 A 
ATOM     40  C   UNL A   1      39.286  24.068  26.072  1.00  0.00     0.014 A 
ATOM     41  C   UNL A   1      41.090  24.269  28.190  1.00  0.00     0.010 A 
ATOM     42  C   UNL A   1      39.812  25.311  26.423  1.00  0.00     0.010 A 
ATOM     43  C   UNL A   1      40.716  25.426  27.489  1.00  0.00    -0.014 A 
BRANCH  43  44
ATOM     44  C   UNL A   1      41.263  26.759  27.860  1.00  0.00     0.031 A 
ATOM     45  C   UNL A   1      42.688  27.116  27.534  1.00  0.00     0.074 A 
ATOM     46  C   UNL A   1      40.490  27.628  28.542  1.00  0.00     0.049 A 
ATOM     47  N   UNL A   1      43.360  28.200  27.827  1.00  0.00    -0.248 NA
ATOM     48  C   UNL A   1      43.471  26.105  26.807  1.00  0.00     0.031 C 
ATOM     49  C   UNL A   1      39.107  27.380  28.956  1.00  0.00     0.029 A 
ATOM     50  N   UNL A   1      40.754  28.888  29.016  1.00  0.00    -0.354 N 
ATOM     51  C   UNL A   1      44.645  27.999  27.335  1.00  0.00     0.074 A 
ATOM     52  C   UNL A   1      44.672  26.663  26.777  1.00  0.00     0.031 C 
ATOM     53  C   UNL A   1      38.639  28.460  29.600  1.00  0.00     0.029 A 
ATOM     54  C   UNL A   1      39.698  29.460  29.687  1.00  0.00     0.049 A 
ATOM     55  H   UNL A   1      41.619  29.341  28.887  1.00  0.00     0.167 HD
ATOM     56  C   UNL A   1      45.697  28.856  27.328  1.00  0.00     0.034 A 
ATOM     57  C   UNL A   1      39.597  30.650  30.314  1.00  0.00     0.034 A 
ATOM     58  C   UNL A   1      45.649  30.191  27.879  1.00  0.00     0.049 A 
ATOM     59  C   UNL A   1      40.783  31.579  30.307  1.00  0.00     0.074 A 
ATOM     60  C   UNL A   1      46.634  31.163  27.869  1.00  0.00     0.029 A 
ATOM     61  N   UNL A   1      44.561  30.737  28.548  1.00  0.00    -0.354 N 
ATOM     62  N   UNL A   1      41.973  31.397  29.783  1.00  0.00    -0.248 NA
ATOM     63  C   UNL A   1      40.607  32.879  30.964  1.00  0.00     0.031 C 
ATOM     64  C   UNL A   1      46.168  32.268  28.591  1.00  0.00     0.029 A 
ATOM     65  C   UNL A   1      44.863  32.020  28.985  1.00  0.00     0.049 A 
ATOM     66  H   UNL A   1      43.700  30.282  28.691  1.00  0.00     0.167 HD
ATOM     67  C   UNL A   1      42.678  32.572  30.025  1.00  0.00     0.074 A 
ATOM     68  C   UNL A   1      41.772  33.461  30.723  1.00  0.00     0.031 C 
ATOM     69  C   UNL A   1      43.957  32.890  29.697  1.00  0.00     0.034 A 
BRANCH  56  70
ATOM     70  C   UNL A   1      46.995  28.361  26.731  1.00  0.00     0.023 A 
ATOM     71  C   UNL A   1      47.210  28.338  25.342  1.00  0.00     0.031 A 
ATOM     72  C   UNL A   1      48.023  27.879  27.561  1.00  0.00     0.131 A 
ATOM     73  C   UNL A   1      48.384  27.773  24.821  1.00  0.00     0.055 A 
ATOM     74  C   UNL A   1      49.225  27.394  27.041  1.00  0.00     0.041 A 
ATOM     75  F   UNL A   1      47.871  27.855  28.894  1.00  0.00    -0.206 F 
ATOM     76  C   UNL A   1      49.405  27.323  25.662  1.00  0.00     0.022 A 
BRANCH  73  77
ATOM     77  S   UNL A   1      48.493  27.494  23.032  1.00  0.00     0.124 S 
ATOM     78  O   UNL A   1      48.418  26.036  22.957  1.00  0.00    -0.237 OA
ATOM     79  O   UNL A   1      47.333  28.220  22.529  1.00  0.00    -0.237 OA
ATOM     80  O   UNL A   1      49.790  28.062  22.674  1.00  0.00    -0.744 OA
ENDBRANCH  73  77
ENDBRANCH  56  70
BRANCH  57  81
ATOM     81  C   UNL A   1      38.336  31.028  31.013  1.00  0.00     0.023 A 
ATOM     82  C   UNL A   1      37.296  31.680  30.330  1.00  0.00     0.031 A 
ATOM     83  C   UNL A   1      38.166  30.774  32.386  1.00  0.00     0.131 A 
ATOM     84  C   UNL A   1      36.153  32.098  31.032  1.00  0.00     0.055 A 
ATOM     85  C   UNL A   1      37.005  31.145  33.067  1.00  0.00     0.041 A 
ATOM     86  F   UNL A   1      39.127  30.148  33.085  1.00  0.00    -0.206 F 
ATOM     87  C   UNL A   1      35.996  31.823  32.391  1.00  0.00     0.022 A 
BRANCH  84  88
ATOM     88  S   UNL A   1      34.909  33.081  30.153  1.00  0.00     0.124 S 
ATOM     89  O   UNL A   1      34.032  33.494  31.242  1.00  0.00    -0.237 OA
ATOM     90  O   UNL A   1      35.722  34.132  29.550  1.00  0.00    -0.237 OA
ATOM     91  O   UNL A   1      34.327  32.128  29.210  1.00  0.00    -0.744 OA
ENDBRANCH  84  88
ENDBRANCH  57  81
BRANCH  69  92
ATOM     92  C   UNL A   1      44.431  34.277  30.063  1.00  0.00     0.023 A 
ATOM     93  C   UNL A   1      44.258  35.371  29.196  1.00  0.00     0.031 A 
ATOM     94  C   UNL A   1      45.087  34.502  31.286  1.00  0.00     0.131 A 
ATOM     95  C   UNL A   1      44.790  36.624  29.536  1.00  0.00     0.055 A 
ATOM     96  C   UNL A   1      45.557  35.764  31.648  1.00  0.00     0.041 A 
ATOM     97  F   UNL A   1      45.283  33.494  32.151  1.00  0.00    -0.206 F 
ATOM     98  C   UNL A   1      45.424  36.831  30.765  1.00  0.00     0.022 A 
BRANCH  95  99
ATOM     99  S   UNL A   1      44.736  37.957  28.307  1.00  0.00     0.124 S 
ATOM    100  O   UNL A   1      43.883  38.942  28.964  1.00  0.00    -0.237 OA
ATOM    101  O   UNL A   1      46.144  38.318  28.177  1.00  0.00    -0.237 OA
ATOM    102  O   UNL A   1      44.150  37.315  27.131  1.00  0.00    -0.744 OA
ENDBRANCH  95  99
ENDBRANCH  69  92
ENDBRANCH  43  44
ENDBRANCH  35  38
ENDBRANCH  33  34
ENDBRANCH   1  33
TORSDOF 16
ENDMDL
MODEL 3
REMARK VINA RESULT:     -12.8      2.582      8.923
REMARK SMILES C[NH+]1CCC([NH+]2CCC(Oc3ccc4ccccc4c3)(C(=O)NCCCNC(=O)c3ccc(-c4c5nc(c(-c6cc(S(=O)(=O)[O-])ccc6F)c6ccc([nH]6)c(-c6cc(S(=O)(=O)[O-])ccc6F)c6nc(c(-c7cc(S(=O)(=O)[O-])ccc7F)c7ccc4[nH]7)C=C6)C=C5)cc3)CC2)CC1
REMARK SMILES IDX 25 1 24 2 23 3 21 4 22 5 9 7 6 8 7 9 94 10 8 12 93 13 5 14
REMARK SMILES IDX 1 15 2 16 3 17 96 18 4 20 95 21 10 22 11 23 12 24 20 25
REMARK SMILES IDX 13 26 19 27 14 28 18 29 15 30 17 31 16 32 26 33 27 34 28 35
REMARK SMILES IDX 29 37 30 38 31 39 92 40 32 41 91 42 33 43 34 44 35 45 85 46
REMARK SMILES IDX 36 47 90 48 84 49 86 50 37 51 89 52 83 53 82 54 38 56 70 57
REMARK SMILES IDX 50 58 69 59 51 60 54 61 68 62 87 63 52 64 53 65 67 67 88 68
REMARK SMILES IDX 55 69 39 70 40 71 48 72 41 73 47 74 49 75 46 76 42 77 43 78
REMARK SMILES IDX 44 79 45 80 71 81 72 82 80 83 73 84 79 85 81 86 78 87 74 88
REMARK SMILES IDX 75 89 76 90 77 91 56 92 57 93 65 94 58 95 64 96 66 97 63 98
REMARK SMILES IDX 59 99 60 100 61 101 62 102
REMARK H PARENT 23 6 6 11 2 19 27 36 86 55 54 66
REMARK Flexibility Score: inf
ROOT
ATOM      1  C   UNL A   1      31.956  28.771  27.326  1.00  0.00     0.042 C 
ENDROOT
BRANCH   1   2
ATOM      2  C   UNL A   1      31.762  27.320  26.896  1.00  0.00     0.118 C 
BRANCH   2   3
ATOM      3  N   UNL A   1      33.021  26.659  26.599  1.00  0.00    -0.353 N 
ATOM      4  C   UNL A   1      33.493  26.117  25.436  1.00  0.00     0.264 C 
ATOM      5  O   UNL A   1      34.670  25.738  25.459  1.00  0.00    -0.270 OA
ATOM      6  H   UNL A   1      33.639  26.590  27.363  1.00  0.00     0.163 HD
BRANCH   4   7
ATOM      7  C   UNL A   1      32.598  25.986  24.167  1.00  0.00     0.197 C 
ATOM      8  N   UNL A   1      32.048  23.098  23.933  1.00  0.00    -0.332 N 
ATOM      9  C   UNL A   1      31.456  23.901  25.009  1.00  0.00     0.267 C 
ATOM     10  C   UNL A   1      33.368  23.622  23.541  1.00  0.00     0.267 C 
ATOM     11  H   UNL A   1      31.428  23.195  23.128  1.00  0.00     0.348 HD
ATOM     12  C   UNL A   1      31.259  25.326  24.512  1.00  0.00     0.120 C 
ATOM     13  C   UNL A   1      33.312  25.102  23.120  1.00  0.00     0.120 C 
BRANCH   8  14
ATOM     14  C   UNL A   1      32.071  21.641  24.219  1.00  0.00     0.195 C 
ATOM     15  C   UNL A   1      33.569  17.617  24.655  1.00  0.00     0.332 C 
ATOM     16  N   UNL A   1      33.398  19.037  24.361  1.00  0.00    -0.337 N 
ATOM     17  C   UNL A   1      33.171  19.805  25.590  1.00  0.00     0.268 C 
ATOM     18  C   UNL A   1      32.311  19.254  23.402  1.00  0.00     0.268 C 
ATOM     19  H   UNL A   1      34.262  19.372  23.935  1.00  0.00     0.347 HD
ATOM     20  C   UNL A   1      33.134  21.302  25.286  1.00  0.00     0.126 C 
ATOM     21  C   UNL A   1      32.241  20.727  22.993  1.00  0.00     0.126 C 
ENDBRANCH   8  14
BRANCH   7  22
ATOM     22  O   UNL A   1      32.522  27.372  23.745  1.00  0.00    -0.477 OA
BRANCH  22  23
ATOM     23  C   UNL A   1      31.310  27.927  23.468  1.00  0.00     0.121 A 
ATOM     24  C   UNL A   1      30.225  27.179  23.027  1.00  0.00     0.047 A 
ATOM     25  C   UNL A   1      31.132  29.266  23.814  1.00  0.00     0.055 A 
ATOM     26  C   UNL A   1      28.991  27.793  22.811  1.00  0.00     0.012 A 
ATOM     27  C   UNL A   1      29.887  29.891  23.644  1.00  0.00    -0.015 A 
ATOM     28  C   UNL A   1      28.809  29.149  23.109  1.00  0.00    -0.018 A 
ATOM     29  C   UNL A   1      29.681  31.233  24.003  1.00  0.00     0.009 A 
ATOM     30  C   UNL A   1      27.569  29.776  22.911  1.00  0.00     0.009 A 
ATOM     31  C   UNL A   1      28.438  31.838  23.815  1.00  0.00     0.001 A 
ATOM     32  C   UNL A   1      27.386  31.115  23.261  1.00  0.00     0.001 A 
ENDBRANCH  22  23
ENDBRANCH   7  22
ENDBRANCH   4   7
ENDBRANCH   2   3
ENDBRANCH   1   2
BRANCH   1  33
ATOM     33  C   UNL A   1      33.314  29.359  26.963  1.00  0.00     0.118 C 
BRANCH  33  34
ATOM     34  N   UNL A   1      33.412  30.775  27.281  1.00  0.00    -0.352 N 
ATOM     35  C   UNL A   1      34.332  31.455  28.037  1.00  0.00     0.251 C 
ATOM     36  H   UNL A   1      32.703  31.336  26.890  1.00  0.00     0.163 HD
ATOM     37  O   UNL A   1      34.096  32.625  28.347  1.00  0.00    -0.269 OA
BRANCH  35  38
ATOM     38  C   UNL A   1      35.579  30.805  28.500  1.00  0.00     0.039 A 
ATOM     39  C   UNL A   1      36.783  31.142  27.875  1.00  0.00     0.014 A 
ATOM     40  C   UNL A   1      35.570  29.838  29.510  1.00  0.00     0.014 A 
ATOM     41  C   UNL A   1      37.979  30.559  28.302  1.00  0.00     0.010 A 
ATOM     42  C   UNL A   1      36.772  29.316  29.987  1.00  0.00     0.010 A 
ATOM     43  C   UNL A   1      37.990  29.667  29.386  1.00  0.00    -0.014 A 
BRANCH  43  44
ATOM     44  C   UNL A   1      39.265  29.096  29.898  1.00  0.00     0.031 A 
ATOM     45  C   UNL A   1      39.960  29.720  31.078  1.00  0.00     0.074 A 
ATOM     46  C   UNL A   1      39.825  28.047  29.262  1.00  0.00     0.049 A 
ATOM     47  N   UNL A   1      41.103  29.402  31.630  1.00  0.00    -0.248 NA
ATOM     48  C   UNL A   1      39.293  30.873  31.701  1.00  0.00     0.031 C 
ATOM     49  C   UNL A   1      39.271  27.384  28.079  1.00  0.00     0.029 A 
ATOM     50  N   UNL A   1      40.986  27.359  29.511  1.00  0.00    -0.354 N 
ATOM     51  C   UNL A   1      41.302  30.322  32.655  1.00  0.00     0.074 A 
ATOM     52  C   UNL A   1      40.186  31.244  32.606  1.00  0.00     0.031 C 
ATOM     53  C   UNL A   1      40.078  26.374  27.722  1.00  0.00     0.029 A 
ATOM     54  C   UNL A   1      41.230  26.343  28.617  1.00  0.00     0.049 A 
ATOM     55  H   UNL A   1      41.588  27.573  30.261  1.00  0.00     0.167 HD
ATOM     56  C   UNL A   1      42.307  30.378  33.564  1.00  0.00     0.034 A 
ATOM     57  C   UNL A   1      42.270  25.490  28.519  1.00  0.00     0.034 A 
ATOM     58  C   UNL A   1      43.406  29.442  33.604  1.00  0.00     0.049 A 
ATOM     59  C   UNL A   1      43.382  25.581  29.531  1.00  0.00     0.074 A 
ATOM     60  C   UNL A   1      44.442  29.368  34.519  1.00  0.00     0.029 A 
ATOM     61  N   UNL A   1      43.618  28.422  32.684  1.00  0.00    -0.354 N 
ATOM     62  N   UNL A   1      43.524  26.419  30.532  1.00  0.00    -0.248 NA
ATOM     63  C   UNL A   1      44.468  24.601  29.408  1.00  0.00     0.031 C 
ATOM     64  C   UNL A   1      45.316  28.353  34.114  1.00  0.00     0.029 A 
ATOM     65  C   UNL A   1      44.786  27.738  32.991  1.00  0.00     0.049 A 
ATOM     66  H   UNL A   1      43.026  28.215  31.926  1.00  0.00     0.167 HD
ATOM     67  C   UNL A   1      44.702  26.049  31.173  1.00  0.00     0.074 A 
ATOM     68  C   UNL A   1      45.220  24.900  30.457  1.00  0.00     0.031 C 
ATOM     69  C   UNL A   1      45.302  26.605  32.258  1.00  0.00     0.034 A 
BRANCH  56  70
ATOM     70  C   UNL A   1      42.274  31.508  34.568  1.00  0.00     0.023 A 
ATOM     71  C   UNL A   1      41.370  31.516  35.644  1.00  0.00     0.031 A 
ATOM     72  C   UNL A   1      43.143  32.606  34.433  1.00  0.00     0.131 A 
ATOM     73  C   UNL A   1      41.297  32.632  36.493  1.00  0.00     0.055 A 
ATOM     74  C   UNL A   1      43.124  33.676  35.332  1.00  0.00     0.041 A 
ATOM     75  F   UNL A   1      44.016  32.666  33.416  1.00  0.00    -0.206 F 
ATOM     76  C   UNL A   1      42.186  33.701  36.360  1.00  0.00     0.022 A 
BRANCH  73  77
ATOM     77  S   UNL A   1      39.927  32.734  37.677  1.00  0.00     0.124 S 
ATOM     78  O   UNL A   1      40.622  32.544  38.948  1.00  0.00    -0.237 OA
ATOM     79  O   UNL A   1      39.398  34.070  37.431  1.00  0.00    -0.237 OA
ATOM     80  O   UNL A   1      39.051  31.632  37.285  1.00  0.00    -0.744 OA
ENDBRANCH  73  77
ENDBRANCH  56  70
BRANCH  57  81
ATOM     81  C   UNL A   1      42.320  24.486  27.418  1.00  0.00     0.023 A 
ATOM     82  C   UNL A   1      41.555  23.310  27.474  1.00  0.00     0.031 A 
ATOM     83  C   UNL A   1      43.164  24.671  26.309  1.00  0.00     0.131 A 
ATOM     84  C   UNL A   1      41.683  22.344  26.464  1.00  0.00     0.055 A 
ATOM     85  C   UNL A   1      43.248  23.731  25.280  1.00  0.00     0.041 A 
ATOM     86  F   UNL A   1      43.913  25.781  26.202  1.00  0.00    -0.206 F 
ATOM     87  C   UNL A   1      42.514  22.552  25.362  1.00  0.00     0.022 A 
BRANCH  84  88
ATOM     88  S   UNL A   1      40.805  20.768  26.655  1.00  0.00     0.124 S 
ATOM     89  O   UNL A   1      40.783  20.614  28.105  1.00  0.00    -0.237 OA
ATOM     90  O   UNL A   1      39.524  21.056  26.019  1.00  0.00    -0.237 OA
ATOM     91  O   UNL A   1      41.655  19.818  25.939  1.00  0.00    -0.744 OA
ENDBRANCH  84  88
ENDBRANCH  57  81
BRANCH  69  92
ATOM     92  C   UNL A   1      46.567  25.945  32.751  1.00  0.00     0.023 A 
ATOM     93  C   UNL A   1      46.539  24.893  33.685  1.00  0.00     0.031 A 
ATOM     94  C   UNL A   1      47.822  26.392  32.299  1.00  0.00     0.131 A 
ATOM     95  C   UNL A   1      47.741  24.367  34.182  1.00  0.00     0.055 A 
ATOM     96  C   UNL A   1      49.013  25.822  32.749  1.00  0.00     0.041 A 
ATOM     97  F   UNL A   1      47.910  27.395  31.410  1.00  0.00    -0.206 F 
ATOM     98  C   UNL A   1      48.978  24.813  33.708  1.00  0.00     0.022 A 
BRANCH  95  99
ATOM     99  S   UNL A   1      47.669  23.163  35.537  1.00  0.00     0.124 S 
ATOM    100  O   UNL A   1      47.898  21.903  34.836  1.00  0.00    -0.237 OA
ATOM    101  O   UNL A   1      48.749  23.613  36.410  1.00  0.00    -0.237 OA
ATOM    102  O   UNL A   1      46.323  23.335  36.078  1.00  0.00    -0.744 OA
ENDBRANCH  95  99
ENDBRANCH  69  92
ENDBRANCH  43  44
ENDBRANCH  35  38
ENDBRANCH  33  34
ENDBRANCH   1  33
TORSDOF 16
ENDMDL
