MODEL 1
REMARK VINA RESULT:     -11.0      0.000      0.000
REMARK SMILES C[C@@H](O)[C@H](C)[N@@H+]1CCOC[C@@H]1C(=O)NCCCNC(=O)c1ccc(-c2c3nc(c(-c4cc(S(=O)(=O)[O-])ccc4F)c4ccc([nH]4)c(-c4cc(S(=O)(=O)[O-])ccc4F)c4nc(c(-c5cc(S(=O)(=O)[O-])ccc5F)c5ccc2[nH]5)C=C4)C=C3)cc1
REMARK SMILES IDX 16 1 15 2 14 3 12 4 13 5 11 7 6 8 7 9 8 11 10 12 9 13 4 14
REMARK SMILES IDX 5 15 2 16 1 17 3 18 17 20 18 21 19 22 20 24 21 25 22 26
REMARK SMILES IDX 83 27 23 28 82 29 24 30 25 31 26 32 76 33 27 34 81 35 75 36
REMARK SMILES IDX 77 37 28 38 80 39 74 40 73 41 29 43 61 44 41 45 60 46 42 47
REMARK SMILES IDX 45 48 59 49 78 50 43 51 44 52 58 54 79 55 46 56 30 57 31 58
REMARK SMILES IDX 39 59 32 60 38 61 40 62 37 63 33 64 34 65 35 66 36 67 62 68
REMARK SMILES IDX 63 69 71 70 64 71 70 72 72 73 69 74 65 75 66 76 67 77 68 78
REMARK SMILES IDX 47 79 48 80 56 81 49 82 55 83 57 84 54 85 50 86 51 87 52 88
REMARK SMILES IDX 53 89
REMARK H PARENT 14 6 6 10 3 19 18 23 77 42 45 53
REMARK Flexibility Score: inf
ROOT
ATOM      1  C   UNL A   1      31.461  32.155  26.826  1.00  0.00     0.042 C 
ENDROOT
BRANCH   1   2
ATOM      2  C   UNL A   1      31.640  30.733  26.319  1.00  0.00     0.118 C 
BRANCH   2   3
ATOM      3  N   UNL A   1      32.860  30.097  26.766  1.00  0.00    -0.351 N 
ATOM      4  C   UNL A   1      33.335  28.838  26.555  1.00  0.00     0.280 C 
ATOM      5  O   UNL A   1      34.523  28.657  26.856  1.00  0.00    -0.268 OA
ATOM      6  H   UNL A   1      33.444  30.670  27.314  1.00  0.00     0.163 HD
BRANCH   4   7
ATOM      7  C   UNL A   1      32.492  27.680  25.979  1.00  0.00     0.300 C 
ATOM      8  N   UNL A   1      32.547  27.512  24.496  1.00  0.00    -0.317 N 
ATOM      9  C   UNL A   1      31.872  26.255  24.135  1.00  0.00     0.292 C 
ATOM     10  H   UNL A   1      33.534  27.433  24.254  1.00  0.00     0.349 HD
ATOM     11  C   UNL A   1      30.526  25.997  24.842  1.00  0.00     0.221 C 
ATOM     12  C   UNL A   1      31.123  27.428  26.618  1.00  0.00     0.235 C 
ATOM     13  O   UNL A   1      30.638  26.118  26.267  1.00  0.00    -0.369 OA
BRANCH   8  14
ATOM     14  C   UNL A   1      32.331  28.679  23.625  1.00  0.00     0.210 C 
ATOM     15  C   UNL A   1      33.599  28.831  22.761  1.00  0.00     0.078 C 
BRANCH  14  16
ATOM     16  C   UNL A   1      31.043  28.856  22.744  1.00  0.00     0.169 C 
ATOM     17  C   UNL A   1      29.772  29.329  23.440  1.00  0.00     0.045 C 
BRANCH  16  18
ATOM     18  O   UNL A   1      31.285  29.705  21.625  1.00  0.00    -0.387 OA
ATOM     19  H   UNL A   1      30.591  29.572  20.962  1.00  0.00     0.211 HD
ENDBRANCH  16  18
ENDBRANCH  14  16
ENDBRANCH   8  14
ENDBRANCH   4   7
ENDBRANCH   2   3
ENDBRANCH   1   2
BRANCH   1  20
ATOM     20  C   UNL A   1      32.772  32.893  27.042  1.00  0.00     0.118 C 
BRANCH  20  21
ATOM     21  N   UNL A   1      32.574  34.203  27.647  1.00  0.00    -0.352 N 
ATOM     22  C   UNL A   1      33.129  34.760  28.775  1.00  0.00     0.251 C 
ATOM     23  H   UNL A   1      31.940  34.786  27.171  1.00  0.00     0.163 HD
ATOM     24  O   UNL A   1      32.641  35.795  29.223  1.00  0.00    -0.269 OA
BRANCH  22  25
ATOM     25  C   UNL A   1      34.280  34.124  29.461  1.00  0.00     0.039 A 
ATOM     26  C   UNL A   1      35.576  34.445  29.047  1.00  0.00     0.014 A 
ATOM     27  C   UNL A   1      34.096  33.180  30.475  1.00  0.00     0.014 A 
ATOM     28  C   UNL A   1      36.679  33.870  29.685  1.00  0.00     0.010 A 
ATOM     29  C   UNL A   1      35.192  32.681  31.173  1.00  0.00     0.010 A 
ATOM     30  C   UNL A   1      36.497  33.007  30.777  1.00  0.00    -0.014 A 
BRANCH  30  31
ATOM     31  C   UNL A   1      37.653  32.408  31.496  1.00  0.00     0.031 A 
ATOM     32  C   UNL A   1      38.425  31.277  30.871  1.00  0.00     0.074 A 
ATOM     33  C   UNL A   1      37.960  32.830  32.739  1.00  0.00     0.049 A 
ATOM     34  N   UNL A   1      39.399  30.559  31.369  1.00  0.00    -0.248 NA
ATOM     35  C   UNL A   1      38.016  30.873  29.517  1.00  0.00     0.031 C 
ATOM     36  C   UNL A   1      37.249  33.877  33.476  1.00  0.00     0.029 A 
ATOM     37  N   UNL A   1      38.939  32.419  33.608  1.00  0.00    -0.354 N 
ATOM     38  C   UNL A   1      39.700  29.601  30.405  1.00  0.00     0.074 A 
ATOM     39  C   UNL A   1      38.759  29.795  29.321  1.00  0.00     0.031 C 
ATOM     40  C   UNL A   1      37.829  34.040  34.676  1.00  0.00     0.029 A 
ATOM     41  C   UNL A   1      38.925  33.087  34.810  1.00  0.00     0.049 A 
ATOM     42  H   UNL A   1      39.590  31.714  33.391  1.00  0.00     0.167 HD
ATOM     43  C   UNL A   1      40.681  28.665  30.411  1.00  0.00     0.034 A 
ATOM     44  C   UNL A   1      39.701  32.940  35.902  1.00  0.00     0.034 A 
ATOM     45  C   UNL A   1      41.628  28.507  31.489  1.00  0.00     0.049 A 
ATOM     46  C   UNL A   1      40.802  31.913  35.880  1.00  0.00     0.074 A 
ATOM     47  C   UNL A   1      42.710  27.647  31.570  1.00  0.00     0.029 A 
ATOM     48  N   UNL A   1      41.604  29.224  32.679  1.00  0.00    -0.354 N 
ATOM     49  N   UNL A   1      41.112  31.054  34.936  1.00  0.00    -0.248 NA
ATOM     50  C   UNL A   1      41.665  31.845  37.066  1.00  0.00     0.031 C 
ATOM     51  C   UNL A   1      43.303  27.803  32.829  1.00  0.00     0.029 A 
ATOM     52  C   UNL A   1      42.633  28.808  33.510  1.00  0.00     0.049 A 
ATOM     53  H   UNL A   1      40.949  29.926  32.900  1.00  0.00     0.167 HD
ATOM     54  C   UNL A   1      42.220  30.357  35.407  1.00  0.00     0.074 A 
ATOM     55  C   UNL A   1      42.534  30.910  36.710  1.00  0.00     0.031 C 
ATOM     56  C   UNL A   1      42.919  29.354  34.816  1.00  0.00     0.034 A 
BRANCH  43  57
ATOM     57  C   UNL A   1      40.754  27.731  29.224  1.00  0.00     0.023 A 
ATOM     58  C   UNL A   1      41.686  27.923  28.188  1.00  0.00     0.031 A 
ATOM     59  C   UNL A   1      39.844  26.667  29.098  1.00  0.00     0.131 A 
ATOM     60  C   UNL A   1      41.623  27.129  27.032  1.00  0.00     0.055 A 
ATOM     61  C   UNL A   1      39.845  25.823  27.984  1.00  0.00     0.041 A 
ATOM     62  F   UNL A   1      38.918  26.442  30.043  1.00  0.00    -0.206 F 
ATOM     63  C   UNL A   1      40.726  26.065  26.933  1.00  0.00     0.022 A 
BRANCH  60  64
ATOM     64  S   UNL A   1      42.617  27.619  25.595  1.00  0.00     0.124 S 
ATOM     65  O   UNL A   1      43.968  27.602  26.151  1.00  0.00    -0.237 OA
ATOM     66  O   UNL A   1      42.310  26.571  24.628  1.00  0.00    -0.237 OA
ATOM     67  O   UNL A   1      42.106  28.947  25.261  1.00  0.00    -0.744 OA
ENDBRANCH  60  64
ENDBRANCH  43  57
BRANCH  44  68
ATOM     68  C   UNL A   1      39.467  33.785  37.106  1.00  0.00     0.023 A 
ATOM     69  C   UNL A   1      38.849  33.259  38.251  1.00  0.00     0.031 A 
ATOM     70  C   UNL A   1      39.851  35.138  37.122  1.00  0.00     0.131 A 
ATOM     71  C   UNL A   1      38.601  34.090  39.354  1.00  0.00     0.055 A 
ATOM     72  C   UNL A   1      39.638  35.950  38.237  1.00  0.00     0.041 A 
ATOM     73  F   UNL A   1      40.457  35.684  36.055  1.00  0.00    -0.206 F 
ATOM     74  C   UNL A   1      39.001  35.429  39.359  1.00  0.00     0.022 A 
BRANCH  71  75
ATOM     75  S   UNL A   1      37.698  33.406  40.770  1.00  0.00     0.124 S 
ATOM     76  O   UNL A   1      36.408  33.081  40.174  1.00  0.00    -0.237 OA
ATOM     77  O   UNL A   1      38.537  32.272  41.145  1.00  0.00    -0.237 OA
ATOM     78  O   UNL A   1      37.683  34.509  41.728  1.00  0.00    -0.744 OA
ENDBRANCH  71  75
ENDBRANCH  44  68
BRANCH  56  79
ATOM     79  C   UNL A   1      44.110  28.820  35.571  1.00  0.00     0.023 A 
ATOM     80  C   UNL A   1      43.986  27.767  36.494  1.00  0.00     0.031 A 
ATOM     81  C   UNL A   1      45.383  29.386  35.378  1.00  0.00     0.131 A 
ATOM     82  C   UNL A   1      45.104  27.350  37.232  1.00  0.00     0.055 A 
ATOM     83  C   UNL A   1      46.501  28.930  36.074  1.00  0.00     0.041 A 
ATOM     84  F   UNL A   1      45.556  30.396  34.509  1.00  0.00    -0.206 F 
ATOM     85  C   UNL A   1      46.363  27.915  37.017  1.00  0.00     0.022 A 
BRANCH  82  86
ATOM     86  S   UNL A   1      44.871  26.122  38.546  1.00  0.00     0.124 S 
ATOM     87  O   UNL A   1      44.491  26.957  39.680  1.00  0.00    -0.237 OA
ATOM     88  O   UNL A   1      43.818  25.274  37.996  1.00  0.00    -0.237 OA
ATOM     89  O   UNL A   1      46.182  25.486  38.656  1.00  0.00    -0.744 OA
ENDBRANCH  82  86
ENDBRANCH  56  79
ENDBRANCH  30  31
ENDBRANCH  22  25
ENDBRANCH  20  21
ENDBRANCH   1  20
TORSDOF 16
ENDMDL
MODEL 2
REMARK VINA RESULT:     -10.9      4.006      9.338
REMARK SMILES C[C@@H](O)[C@H](C)[N@@H+]1CCOC[C@@H]1C(=O)NCCCNC(=O)c1ccc(-c2c3nc(c(-c4cc(S(=O)(=O)[O-])ccc4F)c4ccc([nH]4)c(-c4cc(S(=O)(=O)[O-])ccc4F)c4nc(c(-c5cc(S(=O)(=O)[O-])ccc5F)c5ccc2[nH]5)C=C4)C=C3)cc1
REMARK SMILES IDX 16 1 15 2 14 3 12 4 13 5 11 7 6 8 7 9 8 11 10 12 9 13 4 14
REMARK SMILES IDX 5 15 2 16 1 17 3 18 17 20 18 21 19 22 20 24 21 25 22 26
REMARK SMILES IDX 83 27 23 28 82 29 24 30 25 31 26 32 76 33 27 34 81 35 75 36
REMARK SMILES IDX 77 37 28 38 80 39 74 40 73 41 29 43 61 44 41 45 60 46 42 47
REMARK SMILES IDX 45 48 59 49 78 50 43 51 44 52 58 54 79 55 46 56 30 57 31 58
REMARK SMILES IDX 39 59 32 60 38 61 40 62 37 63 33 64 34 65 35 66 36 67 62 68
REMARK SMILES IDX 63 69 71 70 64 71 70 72 72 73 69 74 65 75 66 76 67 77 68 78
REMARK SMILES IDX 47 79 48 80 56 81 49 82 55 83 57 84 54 85 50 86 51 87 52 88
REMARK SMILES IDX 53 89
REMARK H PARENT 14 6 6 10 3 19 18 23 77 42 45 53
REMARK Flexibility Score: inf
ROOT
ATOM      1  C   UNL A   1      32.548  27.813  27.012  1.00  0.00     0.042 C 
ENDROOT
BRANCH   1   2
ATOM      2  C   UNL A   1      31.710  27.029  26.016  1.00  0.00     0.118 C 
BRANCH   2   3
ATOM      3  N   UNL A   1      31.212  25.770  26.528  1.00  0.00    -0.351 N 
ATOM      4  C   UNL A   1      31.821  24.556  26.646  1.00  0.00     0.280 C 
ATOM      5  O   UNL A   1      31.224  23.726  27.346  1.00  0.00    -0.268 OA
ATOM      6  H   UNL A   1      30.280  25.794  26.842  1.00  0.00     0.163 HD
BRANCH   4   7
ATOM      7  C   UNL A   1      33.161  24.191  25.975  1.00  0.00     0.300 C 
ATOM      8  N   UNL A   1      33.106  23.949  24.502  1.00  0.00    -0.317 N 
ATOM      9  C   UNL A   1      34.479  23.826  23.988  1.00  0.00     0.292 C 
ATOM     10  H   UNL A   1      32.678  24.780  24.092  1.00  0.00     0.349 HD
ATOM     11  C   UNL A   1      35.426  22.946  24.830  1.00  0.00     0.221 C 
ATOM     12  C   UNL A   1      34.106  23.272  26.755  1.00  0.00     0.235 C 
ATOM     13  O   UNL A   1      35.437  23.338  26.209  1.00  0.00    -0.369 OA
BRANCH   8  14
ATOM     14  C   UNL A   1      32.086  23.040  23.954  1.00  0.00     0.210 C 
ATOM     15  C   UNL A   1      31.080  23.914  23.178  1.00  0.00     0.078 C 
BRANCH  14  16
ATOM     16  C   UNL A   1      32.449  21.757  23.125  1.00  0.00     0.169 C 
ATOM     17  C   UNL A   1      32.460  20.421  23.861  1.00  0.00     0.045 C 
BRANCH  16  18
ATOM     18  O   UNL A   1      31.624  21.626  21.971  1.00  0.00    -0.387 OA
ATOM     19  H   UNL A   1      31.980  22.175  21.254  1.00  0.00     0.211 HD
ENDBRANCH  16  18
ENDBRANCH  14  16
ENDBRANCH   8  14
ENDBRANCH   4   7
ENDBRANCH   2   3
ENDBRANCH   1   2
BRANCH   1  20
ATOM     20  C   UNL A   1      33.726  28.537  26.380  1.00  0.00     0.118 C 
BRANCH  20  21
ATOM     21  N   UNL A   1      33.680  29.974  26.614  1.00  0.00    -0.352 N 
ATOM     22  C   UNL A   1      34.480  30.779  27.390  1.00  0.00     0.251 C 
ATOM     23  H   UNL A   1      32.959  30.447  26.138  1.00  0.00     0.163 HD
ATOM     24  O   UNL A   1      34.114  31.930  27.618  1.00  0.00    -0.269 OA
BRANCH  22  25
ATOM     25  C   UNL A   1      35.750  30.276  27.966  1.00  0.00     0.039 A 
ATOM     26  C   UNL A   1      35.737  29.718  29.249  1.00  0.00     0.014 A 
ATOM     27  C   UNL A   1      36.960  30.388  27.277  1.00  0.00     0.014 A 
ATOM     28  C   UNL A   1      36.919  29.223  29.809  1.00  0.00     0.010 A 
ATOM     29  C   UNL A   1      38.116  29.809  27.795  1.00  0.00     0.010 A 
ATOM     30  C   UNL A   1      38.113  29.234  29.073  1.00  0.00    -0.014 A 
BRANCH  30  31
ATOM     31  C   UNL A   1      39.377  28.683  29.632  1.00  0.00     0.031 A 
ATOM     32  C   UNL A   1      40.030  29.347  30.815  1.00  0.00     0.074 A 
ATOM     33  C   UNL A   1      39.973  27.634  29.032  1.00  0.00     0.049 A 
ATOM     34  N   UNL A   1      41.175  29.082  31.390  1.00  0.00    -0.248 NA
ATOM     35  C   UNL A   1      39.316  30.492  31.402  1.00  0.00     0.031 C 
ATOM     36  C   UNL A   1      39.470  26.942  27.843  1.00  0.00     0.029 A 
ATOM     37  N   UNL A   1      41.140  26.977  29.328  1.00  0.00    -0.354 N 
ATOM     38  C   UNL A   1      41.333  30.042  32.386  1.00  0.00     0.074 A 
ATOM     39  C   UNL A   1      40.194  30.931  32.290  1.00  0.00     0.031 C 
ATOM     40  C   UNL A   1      40.312  25.946  27.525  1.00  0.00     0.029 A 
ATOM     41  C   UNL A   1      41.432  25.951  28.460  1.00  0.00     0.049 A 
ATOM     42  H   UNL A   1      41.714  27.217  30.090  1.00  0.00     0.167 HD
ATOM     43  C   UNL A   1      42.321  30.158  33.308  1.00  0.00     0.034 A 
ATOM     44  C   UNL A   1      42.487  25.115  28.417  1.00  0.00     0.034 A 
ATOM     45  C   UNL A   1      43.434  29.244  33.406  1.00  0.00     0.049 A 
ATOM     46  C   UNL A   1      43.561  25.242  29.464  1.00  0.00     0.074 A 
ATOM     47  C   UNL A   1      44.450  29.216  34.346  1.00  0.00     0.029 A 
ATOM     48  N   UNL A   1      43.679  28.194  32.529  1.00  0.00    -0.354 N 
ATOM     49  N   UNL A   1      43.667  26.118  30.437  1.00  0.00    -0.248 NA
ATOM     50  C   UNL A   1      44.651  24.259  29.416  1.00  0.00     0.031 C 
ATOM     51  C   UNL A   1      45.338  28.190  34.004  1.00  0.00     0.029 A 
ATOM     52  C   UNL A   1      44.843  27.531  32.889  1.00  0.00     0.049 A 
ATOM     53  H   UNL A   1      43.109  27.956  31.762  1.00  0.00     0.167 HD
ATOM     54  C   UNL A   1      44.825  25.779  31.128  1.00  0.00     0.074 A 
ATOM     55  C   UNL A   1      45.371  24.607  30.472  1.00  0.00     0.031 C 
ATOM     56  C   UNL A   1      45.386  26.377  32.211  1.00  0.00     0.034 A 
BRANCH  43  57
ATOM     57  C   UNL A   1      42.245  31.330  34.260  1.00  0.00     0.023 A 
ATOM     58  C   UNL A   1      41.378  31.329  35.367  1.00  0.00     0.031 A 
ATOM     59  C   UNL A   1      43.009  32.488  34.027  1.00  0.00     0.131 A 
ATOM     60  C   UNL A   1      41.223  32.491  36.139  1.00  0.00     0.055 A 
ATOM     61  C   UNL A   1      42.916  33.611  34.854  1.00  0.00     0.041 A 
ATOM     62  F   UNL A   1      43.841  32.559  32.977  1.00  0.00    -0.206 F 
ATOM     63  C   UNL A   1      42.004  33.624  35.905  1.00  0.00     0.022 A 
BRANCH  60  64
ATOM     64  S   UNL A   1      39.865  32.553  37.341  1.00  0.00     0.124 S 
ATOM     65  O   UNL A   1      39.052  31.412  36.927  1.00  0.00    -0.237 OA
ATOM     66  O   UNL A   1      40.564  32.413  38.613  1.00  0.00    -0.237 OA
ATOM     67  O   UNL A   1      39.256  33.860  37.103  1.00  0.00    -0.744 OA
ENDBRANCH  60  64
ENDBRANCH  43  57
BRANCH  44  68
ATOM     68  C   UNL A   1      42.581  24.083  27.346  1.00  0.00     0.023 A 
ATOM     69  C   UNL A   1      41.988  22.821  27.503  1.00  0.00     0.031 A 
ATOM     70  C   UNL A   1      43.277  24.344  26.153  1.00  0.00     0.131 A 
ATOM     71  C   UNL A   1      42.129  21.853  26.498  1.00  0.00     0.055 A 
ATOM     72  C   UNL A   1      43.381  23.392  25.138  1.00  0.00     0.041 A 
ATOM     73  F   UNL A   1      43.851  25.541  25.950  1.00  0.00    -0.206 F 
ATOM     74  C   UNL A   1      42.813  22.133  25.312  1.00  0.00     0.022 A 
BRANCH  71  75
ATOM     75  S   UNL A   1      41.449  20.197  26.784  1.00  0.00     0.124 S 
ATOM     76  O   UNL A   1      42.395  19.646  27.747  1.00  0.00    -0.237 OA
ATOM     77  O   UNL A   1      40.116  20.502  27.296  1.00  0.00    -0.237 OA
ATOM     78  O   UNL A   1      41.478  19.583  25.458  1.00  0.00    -0.744 OA
ENDBRANCH  71  75
ENDBRANCH  44  68
BRANCH  56  79
ATOM     79  C   UNL A   1      46.639  25.746  32.763  1.00  0.00     0.023 A 
ATOM     80  C   UNL A   1      47.896  25.966  32.175  1.00  0.00     0.031 A 
ATOM     81  C   UNL A   1      46.569  24.896  33.881  1.00  0.00     0.131 A 
ATOM     82  C   UNL A   1      49.026  25.298  32.672  1.00  0.00     0.055 A 
ATOM     83  C   UNL A   1      47.704  24.279  34.405  1.00  0.00     0.041 A 
ATOM     84  F   UNL A   1      45.392  24.650  34.480  1.00  0.00    -0.206 F 
ATOM     85  C   UNL A   1      48.940  24.468  33.792  1.00  0.00     0.022 A 
BRANCH  82  86
ATOM     86  S   UNL A   1      50.595  25.457  31.776  1.00  0.00     0.124 S 
ATOM     87  O   UNL A   1      51.450  26.096  32.770  1.00  0.00    -0.237 OA
ATOM     88  O   UNL A   1      50.914  24.068  31.459  1.00  0.00    -0.237 OA
ATOM     89  O   UNL A   1      50.251  26.290  30.626  1.00  0.00    -0.744 OA
ENDBRANCH  82  86
ENDBRANCH  56  79
ENDBRANCH  30  31
ENDBRANCH  22  25
ENDBRANCH  20  21
ENDBRANCH   1  20
TORSDOF 16
ENDMDL
MODEL 3
REMARK VINA RESULT:     -10.9      3.094      8.835
REMARK SMILES C[C@@H](O)[C@H](C)[N@@H+]1CCOC[C@@H]1C(=O)NCCCNC(=O)c1ccc(-c2c3nc(c(-c4cc(S(=O)(=O)[O-])ccc4F)c4ccc([nH]4)c(-c4cc(S(=O)(=O)[O-])ccc4F)c4nc(c(-c5cc(S(=O)(=O)[O-])ccc5F)c5ccc2[nH]5)C=C4)C=C3)cc1
REMARK SMILES IDX 16 1 15 2 14 3 12 4 13 5 11 7 6 8 7 9 8 11 10 12 9 13 4 14
REMARK SMILES IDX 5 15 2 16 1 17 3 18 17 20 18 21 19 22 20 24 21 25 22 26
REMARK SMILES IDX 83 27 23 28 82 29 24 30 25 31 26 32 76 33 27 34 81 35 75 36
REMARK SMILES IDX 77 37 28 38 80 39 74 40 73 41 29 43 61 44 41 45 60 46 42 47
REMARK SMILES IDX 45 48 59 49 78 50 43 51 44 52 58 54 79 55 46 56 30 57 31 58
REMARK SMILES IDX 39 59 32 60 38 61 40 62 37 63 33 64 34 65 35 66 36 67 62 68
REMARK SMILES IDX 63 69 71 70 64 71 70 72 72 73 69 74 65 75 66 76 67 77 68 78
REMARK SMILES IDX 47 79 48 80 56 81 49 82 55 83 57 84 54 85 50 86 51 87 52 88
REMARK SMILES IDX 53 89
REMARK H PARENT 14 6 6 10 3 19 18 23 77 42 45 53
REMARK Flexibility Score: inf
ROOT
ATOM      1  C   UNL A   1      32.562  29.346  25.693  1.00  0.00     0.042 C 
ENDROOT
BRANCH   1   2
ATOM      2  C   UNL A   1      32.958  29.210  24.232  1.00  0.00     0.118 C 
BRANCH   2   3
ATOM      3  N   UNL A   1      31.846  29.292  23.310  1.00  0.00    -0.351 N 
ATOM      4  C   UNL A   1      31.233  28.326  22.568  1.00  0.00     0.280 C 
ATOM      5  O   UNL A   1      30.152  28.650  22.059  1.00  0.00    -0.268 OA
ATOM      6  H   UNL A   1      31.469  30.195  23.200  1.00  0.00     0.163 HD
BRANCH   4   7
ATOM      7  C   UNL A   1      31.805  26.910  22.350  1.00  0.00     0.300 C 
ATOM      8  N   UNL A   1      31.257  25.843  23.240  1.00  0.00    -0.317 N 
ATOM      9  C   UNL A   1      31.738  24.536  22.768  1.00  0.00     0.292 C 
ATOM     10  H   UNL A   1      30.243  25.875  23.133  1.00  0.00     0.349 HD
ATOM     11  C   UNL A   1      33.235  24.472  22.401  1.00  0.00     0.221 C 
ATOM     12  C   UNL A   1      33.301  26.800  22.039  1.00  0.00     0.235 C 
ATOM     13  O   UNL A   1      33.605  25.508  21.481  1.00  0.00    -0.369 OA
BRANCH   8  14
ATOM     14  C   UNL A   1      31.204  26.069  24.694  1.00  0.00     0.210 C 
ATOM     15  C   UNL A   1      29.718  25.999  25.102  1.00  0.00     0.078 C 
BRANCH  14  16
ATOM     16  C   UNL A   1      32.089  25.265  25.711  1.00  0.00     0.169 C 
ATOM     17  C   UNL A   1      33.514  25.754  25.947  1.00  0.00     0.045 C 
BRANCH  16  18
ATOM     18  O   UNL A   1      31.445  25.131  26.975  1.00  0.00    -0.387 OA
ATOM     19  H   UNL A   1      31.933  25.639  27.643  1.00  0.00     0.211 HD
ENDBRANCH  16  18
ENDBRANCH  14  16
ENDBRANCH   8  14
ENDBRANCH   4   7
ENDBRANCH   2   3
ENDBRANCH   1   2
BRANCH   1  20
ATOM     20  C   UNL A   1      33.723  29.701  26.608  1.00  0.00     0.118 C 
BRANCH  20  21
ATOM     21  N   UNL A   1      33.711  31.106  26.993  1.00  0.00    -0.352 N 
ATOM     22  C   UNL A   1      34.497  31.794  27.887  1.00  0.00     0.251 C 
ATOM     23  H   UNL A   1      33.030  31.653  26.539  1.00  0.00     0.163 HD
ATOM     24  O   UNL A   1      34.157  32.927  28.221  1.00  0.00    -0.269 OA
BRANCH  22  25
ATOM     25  C   UNL A   1      35.721  31.186  28.462  1.00  0.00     0.039 A 
ATOM     26  C   UNL A   1      35.600  30.037  29.251  1.00  0.00     0.014 A 
ATOM     27  C   UNL A   1      36.982  31.759  28.271  1.00  0.00     0.014 A 
ATOM     28  C   UNL A   1      36.740  29.436  29.793  1.00  0.00     0.010 A 
ATOM     29  C   UNL A   1      38.123  31.107  28.731  1.00  0.00     0.010 A 
ATOM     30  C   UNL A   1      38.016  29.946  29.510  1.00  0.00    -0.014 A 
BRANCH  30  31
ATOM     31  C   UNL A   1      39.246  29.307  30.046  1.00  0.00     0.031 A 
ATOM     32  C   UNL A   1      39.904  29.856  31.284  1.00  0.00     0.074 A 
ATOM     33  C   UNL A   1      39.813  28.281  29.379  1.00  0.00     0.049 A 
ATOM     34  N   UNL A   1      41.027  29.504  31.855  1.00  0.00    -0.248 NA
ATOM     35  C   UNL A   1      39.224  30.982  31.942  1.00  0.00     0.031 C 
ATOM     36  C   UNL A   1      39.305  27.698  28.135  1.00  0.00     0.029 A 
ATOM     37  N   UNL A   1      40.948  27.558  29.644  1.00  0.00    -0.354 N 
ATOM     38  C   UNL A   1      41.205  30.382  32.921  1.00  0.00     0.074 A 
ATOM     39  C   UNL A   1      40.102  31.320  32.873  1.00  0.00     0.031 C 
ATOM     40  C   UNL A   1      40.113  26.695  27.758  1.00  0.00     0.029 A 
ATOM     41  C   UNL A   1      41.215  26.587  28.707  1.00  0.00     0.049 A 
ATOM     42  H   UNL A   1      41.517  27.719  30.430  1.00  0.00     0.167 HD
ATOM     43  C   UNL A   1      42.180  30.391  33.864  1.00  0.00     0.034 A 
ATOM     44  C   UNL A   1      42.238  25.715  28.618  1.00  0.00     0.034 A 
ATOM     45  C   UNL A   1      43.254  29.429  33.911  1.00  0.00     0.049 A 
ATOM     46  C   UNL A   1      43.298  25.723  29.688  1.00  0.00     0.074 A 
ATOM     47  C   UNL A   1      44.252  29.292  34.862  1.00  0.00     0.029 A 
ATOM     48  N   UNL A   1      43.474  28.437  32.963  1.00  0.00    -0.354 N 
ATOM     49  N   UNL A   1      43.419  26.521  30.724  1.00  0.00    -0.248 NA
ATOM     50  C   UNL A   1      44.349  24.703  29.584  1.00  0.00     0.031 C 
ATOM     51  C   UNL A   1      45.106  28.259  34.458  1.00  0.00     0.029 A 
ATOM     52  C   UNL A   1      44.605  27.704  33.291  1.00  0.00     0.049 A 
ATOM     53  H   UNL A   1      42.909  28.278  32.172  1.00  0.00     0.167 HD
ATOM     54  C   UNL A   1      44.551  26.087  31.406  1.00  0.00     0.074 A 
ATOM     55  C   UNL A   1      45.063  24.945  30.674  1.00  0.00     0.031 C 
ATOM     56  C   UNL A   1      45.115  26.582  32.538  1.00  0.00     0.034 A 
BRANCH  43  57
ATOM     57  C   UNL A   1      42.132  31.493  34.898  1.00  0.00     0.023 A 
ATOM     58  C   UNL A   1      41.154  31.518  35.909  1.00  0.00     0.031 A 
ATOM     59  C   UNL A   1      43.042  32.564  34.841  1.00  0.00     0.131 A 
ATOM     60  C   UNL A   1      41.047  32.631  36.755  1.00  0.00     0.055 A 
ATOM     61  C   UNL A   1      42.985  33.628  35.745  1.00  0.00     0.041 A 
ATOM     62  F   UNL A   1      43.987  32.609  33.890  1.00  0.00    -0.206 F 
ATOM     63  C   UNL A   1      41.971  33.676  36.697  1.00  0.00     0.022 A 
BRANCH  60  64
ATOM     64  S   UNL A   1      39.581  32.771  37.816  1.00  0.00     0.124 S 
ATOM     65  O   UNL A   1      39.091  34.103  37.469  1.00  0.00    -0.237 OA
ATOM     66  O   UNL A   1      38.760  31.651  37.369  1.00  0.00    -0.237 OA
ATOM     67  O   UNL A   1      40.123  32.648  39.168  1.00  0.00    -0.744 OA
ENDBRANCH  60  64
ENDBRANCH  43  57
BRANCH  44  68
ATOM     68  C   UNL A   1      42.311  24.761  27.476  1.00  0.00     0.023 A 
ATOM     69  C   UNL A   1      41.583  23.562  27.488  1.00  0.00     0.031 A 
ATOM     70  C   UNL A   1      43.122  25.034  26.360  1.00  0.00     0.131 A 
ATOM     71  C   UNL A   1      41.705  22.661  26.419  1.00  0.00     0.055 A 
ATOM     72  C   UNL A   1      43.209  24.154  25.281  1.00  0.00     0.041 A 
ATOM     73  F   UNL A   1      43.828  26.175  26.297  1.00  0.00    -0.206 F 
ATOM     74  C   UNL A   1      42.505  22.954  25.311  1.00  0.00     0.022 A 
BRANCH  71  75
ATOM     75  S   UNL A   1      40.841  21.070  26.520  1.00  0.00     0.124 S 
ATOM     76  O   UNL A   1      41.700  20.210  25.715  1.00  0.00    -0.237 OA
ATOM     77  O   UNL A   1      40.843  20.816  27.957  1.00  0.00    -0.237 OA
ATOM     78  O   UNL A   1      39.529  21.358  25.944  1.00  0.00    -0.744 OA
ENDBRANCH  71  75
ENDBRANCH  44  68
BRANCH  56  79
ATOM     79  C   UNL A   1      46.333  25.862  33.061  1.00  0.00     0.023 A 
ATOM     80  C   UNL A   1      46.222  24.764  33.932  1.00  0.00     0.031 A 
ATOM     81  C   UNL A   1      47.621  26.294  32.699  1.00  0.00     0.131 A 
ATOM     82  C   UNL A   1      47.379  24.171  34.458  1.00  0.00     0.055 A 
ATOM     83  C   UNL A   1      48.768  25.664  33.181  1.00  0.00     0.041 A 
ATOM     84  F   UNL A   1      47.783  27.339  31.872  1.00  0.00    -0.206 F 
ATOM     85  C   UNL A   1      48.651  24.605  34.076  1.00  0.00     0.022 A 
BRANCH  82  86
ATOM     86  S   UNL A   1      47.200  22.882  35.721  1.00  0.00     0.124 S 
ATOM     87  O   UNL A   1      47.927  23.457  36.848  1.00  0.00    -0.237 OA
ATOM     88  O   UNL A   1      45.751  22.794  35.874  1.00  0.00    -0.237 OA
ATOM     89  O   UNL A   1      47.829  21.713  35.110  1.00  0.00    -0.744 OA
ENDBRANCH  82  86
ENDBRANCH  56  79
ENDBRANCH  30  31
ENDBRANCH  22  25
ENDBRANCH  20  21
ENDBRANCH   1  20
TORSDOF 16
ENDMDL
