MODEL 1
REMARK VINA RESULT:     -13.2      0.000      0.000
REMARK SMILES CC1(C)S[C@H](c2ccc(-c3cccc([N+](=O)[O-])c3)o2)[NH2+][C@@H]1C(=O)NCCCNC(=O)c1ccc(-c2c3nc(c(-c4cc(S(=O)(=O)[O-])ccc4F)c4ccc([nH]4)c(-c4cc(S(=O)(=O)[O-])ccc4F)c4nc(c(-c5cc(S(=O)(=O)[O-])ccc5F)c5ccc2[nH]5)C=C4)C=C3)cc1
REMARK SMILES IDX 26 1 25 2 24 3 22 4 23 5 21 7 1 8 2 9 3 10 4 11 5 12 20 13
REMARK SMILES IDX 6 16 7 17 19 18 8 19 9 20 10 21 11 22 18 23 12 24 14 25
REMARK SMILES IDX 13 26 15 27 16 28 17 29 27 30 28 31 29 32 30 34 31 35 32 36
REMARK SMILES IDX 93 37 33 38 92 39 34 40 35 41 36 42 86 43 37 44 91 45 85 46
REMARK SMILES IDX 87 47 38 48 90 49 84 50 83 51 39 53 71 54 51 55 70 56 52 57
REMARK SMILES IDX 55 58 69 59 88 60 53 61 54 62 68 64 89 65 56 66 40 67 41 68
REMARK SMILES IDX 49 69 42 70 48 71 50 72 47 73 43 74 44 75 45 76 46 77 72 78
REMARK SMILES IDX 73 79 81 80 74 81 80 82 82 83 79 84 75 85 76 86 77 87 78 88
REMARK SMILES IDX 57 89 58 90 66 91 59 92 65 93 67 94 64 95 60 96 61 97 62 98
REMARK SMILES IDX 63 99
REMARK H PARENT 24 6 20 14 20 15 28 33 87 52 55 63
REMARK Flexibility Score: inf
ROOT
ATOM      1  C   UNL A   1      31.426  29.474  27.167  1.00  0.00     0.042 C 
ENDROOT
BRANCH   1   2
ATOM      2  C   UNL A   1      31.884  28.071  27.518  1.00  0.00     0.118 C 
BRANCH   2   3
ATOM      3  N   UNL A   1      31.196  27.028  26.781  1.00  0.00    -0.351 N 
ATOM      4  C   UNL A   1      31.657  26.367  25.666  1.00  0.00     0.279 C 
ATOM      5  O   UNL A   1      31.015  25.391  25.283  1.00  0.00    -0.268 OA
ATOM      6  H   UNL A   1      30.307  26.764  27.113  1.00  0.00     0.163 HD
BRANCH   4   7
ATOM      7  C   UNL A   1      32.867  26.971  24.906  1.00  0.00     0.289 C 
ATOM      8  C   UNL A   1      33.739  28.208  22.879  1.00  0.00     0.030 C 
ATOM      9  C   UNL A   1      32.801  27.081  23.364  1.00  0.00     0.078 C 
ATOM     10  C   UNL A   1      31.424  27.309  22.738  1.00  0.00     0.030 C 
ATOM     11  S   UNL A   1      33.484  25.491  22.784  1.00  0.00    -0.078 SA
ATOM     12  C   UNL A   1      34.292  25.113  24.354  1.00  0.00     0.311 C 
ATOM     13  N   UNL A   1      34.133  26.254  25.260  1.00  0.00    -0.317 N 
ATOM     14  H   UNL A   1      34.926  26.886  25.159  1.00  0.00     0.348 HD
ATOM     15  H   UNL A   1      34.090  25.928  26.226  1.00  0.00     0.348 HD
BRANCH  12  16
ATOM     16  C   UNL A   1      33.887  23.780  24.903  1.00  0.00     0.172 A 
ATOM     17  C   UNL A   1      33.565  23.399  26.194  1.00  0.00     0.054 A 
ATOM     18  O   UNL A   1      33.743  22.702  24.066  1.00  0.00    -0.454 OA
ATOM     19  C   UNL A   1      33.185  22.041  26.139  1.00  0.00     0.051 A 
ATOM     20  C   UNL A   1      33.304  21.651  24.822  1.00  0.00     0.134 A 
BRANCH  20  21
ATOM     21  C   UNL A   1      33.003  20.406  24.129  1.00  0.00     0.024 A 
ATOM     22  C   UNL A   1      32.365  20.390  22.880  1.00  0.00     0.012 A 
ATOM     23  C   UNL A   1      33.373  19.186  24.715  1.00  0.00     0.097 A 
ATOM     24  C   UNL A   1      32.094  19.178  22.229  1.00  0.00     0.008 A 
ATOM     25  C   UNL A   1      33.090  17.976  24.065  1.00  0.00     0.270 A 
ATOM     26  C   UNL A   1      32.451  17.966  22.820  1.00  0.00     0.085 A 
BRANCH  25  27
ATOM     27  N   UNL A   1      33.451  16.709  24.714  1.00  0.00     0.062 N 
ATOM     28  O   UNL A   1      33.943  15.820  24.007  1.00  0.00    -0.258 OA
ATOM     29  O   UNL A   1      33.294  16.630  25.943  1.00  0.00    -0.258 OA
ENDBRANCH  25  27
ENDBRANCH  20  21
ENDBRANCH  12  16
ENDBRANCH   4   7
ENDBRANCH   2   3
ENDBRANCH   1   2
BRANCH   1  30
ATOM     30  C   UNL A   1      32.475  30.339  26.487  1.00  0.00     0.118 C 
BRANCH  30  31
ATOM     31  N   UNL A   1      32.480  31.727  26.922  1.00  0.00    -0.352 N 
ATOM     32  C   UNL A   1      33.471  32.445  27.554  1.00  0.00     0.251 C 
ATOM     33  H   UNL A   1      31.651  32.227  26.738  1.00  0.00     0.163 HD
ATOM     34  O   UNL A   1      33.246  33.593  27.922  1.00  0.00    -0.269 OA
BRANCH  32  35
ATOM     35  C   UNL A   1      34.783  31.818  27.837  1.00  0.00     0.039 A 
ATOM     36  C   UNL A   1      35.890  32.652  28.003  1.00  0.00     0.014 A 
ATOM     37  C   UNL A   1      34.912  30.441  28.028  1.00  0.00     0.014 A 
ATOM     38  C   UNL A   1      37.076  32.127  28.514  1.00  0.00     0.010 A 
ATOM     39  C   UNL A   1      36.056  29.937  28.637  1.00  0.00     0.010 A 
ATOM     40  C   UNL A   1      37.135  30.785  28.923  1.00  0.00    -0.014 A 
BRANCH  40  41
ATOM     41  C   UNL A   1      38.278  30.286  29.730  1.00  0.00     0.031 A 
ATOM     42  C   UNL A   1      38.466  30.733  31.150  1.00  0.00     0.074 A 
ATOM     43  C   UNL A   1      39.190  29.486  29.138  1.00  0.00     0.049 A 
ATOM     44  N   UNL A   1      39.428  30.442  31.986  1.00  0.00    -0.248 NA
ATOM     45  C   UNL A   1      37.460  31.662  31.688  1.00  0.00     0.031 C 
ATOM     46  C   UNL A   1      39.149  29.049  27.737  1.00  0.00     0.029 A 
ATOM     47  N   UNL A   1      40.327  28.895  29.629  1.00  0.00    -0.354 N 
ATOM     48  C   UNL A   1      39.149  31.154  33.148  1.00  0.00     0.074 A 
ATOM     49  C   UNL A   1      37.968  31.949  32.877  1.00  0.00     0.031 C 
ATOM     50  C   UNL A   1      40.181  28.226  27.499  1.00  0.00     0.029 A 
ATOM     51  C   UNL A   1      40.985  28.110  28.709  1.00  0.00     0.049 A 
ATOM     52  H   UNL A   1      40.642  29.021  30.553  1.00  0.00     0.167 HD
ATOM     53  C   UNL A   1      39.800  31.125  34.337  1.00  0.00     0.034 A 
ATOM     54  C   UNL A   1      42.111  27.380  28.828  1.00  0.00     0.034 A 
ATOM     55  C   UNL A   1      40.971  30.319  34.584  1.00  0.00     0.049 A 
ATOM     56  C   UNL A   1      42.816  27.360  30.158  1.00  0.00     0.074 A 
ATOM     57  C   UNL A   1      41.688  30.172  35.759  1.00  0.00     0.029 A 
ATOM     58  N   UNL A   1      41.603  29.523  33.635  1.00  0.00    -0.354 N 
ATOM     59  N   UNL A   1      42.504  27.994  31.266  1.00  0.00    -0.248 NA
ATOM     60  C   UNL A   1      44.014  26.520  30.260  1.00  0.00     0.031 C 
ATOM     61  C   UNL A   1      42.783  29.338  35.505  1.00  0.00     0.029 A 
ATOM     62  C   UNL A   1      42.713  28.905  34.190  1.00  0.00     0.049 A 
ATOM     63  H   UNL A   1      41.306  29.416  32.703  1.00  0.00     0.167 HD
ATOM     64  C   UNL A   1      43.454  27.606  32.204  1.00  0.00     0.074 A 
ATOM     65  C   UNL A   1      44.337  26.669  31.536  1.00  0.00     0.031 C 
ATOM     66  C   UNL A   1      43.588  27.985  33.501  1.00  0.00     0.034 A 
BRANCH  53  67
ATOM     67  C   UNL A   1      39.262  32.005  35.441  1.00  0.00     0.023 A 
ATOM     68  C   UNL A   1      39.661  33.348  35.571  1.00  0.00     0.031 A 
ATOM     69  C   UNL A   1      38.375  31.489  36.402  1.00  0.00     0.131 A 
ATOM     70  C   UNL A   1      39.246  34.099  36.681  1.00  0.00     0.055 A 
ATOM     71  C   UNL A   1      37.896  32.269  37.456  1.00  0.00     0.041 A 
ATOM     72  F   UNL A   1      37.973  30.209  36.344  1.00  0.00    -0.206 F 
ATOM     73  C   UNL A   1      38.345  33.578  37.611  1.00  0.00     0.022 A 
BRANCH  70  74
ATOM     74  S   UNL A   1      40.022  35.713  36.971  1.00  0.00     0.124 S 
ATOM     75  O   UNL A   1      39.370  36.132  38.210  1.00  0.00    -0.237 OA
ATOM     76  O   UNL A   1      41.434  35.370  37.076  1.00  0.00    -0.237 OA
ATOM     77  O   UNL A   1      39.652  36.489  35.789  1.00  0.00    -0.744 OA
ENDBRANCH  70  74
ENDBRANCH  53  67
BRANCH  54  78
ATOM     78  C   UNL A   1      42.638  26.603  27.668  1.00  0.00     0.023 A 
ATOM     79  C   UNL A   1      42.268  25.264  27.468  1.00  0.00     0.031 A 
ATOM     80  C   UNL A   1      43.543  27.179  26.759  1.00  0.00     0.131 A 
ATOM     81  C   UNL A   1      42.835  24.530  26.415  1.00  0.00     0.055 A 
ATOM     82  C   UNL A   1      44.066  26.460  25.682  1.00  0.00     0.041 A 
ATOM     83  F   UNL A   1      43.924  28.459  26.898  1.00  0.00    -0.206 F 
ATOM     84  C   UNL A   1      43.722  25.122  25.513  1.00  0.00     0.022 A 
BRANCH  81  85
ATOM     85  S   UNL A   1      42.458  22.760  26.286  1.00  0.00     0.124 S 
ATOM     86  O   UNL A   1      42.691  22.509  24.869  1.00  0.00    -0.237 OA
ATOM     87  O   UNL A   1      43.425  22.177  27.210  1.00  0.00    -0.237 OA
ATOM     88  O   UNL A   1      41.062  22.678  26.714  1.00  0.00    -0.744 OA
ENDBRANCH  81  85
ENDBRANCH  54  78
BRANCH  66  89
ATOM     89  C   UNL A   1      44.710  27.349  34.281  1.00  0.00     0.023 A 
ATOM     90  C   UNL A   1      44.555  26.102  34.911  1.00  0.00     0.031 A 
ATOM     91  C   UNL A   1      45.943  28.010  34.413  1.00  0.00     0.131 A 
ATOM     92  C   UNL A   1      45.597  25.582  35.693  1.00  0.00     0.055 A 
ATOM     93  C   UNL A   1      46.996  27.460  35.142  1.00  0.00     0.041 A 
ATOM     94  F   UNL A   1      46.142  29.206  33.833  1.00  0.00    -0.206 F 
ATOM     95  C   UNL A   1      46.822  26.245  35.799  1.00  0.00     0.022 A 
BRANCH  92  96
ATOM     96  S   UNL A   1      45.296  24.070  36.648  1.00  0.00     0.124 S 
ATOM     97  O   UNL A   1      44.955  24.605  37.963  1.00  0.00    -0.237 OA
ATOM     98  O   UNL A   1      44.200  23.448  35.911  1.00  0.00    -0.237 OA
ATOM     99  O   UNL A   1      46.571  23.360  36.578  1.00  0.00    -0.744 OA
ENDBRANCH  92  96
ENDBRANCH  66  89
ENDBRANCH  40  41
ENDBRANCH  32  35
ENDBRANCH  30  31
ENDBRANCH   1  30
TORSDOF 16
ENDMDL
MODEL 2
REMARK VINA RESULT:     -13.1      1.360      1.704
REMARK SMILES CC1(C)S[C@H](c2ccc(-c3cccc([N+](=O)[O-])c3)o2)[NH2+][C@@H]1C(=O)NCCCNC(=O)c1ccc(-c2c3nc(c(-c4cc(S(=O)(=O)[O-])ccc4F)c4ccc([nH]4)c(-c4cc(S(=O)(=O)[O-])ccc4F)c4nc(c(-c5cc(S(=O)(=O)[O-])ccc5F)c5ccc2[nH]5)C=C4)C=C3)cc1
REMARK SMILES IDX 26 1 25 2 24 3 22 4 23 5 21 7 1 8 2 9 3 10 4 11 5 12 20 13
REMARK SMILES IDX 6 16 7 17 19 18 8 19 9 20 10 21 11 22 18 23 12 24 14 25
REMARK SMILES IDX 13 26 15 27 16 28 17 29 27 30 28 31 29 32 30 34 31 35 32 36
REMARK SMILES IDX 93 37 33 38 92 39 34 40 35 41 36 42 86 43 37 44 91 45 85 46
REMARK SMILES IDX 87 47 38 48 90 49 84 50 83 51 39 53 71 54 51 55 70 56 52 57
REMARK SMILES IDX 55 58 69 59 88 60 53 61 54 62 68 64 89 65 56 66 40 67 41 68
REMARK SMILES IDX 49 69 42 70 48 71 50 72 47 73 43 74 44 75 45 76 46 77 72 78
REMARK SMILES IDX 73 79 81 80 74 81 80 82 82 83 79 84 75 85 76 86 77 87 78 88
REMARK SMILES IDX 57 89 58 90 66 91 59 92 65 93 67 94 64 95 60 96 61 97 62 98
REMARK SMILES IDX 63 99
REMARK H PARENT 24 6 20 14 20 15 28 33 87 52 55 63
REMARK Flexibility Score: inf
ROOT
ATOM      1  C   UNL A   1      31.540  29.395  26.861  1.00  0.00     0.042 C 
ENDROOT
BRANCH   1   2
ATOM      2  C   UNL A   1      31.735  28.087  27.605  1.00  0.00     0.118 C 
BRANCH   2   3
ATOM      3  N   UNL A   1      31.197  26.932  26.913  1.00  0.00    -0.351 N 
ATOM      4  C   UNL A   1      31.794  26.235  25.888  1.00  0.00     0.279 C 
ATOM      5  O   UNL A   1      31.270  25.177  25.545  1.00  0.00    -0.268 OA
ATOM      6  H   UNL A   1      30.313  26.612  27.207  1.00  0.00     0.163 HD
BRANCH   4   7
ATOM      7  C   UNL A   1      32.998  26.891  25.162  1.00  0.00     0.289 C 
ATOM      8  C   UNL A   1      33.870  28.176  23.165  1.00  0.00     0.030 C 
ATOM      9  C   UNL A   1      32.964  27.010  23.619  1.00  0.00     0.078 C 
ATOM     10  C   UNL A   1      31.595  27.190  22.962  1.00  0.00     0.030 C 
ATOM     11  S   UNL A   1      33.721  25.452  23.045  1.00  0.00    -0.078 SA
ATOM     12  C   UNL A   1      34.505  25.092  24.632  1.00  0.00     0.311 C 
ATOM     13  N   UNL A   1      34.281  26.219  25.541  1.00  0.00    -0.317 N 
ATOM     14  H   UNL A   1      35.052  26.883  25.464  1.00  0.00     0.348 HD
ATOM     15  H   UNL A   1      34.228  25.885  26.504  1.00  0.00     0.348 HD
BRANCH  12  16
ATOM     16  C   UNL A   1      34.139  23.741  25.162  1.00  0.00     0.172 A 
ATOM     17  C   UNL A   1      33.924  23.311  26.460  1.00  0.00     0.054 A 
ATOM     18  O   UNL A   1      33.918  22.697  24.299  1.00  0.00    -0.454 OA
ATOM     19  C   UNL A   1      33.532  21.958  26.385  1.00  0.00     0.051 A 
ATOM     20  C   UNL A   1      33.536  21.619  25.048  1.00  0.00     0.134 A 
BRANCH  20  21
ATOM     21  C   UNL A   1      33.170  20.403  24.336  1.00  0.00     0.024 A 
ATOM     22  C   UNL A   1      32.370  20.432  23.185  1.00  0.00     0.012 A 
ATOM     23  C   UNL A   1      33.639  19.165  24.802  1.00  0.00     0.097 A 
ATOM     24  C   UNL A   1      32.038  19.248  22.511  1.00  0.00     0.008 A 
ATOM     25  C   UNL A   1      33.295  17.982  24.132  1.00  0.00     0.270 A 
ATOM     26  C   UNL A   1      32.495  18.018  22.985  1.00  0.00     0.085 A 
BRANCH  25  27
ATOM     27  N   UNL A   1      33.765  16.694  24.658  1.00  0.00     0.062 N 
ATOM     28  O   UNL A   1      33.527  16.437  25.846  1.00  0.00    -0.258 OA
ATOM     29  O   UNL A   1      34.322  15.919  23.864  1.00  0.00    -0.258 OA
ENDBRANCH  25  27
ENDBRANCH  20  21
ENDBRANCH  12  16
ENDBRANCH   4   7
ENDBRANCH   2   3
ENDBRANCH   1   2
BRANCH   1  30
ATOM     30  C   UNL A   1      32.817  30.172  26.584  1.00  0.00     0.118 C 
BRANCH  30  31
ATOM     31  N   UNL A   1      32.840  31.509  27.156  1.00  0.00    -0.352 N 
ATOM     32  C   UNL A   1      33.847  32.154  27.839  1.00  0.00     0.251 C 
ATOM     33  H   UNL A   1      32.012  32.030  27.036  1.00  0.00     0.163 HD
ATOM     34  O   UNL A   1      33.637  33.261  28.324  1.00  0.00    -0.269 OA
BRANCH  32  35
ATOM     35  C   UNL A   1      35.159  31.493  28.035  1.00  0.00     0.039 A 
ATOM     36  C   UNL A   1      36.291  32.301  28.155  1.00  0.00     0.014 A 
ATOM     37  C   UNL A   1      35.267  30.110  28.190  1.00  0.00     0.014 A 
ATOM     38  C   UNL A   1      37.492  31.740  28.589  1.00  0.00     0.010 A 
ATOM     39  C   UNL A   1      36.432  29.570  28.724  1.00  0.00     0.010 A 
ATOM     40  C   UNL A   1      37.543  30.388  28.965  1.00  0.00    -0.014 A 
BRANCH  40  41
ATOM     41  C   UNL A   1      38.718  29.848  29.697  1.00  0.00     0.031 A 
ATOM     42  C   UNL A   1      39.064  30.350  31.068  1.00  0.00     0.074 A 
ATOM     43  C   UNL A   1      39.517  28.957  29.073  1.00  0.00     0.049 A 
ATOM     44  N   UNL A   1      40.075  30.032  31.833  1.00  0.00    -0.248 NA
ATOM     45  C   UNL A   1      38.176  31.375  31.639  1.00  0.00     0.031 C 
ATOM     46  C   UNL A   1      39.320  28.455  27.708  1.00  0.00     0.029 A 
ATOM     47  N   UNL A   1      40.651  28.309  29.496  1.00  0.00    -0.354 N 
ATOM     48  C   UNL A   1      39.951  30.818  32.973  1.00  0.00     0.074 A 
ATOM     49  C   UNL A   1      38.808  31.682  32.762  1.00  0.00     0.031 C 
ATOM     50  C   UNL A   1      40.267  27.548  27.428  1.00  0.00     0.029 A 
ATOM     51  C   UNL A   1      41.168  27.435  28.567  1.00  0.00     0.049 A 
ATOM     52  H   UNL A   1      41.056  28.457  30.381  1.00  0.00     0.167 HD
ATOM     53  C   UNL A   1      40.704  30.801  34.101  1.00  0.00     0.034 A 
ATOM     54  C   UNL A   1      42.248  26.631  28.628  1.00  0.00     0.034 A 
ATOM     55  C   UNL A   1      41.835  29.924  34.290  1.00  0.00     0.049 A 
ATOM     56  C   UNL A   1      43.067  26.626  29.892  1.00  0.00     0.074 A 
ATOM     57  C   UNL A   1      42.644  29.784  35.404  1.00  0.00     0.029 A 
ATOM     58  N   UNL A   1      42.323  29.039  33.335  1.00  0.00    -0.354 N 
ATOM     59  N   UNL A   1      42.900  27.334  30.986  1.00  0.00    -0.248 NA
ATOM     60  C   UNL A   1      44.210  25.707  29.936  1.00  0.00     0.031 C 
ATOM     61  C   UNL A   1      43.652  28.862  35.103  1.00  0.00     0.029 A 
ATOM     62  C   UNL A   1      43.434  28.370  33.825  1.00  0.00     0.049 A 
ATOM     63  H   UNL A   1      41.936  28.908  32.440  1.00  0.00     0.167 HD
ATOM     64  C   UNL A   1      43.904  26.925  31.858  1.00  0.00     0.074 A 
ATOM     65  C   UNL A   1      44.656  25.895  31.169  1.00  0.00     0.031 C 
ATOM     66  C   UNL A   1      44.179  27.357  33.115  1.00  0.00     0.034 A 
BRANCH  53  67
ATOM     67  C   UNL A   1      40.329  31.770  35.197  1.00  0.00     0.023 A 
ATOM     68  C   UNL A   1      39.423  31.417  36.213  1.00  0.00     0.031 A 
ATOM     69  C   UNL A   1      40.847  33.078  35.206  1.00  0.00     0.131 A 
ATOM     70  C   UNL A   1      38.997  32.380  37.140  1.00  0.00     0.055 A 
ATOM     71  C   UNL A   1      40.484  34.007  36.183  1.00  0.00     0.041 A 
ATOM     72  F   UNL A   1      41.700  33.482  34.252  1.00  0.00    -0.206 F 
ATOM     73  C   UNL A   1      39.540  33.666  37.148  1.00  0.00     0.022 A 
BRANCH  70  74
ATOM     74  S   UNL A   1      37.608  31.972  38.235  1.00  0.00     0.124 S 
ATOM     75  O   UNL A   1      38.237  32.064  39.550  1.00  0.00    -0.237 OA
ATOM     76  O   UNL A   1      36.638  33.011  37.915  1.00  0.00    -0.237 OA
ATOM     77  O   UNL A   1      37.235  30.620  37.824  1.00  0.00    -0.744 OA
ENDBRANCH  70  74
ENDBRANCH  53  67
BRANCH  54  78
ATOM     78  C   UNL A   1      42.615  25.762  27.472  1.00  0.00     0.023 A 
ATOM     79  C   UNL A   1      42.150  24.440  27.387  1.00  0.00     0.031 A 
ATOM     80  C   UNL A   1      43.458  26.230  26.450  1.00  0.00     0.131 A 
ATOM     81  C   UNL A   1      42.569  23.616  26.331  1.00  0.00     0.055 A 
ATOM     82  C   UNL A   1      43.832  25.424  25.373  1.00  0.00     0.041 A 
ATOM     83  F   UNL A   1      43.923  27.490  26.476  1.00  0.00    -0.206 F 
ATOM     84  C   UNL A   1      43.396  24.103  25.316  1.00  0.00     0.022 A 
BRANCH  81  85
ATOM     85  S   UNL A   1      42.081  21.870  26.343  1.00  0.00     0.124 S 
ATOM     86  O   UNL A   1      42.475  21.460  27.687  1.00  0.00    -0.237 OA
ATOM     87  O   UNL A   1      40.646  21.955  26.092  1.00  0.00    -0.237 OA
ATOM     88  O   UNL A   1      42.869  21.289  25.257  1.00  0.00    -0.744 OA
ENDBRANCH  81  85
ENDBRANCH  54  78
BRANCH  66  89
ATOM     89  C   UNL A   1      45.321  26.680  33.829  1.00  0.00     0.023 A 
ATOM     90  C   UNL A   1      45.123  25.528  34.610  1.00  0.00     0.031 A 
ATOM     91  C   UNL A   1      46.621  27.208  33.743  1.00  0.00     0.131 A 
ATOM     92  C   UNL A   1      46.198  24.976  35.322  1.00  0.00     0.055 A 
ATOM     93  C   UNL A   1      47.697  26.619  34.405  1.00  0.00     0.041 A 
ATOM     94  F   UNL A   1      46.864  28.309  33.012  1.00  0.00    -0.206 F 
ATOM     95  C   UNL A   1      47.487  25.504  35.211  1.00  0.00     0.022 A 
BRANCH  92  96
ATOM     96  S   UNL A   1      45.870  23.611  36.471  1.00  0.00     0.124 S 
ATOM     97  O   UNL A   1      44.689  22.992  35.877  1.00  0.00    -0.237 OA
ATOM     98  O   UNL A   1      47.103  22.834  36.392  1.00  0.00    -0.237 OA
ATOM     99  O   UNL A   1      45.643  24.284  37.748  1.00  0.00    -0.744 OA
ENDBRANCH  92  96
ENDBRANCH  66  89
ENDBRANCH  40  41
ENDBRANCH  32  35
ENDBRANCH  30  31
ENDBRANCH   1  30
TORSDOF 16
ENDMDL
MODEL 3
REMARK VINA RESULT:     -13.1      2.365      5.089
REMARK SMILES CC1(C)S[C@H](c2ccc(-c3cccc([N+](=O)[O-])c3)o2)[NH2+][C@@H]1C(=O)NCCCNC(=O)c1ccc(-c2c3nc(c(-c4cc(S(=O)(=O)[O-])ccc4F)c4ccc([nH]4)c(-c4cc(S(=O)(=O)[O-])ccc4F)c4nc(c(-c5cc(S(=O)(=O)[O-])ccc5F)c5ccc2[nH]5)C=C4)C=C3)cc1
REMARK SMILES IDX 26 1 25 2 24 3 22 4 23 5 21 7 1 8 2 9 3 10 4 11 5 12 20 13
REMARK SMILES IDX 6 16 7 17 19 18 8 19 9 20 10 21 11 22 18 23 12 24 14 25
REMARK SMILES IDX 13 26 15 27 16 28 17 29 27 30 28 31 29 32 30 34 31 35 32 36
REMARK SMILES IDX 93 37 33 38 92 39 34 40 35 41 36 42 86 43 37 44 91 45 85 46
REMARK SMILES IDX 87 47 38 48 90 49 84 50 83 51 39 53 71 54 51 55 70 56 52 57
REMARK SMILES IDX 55 58 69 59 88 60 53 61 54 62 68 64 89 65 56 66 40 67 41 68
REMARK SMILES IDX 49 69 42 70 48 71 50 72 47 73 43 74 44 75 45 76 46 77 72 78
REMARK SMILES IDX 73 79 81 80 74 81 80 82 82 83 79 84 75 85 76 86 77 87 78 88
REMARK SMILES IDX 57 89 58 90 66 91 59 92 65 93 67 94 64 95 60 96 61 97 62 98
REMARK SMILES IDX 63 99
REMARK H PARENT 24 6 20 14 20 15 28 33 87 52 55 63
REMARK Flexibility Score: inf
ROOT
ATOM      1  C   UNL A   1      31.552  29.545  27.030  1.00  0.00     0.042 C 
ENDROOT
BRANCH   1   2
ATOM      2  C   UNL A   1      32.140  28.241  27.537  1.00  0.00     0.118 C 
BRANCH   2   3
ATOM      3  N   UNL A   1      33.148  27.672  26.663  1.00  0.00    -0.351 N 
ATOM      4  C   UNL A   1      33.080  26.465  26.007  1.00  0.00     0.279 C 
ATOM      5  O   UNL A   1      33.950  26.229  25.170  1.00  0.00    -0.268 OA
ATOM      6  H   UNL A   1      33.965  28.204  26.524  1.00  0.00     0.163 HD
BRANCH   4   7
ATOM      7  C   UNL A   1      31.999  25.447  26.457  1.00  0.00     0.289 C 
ATOM      8  C   UNL A   1      31.345  23.037  26.865  1.00  0.00     0.030 C 
ATOM      9  C   UNL A   1      32.047  24.008  25.888  1.00  0.00     0.078 C 
ATOM     10  C   UNL A   1      33.424  23.433  25.557  1.00  0.00     0.030 C 
ATOM     11  S   UNL A   1      31.040  24.106  24.370  1.00  0.00    -0.078 SA
ATOM     12  C   UNL A   1      30.213  25.635  24.857  1.00  0.00     0.311 C 
ATOM     13  N   UNL A   1      30.624  25.988  26.218  1.00  0.00    -0.317 N 
ATOM     14  H   UNL A   1      29.973  25.581  26.890  1.00  0.00     0.348 HD
ATOM     15  H   UNL A   1      30.624  27.002  26.330  1.00  0.00     0.348 HD
BRANCH  12  16
ATOM     16  C   UNL A   1      30.352  26.716  23.830  1.00  0.00     0.172 A 
ATOM     17  C   UNL A   1      30.909  26.688  22.564  1.00  0.00     0.054 A 
ATOM     18  O   UNL A   1      29.840  27.967  24.070  1.00  0.00    -0.454 OA
ATOM     19  C   UNL A   1      30.708  27.965  21.998  1.00  0.00     0.051 A 
ATOM     20  C   UNL A   1      30.048  28.718  22.947  1.00  0.00     0.134 A 
BRANCH  20  21
ATOM     21  C   UNL A   1      29.516  30.073  22.937  1.00  0.00     0.024 A 
ATOM     22  C   UNL A   1      29.633  30.921  24.048  1.00  0.00     0.012 A 
ATOM     23  C   UNL A   1      28.879  30.554  21.783  1.00  0.00     0.097 A 
ATOM     24  C   UNL A   1      29.120  32.225  24.012  1.00  0.00     0.008 A 
ATOM     25  C   UNL A   1      28.357  31.856  21.756  1.00  0.00     0.270 A 
ATOM     26  C   UNL A   1      28.476  32.697  22.868  1.00  0.00     0.085 A 
BRANCH  25  27
ATOM     27  N   UNL A   1      27.661  32.326  20.551  1.00  0.00     0.062 N 
ATOM     28  O   UNL A   1      27.351  33.524  20.496  1.00  0.00    -0.258 OA
ATOM     29  O   UNL A   1      27.478  31.505  19.638  1.00  0.00    -0.258 OA
ENDBRANCH  25  27
ENDBRANCH  20  21
ENDBRANCH  12  16
ENDBRANCH   4   7
ENDBRANCH   2   3
ENDBRANCH   1   2
BRANCH   1  30
ATOM     30  C   UNL A   1      32.544  30.472  26.346  1.00  0.00     0.118 C 
BRANCH  30  31
ATOM     31  N   UNL A   1      32.550  31.830  26.866  1.00  0.00    -0.352 N 
ATOM     32  C   UNL A   1      33.529  32.495  27.572  1.00  0.00     0.251 C 
ATOM     33  H   UNL A   1      31.734  32.351  26.687  1.00  0.00     0.163 HD
ATOM     34  O   UNL A   1      33.305  33.621  28.003  1.00  0.00    -0.269 OA
BRANCH  32  35
ATOM     35  C   UNL A   1      34.825  31.834  27.856  1.00  0.00     0.039 A 
ATOM     36  C   UNL A   1      35.955  32.639  28.003  1.00  0.00     0.014 A 
ATOM     37  C   UNL A   1      34.915  30.457  28.065  1.00  0.00     0.014 A 
ATOM     38  C   UNL A   1      37.130  32.087  28.515  1.00  0.00     0.010 A 
ATOM     39  C   UNL A   1      36.048  29.929  28.674  1.00  0.00     0.010 A 
ATOM     40  C   UNL A   1      37.152  30.750  28.941  1.00  0.00    -0.014 A 
BRANCH  40  41
ATOM     41  C   UNL A   1      38.286  30.229  29.749  1.00  0.00     0.031 A 
ATOM     42  C   UNL A   1      38.493  30.687  31.163  1.00  0.00     0.074 A 
ATOM     43  C   UNL A   1      39.173  29.399  29.161  1.00  0.00     0.049 A 
ATOM     44  N   UNL A   1      39.451  30.380  31.998  1.00  0.00    -0.248 NA
ATOM     45  C   UNL A   1      37.515  31.648  31.695  1.00  0.00     0.031 C 
ATOM     46  C   UNL A   1      39.114  28.948  27.766  1.00  0.00     0.029 A 
ATOM     47  N   UNL A   1      40.297  28.784  29.654  1.00  0.00    -0.354 N 
ATOM     48  C   UNL A   1      39.197  31.111  33.153  1.00  0.00     0.074 A 
ATOM     49  C   UNL A   1      38.036  31.934  32.878  1.00  0.00     0.031 C 
ATOM     50  C   UNL A   1      40.122  28.095  27.532  1.00  0.00     0.029 A 
ATOM     51  C   UNL A   1      40.929  27.971  28.739  1.00  0.00     0.049 A 
ATOM     52  H   UNL A   1      40.619  28.911  30.575  1.00  0.00     0.167 HD
ATOM     53  C   UNL A   1      39.853  31.078  34.339  1.00  0.00     0.034 A 
ATOM     54  C   UNL A   1      42.036  27.213  28.861  1.00  0.00     0.034 A 
ATOM     55  C   UNL A   1      41.003  30.243  34.590  1.00  0.00     0.049 A 
ATOM     56  C   UNL A   1      42.747  27.189  30.188  1.00  0.00     0.074 A 
ATOM     57  C   UNL A   1      41.722  30.091  35.762  1.00  0.00     0.029 A 
ATOM     58  N   UNL A   1      41.609  29.421  33.646  1.00  0.00    -0.354 N 
ATOM     59  N   UNL A   1      42.457  27.843  31.290  1.00  0.00    -0.248 NA
ATOM     60  C   UNL A   1      43.923  26.318  30.293  1.00  0.00     0.031 C 
ATOM     61  C   UNL A   1      42.793  29.225  35.512  1.00  0.00     0.029 A 
ATOM     62  C   UNL A   1      42.705  28.779  34.203  1.00  0.00     0.049 A 
ATOM     63  H   UNL A   1      41.304  29.311  32.717  1.00  0.00     0.167 HD
ATOM     64  C   UNL A   1      43.402  27.439  32.228  1.00  0.00     0.074 A 
ATOM     65  C   UNL A   1      44.256  26.472  31.566  1.00  0.00     0.031 C 
ATOM     66  C   UNL A   1      43.552  27.830  33.520  1.00  0.00     0.034 A 
BRANCH  53  67
ATOM     67  C   UNL A   1      39.344  31.984  35.435  1.00  0.00     0.023 A 
ATOM     68  C   UNL A   1      39.791  33.312  35.558  1.00  0.00     0.031 A 
ATOM     69  C   UNL A   1      38.436  31.506  36.397  1.00  0.00     0.131 A 
ATOM     70  C   UNL A   1      39.400  34.085  36.662  1.00  0.00     0.055 A 
ATOM     71  C   UNL A   1      37.983  32.310  37.445  1.00  0.00     0.041 A 
ATOM     72  F   UNL A   1      37.988  30.242  36.346  1.00  0.00    -0.206 F 
ATOM     73  C   UNL A   1      38.479  33.603  37.593  1.00  0.00     0.022 A 
BRANCH  70  74
ATOM     74  S   UNL A   1      40.233  35.672  36.945  1.00  0.00     0.124 S 
ATOM     75  O   UNL A   1      39.656  36.498  35.887  1.00  0.00    -0.237 OA
ATOM     76  O   UNL A   1      39.831  36.002  38.306  1.00  0.00    -0.237 OA
ATOM     77  O   UNL A   1      41.648  35.351  36.772  1.00  0.00    -0.744 OA
ENDBRANCH  70  74
ENDBRANCH  53  67
BRANCH  54  78
ATOM     78  C   UNL A   1      42.537  26.410  27.707  1.00  0.00     0.023 A 
ATOM     79  C   UNL A   1      42.292  25.029  27.628  1.00  0.00     0.031 A 
ATOM     80  C   UNL A   1      43.293  27.004  26.682  1.00  0.00     0.131 A 
ATOM     81  C   UNL A   1      42.837  24.280  26.574  1.00  0.00     0.055 A 
ATOM     82  C   UNL A   1      43.790  26.264  25.607  1.00  0.00     0.041 A 
ATOM     83  F   UNL A   1      43.548  28.322  26.702  1.00  0.00    -0.206 F 
ATOM     84  C   UNL A   1      43.574  24.890  25.556  1.00  0.00     0.022 A 
BRANCH  81  85
ATOM     85  S   UNL A   1      42.637  22.477  26.594  1.00  0.00     0.124 S 
ATOM     86  O   UNL A   1      42.459  22.214  28.018  1.00  0.00    -0.237 OA
ATOM     87  O   UNL A   1      41.459  22.294  25.753  1.00  0.00    -0.237 OA
ATOM     88  O   UNL A   1      43.892  21.990  26.022  1.00  0.00    -0.744 OA
ENDBRANCH  81  85
ENDBRANCH  54  78
BRANCH  66  89
ATOM     89  C   UNL A   1      44.660  27.172  34.301  1.00  0.00     0.023 A 
ATOM     90  C   UNL A   1      44.440  26.005  35.053  1.00  0.00     0.031 A 
ATOM     91  C   UNL A   1      45.948  27.735  34.311  1.00  0.00     0.131 A 
ATOM     92  C   UNL A   1      45.479  25.470  35.829  1.00  0.00     0.055 A 
ATOM     93  C   UNL A   1      46.993  27.164  35.037  1.00  0.00     0.041 A 
ATOM     94  F   UNL A   1      46.211  28.852  33.612  1.00  0.00    -0.206 F 
ATOM     95  C   UNL A   1      46.758  26.033  35.813  1.00  0.00     0.022 A 
BRANCH  92  96
ATOM     96  S   UNL A   1      45.110  24.081  36.936  1.00  0.00     0.124 S 
ATOM     97  O   UNL A   1      46.431  23.760  37.470  1.00  0.00    -0.237 OA
ATOM     98  O   UNL A   1      44.170  24.676  37.881  1.00  0.00    -0.237 OA
ATOM     99  O   UNL A   1      44.540  23.073  36.045  1.00  0.00    -0.744 OA
ENDBRANCH  92  96
ENDBRANCH  66  89
ENDBRANCH  40  41
ENDBRANCH  32  35
ENDBRANCH  30  31
ENDBRANCH   1  30
TORSDOF 16
ENDMDL
