MODEL 1
REMARK VINA RESULT:      -9.7      0.000      0.000
REMARK SMILES C=CCc1cccc(-c2ccc([C@@H](C)C(=O)NCCCNC(=O)c3ccc(-c4c5nc(c(-c6cc(S(=O)(=O)[O-])ccc6F)c6ccc([nH]6)c(-c6cc(S(=O)(=O)[O-])ccc6F)c6nc(c(-c7cc(S(=O)(=O)[O-])ccc7F)c7ccc4[nH]7)C=C6)C=C5)cc3)cc2)c1
REMARK SMILES IDX 18 1 17 2 15 3 16 4 13 6 14 7 12 8 9 9 10 10 88 11 11 12
REMARK SMILES IDX 87 13 8 14 4 15 5 16 89 17 6 18 7 19 3 20 2 21 1 22 19 23
REMARK SMILES IDX 20 24 21 25 22 26 23 28 24 29 25 30 86 31 26 32 85 33 27 34
REMARK SMILES IDX 28 35 29 36 79 37 30 38 84 39 78 40 80 41 31 42 83 43 77 44
REMARK SMILES IDX 76 45 32 47 64 48 44 49 63 50 45 51 48 52 62 53 81 54 46 55
REMARK SMILES IDX 47 56 61 58 82 59 49 60 33 61 34 62 42 63 35 64 41 65 43 66
REMARK SMILES IDX 40 67 36 68 37 69 38 70 39 71 65 72 66 73 74 74 67 75 73 76
REMARK SMILES IDX 75 77 72 78 68 79 69 80 70 81 71 82 50 83 51 84 59 85 52 86
REMARK SMILES IDX 58 87 60 88 57 89 53 90 54 91 55 92 56 93
REMARK H PARENT 17 5 21 27 80 46 48 57
REMARK Flexibility Score: inf
ROOT
ATOM      1  C   UNL A   1      33.510  34.615  29.842  1.00  0.00     0.117 C 
ENDROOT
BRANCH   1   2
ATOM      2  N   UNL A   1      33.927  35.419  30.975  1.00  0.00    -0.356 N 
ATOM      3  C   UNL A   1      34.801  35.174  31.990  1.00  0.00     0.227 C 
ATOM      4  O   UNL A   1      34.918  36.068  32.839  1.00  0.00    -0.274 OA
ATOM      5  H   UNL A   1      33.499  36.305  31.018  1.00  0.00     0.163 HD
BRANCH   3   6
ATOM      6  C   UNL A   1      35.636  33.889  32.116  1.00  0.00     0.105 C 
ATOM      7  C   UNL A   1      35.583  33.240  33.497  1.00  0.00     0.023 C 
BRANCH   6   8
ATOM      8  C   UNL A   1      37.012  34.001  31.482  1.00  0.00    -0.036 A 
ATOM      9  C   UNL A   1      39.678  33.993  30.449  1.00  0.00    -0.018 A 
ATOM     10  C   UNL A   1      38.583  33.598  29.666  1.00  0.00     0.009 A 
ATOM     11  C   UNL A   1      39.395  34.453  31.746  1.00  0.00     0.009 A 
ATOM     12  C   UNL A   1      37.274  33.636  30.159  1.00  0.00     0.005 A 
ATOM     13  C   UNL A   1      38.092  34.437  32.261  1.00  0.00     0.005 A 
BRANCH   9  14
ATOM     14  C   UNL A   1      41.067  33.897  29.941  1.00  0.00    -0.018 A 
ATOM     15  C   UNL A   1      43.119  32.583  29.573  1.00  0.00    -0.044 A 
ATOM     16  C   UNL A   1      43.709  33.679  28.940  1.00  0.00     0.004 A 
ATOM     17  C   UNL A   1      41.798  32.699  30.043  1.00  0.00     0.012 A 
ATOM     18  C   UNL A   1      43.004  34.873  28.810  1.00  0.00     0.001 A 
ATOM     19  C   UNL A   1      41.706  34.982  29.318  1.00  0.00     0.009 A 
BRANCH  15  20
ATOM     20  C   UNL A   1      43.878  31.289  29.757  1.00  0.00     0.062 C 
BRANCH  20  21
ATOM     21  C   UNL A   1      44.855  31.373  30.901  1.00  0.00    -0.030 C 
ATOM     22  C   UNL A   1      45.968  30.634  31.002  1.00  0.00     0.004 C 
ENDBRANCH  20  21
ENDBRANCH  15  20
ENDBRANCH   9  14
ENDBRANCH   6   8
ENDBRANCH   3   6
ENDBRANCH   1   2
BRANCH   1  23
ATOM     23  C   UNL A   1      34.292  34.939  28.571  1.00  0.00     0.042 C 
BRANCH  23  24
ATOM     24  C   UNL A   1      34.983  33.736  27.944  1.00  0.00     0.118 C 
BRANCH  24  25
ATOM     25  N   UNL A   1      34.081  32.603  27.788  1.00  0.00    -0.352 N 
ATOM     26  C   UNL A   1      34.318  31.251  27.865  1.00  0.00     0.251 C 
ATOM     27  H   UNL A   1      33.147  32.845  27.595  1.00  0.00     0.163 HD
ATOM     28  O   UNL A   1      33.448  30.479  27.469  1.00  0.00    -0.269 OA
BRANCH  26  29
ATOM     29  C   UNL A   1      35.595  30.719  28.398  1.00  0.00     0.039 A 
ATOM     30  C   UNL A   1      35.588  30.077  29.643  1.00  0.00     0.014 A 
ATOM     31  C   UNL A   1      36.804  30.894  27.721  1.00  0.00     0.014 A 
ATOM     32  C   UNL A   1      36.776  29.564  30.173  1.00  0.00     0.010 A 
ATOM     33  C   UNL A   1      37.972  30.309  28.210  1.00  0.00     0.010 A 
ATOM     34  C   UNL A   1      37.974  29.646  29.445  1.00  0.00    -0.014 A 
BRANCH  34  35
ATOM     35  C   UNL A   1      39.239  29.061  29.968  1.00  0.00     0.031 A 
ATOM     36  C   UNL A   1      39.908  29.664  31.175  1.00  0.00     0.074 A 
ATOM     37  C   UNL A   1      39.815  28.028  29.321  1.00  0.00     0.049 A 
ATOM     38  N   UNL A   1      41.052  29.355  31.730  1.00  0.00    -0.248 NA
ATOM     39  C   UNL A   1      39.211  30.785  31.825  1.00  0.00     0.031 C 
ATOM     40  C   UNL A   1      39.281  27.382  28.119  1.00  0.00     0.029 A 
ATOM     41  N   UNL A   1      40.977  27.344  29.575  1.00  0.00    -0.354 N 
ATOM     42  C   UNL A   1      41.220  30.252  32.782  1.00  0.00     0.074 A 
ATOM     43  C   UNL A   1      40.089  31.153  32.745  1.00  0.00     0.031 C 
ATOM     44  C   UNL A   1      40.101  26.383  27.756  1.00  0.00     0.029 A 
ATOM     45  C   UNL A   1      41.242  26.346  28.665  1.00  0.00     0.049 A 
ATOM     46  H   UNL A   1      41.567  27.548  30.337  1.00  0.00     0.167 HD
ATOM     47  C   UNL A   1      42.213  30.304  33.705  1.00  0.00     0.034 A 
ATOM     48  C   UNL A   1      42.293  25.507  28.565  1.00  0.00     0.034 A 
ATOM     49  C   UNL A   1      43.327  29.386  33.734  1.00  0.00     0.049 A 
ATOM     50  C   UNL A   1      43.395  25.596  29.589  1.00  0.00     0.074 A 
ATOM     51  C   UNL A   1      44.360  29.313  34.653  1.00  0.00     0.029 A 
ATOM     52  N   UNL A   1      43.560  28.386  32.797  1.00  0.00    -0.354 N 
ATOM     53  N   UNL A   1      43.515  26.420  30.604  1.00  0.00    -0.248 NA
ATOM     54  C   UNL A   1      44.499  24.636  29.459  1.00  0.00     0.031 C 
ATOM     55  C   UNL A   1      45.250  28.317  34.235  1.00  0.00     0.029 A 
ATOM     56  C   UNL A   1      44.734  27.713  33.100  1.00  0.00     0.049 A 
ATOM     57  H   UNL A   1      42.976  28.185  32.031  1.00  0.00     0.167 HD
ATOM     58  C   UNL A   1      44.692  26.054  31.253  1.00  0.00     0.074 A 
ATOM     59  C   UNL A   1      45.235  24.927  30.522  1.00  0.00     0.031 C 
ATOM     60  C   UNL A   1      45.269  26.597  32.356  1.00  0.00     0.034 A 
BRANCH  47  61
ATOM     61  C   UNL A   1      42.148  31.405  34.738  1.00  0.00     0.023 A 
ATOM     62  C   UNL A   1      41.164  31.418  35.743  1.00  0.00     0.031 A 
ATOM     63  C   UNL A   1      43.064  32.471  34.705  1.00  0.00     0.131 A 
ATOM     64  C   UNL A   1      41.070  32.511  36.619  1.00  0.00     0.055 A 
ATOM     65  C   UNL A   1      43.019  33.513  35.633  1.00  0.00     0.041 A 
ATOM     66  F   UNL A   1      44.015  32.526  33.758  1.00  0.00    -0.206 F 
ATOM     67  C   UNL A   1      42.007  33.546  36.588  1.00  0.00     0.022 A 
BRANCH  64  68
ATOM     68  S   UNL A   1      39.618  32.632  37.700  1.00  0.00     0.124 S 
ATOM     69  O   UNL A   1      40.205  32.371  39.012  1.00  0.00    -0.237 OA
ATOM     70  O   UNL A   1      39.161  33.996  37.464  1.00  0.00    -0.237 OA
ATOM     71  O   UNL A   1      38.731  31.582  37.202  1.00  0.00    -0.744 OA
ENDBRANCH  64  68
ENDBRANCH  47  61
BRANCH  48  72
ATOM     72  C   UNL A   1      42.362  24.514  27.453  1.00  0.00     0.023 A 
ATOM     73  C   UNL A   1      41.705  23.277  27.546  1.00  0.00     0.031 A 
ATOM     74  C   UNL A   1      43.121  24.772  26.297  1.00  0.00     0.131 A 
ATOM     75  C   UNL A   1      41.856  22.325  26.525  1.00  0.00     0.055 A 
ATOM     76  C   UNL A   1      43.223  23.844  25.259  1.00  0.00     0.041 A 
ATOM     77  F   UNL A   1      43.767  25.940  26.156  1.00  0.00    -0.206 F 
ATOM     78  C   UNL A   1      42.599  22.606  25.376  1.00  0.00     0.022 A 
BRANCH  75  79
ATOM     79  S   UNL A   1      41.137  20.677  26.760  1.00  0.00     0.124 S 
ATOM     80  O   UNL A   1      42.253  19.811  26.396  1.00  0.00    -0.237 OA
ATOM     81  O   UNL A   1      40.779  20.702  28.175  1.00  0.00    -0.237 OA
ATOM     82  O   UNL A   1      40.008  20.664  25.833  1.00  0.00    -0.744 OA
ENDBRANCH  75  79
ENDBRANCH  48  72
BRANCH  60  83
ATOM     83  C   UNL A   1      46.531  25.941  32.861  1.00  0.00     0.023 A 
ATOM     84  C   UNL A   1      46.496  24.848  33.746  1.00  0.00     0.031 A 
ATOM     85  C   UNL A   1      47.789  26.426  32.460  1.00  0.00     0.131 A 
ATOM     86  C   UNL A   1      47.693  24.313  34.243  1.00  0.00     0.055 A 
ATOM     87  C   UNL A   1      48.977  25.849  32.909  1.00  0.00     0.041 A 
ATOM     88  F   UNL A   1      47.882  27.469  31.619  1.00  0.00    -0.206 F 
ATOM     89  C   UNL A   1      48.934  24.794  33.816  1.00  0.00     0.022 A 
BRANCH  86  90
ATOM     90  S   UNL A   1      47.609  23.037  35.529  1.00  0.00     0.124 S 
ATOM     91  O   UNL A   1      48.893  23.201  36.204  1.00  0.00    -0.237 OA
ATOM     92  O   UNL A   1      46.432  23.440  36.293  1.00  0.00    -0.237 OA
ATOM     93  O   UNL A   1      47.461  21.795  34.772  1.00  0.00    -0.744 OA
ENDBRANCH  86  90
ENDBRANCH  60  83
ENDBRANCH  34  35
ENDBRANCH  26  29
ENDBRANCH  24  25
ENDBRANCH  23  24
ENDBRANCH   1  23
TORSDOF 17
ENDMDL
MODEL 2
REMARK VINA RESULT:      -9.6      1.503      2.286
REMARK SMILES C=CCc1cccc(-c2ccc([C@@H](C)C(=O)NCCCNC(=O)c3ccc(-c4c5nc(c(-c6cc(S(=O)(=O)[O-])ccc6F)c6ccc([nH]6)c(-c6cc(S(=O)(=O)[O-])ccc6F)c6nc(c(-c7cc(S(=O)(=O)[O-])ccc7F)c7ccc4[nH]7)C=C6)C=C5)cc3)cc2)c1
REMARK SMILES IDX 18 1 17 2 15 3 16 4 13 6 14 7 12 8 9 9 10 10 88 11 11 12
REMARK SMILES IDX 87 13 8 14 4 15 5 16 89 17 6 18 7 19 3 20 2 21 1 22 19 23
REMARK SMILES IDX 20 24 21 25 22 26 23 28 24 29 25 30 86 31 26 32 85 33 27 34
REMARK SMILES IDX 28 35 29 36 79 37 30 38 84 39 78 40 80 41 31 42 83 43 77 44
REMARK SMILES IDX 76 45 32 47 64 48 44 49 63 50 45 51 48 52 62 53 81 54 46 55
REMARK SMILES IDX 47 56 61 58 82 59 49 60 33 61 34 62 42 63 35 64 41 65 43 66
REMARK SMILES IDX 40 67 36 68 37 69 38 70 39 71 65 72 66 73 74 74 67 75 73 76
REMARK SMILES IDX 75 77 72 78 68 79 69 80 70 81 71 82 50 83 51 84 59 85 52 86
REMARK SMILES IDX 58 87 60 88 57 89 53 90 54 91 55 92 56 93
REMARK H PARENT 17 5 21 27 80 46 48 57
REMARK Flexibility Score: inf
ROOT
ATOM      1  C   UNL A   1      33.519  34.602  29.831  1.00  0.00     0.117 C 
ENDROOT
BRANCH   1   2
ATOM      2  N   UNL A   1      34.021  35.287  31.007  1.00  0.00    -0.356 N 
ATOM      3  C   UNL A   1      34.921  34.916  31.960  1.00  0.00     0.227 C 
ATOM      4  O   UNL A   1      35.116  35.728  32.873  1.00  0.00    -0.274 OA
ATOM      5  H   UNL A   1      33.640  36.185  31.142  1.00  0.00     0.163 HD
BRANCH   3   6
ATOM      6  C   UNL A   1      35.693  33.587  31.943  1.00  0.00     0.105 C 
ATOM      7  C   UNL A   1      35.480  32.723  33.184  1.00  0.00     0.023 C 
BRANCH   6   8
ATOM      8  C   UNL A   1      37.129  33.732  31.467  1.00  0.00    -0.036 A 
ATOM      9  C   UNL A   1      39.742  34.218  30.412  1.00  0.00    -0.018 A 
ATOM     10  C   UNL A   1      39.421  34.502  31.748  1.00  0.00     0.009 A 
ATOM     11  C   UNL A   1      38.735  33.624  29.633  1.00  0.00     0.009 A 
ATOM     12  C   UNL A   1      38.153  34.230  32.275  1.00  0.00     0.005 A 
ATOM     13  C   UNL A   1      37.448  33.406  30.141  1.00  0.00     0.005 A 
BRANCH   9  14
ATOM     14  C   UNL A   1      41.068  34.560  29.845  1.00  0.00    -0.018 A 
ATOM     15  C   UNL A   1      42.429  35.703  28.139  1.00  0.00    -0.044 A 
ATOM     16  C   UNL A   1      43.594  35.260  28.770  1.00  0.00     0.004 A 
ATOM     17  C   UNL A   1      41.182  35.367  28.699  1.00  0.00     0.012 A 
ATOM     18  C   UNL A   1      43.511  34.473  29.915  1.00  0.00     0.001 A 
ATOM     19  C   UNL A   1      42.263  34.117  30.436  1.00  0.00     0.009 A 
BRANCH  15  20
ATOM     20  C   UNL A   1      42.494  36.528  26.874  1.00  0.00     0.062 C 
BRANCH  20  21
ATOM     21  C   UNL A   1      41.966  37.922  27.089  1.00  0.00    -0.030 C 
ATOM     22  C   UNL A   1      42.404  38.760  28.038  1.00  0.00     0.004 C 
ENDBRANCH  20  21
ENDBRANCH  15  20
ENDBRANCH   9  14
ENDBRANCH   6   8
ENDBRANCH   3   6
ENDBRANCH   1   2
BRANCH   1  23
ATOM     23  C   UNL A   1      34.334  34.913  28.578  1.00  0.00     0.042 C 
BRANCH  23  24
ATOM     24  C   UNL A   1      35.068  33.709  28.001  1.00  0.00     0.118 C 
BRANCH  24  25
ATOM     25  N   UNL A   1      34.176  32.582  27.765  1.00  0.00    -0.352 N 
ATOM     26  C   UNL A   1      34.418  31.229  27.780  1.00  0.00     0.251 C 
ATOM     27  H   UNL A   1      33.245  32.830  27.561  1.00  0.00     0.163 HD
ATOM     28  O   UNL A   1      33.562  30.475  27.323  1.00  0.00    -0.269 OA
BRANCH  26  29
ATOM     29  C   UNL A   1      35.685  30.676  28.317  1.00  0.00     0.039 A 
ATOM     30  C   UNL A   1      35.670  30.066  29.577  1.00  0.00     0.014 A 
ATOM     31  C   UNL A   1      36.892  30.800  27.626  1.00  0.00     0.014 A 
ATOM     32  C   UNL A   1      36.848  29.535  30.111  1.00  0.00     0.010 A 
ATOM     33  C   UNL A   1      38.048  30.196  28.121  1.00  0.00     0.010 A 
ATOM     34  C   UNL A   1      38.041  29.564  29.373  1.00  0.00    -0.014 A 
BRANCH  34  35
ATOM     35  C   UNL A   1      39.294  28.959  29.901  1.00  0.00     0.031 A 
ATOM     36  C   UNL A   1      39.964  29.545  31.116  1.00  0.00     0.074 A 
ATOM     37  C   UNL A   1      39.859  27.921  29.253  1.00  0.00     0.049 A 
ATOM     38  N   UNL A   1      41.099  29.217  31.677  1.00  0.00    -0.248 NA
ATOM     39  C   UNL A   1      39.278  30.673  31.767  1.00  0.00     0.031 C 
ATOM     40  C   UNL A   1      39.325  27.289  28.044  1.00  0.00     0.029 A 
ATOM     41  N   UNL A   1      41.010  27.219  29.511  1.00  0.00    -0.354 N 
ATOM     42  C   UNL A   1      41.273  30.106  32.735  1.00  0.00     0.074 A 
ATOM     43  C   UNL A   1      40.155  31.023  32.695  1.00  0.00     0.031 C 
ATOM     44  C   UNL A   1      40.132  26.280  27.681  1.00  0.00     0.029 A 
ATOM     45  C   UNL A   1      41.266  26.221  28.597  1.00  0.00     0.049 A 
ATOM     46  H   UNL A   1      41.597  27.410  30.278  1.00  0.00     0.167 HD
ATOM     47  C   UNL A   1      42.260  30.138  33.664  1.00  0.00     0.034 A 
ATOM     48  C   UNL A   1      42.305  25.367  28.500  1.00  0.00     0.034 A 
ATOM     49  C   UNL A   1      43.361  29.204  33.697  1.00  0.00     0.049 A 
ATOM     50  C   UNL A   1      43.402  25.435  29.532  1.00  0.00     0.074 A 
ATOM     51  C   UNL A   1      44.386  29.111  34.621  1.00  0.00     0.029 A 
ATOM     52  N   UNL A   1      43.585  28.206  32.756  1.00  0.00    -0.354 N 
ATOM     53  N   UNL A   1      43.527  26.252  30.552  1.00  0.00    -0.248 NA
ATOM     54  C   UNL A   1      44.492  24.460  29.404  1.00  0.00     0.031 C 
ATOM     55  C   UNL A   1      45.264  28.104  34.205  1.00  0.00     0.029 A 
ATOM     56  C   UNL A   1      44.747  27.513  33.063  1.00  0.00     0.049 A 
ATOM     57  H   UNL A   1      43.004  28.017  31.985  1.00  0.00     0.167 HD
ATOM     58  C   UNL A   1      44.693  25.865  31.207  1.00  0.00     0.074 A 
ATOM     59  C   UNL A   1      45.225  24.734  30.473  1.00  0.00     0.031 C 
ATOM     60  C   UNL A   1      45.271  26.394  32.316  1.00  0.00     0.034 A 
BRANCH  47  61
ATOM     61  C   UNL A   1      42.204  31.234  34.703  1.00  0.00     0.023 A 
ATOM     62  C   UNL A   1      42.759  32.505  34.468  1.00  0.00     0.031 A 
ATOM     63  C   UNL A   1      41.611  31.000  35.957  1.00  0.00     0.131 A 
ATOM     64  C   UNL A   1      42.781  33.462  35.495  1.00  0.00     0.055 A 
ATOM     65  C   UNL A   1      41.560  31.986  36.945  1.00  0.00     0.041 A 
ATOM     66  F   UNL A   1      41.081  29.802  36.249  1.00  0.00    -0.206 F 
ATOM     67  C   UNL A   1      42.162  33.221  36.723  1.00  0.00     0.022 A 
BRANCH  64  68
ATOM     68  S   UNL A   1      43.761  34.970  35.252  1.00  0.00     0.124 S 
ATOM     69  O   UNL A   1      44.085  35.335  36.629  1.00  0.00    -0.237 OA
ATOM     70  O   UNL A   1      44.873  34.495  34.438  1.00  0.00    -0.237 OA
ATOM     71  O   UNL A   1      42.835  35.876  34.576  1.00  0.00    -0.744 OA
ENDBRANCH  64  68
ENDBRANCH  47  61
BRANCH  48  72
ATOM     72  C   UNL A   1      42.368  24.379  27.383  1.00  0.00     0.023 A 
ATOM     73  C   UNL A   1      41.711  23.142  27.475  1.00  0.00     0.031 A 
ATOM     74  C   UNL A   1      43.120  24.643  26.224  1.00  0.00     0.131 A 
ATOM     75  C   UNL A   1      41.856  22.195  26.448  1.00  0.00     0.055 A 
ATOM     76  C   UNL A   1      43.215  23.719  25.181  1.00  0.00     0.041 A 
ATOM     77  F   UNL A   1      43.764  25.811  26.083  1.00  0.00    -0.206 F 
ATOM     78  C   UNL A   1      42.591  22.481  25.296  1.00  0.00     0.022 A 
BRANCH  75  79
ATOM     79  S   UNL A   1      41.138  20.546  26.680  1.00  0.00     0.124 S 
ATOM     80  O   UNL A   1      40.013  20.578  25.751  1.00  0.00    -0.237 OA
ATOM     81  O   UNL A   1      42.251  19.677  26.311  1.00  0.00    -0.237 OA
ATOM     82  O   UNL A   1      40.778  20.529  28.096  1.00  0.00    -0.744 OA
ENDBRANCH  75  79
ENDBRANCH  48  72
BRANCH  60  83
ATOM     83  C   UNL A   1      46.520  25.716  32.827  1.00  0.00     0.023 A 
ATOM     84  C   UNL A   1      46.471  24.726  33.824  1.00  0.00     0.031 A 
ATOM     85  C   UNL A   1      47.779  26.078  32.314  1.00  0.00     0.131 A 
ATOM     86  C   UNL A   1      47.662  24.172  34.316  1.00  0.00     0.055 A 
ATOM     87  C   UNL A   1      48.955  25.478  32.764  1.00  0.00     0.041 A 
ATOM     88  F   UNL A   1      47.884  27.020  31.363  1.00  0.00    -0.206 F 
ATOM     89  C   UNL A   1      48.903  24.528  33.780  1.00  0.00     0.022 A 
BRANCH  86  90
ATOM     90  S   UNL A   1      47.578  23.045  35.734  1.00  0.00     0.124 S 
ATOM     91  O   UNL A   1      46.779  23.812  36.685  1.00  0.00    -0.237 OA
ATOM     92  O   UNL A   1      46.930  21.869  35.161  1.00  0.00    -0.237 OA
ATOM     93  O   UNL A   1      48.979  22.859  36.109  1.00  0.00    -0.744 OA
ENDBRANCH  86  90
ENDBRANCH  60  83
ENDBRANCH  34  35
ENDBRANCH  26  29
ENDBRANCH  24  25
ENDBRANCH  23  24
ENDBRANCH   1  23
TORSDOF 17
ENDMDL
MODEL 3
REMARK VINA RESULT:      -9.5      3.865      6.892
REMARK SMILES C=CCc1cccc(-c2ccc([C@@H](C)C(=O)NCCCNC(=O)c3ccc(-c4c5nc(c(-c6cc(S(=O)(=O)[O-])ccc6F)c6ccc([nH]6)c(-c6cc(S(=O)(=O)[O-])ccc6F)c6nc(c(-c7cc(S(=O)(=O)[O-])ccc7F)c7ccc4[nH]7)C=C6)C=C5)cc3)cc2)c1
REMARK SMILES IDX 18 1 17 2 15 3 16 4 13 6 14 7 12 8 9 9 10 10 88 11 11 12
REMARK SMILES IDX 87 13 8 14 4 15 5 16 89 17 6 18 7 19 3 20 2 21 1 22 19 23
REMARK SMILES IDX 20 24 21 25 22 26 23 28 24 29 25 30 86 31 26 32 85 33 27 34
REMARK SMILES IDX 28 35 29 36 79 37 30 38 84 39 78 40 80 41 31 42 83 43 77 44
REMARK SMILES IDX 76 45 32 47 64 48 44 49 63 50 45 51 48 52 62 53 81 54 46 55
REMARK SMILES IDX 47 56 61 58 82 59 49 60 33 61 34 62 42 63 35 64 41 65 43 66
REMARK SMILES IDX 40 67 36 68 37 69 38 70 39 71 65 72 66 73 74 74 67 75 73 76
REMARK SMILES IDX 75 77 72 78 68 79 69 80 70 81 71 82 50 83 51 84 59 85 52 86
REMARK SMILES IDX 58 87 60 88 57 89 53 90 54 91 55 92 56 93
REMARK H PARENT 17 5 21 27 80 46 48 57
REMARK Flexibility Score: inf
ROOT
ATOM      1  C   UNL A   1      31.403  29.129  25.213  1.00  0.00     0.117 C 
ENDROOT
BRANCH   1   2
ATOM      2  N   UNL A   1      31.167  29.595  23.860  1.00  0.00    -0.356 N 
ATOM      3  C   UNL A   1      30.602  28.993  22.777  1.00  0.00     0.227 C 
ATOM      4  O   UNL A   1      30.575  29.659  21.733  1.00  0.00    -0.274 OA
ATOM      5  H   UNL A   1      31.472  30.517  23.693  1.00  0.00     0.163 HD
BRANCH   3   6
ATOM      6  C   UNL A   1      29.999  27.579  22.795  1.00  0.00     0.105 C 
ATOM      7  C   UNL A   1      28.658  27.479  23.518  1.00  0.00     0.023 C 
BRANCH   6   8
ATOM      8  C   UNL A   1      31.015  26.496  23.118  1.00  0.00    -0.036 A 
ATOM      9  C   UNL A   1      33.081  24.659  23.848  1.00  0.00    -0.018 A 
ATOM     10  C   UNL A   1      31.820  24.634  24.463  1.00  0.00     0.009 A 
ATOM     11  C   UNL A   1      33.260  25.590  22.812  1.00  0.00     0.009 A 
ATOM     12  C   UNL A   1      30.796  25.509  24.081  1.00  0.00     0.005 A 
ATOM     13  C   UNL A   1      32.257  26.506  22.468  1.00  0.00     0.005 A 
BRANCH   9  14
ATOM     14  C   UNL A   1      34.178  23.769  24.296  1.00  0.00    -0.018 A 
ATOM     15  C   UNL A   1      35.031  21.508  24.776  1.00  0.00    -0.044 A 
ATOM     16  C   UNL A   1      36.276  22.047  25.110  1.00  0.00     0.004 A 
ATOM     17  C   UNL A   1      34.006  22.374  24.351  1.00  0.00     0.012 A 
ATOM     18  C   UNL A   1      36.479  23.422  25.050  1.00  0.00     0.001 A 
ATOM     19  C   UNL A   1      35.438  24.272  24.661  1.00  0.00     0.009 A 
BRANCH  15  20
ATOM     20  C   UNL A   1      34.776  20.021  24.869  1.00  0.00     0.062 C 
BRANCH  20  21
ATOM     21  C   UNL A   1      33.373  19.668  24.451  1.00  0.00    -0.030 C 
ATOM     22  C   UNL A   1      32.671  18.639  24.946  1.00  0.00     0.004 C 
ENDBRANCH  20  21
ENDBRANCH  15  20
ENDBRANCH   9  14
ENDBRANCH   6   8
ENDBRANCH   3   6
ENDBRANCH   1   2
BRANCH   1  23
ATOM     23  C   UNL A   1      32.849  28.696  25.441  1.00  0.00     0.042 C 
BRANCH  23  24
ATOM     24  C   UNL A   1      33.376  29.005  26.837  1.00  0.00     0.118 C 
BRANCH  24  25
ATOM     25  N   UNL A   1      33.459  30.438  27.088  1.00  0.00    -0.352 N 
ATOM     26  C   UNL A   1      34.360  31.167  27.827  1.00  0.00     0.251 C 
ATOM     27  H   UNL A   1      32.752  30.972  26.660  1.00  0.00     0.163 HD
ATOM     28  O   UNL A   1      34.094  32.339  28.085  1.00  0.00    -0.269 OA
BRANCH  26  29
ATOM     29  C   UNL A   1      35.622  30.566  28.321  1.00  0.00     0.039 A 
ATOM     30  C   UNL A   1      36.797  30.775  27.589  1.00  0.00     0.014 A 
ATOM     31  C   UNL A   1      35.654  29.755  29.457  1.00  0.00     0.014 A 
ATOM     32  C   UNL A   1      38.003  30.221  28.029  1.00  0.00     0.010 A 
ATOM     33  C   UNL A   1      36.870  29.273  29.941  1.00  0.00     0.010 A 
ATOM     34  C   UNL A   1      38.058  29.493  29.228  1.00  0.00    -0.014 A 
BRANCH  34  35
ATOM     35  C   UNL A   1      39.340  28.939  29.740  1.00  0.00     0.031 A 
ATOM     36  C   UNL A   1      40.039  29.599  30.900  1.00  0.00     0.074 A 
ATOM     37  C   UNL A   1      39.905  27.882  29.123  1.00  0.00     0.049 A 
ATOM     38  N   UNL A   1      41.200  29.321  31.436  1.00  0.00    -0.248 NA
ATOM     39  C   UNL A   1      39.352  30.743  31.519  1.00  0.00     0.031 C 
ATOM     40  C   UNL A   1      39.343  27.181  27.967  1.00  0.00     0.029 A 
ATOM     41  N   UNL A   1      41.078  27.216  29.374  1.00  0.00    -0.354 N 
ATOM     42  C   UNL A   1      41.391  30.264  32.442  1.00  0.00     0.074 A 
ATOM     43  C   UNL A   1      40.253  31.157  32.397  1.00  0.00     0.031 C 
ATOM     44  C   UNL A   1      40.158  26.171  27.625  1.00  0.00     0.029 A 
ATOM     45  C   UNL A   1      41.325  26.180  28.502  1.00  0.00     0.049 A 
ATOM     46  H   UNL A   1      41.688  27.457  30.110  1.00  0.00     0.167 HD
ATOM     47  C   UNL A   1      42.409  30.362  33.333  1.00  0.00     0.034 A 
ATOM     48  C   UNL A   1      42.377  25.343  28.410  1.00  0.00     0.034 A 
ATOM     49  C   UNL A   1      43.530  29.453  33.372  1.00  0.00     0.049 A 
ATOM     50  C   UNL A   1      43.507  25.484  29.398  1.00  0.00     0.074 A 
ATOM     51  C   UNL A   1      44.588  29.426  34.263  1.00  0.00     0.029 A 
ATOM     52  N   UNL A   1      43.742  28.414  32.474  1.00  0.00    -0.354 N 
ATOM     53  N   UNL A   1      43.650  26.352  30.372  1.00  0.00    -0.248 NA
ATOM     54  C   UNL A   1      44.613  24.525  29.279  1.00  0.00     0.031 C 
ATOM     55  C   UNL A   1      45.472  28.418  33.865  1.00  0.00     0.029 A 
ATOM     56  C   UNL A   1      44.929  27.760  32.773  1.00  0.00     0.049 A 
ATOM     57  H   UNL A   1      43.139  28.176  31.734  1.00  0.00     0.167 HD
ATOM     58  C   UNL A   1      44.847  26.022  31.003  1.00  0.00     0.074 A 
ATOM     59  C   UNL A   1      45.376  24.866  30.306  1.00  0.00     0.031 C 
ATOM     60  C   UNL A   1      45.451  26.616  32.063  1.00  0.00     0.034 A 
BRANCH  47  61
ATOM     61  C   UNL A   1      42.365  31.508  34.318  1.00  0.00     0.023 A 
ATOM     62  C   UNL A   1      41.520  31.484  35.442  1.00  0.00     0.031 A 
ATOM     63  C   UNL A   1      43.159  32.652  34.120  1.00  0.00     0.131 A 
ATOM     64  C   UNL A   1      41.428  32.610  36.276  1.00  0.00     0.055 A 
ATOM     65  C   UNL A   1      43.127  33.734  35.000  1.00  0.00     0.041 A 
ATOM     66  F   UNL A   1      43.972  32.743  33.055  1.00  0.00    -0.206 F 
ATOM     67  C   UNL A   1      42.246  33.725  36.078  1.00  0.00     0.022 A 
BRANCH  64  68
ATOM     68  S   UNL A   1      40.120  32.654  37.531  1.00  0.00     0.124 S 
ATOM     69  O   UNL A   1      40.880  32.414  38.756  1.00  0.00    -0.237 OA
ATOM     70  O   UNL A   1      39.573  33.995  37.370  1.00  0.00    -0.237 OA
ATOM     71  O   UNL A   1      39.229  31.565  37.137  1.00  0.00    -0.744 OA
ENDBRANCH  64  68
ENDBRANCH  47  61
BRANCH  48  72
ATOM     72  C   UNL A   1      42.423  24.302  27.341  1.00  0.00     0.023 A 
ATOM     73  C   UNL A   1      41.629  23.147  27.423  1.00  0.00     0.031 A 
ATOM     74  C   UNL A   1      43.291  24.430  26.242  1.00  0.00     0.131 A 
ATOM     75  C   UNL A   1      41.753  22.142  26.450  1.00  0.00     0.055 A 
ATOM     76  C   UNL A   1      43.370  23.453  25.247  1.00  0.00     0.041 A 
ATOM     77  F   UNL A   1      44.068  25.516  26.112  1.00  0.00    -0.206 F 
ATOM     78  C   UNL A   1      42.607  22.294  25.355  1.00  0.00     0.022 A 
BRANCH  75  79
ATOM     79  S   UNL A   1      40.843  20.591  26.682  1.00  0.00     0.124 S 
ATOM     80  O   UNL A   1      41.635  19.660  25.886  1.00  0.00    -0.237 OA
ATOM     81  O   UNL A   1      40.910  20.415  28.130  1.00  0.00    -0.237 OA
ATOM     82  O   UNL A   1      39.516  20.893  26.153  1.00  0.00    -0.744 OA
ENDBRANCH  75  79
ENDBRANCH  48  72
BRANCH  60  83
ATOM     83  C   UNL A   1      46.730  25.989  32.562  1.00  0.00     0.023 A 
ATOM     84  C   UNL A   1      47.978  26.294  31.990  1.00  0.00     0.031 A 
ATOM     85  C   UNL A   1      46.697  25.063  33.621  1.00  0.00     0.131 A 
ATOM     86  C   UNL A   1      49.133  25.638  32.441  1.00  0.00     0.055 A 
ATOM     87  C   UNL A   1      47.857  24.461  34.107  1.00  0.00     0.041 A 
ATOM     88  F   UNL A   1      45.533  24.733  34.203  1.00  0.00    -0.206 F 
ATOM     89  C   UNL A   1      49.083  24.736  33.508  1.00  0.00     0.022 A 
BRANCH  86  90
ATOM     90  S   UNL A   1      50.691  25.907  31.552  1.00  0.00     0.124 S 
ATOM     91  O   UNL A   1      51.682  25.635  32.588  1.00  0.00    -0.237 OA
ATOM     92  O   UNL A   1      50.610  24.926  30.474  1.00  0.00    -0.237 OA
ATOM     93  O   UNL A   1      50.607  27.303  31.127  1.00  0.00    -0.744 OA
ENDBRANCH  86  90
ENDBRANCH  60  83
ENDBRANCH  34  35
ENDBRANCH  26  29
ENDBRANCH  24  25
ENDBRANCH  23  24
ENDBRANCH   1  23
TORSDOF 17
ENDMDL
