MODEL 1
REMARK VINA RESULT:     -12.8      0.000      0.000
REMARK SMILES Cn1nc(-c2cccs2)cc1C(=O)N1CC[C@@H](c2ccccc2C(=O)NCCCNC(=O)c2ccc(-c3c4nc(c(-c5cc(S(=O)(=O)[O-])ccc5F)c5ccc([nH]5)c(-c5cc(S(=O)(=O)[O-])ccc5F)c5nc(c(-c6cc(S(=O)(=O)[O-])ccc6F)c6ccc3[nH]6)C=C5)C=C4)cc2)C1
REMARK SMILES IDX 27 1 26 2 24 3 25 4 23 6 18 7 19 8 20 9 22 10 21 11 17 12
REMARK SMILES IDX 14 13 15 14 96 15 16 16 12 17 13 18 11 19 1 20 2 21 3 22
REMARK SMILES IDX 4 23 10 24 5 25 6 26 9 27 7 28 8 29 28 30 29 31 30 32 31 33
REMARK SMILES IDX 32 35 33 36 34 37 95 38 35 39 94 40 36 41 37 42 38 43 88 44
REMARK SMILES IDX 39 45 93 46 87 47 89 48 40 49 92 50 86 51 85 52 41 54 73 55
REMARK SMILES IDX 53 56 72 57 54 58 57 59 71 60 90 61 55 62 56 63 70 65 91 66
REMARK SMILES IDX 58 67 42 68 43 69 51 70 44 71 50 72 52 73 49 74 45 75 46 76
REMARK SMILES IDX 47 77 48 78 74 79 75 80 83 81 76 82 82 83 84 84 81 85 77 86
REMARK SMILES IDX 78 87 79 88 80 89 59 90 60 91 68 92 61 93 67 94 69 95 66 96
REMARK SMILES IDX 62 97 63 98 64 99 65 100
REMARK H PARENT 26 5 30 34 89 53 57 64
REMARK Flexibility Score: inf
ROOT
ATOM      1  C   UNL A   1      37.110  21.089  24.632  1.00  0.00     0.118 C 
ENDROOT
BRANCH   1   2
ATOM      2  N   UNL A   1      36.207  21.326  25.747  1.00  0.00    -0.352 N 
ATOM      3  C   UNL A   1      34.877  21.045  25.910  1.00  0.00     0.251 C 
ATOM      4  O   UNL A   1      34.338  21.292  26.987  1.00  0.00    -0.269 OA
ATOM      5  H   UNL A   1      36.627  21.766  26.522  1.00  0.00     0.163 HD
BRANCH   3   6
ATOM      6  C   UNL A   1      34.079  20.376  24.860  1.00  0.00     0.043 A 
ATOM      7  C   UNL A   1      32.999  20.975  24.182  1.00  0.00    -0.030 A 
ATOM      8  C   UNL A   1      32.225  20.157  23.332  1.00  0.00     0.005 A 
ATOM      9  C   UNL A   1      32.509  18.801  23.161  1.00  0.00     0.000 A 
ATOM     10  C   UNL A   1      34.351  19.007  24.691  1.00  0.00     0.014 A 
ATOM     11  C   UNL A   1      33.575  18.225  23.838  1.00  0.00     0.001 A 
BRANCH   7  12
ATOM     12  C   UNL A   1      32.653  22.440  24.311  1.00  0.00     0.041 C 
ATOM     13  N   UNL A   1      32.579  24.511  23.205  1.00  0.00    -0.337 N 
ATOM     14  C   UNL A   1      31.208  24.277  23.644  1.00  0.00     0.120 C 
ATOM     15  C   UNL A   1      33.351  23.292  23.248  1.00  0.00     0.128 C 
ATOM     16  C   UNL A   1      31.171  22.817  24.119  1.00  0.00     0.032 C 
BRANCH  13  17
ATOM     17  C   UNL A   1      33.112  25.643  22.619  1.00  0.00     0.272 C 
ATOM     18  O   UNL A   1      33.722  25.567  21.549  1.00  0.00    -0.267 OA
BRANCH  17  19
ATOM     19  C   UNL A   1      32.928  26.900  23.288  1.00  0.00     0.126 A 
ATOM     20  C   UNL A   1      30.728  27.649  22.267  1.00  0.00     0.174 C 
ATOM     21  N   UNL A   1      31.902  27.790  23.098  1.00  0.00    -0.262 N 
ATOM     22  N   UNL A   1      31.979  28.870  23.890  1.00  0.00    -0.172 NA
ATOM     23  C   UNL A   1      32.976  28.597  24.739  1.00  0.00     0.103 A 
ATOM     24  C   UNL A   1      33.616  27.388  24.387  1.00  0.00     0.065 A 
BRANCH  23  25
ATOM     25  C   UNL A   1      33.294  29.477  25.911  1.00  0.00     0.055 A 
ATOM     26  C   UNL A   1      32.554  30.576  26.304  1.00  0.00     0.022 A 
ATOM     27  S   UNL A   1      34.663  29.252  26.913  1.00  0.00    -0.142 S 
ATOM     28  C   UNL A   1      33.132  31.246  27.425  1.00  0.00     0.012 A 
ATOM     29  C   UNL A   1      34.288  30.630  27.852  1.00  0.00     0.065 A 
ENDBRANCH  23  25
ENDBRANCH  17  19
ENDBRANCH  13  17
ENDBRANCH   7  12
ENDBRANCH   3   6
ENDBRANCH   1   2
BRANCH   1  30
ATOM     30  C   UNL A   1      38.081  19.942  24.930  1.00  0.00     0.042 C 
BRANCH  30  31
ATOM     31  C   UNL A   1      39.099  20.246  26.034  1.00  0.00     0.118 C 
BRANCH  31  32
ATOM     32  N   UNL A   1      40.251  19.365  25.965  1.00  0.00    -0.352 N 
ATOM     33  C   UNL A   1      41.589  19.678  26.018  1.00  0.00     0.251 C 
ATOM     34  H   UNL A   1      40.045  18.407  25.866  1.00  0.00     0.163 HD
ATOM     35  O   UNL A   1      42.414  18.813  25.736  1.00  0.00    -0.269 OA
BRANCH  33  36
ATOM     36  C   UNL A   1      42.045  21.038  26.402  1.00  0.00     0.039 A 
ATOM     37  C   UNL A   1      42.230  21.991  25.393  1.00  0.00     0.014 A 
ATOM     38  C   UNL A   1      42.377  21.354  27.723  1.00  0.00     0.014 A 
ATOM     39  C   UNL A   1      42.720  23.265  25.708  1.00  0.00     0.010 A 
ATOM     40  C   UNL A   1      42.841  22.634  28.041  1.00  0.00     0.010 A 
ATOM     41  C   UNL A   1      43.028  23.597  27.035  1.00  0.00    -0.014 A 
BRANCH  41  42
ATOM     42  C   UNL A   1      43.604  24.921  27.383  1.00  0.00     0.031 A 
ATOM     43  C   UNL A   1      42.721  25.991  27.967  1.00  0.00     0.074 A 
ATOM     44  C   UNL A   1      44.900  25.188  27.133  1.00  0.00     0.049 A 
ATOM     45  N   UNL A   1      42.990  27.249  28.207  1.00  0.00    -0.248 NA
ATOM     46  C   UNL A   1      41.349  25.591  28.308  1.00  0.00     0.031 C 
ATOM     47  C   UNL A   1      45.866  24.246  26.567  1.00  0.00     0.029 A 
ATOM     48  N   UNL A   1      45.620  26.343  27.310  1.00  0.00    -0.354 N 
ATOM     49  C   UNL A   1      41.812  27.803  28.694  1.00  0.00     0.074 A 
ATOM     50  C   UNL A   1      40.827  26.741  28.712  1.00  0.00     0.031 C 
ATOM     51  C   UNL A   1      47.052  24.864  26.434  1.00  0.00     0.029 A 
ATOM     52  C   UNL A   1      46.922  26.249  26.879  1.00  0.00     0.049 A 
ATOM     53  H   UNL A   1      45.241  27.159  27.706  1.00  0.00     0.167 HD
ATOM     54  C   UNL A   1      41.568  29.078  29.087  1.00  0.00     0.034 A 
ATOM     55  C   UNL A   1      47.893  27.180  26.828  1.00  0.00     0.034 A 
ATOM     56  C   UNL A   1      42.553  30.130  29.099  1.00  0.00     0.049 A 
ATOM     57  C   UNL A   1      47.611  28.581  27.295  1.00  0.00     0.074 A 
ATOM     58  C   UNL A   1      42.410  31.446  29.508  1.00  0.00     0.029 A 
ATOM     59  N   UNL A   1      43.869  29.986  28.685  1.00  0.00    -0.354 N 
ATOM     60  N   UNL A   1      46.483  29.094  27.724  1.00  0.00    -0.248 NA
ATOM     61  C   UNL A   1      48.735  29.527  27.265  1.00  0.00     0.031 C 
ATOM     62  C   UNL A   1      43.634  32.103  29.317  1.00  0.00     0.029 A 
ATOM     63  C   UNL A   1      44.546  31.187  28.819  1.00  0.00     0.049 A 
ATOM     64  H   UNL A   1      44.264  29.150  28.345  1.00  0.00     0.167 HD
ATOM     65  C   UNL A   1      46.763  30.424  28.020  1.00  0.00     0.074 A 
ATOM     66  C   UNL A   1      48.166  30.635  27.721  1.00  0.00     0.031 C 
ATOM     67  C   UNL A   1      45.936  31.384  28.501  1.00  0.00     0.034 A 
BRANCH  54  68
ATOM     68  C   UNL A   1      40.156  29.406  29.485  1.00  0.00     0.023 A 
ATOM     69  C   UNL A   1      39.763  29.466  30.832  1.00  0.00     0.031 A 
ATOM     70  C   UNL A   1      39.180  29.615  28.495  1.00  0.00     0.131 A 
ATOM     71  C   UNL A   1      38.414  29.674  31.153  1.00  0.00     0.055 A 
ATOM     72  C   UNL A   1      37.848  29.875  28.822  1.00  0.00     0.041 A 
ATOM     73  F   UNL A   1      39.503  29.546  27.194  1.00  0.00    -0.206 F 
ATOM     74  C   UNL A   1      37.458  29.893  30.158  1.00  0.00     0.022 A 
BRANCH  71  75
ATOM     75  S   UNL A   1      37.904  29.546  32.889  1.00  0.00     0.124 S 
ATOM     76  O   UNL A   1      37.549  28.133  32.990  1.00  0.00    -0.237 OA
ATOM     77  O   UNL A   1      39.106  29.956  33.604  1.00  0.00    -0.237 OA
ATOM     78  O   UNL A   1      36.777  30.472  32.983  1.00  0.00    -0.744 OA
ENDBRANCH  71  75
ENDBRANCH  54  68
BRANCH  55  79
ATOM     79  C   UNL A   1      49.219  26.837  26.257  1.00  0.00     0.023 A 
ATOM     80  C   UNL A   1      49.595  27.280  24.981  1.00  0.00     0.031 A 
ATOM     81  C   UNL A   1      50.114  26.034  26.983  1.00  0.00     0.131 A 
ATOM     82  C   UNL A   1      50.838  26.897  24.455  1.00  0.00     0.055 A 
ATOM     83  C   UNL A   1      51.357  25.672  26.463  1.00  0.00     0.041 A 
ATOM     84  F   UNL A   1      49.789  25.596  28.210  1.00  0.00    -0.206 F 
ATOM     85  C   UNL A   1      51.722  26.100  25.189  1.00  0.00     0.022 A 
BRANCH  82  86
ATOM     86  S   UNL A   1      51.272  27.423  22.773  1.00  0.00     0.124 S 
ATOM     87  O   UNL A   1      50.278  26.718  21.972  1.00  0.00    -0.237 OA
ATOM     88  O   UNL A   1      51.115  28.872  22.855  1.00  0.00    -0.237 OA
ATOM     89  O   UNL A   1      52.647  26.955  22.613  1.00  0.00    -0.744 OA
ENDBRANCH  82  86
ENDBRANCH  55  79
BRANCH  67  90
ATOM     90  C   UNL A   1      46.544  32.733  28.752  1.00  0.00     0.023 A 
ATOM     91  C   UNL A   1      46.602  33.707  27.742  1.00  0.00     0.031 A 
ATOM     92  C   UNL A   1      47.085  33.037  30.013  1.00  0.00     0.131 A 
ATOM     93  C   UNL A   1      47.215  34.941  28.005  1.00  0.00     0.055 A 
ATOM     94  C   UNL A   1      47.677  34.273  30.273  1.00  0.00     0.041 A 
ATOM     95  F   UNL A   1      47.053  32.132  31.004  1.00  0.00    -0.206 F 
ATOM     96  C   UNL A   1      47.749  35.231  29.264  1.00  0.00     0.022 A 
BRANCH  93  97
ATOM     97  S   UNL A   1      47.343  36.158  26.664  1.00  0.00     0.124 S 
ATOM     98  O   UNL A   1      46.001  36.728  26.637  1.00  0.00    -0.237 OA
ATOM     99  O   UNL A   1      48.403  37.041  27.141  1.00  0.00    -0.237 OA
ATOM    100  O   UNL A   1      47.694  35.348  25.498  1.00  0.00    -0.744 OA
ENDBRANCH  93  97
ENDBRANCH  67  90
ENDBRANCH  41  42
ENDBRANCH  33  36
ENDBRANCH  31  32
ENDBRANCH  30  31
ENDBRANCH   1  30
TORSDOF 17
ENDMDL
MODEL 2
REMARK VINA RESULT:     -12.6      1.746      2.273
REMARK SMILES Cn1nc(-c2cccs2)cc1C(=O)N1CC[C@@H](c2ccccc2C(=O)NCCCNC(=O)c2ccc(-c3c4nc(c(-c5cc(S(=O)(=O)[O-])ccc5F)c5ccc([nH]5)c(-c5cc(S(=O)(=O)[O-])ccc5F)c5nc(c(-c6cc(S(=O)(=O)[O-])ccc6F)c6ccc3[nH]6)C=C5)C=C4)cc2)C1
REMARK SMILES IDX 27 1 26 2 24 3 25 4 23 6 18 7 19 8 20 9 22 10 21 11 17 12
REMARK SMILES IDX 14 13 15 14 96 15 16 16 12 17 13 18 11 19 1 20 2 21 3 22
REMARK SMILES IDX 4 23 10 24 5 25 6 26 9 27 7 28 8 29 28 30 29 31 30 32 31 33
REMARK SMILES IDX 32 35 33 36 34 37 95 38 35 39 94 40 36 41 37 42 38 43 88 44
REMARK SMILES IDX 39 45 93 46 87 47 89 48 40 49 92 50 86 51 85 52 41 54 73 55
REMARK SMILES IDX 53 56 72 57 54 58 57 59 71 60 90 61 55 62 56 63 70 65 91 66
REMARK SMILES IDX 58 67 42 68 43 69 51 70 44 71 50 72 52 73 49 74 45 75 46 76
REMARK SMILES IDX 47 77 48 78 74 79 75 80 83 81 76 82 82 83 84 84 81 85 77 86
REMARK SMILES IDX 78 87 79 88 80 89 59 90 60 91 68 92 61 93 67 94 69 95 66 96
REMARK SMILES IDX 62 97 63 98 64 99 65 100
REMARK H PARENT 26 5 30 34 89 53 57 64
REMARK Flexibility Score: inf
ROOT
ATOM      1  C   UNL A   1      37.120  20.814  24.604  1.00  0.00     0.118 C 
ENDROOT
BRANCH   1   2
ATOM      2  N   UNL A   1      36.257  21.171  25.719  1.00  0.00    -0.352 N 
ATOM      3  C   UNL A   1      34.902  21.068  25.883  1.00  0.00     0.251 C 
ATOM      4  O   UNL A   1      34.400  21.387  26.959  1.00  0.00    -0.269 OA
ATOM      5  H   UNL A   1      36.731  21.554  26.492  1.00  0.00     0.163 HD
BRANCH   3   6
ATOM      6  C   UNL A   1      34.021  20.508  24.835  1.00  0.00     0.043 A 
ATOM      7  C   UNL A   1      32.994  21.228  24.194  1.00  0.00    -0.030 A 
ATOM      8  C   UNL A   1      32.127  20.512  23.341  1.00  0.00     0.005 A 
ATOM      9  C   UNL A   1      32.271  19.139  23.133  1.00  0.00     0.000 A 
ATOM     10  C   UNL A   1      34.153  19.123  24.628  1.00  0.00     0.014 A 
ATOM     11  C   UNL A   1      33.287  18.444  23.774  1.00  0.00     0.001 A 
BRANCH   7  12
ATOM     12  C   UNL A   1      32.797  22.716  24.363  1.00  0.00     0.041 C 
ATOM     13  N   UNL A   1      32.106  24.703  23.319  1.00  0.00    -0.337 N 
ATOM     14  C   UNL A   1      31.246  24.583  24.492  1.00  0.00     0.120 C 
ATOM     15  C   UNL A   1      32.749  23.447  23.019  1.00  0.00     0.128 C 
ATOM     16  C   UNL A   1      31.484  23.166  25.032  1.00  0.00     0.032 C 
BRANCH  13  17
ATOM     17  C   UNL A   1      32.204  25.758  22.431  1.00  0.00     0.272 C 
ATOM     18  O   UNL A   1      32.696  25.590  21.312  1.00  0.00    -0.267 OA
BRANCH  17  19
ATOM     19  C   UNL A   1      31.716  27.041  22.850  1.00  0.00     0.126 A 
ATOM     20  C   UNL A   1      33.836  28.050  23.813  1.00  0.00     0.174 C 
ATOM     21  N   UNL A   1      32.428  28.023  23.490  1.00  0.00    -0.262 N 
ATOM     22  N   UNL A   1      31.712  29.131  23.730  1.00  0.00    -0.172 NA
ATOM     23  C   UNL A   1      30.561  28.939  23.077  1.00  0.00     0.103 A 
ATOM     24  C   UNL A   1      30.507  27.637  22.532  1.00  0.00     0.065 A 
BRANCH  23  25
ATOM     25  C   UNL A   1      29.526  30.016  22.943  1.00  0.00     0.055 A 
ATOM     26  C   UNL A   1      29.310  31.029  23.857  1.00  0.00     0.022 A 
ATOM     27  S   UNL A   1      28.431  30.111  21.631  1.00  0.00    -0.142 S 
ATOM     28  C   UNL A   1      28.222  31.875  23.482  1.00  0.00     0.012 A 
ATOM     29  C   UNL A   1      27.652  31.482  22.291  1.00  0.00     0.065 A 
ENDBRANCH  23  25
ENDBRANCH  17  19
ENDBRANCH  13  17
ENDBRANCH   7  12
ENDBRANCH   3   6
ENDBRANCH   1   2
BRANCH   1  30
ATOM     30  C   UNL A   1      38.141  19.745  25.005  1.00  0.00     0.042 C 
BRANCH  30  31
ATOM     31  C   UNL A   1      39.191  20.220  26.014  1.00  0.00     0.118 C 
BRANCH  31  32
ATOM     32  N   UNL A   1      40.354  19.351  26.034  1.00  0.00    -0.352 N 
ATOM     33  C   UNL A   1      41.685  19.684  26.127  1.00  0.00     0.251 C 
ATOM     34  H   UNL A   1      40.163  18.388  25.973  1.00  0.00     0.163 HD
ATOM     35  O   UNL A   1      42.531  18.817  25.920  1.00  0.00    -0.269 OA
BRANCH  33  36
ATOM     36  C   UNL A   1      42.111  21.066  26.463  1.00  0.00     0.039 A 
ATOM     37  C   UNL A   1      42.232  22.000  25.428  1.00  0.00     0.014 A 
ATOM     38  C   UNL A   1      42.476  21.424  27.765  1.00  0.00     0.014 A 
ATOM     39  C   UNL A   1      42.691  23.296  25.697  1.00  0.00     0.010 A 
ATOM     40  C   UNL A   1      42.911  22.724  28.038  1.00  0.00     0.010 A 
ATOM     41  C   UNL A   1      43.033  23.668  27.005  1.00  0.00    -0.014 A 
BRANCH  41  42
ATOM     42  C   UNL A   1      43.578  25.018  27.302  1.00  0.00     0.031 A 
ATOM     43  C   UNL A   1      42.690  26.063  27.923  1.00  0.00     0.074 A 
ATOM     44  C   UNL A   1      44.846  25.328  26.975  1.00  0.00     0.049 A 
ATOM     45  N   UNL A   1      42.925  27.334  28.131  1.00  0.00    -0.248 NA
ATOM     46  C   UNL A   1      41.355  25.618  28.346  1.00  0.00     0.031 C 
ATOM     47  C   UNL A   1      45.813  24.414  26.367  1.00  0.00     0.029 A 
ATOM     48  N   UNL A   1      45.532  26.511  27.095  1.00  0.00    -0.354 N 
ATOM     49  C   UNL A   1      41.757  27.851  28.678  1.00  0.00     0.074 A 
ATOM     50  C   UNL A   1      40.815  26.754  28.766  1.00  0.00     0.031 C 
ATOM     51  C   UNL A   1      46.966  25.072  26.157  1.00  0.00     0.029 A 
ATOM     52  C   UNL A   1      46.811  26.458  26.592  1.00  0.00     0.049 A 
ATOM     53  H   UNL A   1      45.146  27.318  27.503  1.00  0.00     0.167 HD
ATOM     54  C   UNL A   1      41.489  29.122  29.068  1.00  0.00     0.034 A 
ATOM     55  C   UNL A   1      47.742  27.423  26.474  1.00  0.00     0.034 A 
ATOM     56  C   UNL A   1      42.433  30.209  29.010  1.00  0.00     0.049 A 
ATOM     57  C   UNL A   1      47.434  28.819  26.939  1.00  0.00     0.074 A 
ATOM     58  C   UNL A   1      42.265  31.525  29.411  1.00  0.00     0.029 A 
ATOM     59  N   UNL A   1      43.728  30.107  28.523  1.00  0.00    -0.354 N 
ATOM     60  N   UNL A   1      46.314  29.298  27.426  1.00  0.00    -0.248 NA
ATOM     61  C   UNL A   1      48.519  29.806  26.833  1.00  0.00     0.031 C 
ATOM     62  C   UNL A   1      43.451  32.223  29.142  1.00  0.00     0.029 A 
ATOM     63  C   UNL A   1      44.366  31.334  28.604  1.00  0.00     0.049 A 
ATOM     64  H   UNL A   1      44.133  29.282  28.171  1.00  0.00     0.167 HD
ATOM     65  C   UNL A   1      46.561  30.641  27.688  1.00  0.00     0.074 A 
ATOM     66  C   UNL A   1      47.936  30.899  27.306  1.00  0.00     0.031 C 
ATOM     67  C   UNL A   1      45.727  31.577  28.204  1.00  0.00     0.034 A 
BRANCH  54  68
ATOM     68  C   UNL A   1      40.090  29.404  29.542  1.00  0.00     0.023 A 
ATOM     69  C   UNL A   1      39.773  29.470  30.908  1.00  0.00     0.031 A 
ATOM     70  C   UNL A   1      39.052  29.562  28.607  1.00  0.00     0.131 A 
ATOM     71  C   UNL A   1      38.438  29.633  31.304  1.00  0.00     0.055 A 
ATOM     72  C   UNL A   1      37.733  29.778  29.007  1.00  0.00     0.041 A 
ATOM     73  F   UNL A   1      39.303  29.485  27.291  1.00  0.00    -0.206 F 
ATOM     74  C   UNL A   1      37.418  29.802  30.362  1.00  0.00     0.022 A 
BRANCH  71  75
ATOM     75  S   UNL A   1      38.032  29.513  33.068  1.00  0.00     0.124 S 
ATOM     76  O   UNL A   1      37.151  30.664  33.248  1.00  0.00    -0.237 OA
ATOM     77  O   UNL A   1      37.400  28.203  33.159  1.00  0.00    -0.237 OA
ATOM     78  O   UNL A   1      39.333  29.625  33.726  1.00  0.00    -0.744 OA
ENDBRANCH  71  75
ENDBRANCH  54  68
BRANCH  55  79
ATOM     79  C   UNL A   1      49.044  27.120  25.832  1.00  0.00     0.023 A 
ATOM     80  C   UNL A   1      49.283  27.443  24.489  1.00  0.00     0.031 A 
ATOM     81  C   UNL A   1      50.058  26.477  26.562  1.00  0.00     0.131 A 
ATOM     82  C   UNL A   1      50.511  27.099  23.903  1.00  0.00     0.055 A 
ATOM     83  C   UNL A   1      51.284  26.155  25.980  1.00  0.00     0.041 A 
ATOM     84  F   UNL A   1      49.867  26.158  27.851  1.00  0.00    -0.206 F 
ATOM     85  C   UNL A   1      51.514  26.462  24.640  1.00  0.00     0.022 A 
BRANCH  82  86
ATOM     86  S   UNL A   1      50.768  27.462  22.143  1.00  0.00     0.124 S 
ATOM     87  O   UNL A   1      52.221  27.394  22.032  1.00  0.00    -0.237 OA
ATOM     88  O   UNL A   1      50.027  26.385  21.496  1.00  0.00    -0.237 OA
ATOM     89  O   UNL A   1      50.194  28.796  21.982  1.00  0.00    -0.744 OA
ENDBRANCH  82  86
ENDBRANCH  55  79
BRANCH  67  90
ATOM     90  C   UNL A   1      46.298  32.951  28.403  1.00  0.00     0.023 A 
ATOM     91  C   UNL A   1      46.902  33.321  29.615  1.00  0.00     0.031 A 
ATOM     92  C   UNL A   1      46.220  33.902  27.371  1.00  0.00     0.131 A 
ATOM     93  C   UNL A   1      47.387  34.628  29.777  1.00  0.00     0.055 A 
ATOM     94  C   UNL A   1      46.721  35.194  27.532  1.00  0.00     0.041 A 
ATOM     95  F   UNL A   1      45.647  33.589  26.198  1.00  0.00    -0.206 F 
ATOM     96  C   UNL A   1      47.304  35.564  28.742  1.00  0.00     0.022 A 
BRANCH  93  97
ATOM     97  S   UNL A   1      48.098  35.106  31.377  1.00  0.00     0.124 S 
ATOM     98  O   UNL A   1      49.426  34.505  31.315  1.00  0.00    -0.237 OA
ATOM     99  O   UNL A   1      48.053  36.563  31.317  1.00  0.00    -0.237 OA
ATOM    100  O   UNL A   1      47.191  34.500  32.350  1.00  0.00    -0.744 OA
ENDBRANCH  93  97
ENDBRANCH  67  90
ENDBRANCH  41  42
ENDBRANCH  33  36
ENDBRANCH  31  32
ENDBRANCH  30  31
ENDBRANCH   1  30
TORSDOF 17
ENDMDL
MODEL 3
REMARK VINA RESULT:     -12.0      1.755      7.578
REMARK SMILES Cn1nc(-c2cccs2)cc1C(=O)N1CC[C@@H](c2ccccc2C(=O)NCCCNC(=O)c2ccc(-c3c4nc(c(-c5cc(S(=O)(=O)[O-])ccc5F)c5ccc([nH]5)c(-c5cc(S(=O)(=O)[O-])ccc5F)c5nc(c(-c6cc(S(=O)(=O)[O-])ccc6F)c6ccc3[nH]6)C=C5)C=C4)cc2)C1
REMARK SMILES IDX 27 1 26 2 24 3 25 4 23 6 18 7 19 8 20 9 22 10 21 11 17 12
REMARK SMILES IDX 14 13 15 14 96 15 16 16 12 17 13 18 11 19 1 20 2 21 3 22
REMARK SMILES IDX 4 23 10 24 5 25 6 26 9 27 7 28 8 29 28 30 29 31 30 32 31 33
REMARK SMILES IDX 32 35 33 36 34 37 95 38 35 39 94 40 36 41 37 42 38 43 88 44
REMARK SMILES IDX 39 45 93 46 87 47 89 48 40 49 92 50 86 51 85 52 41 54 73 55
REMARK SMILES IDX 53 56 72 57 54 58 57 59 71 60 90 61 55 62 56 63 70 65 91 66
REMARK SMILES IDX 58 67 42 68 43 69 51 70 44 71 50 72 52 73 49 74 45 75 46 76
REMARK SMILES IDX 47 77 48 78 74 79 75 80 83 81 76 82 82 83 84 84 81 85 77 86
REMARK SMILES IDX 78 87 79 88 80 89 59 90 60 91 68 92 61 93 67 94 69 95 66 96
REMARK SMILES IDX 62 97 63 98 64 99 65 100
REMARK H PARENT 26 5 30 34 89 53 57 64
REMARK Flexibility Score: inf
ROOT
ATOM      1  C   UNL A   1      37.076  20.539  24.582  1.00  0.00     0.118 C 
ENDROOT
BRANCH   1   2
ATOM      2  N   UNL A   1      36.204  20.879  25.695  1.00  0.00    -0.352 N 
ATOM      3  C   UNL A   1      34.840  20.887  25.806  1.00  0.00     0.251 C 
ATOM      4  O   UNL A   1      34.326  21.159  26.889  1.00  0.00    -0.269 OA
ATOM      5  H   UNL A   1      36.679  21.150  26.514  1.00  0.00     0.163 HD
BRANCH   3   6
ATOM      6  C   UNL A   1      33.955  20.500  24.685  1.00  0.00     0.043 A 
ATOM      7  C   UNL A   1      33.219  21.412  23.904  1.00  0.00    -0.030 A 
ATOM      8  C   UNL A   1      32.287  20.884  22.985  1.00  0.00     0.005 A 
ATOM      9  C   UNL A   1      32.094  19.509  22.846  1.00  0.00     0.000 A 
ATOM     10  C   UNL A   1      33.746  19.116  24.547  1.00  0.00     0.014 A 
ATOM     11  C   UNL A   1      32.826  18.623  23.624  1.00  0.00     0.001 A 
BRANCH   7  12
ATOM     12  C   UNL A   1      33.396  22.910  23.995  1.00  0.00     0.041 C 
ATOM     13  N   UNL A   1      32.746  24.988  23.113  1.00  0.00    -0.337 N 
ATOM     14  C   UNL A   1      32.414  25.067  24.532  1.00  0.00     0.120 C 
ATOM     15  C   UNL A   1      32.963  23.619  22.710  1.00  0.00     0.128 C 
ATOM     16  C   UNL A   1      32.568  23.638  25.071  1.00  0.00     0.032 C 
BRANCH  13  17
ATOM     17  C   UNL A   1      32.688  25.987  22.161  1.00  0.00     0.272 C 
ATOM     18  O   UNL A   1      33.128  25.794  21.024  1.00  0.00    -0.267 OA
BRANCH  17  19
ATOM     19  C   UNL A   1      32.098  27.242  22.533  1.00  0.00     0.126 A 
ATOM     20  C   UNL A   1      34.183  28.643  22.889  1.00  0.00     0.174 C 
ATOM     21  N   UNL A   1      32.761  28.388  22.889  1.00  0.00    -0.262 N 
ATOM     22  N   UNL A   1      31.943  29.416  23.158  1.00  0.00    -0.172 NA
ATOM     23  C   UNL A   1      30.729  28.985  22.799  1.00  0.00     0.103 A 
ATOM     24  C   UNL A   1      30.771  27.624  22.425  1.00  0.00     0.065 A 
BRANCH  23  25
ATOM     25  C   UNL A   1      29.532  29.889  22.778  1.00  0.00     0.055 A 
ATOM     26  C   UNL A   1      28.451  29.758  21.928  1.00  0.00     0.022 A 
ATOM     27  S   UNL A   1      29.364  31.251  23.801  1.00  0.00    -0.142 S 
ATOM     28  C   UNL A   1      27.490  30.798  22.109  1.00  0.00     0.012 A 
ATOM     29  C   UNL A   1      27.867  31.682  23.096  1.00  0.00     0.065 A 
ENDBRANCH  23  25
ENDBRANCH  17  19
ENDBRANCH  13  17
ENDBRANCH   7  12
ENDBRANCH   3   6
ENDBRANCH   1   2
BRANCH   1  30
ATOM     30  C   UNL A   1      38.196  19.589  25.017  1.00  0.00     0.042 C 
BRANCH  30  31
ATOM     31  C   UNL A   1      39.139  20.167  26.076  1.00  0.00     0.118 C 
BRANCH  31  32
ATOM     32  N   UNL A   1      40.388  19.429  26.149  1.00  0.00    -0.352 N 
ATOM     33  C   UNL A   1      41.673  19.905  26.271  1.00  0.00     0.251 C 
ATOM     34  H   UNL A   1      40.303  18.450  26.104  1.00  0.00     0.163 HD
ATOM     35  O   UNL A   1      42.612  19.131  26.108  1.00  0.00    -0.269 OA
BRANCH  33  36
ATOM     36  C   UNL A   1      41.937  21.332  26.587  1.00  0.00     0.039 A 
ATOM     37  C   UNL A   1      41.886  22.269  25.549  1.00  0.00     0.014 A 
ATOM     38  C   UNL A   1      42.320  21.740  27.870  1.00  0.00     0.014 A 
ATOM     39  C   UNL A   1      42.192  23.613  25.796  1.00  0.00     0.010 A 
ATOM     40  C   UNL A   1      42.599  23.086  28.122  1.00  0.00     0.010 A 
ATOM     41  C   UNL A   1      42.549  24.032  27.085  1.00  0.00    -0.014 A 
BRANCH  41  42
ATOM     42  C   UNL A   1      42.933  25.441  27.357  1.00  0.00     0.031 A 
ATOM     43  C   UNL A   1      44.280  25.949  26.915  1.00  0.00     0.074 A 
ATOM     44  C   UNL A   1      42.105  26.255  28.039  1.00  0.00     0.049 A 
ATOM     45  N   UNL A   1      44.862  27.092  27.175  1.00  0.00    -0.248 NA
ATOM     46  C   UNL A   1      45.081  25.037  26.086  1.00  0.00     0.031 C 
ATOM     47  C   UNL A   1      40.774  25.893  28.528  1.00  0.00     0.029 A 
ATOM     48  N   UNL A   1      42.273  27.552  28.453  1.00  0.00    -0.354 N 
ATOM     49  C   UNL A   1      46.113  27.026  26.572  1.00  0.00     0.074 A 
ATOM     50  C   UNL A   1      46.203  25.727  25.936  1.00  0.00     0.031 C 
ATOM     51  C   UNL A   1      40.250  26.941  29.186  1.00  0.00     0.029 A 
ATOM     52  C   UNL A   1      41.216  28.037  29.185  1.00  0.00     0.049 A 
ATOM     53  H   UNL A   1      43.074  28.084  28.244  1.00  0.00     0.167 HD
ATOM     54  C   UNL A   1      47.099  27.957  26.552  1.00  0.00     0.034 A 
ATOM     55  C   UNL A   1      41.055  29.221  29.806  1.00  0.00     0.034 A 
ATOM     56  C   UNL A   1      47.002  29.261  27.158  1.00  0.00     0.049 A 
ATOM     57  C   UNL A   1      42.148  30.251  29.747  1.00  0.00     0.074 A 
ATOM     58  C   UNL A   1      47.935  30.285  27.165  1.00  0.00     0.029 A 
ATOM     59  N   UNL A   1      45.902  29.725  27.864  1.00  0.00    -0.354 N 
ATOM     60  N   UNL A   1      43.337  30.160  29.199  1.00  0.00    -0.248 NA
ATOM     61  C   UNL A   1      41.878  31.541  30.397  1.00  0.00     0.031 C 
ATOM     62  C   UNL A   1      47.408  31.358  27.897  1.00  0.00     0.029 A 
ATOM     63  C   UNL A   1      46.134  31.013  28.318  1.00  0.00     0.049 A 
ATOM     64  H   UNL A   1      45.075  29.212  28.019  1.00  0.00     0.167 HD
ATOM     65  C   UNL A   1      43.954  31.384  29.434  1.00  0.00     0.074 A 
ATOM     66  C   UNL A   1      43.009  32.197  30.174  1.00  0.00     0.031 C 
ATOM     67  C   UNL A   1      45.190  31.800  29.067  1.00  0.00     0.034 A 
BRANCH  54  68
ATOM     68  C   UNL A   1      48.390  27.561  25.892  1.00  0.00     0.023 A 
ATOM     69  C   UNL A   1      48.595  27.727  24.513  1.00  0.00     0.031 A 
ATOM     70  C   UNL A   1      49.412  26.966  26.652  1.00  0.00     0.131 A 
ATOM     71  C   UNL A   1      49.775  27.250  23.923  1.00  0.00     0.055 A 
ATOM     72  C   UNL A   1      50.607  26.542  26.068  1.00  0.00     0.041 A 
ATOM     73  F   UNL A   1      49.254  26.767  27.970  1.00  0.00    -0.206 F 
ATOM     74  C   UNL A   1      50.787  26.672  24.694  1.00  0.00     0.022 A 
BRANCH  71  75
ATOM     75  S   UNL A   1      49.925  27.296  22.116  1.00  0.00     0.124 S 
ATOM     76  O   UNL A   1      48.927  26.309  21.711  1.00  0.00    -0.237 OA
ATOM     77  O   UNL A   1      49.612  28.685  21.808  1.00  0.00    -0.237 OA
ATOM     78  O   UNL A   1      51.312  26.902  21.879  1.00  0.00    -0.744 OA
ENDBRANCH  71  75
ENDBRANCH  54  68
BRANCH  55  79
ATOM     79  C   UNL A   1      39.825  29.482  30.593  1.00  0.00     0.023 A 
ATOM     80  C   UNL A   1      38.761  30.216  30.052  1.00  0.00     0.031 A 
ATOM     81  C   UNL A   1      39.719  29.014  31.913  1.00  0.00     0.131 A 
ATOM     82  C   UNL A   1      37.632  30.483  30.842  1.00  0.00     0.055 A 
ATOM     83  C   UNL A   1      38.586  29.265  32.688  1.00  0.00     0.041 A 
ATOM     84  F   UNL A   1      40.716  28.303  32.463  1.00  0.00    -0.206 F 
ATOM     85  C   UNL A   1      37.537  30.009  32.154  1.00  0.00     0.022 A 
BRANCH  82  86
ATOM     86  S   UNL A   1      36.299  31.497  30.143  1.00  0.00     0.124 S 
ATOM     87  O   UNL A   1      35.398  31.635  31.282  1.00  0.00    -0.237 OA
ATOM     88  O   UNL A   1      37.011  32.706  29.741  1.00  0.00    -0.237 OA
ATOM     89  O   UNL A   1      35.790  30.681  29.042  1.00  0.00    -0.744 OA
ENDBRANCH  82  86
ENDBRANCH  55  79
BRANCH  67  90
ATOM     90  C   UNL A   1      45.567  33.204  29.443  1.00  0.00     0.023 A 
ATOM     91  C   UNL A   1      45.251  34.291  28.612  1.00  0.00     0.031 A 
ATOM     92  C   UNL A   1      46.264  33.450  30.638  1.00  0.00     0.131 A 
ATOM     93  C   UNL A   1      45.657  35.584  28.978  1.00  0.00     0.055 A 
ATOM     94  C   UNL A   1      46.649  34.739  31.005  1.00  0.00     0.041 A 
ATOM     95  F   UNL A   1      46.589  32.437  31.457  1.00  0.00    -0.206 F 
ATOM     96  C   UNL A   1      46.349  35.814  30.171  1.00  0.00     0.022 A 
BRANCH  93  97
ATOM     97  S   UNL A   1      45.301  36.964  27.854  1.00  0.00     0.124 S 
ATOM     98  O   UNL A   1      46.247  37.979  28.305  1.00  0.00    -0.237 OA
ATOM     99  O   UNL A   1      45.569  36.378  26.544  1.00  0.00    -0.237 OA
ATOM    100  O   UNL A   1      43.896  37.268  28.118  1.00  0.00    -0.744 OA
ENDBRANCH  93  97
ENDBRANCH  67  90
ENDBRANCH  41  42
ENDBRANCH  33  36
ENDBRANCH  31  32
ENDBRANCH  30  31
ENDBRANCH   1  30
TORSDOF 17
ENDMDL
