MODEL 1
REMARK VINA RESULT:     -13.6      0.000      0.000
REMARK SMILES Cc1c(Cl)cccc1NC(=O)C[C@](C)(C(=O)NCCCNC(=O)c1ccc(-c2c3nc(c(-c4cc(S(=O)(=O)[O-])ccc4F)c4ccc([nH]4)c(-c4cc(S(=O)(=O)[O-])ccc4F)c4nc(c(-c5cc(S(=O)(=O)[O-])ccc5F)c5ccc2[nH]5)C=C4)C=C3)cc1)c1ccccc1
REMARK SMILES IDX 19 1 18 2 17 3 15 4 16 5 13 7 14 8 12 9 10 10 9 11 11 13
REMARK SMILES IDX 8 14 1 15 2 16 3 17 4 18 5 19 7 20 6 21 87 22 88 23 92 24
REMARK SMILES IDX 89 25 91 26 90 27 20 28 21 29 22 30 23 32 24 33 25 34 86 35
REMARK SMILES IDX 26 36 85 37 27 38 28 39 29 40 79 41 30 42 84 43 78 44 80 45
REMARK SMILES IDX 31 46 83 47 77 48 76 49 32 51 64 52 44 53 63 54 45 55 48 56
REMARK SMILES IDX 62 57 81 58 46 59 47 60 61 62 82 63 49 64 33 65 34 66 42 67
REMARK SMILES IDX 35 68 41 69 43 70 40 71 36 72 37 73 38 74 39 75 65 76 66 77
REMARK SMILES IDX 74 78 67 79 73 80 75 81 72 82 68 83 69 84 70 85 71 86 50 87
REMARK SMILES IDX 51 88 59 89 52 90 58 91 60 92 57 93 53 94 54 95 55 96 56 97
REMARK H PARENT 17 6 9 12 21 31 80 50 48 61
REMARK Flexibility Score: inf
ROOT
ATOM      1  C   UNL A   1      31.347  31.966  26.520  1.00  0.00     0.042 C 
ENDROOT
BRANCH   1   2
ATOM      2  C   UNL A   1      31.563  30.402  25.876  1.00  0.00     0.117 C 
BRANCH   2   3
ATOM      3  N   UNL A   1      32.774  29.635  24.353  1.00  0.00    -0.355 N 
ATOM      4  C   UNL A   1      33.160  28.632  23.400  1.00  0.00     0.230 C 
ATOM      5  O   UNL A   1      34.092  29.071  22.700  1.00  0.00    -0.274 OA
ATOM      6  H   UNL A   1      33.440  30.347  24.214  1.00  0.00     0.163 HD
BRANCH   4   7
ATOM      7  C   UNL A   1      32.656  27.101  23.185  1.00  0.00     0.080 C 
ATOM      8  C   UNL A   1      31.287  27.194  22.409  1.00  0.00     0.027 C 
BRANCH   7   9
ATOM      9  C   UNL A   1      33.669  26.100  22.520  1.00  0.00     0.121 C 
BRANCH   9  10
ATOM     10  C   UNL A   1      33.186  25.152  21.438  1.00  0.00     0.225 C 
ATOM     11  N   UNL A   1      33.166  23.807  21.648  1.00  0.00    -0.326 N 
ATOM     12  H   UNL A   1      33.150  23.212  20.863  1.00  0.00     0.169 HD
ATOM     13  O   UNL A   1      32.842  25.573  20.331  1.00  0.00    -0.275 OA
BRANCH  11  14
ATOM     14  C   UNL A   1      33.166  23.228  22.911  1.00  0.00     0.045 A 
ATOM     15  C   UNL A   1      36.029  23.278  23.135  1.00  0.00     0.048 C 
ATOM     16  C   UNL A   1      34.755  22.536  23.436  1.00  0.00    -0.009 A 
ATOM     17  C   UNL A   1      34.802  21.256  24.713  1.00  0.00     0.046 A 
ATOM     18  Cl  UNL A   1      36.298  20.700  25.349  1.00  0.00    -0.084 Cl
ATOM     19  C   UNL A   1      33.275  20.625  25.419  1.00  0.00     0.021 A 
ATOM     20  C   UNL A   1      31.614  22.677  23.719  1.00  0.00     0.026 A 
ATOM     21  C   UNL A   1      31.677  21.318  24.924  1.00  0.00     0.004 A 
ENDBRANCH  11  14
ENDBRANCH   9  10
ENDBRANCH   7   9
BRANCH   7  22
ATOM     22  C   UNL A   1      32.202  26.323  24.492  1.00  0.00    -0.032 A 
ATOM     23  C   UNL A   1      33.215  25.719  25.296  1.00  0.00     0.005 A 
ATOM     24  C   UNL A   1      30.886  26.172  24.930  1.00  0.00     0.005 A 
ATOM     25  C   UNL A   1      32.923  24.903  26.385  1.00  0.00     0.000 A 
ATOM     26  C   UNL A   1      30.591  25.360  26.037  1.00  0.00     0.000 A 
ATOM     27  C   UNL A   1      31.602  24.708  26.745  1.00  0.00     0.000 A 
ENDBRANCH   7  22
ENDBRANCH   4   7
ENDBRANCH   2   3
ENDBRANCH   1   2
BRANCH   1  28
ATOM     28  C   UNL A   1      32.669  32.524  27.013  1.00  0.00     0.118 C 
BRANCH  28  29
ATOM     29  N   UNL A   1      32.596  33.873  27.560  1.00  0.00    -0.352 N 
ATOM     30  C   UNL A   1      33.561  34.466  28.341  1.00  0.00     0.251 C 
ATOM     31  H   UNL A   1      31.791  34.402  27.355  1.00  0.00     0.163 HD
ATOM     32  O   UNL A   1      33.485  35.630  28.701  1.00  0.00    -0.269 OA
BRANCH  30  33
ATOM     33  C   UNL A   1      34.613  33.556  28.814  1.00  0.00     0.039 A 
ATOM     34  C   UNL A   1      35.909  34.070  28.822  1.00  0.00     0.014 A 
ATOM     35  C   UNL A   1      34.257  32.437  29.570  1.00  0.00     0.014 A 
ATOM     36  C   UNL A   1      36.860  33.470  29.632  1.00  0.00     0.010 A 
ATOM     37  C   UNL A   1      35.179  31.923  30.471  1.00  0.00     0.010 A 
ATOM     38  C   UNL A   1      36.494  32.415  30.484  1.00  0.00    -0.014 A 
BRANCH  38  39
ATOM     39  C   UNL A   1      37.532  31.756  31.307  1.00  0.00     0.031 A 
ATOM     40  C   UNL A   1      38.381  30.698  30.664  1.00  0.00     0.074 A 
ATOM     41  C   UNL A   1      37.737  32.148  32.579  1.00  0.00     0.049 A 
ATOM     42  N   UNL A   1      39.402  30.049  31.155  1.00  0.00    -0.248 NA
ATOM     43  C   UNL A   1      38.022  30.298  29.291  1.00  0.00     0.031 C 
ATOM     44  C   UNL A   1      36.940  33.148  33.298  1.00  0.00     0.029 A 
ATOM     45  N   UNL A   1      38.694  31.778  33.489  1.00  0.00    -0.354 N 
ATOM     46  C   UNL A   1      39.797  29.169  30.155  1.00  0.00     0.074 A 
ATOM     47  C   UNL A   1      38.857  29.298  29.069  1.00  0.00     0.031 C 
ATOM     48  C   UNL A   1      37.477  33.351  34.512  1.00  0.00     0.029 A 
ATOM     49  C   UNL A   1      38.625  32.465  34.680  1.00  0.00     0.049 A 
ATOM     50  H   UNL A   1      39.370  31.086  33.306  1.00  0.00     0.167 HD
ATOM     51  C   UNL A   1      40.877  28.354  30.130  1.00  0.00     0.034 A 
ATOM     52  C   UNL A   1      39.404  32.384  35.777  1.00  0.00     0.034 A 
ATOM     53  C   UNL A   1      41.804  28.255  31.224  1.00  0.00     0.049 A 
ATOM     54  C   UNL A   1      40.578  31.433  35.741  1.00  0.00     0.074 A 
ATOM     55  C   UNL A   1      42.953  27.493  31.309  1.00  0.00     0.029 A 
ATOM     56  N   UNL A   1      41.679  28.933  32.431  1.00  0.00    -0.354 N 
ATOM     57  N   UNL A   1      40.974  30.647  34.765  1.00  0.00    -0.248 NA
ATOM     58  C   UNL A   1      41.415  31.368  36.944  1.00  0.00     0.031 C 
ATOM     59  C   UNL A   1      43.468  27.635  32.600  1.00  0.00     0.029 A 
ATOM     60  C   UNL A   1      42.706  28.570  33.285  1.00  0.00     0.049 A 
ATOM     61  H   UNL A   1      40.965  29.576  32.647  1.00  0.00     0.167 HD
ATOM     62  C   UNL A   1      42.126  30.017  35.228  1.00  0.00     0.074 A 
ATOM     63  C   UNL A   1      42.369  30.534  36.560  1.00  0.00     0.031 C 
ATOM     64  C   UNL A   1      42.915  29.098  34.613  1.00  0.00     0.034 A 
BRANCH  51  65
ATOM     65  C   UNL A   1      41.069  27.491  28.908  1.00  0.00     0.023 A 
ATOM     66  C   UNL A   1      42.085  27.744  27.967  1.00  0.00     0.031 A 
ATOM     67  C   UNL A   1      40.192  26.422  28.658  1.00  0.00     0.131 A 
ATOM     68  C   UNL A   1      42.150  26.988  26.788  1.00  0.00     0.055 A 
ATOM     69  C   UNL A   1      40.321  25.615  27.526  1.00  0.00     0.041 A 
ATOM     70  F   UNL A   1      39.181  26.156  29.500  1.00  0.00    -0.206 F 
ATOM     71  C   UNL A   1      41.295  25.905  26.575  1.00  0.00     0.022 A 
BRANCH  68  72
ATOM     72  S   UNL A   1      43.262  27.539  25.465  1.00  0.00     0.124 S 
ATOM     73  O   UNL A   1      42.326  28.165  24.534  1.00  0.00    -0.237 OA
ATOM     74  O   UNL A   1      44.166  28.442  26.167  1.00  0.00    -0.237 OA
ATOM     75  O   UNL A   1      43.865  26.297  24.986  1.00  0.00    -0.744 OA
ENDBRANCH  68  72
ENDBRANCH  51  65
BRANCH  52  76
ATOM     76  C   UNL A   1      39.101  33.193  36.996  1.00  0.00     0.023 A 
ATOM     77  C   UNL A   1      39.666  34.464  37.196  1.00  0.00     0.031 A 
ATOM     78  C   UNL A   1      38.281  32.675  38.015  1.00  0.00     0.131 A 
ATOM     79  C   UNL A   1      39.451  35.145  38.406  1.00  0.00     0.055 A 
ATOM     80  C   UNL A   1      38.015  33.386  39.187  1.00  0.00     0.041 A 
ATOM     81  F   UNL A   1      37.715  31.465  37.883  1.00  0.00    -0.206 F 
ATOM     82  C   UNL A   1      38.615  34.622  39.395  1.00  0.00     0.022 A 
BRANCH  79  83
ATOM     83  S   UNL A   1      40.375  36.675  38.722  1.00  0.00     0.124 S 
ATOM     84  O   UNL A   1      41.170  36.796  37.506  1.00  0.00    -0.237 OA
ATOM     85  O   UNL A   1      39.299  37.648  38.888  1.00  0.00    -0.237 OA
ATOM     86  O   UNL A   1      41.130  36.371  39.935  1.00  0.00    -0.744 OA
ENDBRANCH  79  83
ENDBRANCH  52  76
BRANCH  64  87
ATOM     87  C   UNL A   1      44.138  28.632  35.363  1.00  0.00     0.023 A 
ATOM     88  C   UNL A   1      44.084  27.569  36.280  1.00  0.00     0.031 A 
ATOM     89  C   UNL A   1      45.378  29.263  35.153  1.00  0.00     0.131 A 
ATOM     90  C   UNL A   1      45.229  27.218  37.008  1.00  0.00     0.055 A 
ATOM     91  C   UNL A   1      46.532  28.852  35.817  1.00  0.00     0.041 A 
ATOM     92  F   UNL A   1      45.487  30.286  34.291  1.00  0.00    -0.206 F 
ATOM     93  C   UNL A   1      46.459  27.835  36.763  1.00  0.00     0.022 A 
BRANCH  90  94
ATOM     94  S   UNL A   1      45.059  26.032  38.367  1.00  0.00     0.124 S 
ATOM     95  O   UNL A   1      44.038  26.666  39.194  1.00  0.00    -0.237 OA
ATOM     96  O   UNL A   1      44.652  24.816  37.672  1.00  0.00    -0.237 OA
ATOM     97  O   UNL A   1      46.397  25.992  38.954  1.00  0.00    -0.744 OA
ENDBRANCH  90  94
ENDBRANCH  64  87
ENDBRANCH  38  39
ENDBRANCH  30  33
ENDBRANCH  28  29
ENDBRANCH   1  28
TORSDOF 17
ENDMDL
MODEL 2
REMARK VINA RESULT:     -13.6      2.324      3.063
REMARK SMILES Cc1c(Cl)cccc1NC(=O)C[C@](C)(C(=O)NCCCNC(=O)c1ccc(-c2c3nc(c(-c4cc(S(=O)(=O)[O-])ccc4F)c4ccc([nH]4)c(-c4cc(S(=O)(=O)[O-])ccc4F)c4nc(c(-c5cc(S(=O)(=O)[O-])ccc5F)c5ccc2[nH]5)C=C4)C=C3)cc1)c1ccccc1
REMARK SMILES IDX 19 1 18 2 17 3 15 4 16 5 13 7 14 8 12 9 10 10 9 11 11 13
REMARK SMILES IDX 8 14 1 15 2 16 3 17 4 18 5 19 7 20 6 21 87 22 88 23 92 24
REMARK SMILES IDX 89 25 91 26 90 27 20 28 21 29 22 30 23 32 24 33 25 34 86 35
REMARK SMILES IDX 26 36 85 37 27 38 28 39 29 40 79 41 30 42 84 43 78 44 80 45
REMARK SMILES IDX 31 46 83 47 77 48 76 49 32 51 64 52 44 53 63 54 45 55 48 56
REMARK SMILES IDX 62 57 81 58 46 59 47 60 61 62 82 63 49 64 33 65 34 66 42 67
REMARK SMILES IDX 35 68 41 69 43 70 40 71 36 72 37 73 38 74 39 75 65 76 66 77
REMARK SMILES IDX 74 78 67 79 73 80 75 81 72 82 68 83 69 84 70 85 71 86 50 87
REMARK SMILES IDX 51 88 59 89 52 90 58 91 60 92 57 93 53 94 54 95 55 96 56 97
REMARK H PARENT 17 6 9 12 21 31 80 50 48 61
REMARK Flexibility Score: inf
ROOT
ATOM      1  C   UNL A   1      31.446  32.236  26.868  1.00  0.00     0.042 C 
ENDROOT
BRANCH   1   2
ATOM      2  C   UNL A   1      31.892  30.590  26.840  1.00  0.00     0.117 C 
BRANCH   2   3
ATOM      3  N   UNL A   1      32.568  29.316  25.327  1.00  0.00    -0.355 N 
ATOM      4  C   UNL A   1      32.383  28.336  24.292  1.00  0.00     0.230 C 
ATOM      5  O   UNL A   1      33.469  28.141  23.714  1.00  0.00    -0.274 OA
ATOM      6  H   UNL A   1      33.541  29.472  25.318  1.00  0.00     0.163 HD
BRANCH   4   7
ATOM      7  C   UNL A   1      31.085  27.453  23.867  1.00  0.00     0.080 C 
ATOM      8  C   UNL A   1      31.430  26.809  22.471  1.00  0.00     0.027 C 
BRANCH   7   9
ATOM      9  C   UNL A   1      30.559  26.404  24.912  1.00  0.00     0.121 C 
BRANCH   9  10
ATOM     10  C   UNL A   1      31.224  26.301  26.272  1.00  0.00     0.225 C 
ATOM     11  N   UNL A   1      32.042  25.255  26.572  1.00  0.00    -0.326 N 
ATOM     12  H   UNL A   1      32.205  25.047  27.521  1.00  0.00     0.169 HD
ATOM     13  O   UNL A   1      31.005  27.139  27.151  1.00  0.00    -0.275 OA
BRANCH  11  14
ATOM     14  C   UNL A   1      32.659  24.464  25.610  1.00  0.00     0.045 A 
ATOM     15  C   UNL A   1      30.659  22.407  25.756  1.00  0.00     0.048 C 
ATOM     16  C   UNL A   1      32.117  22.735  25.577  1.00  0.00    -0.009 A 
ATOM     17  C   UNL A   1      33.189  21.470  24.860  1.00  0.00     0.046 A 
ATOM     18  Cl  UNL A   1      32.638  19.854  24.663  1.00  0.00    -0.084 Cl
ATOM     19  C   UNL A   1      34.816  21.908  24.234  1.00  0.00     0.021 A 
ATOM     20  C   UNL A   1      34.264  24.936  24.859  1.00  0.00     0.026 A 
ATOM     21  C   UNL A   1      35.368  23.633  24.238  1.00  0.00     0.004 A 
ENDBRANCH  11  14
ENDBRANCH   9  10
ENDBRANCH   7   9
BRANCH   7  22
ATOM     22  C   UNL A   1      29.773  28.268  23.499  1.00  0.00    -0.032 A 
ATOM     23  C   UNL A   1      29.891  29.680  23.321  1.00  0.00     0.005 A 
ATOM     24  C   UNL A   1      28.499  27.724  23.335  1.00  0.00     0.005 A 
ATOM     25  C   UNL A   1      28.789  30.508  23.130  1.00  0.00     0.000 A 
ATOM     26  C   UNL A   1      27.388  28.557  23.129  1.00  0.00     0.000 A 
ATOM     27  C   UNL A   1      27.528  29.943  23.052  1.00  0.00     0.000 A 
ENDBRANCH   7  22
ENDBRANCH   4   7
ENDBRANCH   2   3
ENDBRANCH   1   2
BRANCH   1  28
ATOM     28  C   UNL A   1      32.679  33.121  26.855  1.00  0.00     0.118 C 
BRANCH  28  29
ATOM     29  N   UNL A   1      32.558  34.346  27.633  1.00  0.00    -0.352 N 
ATOM     30  C   UNL A   1      33.467  34.785  28.569  1.00  0.00     0.251 C 
ATOM     31  H   UNL A   1      31.763  34.906  27.478  1.00  0.00     0.163 HD
ATOM     32  O   UNL A   1      33.357  35.863  29.131  1.00  0.00    -0.269 OA
BRANCH  30  33
ATOM     33  C   UNL A   1      34.496  33.801  28.934  1.00  0.00     0.039 A 
ATOM     34  C   UNL A   1      35.816  34.248  28.883  1.00  0.00     0.014 A 
ATOM     35  C   UNL A   1      34.127  32.667  29.660  1.00  0.00     0.014 A 
ATOM     36  C   UNL A   1      36.781  33.563  29.604  1.00  0.00     0.010 A 
ATOM     37  C   UNL A   1      35.073  32.065  30.477  1.00  0.00     0.010 A 
ATOM     38  C   UNL A   1      36.412  32.488  30.429  1.00  0.00    -0.014 A 
BRANCH  38  39
ATOM     39  C   UNL A   1      37.460  31.739  31.155  1.00  0.00     0.031 A 
ATOM     40  C   UNL A   1      38.277  30.739  30.388  1.00  0.00     0.074 A 
ATOM     41  C   UNL A   1      37.705  32.003  32.453  1.00  0.00     0.049 A 
ATOM     42  N   UNL A   1      39.300  30.032  30.785  1.00  0.00    -0.248 NA
ATOM     43  C   UNL A   1      37.875  30.479  28.994  1.00  0.00     0.031 C 
ATOM     44  C   UNL A   1      36.943  32.937  33.288  1.00  0.00     0.029 A 
ATOM     45  N   UNL A   1      38.681  31.534  33.295  1.00  0.00    -0.354 N 
ATOM     46  C   UNL A   1      39.656  29.250  29.693  1.00  0.00     0.074 A 
ATOM     47  C   UNL A   1      38.689  29.496  28.652  1.00  0.00     0.031 C 
ATOM     48  C   UNL A   1      37.515  33.014  34.500  1.00  0.00     0.029 A 
ATOM     49  C   UNL A   1      38.653  32.101  34.549  1.00  0.00     0.049 A 
ATOM     50  H   UNL A   1      39.341  30.854  33.026  1.00  0.00     0.167 HD
ATOM     51  C   UNL A   1      40.722  28.428  29.559  1.00  0.00     0.034 A 
ATOM     52  C   UNL A   1      39.460  31.904  35.611  1.00  0.00     0.034 A 
ATOM     53  C   UNL A   1      41.676  28.211  30.612  1.00  0.00     0.049 A 
ATOM     54  C   UNL A   1      40.618  30.946  35.450  1.00  0.00     0.074 A 
ATOM     55  C   UNL A   1      42.816  27.430  30.591  1.00  0.00     0.029 A 
ATOM     56  N   UNL A   1      41.594  28.769  31.883  1.00  0.00    -0.354 N 
ATOM     57  N   UNL A   1      40.976  30.255  34.391  1.00  0.00    -0.248 NA
ATOM     58  C   UNL A   1      41.486  30.754  36.617  1.00  0.00     0.031 C 
ATOM     59  C   UNL A   1      43.367  27.438  31.875  1.00  0.00     0.029 A 
ATOM     60  C   UNL A   1      42.637  28.312  32.668  1.00  0.00     0.049 A 
ATOM     61  H   UNL A   1      40.895  29.396  32.180  1.00  0.00     0.167 HD
ATOM     62  C   UNL A   1      42.131  29.568  34.758  1.00  0.00     0.074 A 
ATOM     63  C   UNL A   1      42.417  29.950  36.127  1.00  0.00     0.031 C 
ATOM     64  C   UNL A   1      42.889  28.704  34.035  1.00  0.00     0.034 A 
BRANCH  51  65
ATOM     65  C   UNL A   1      40.868  27.686  28.254  1.00  0.00     0.023 A 
ATOM     66  C   UNL A   1      40.551  26.320  28.132  1.00  0.00     0.031 A 
ATOM     67  C   UNL A   1      41.376  28.346  27.123  1.00  0.00     0.131 A 
ATOM     68  C   UNL A   1      40.816  25.644  26.932  1.00  0.00     0.055 A 
ATOM     69  C   UNL A   1      41.551  27.689  25.904  1.00  0.00     0.041 A 
ATOM     70  F   UNL A   1      41.732  29.639  27.189  1.00  0.00    -0.206 F 
ATOM     71  C   UNL A   1      41.284  26.327  25.807  1.00  0.00     0.022 A 
BRANCH  68  72
ATOM     72  S   UNL A   1      40.692  23.835  26.908  1.00  0.00     0.124 S 
ATOM     73  O   UNL A   1      39.300  23.641  26.510  1.00  0.00    -0.237 OA
ATOM     74  O   UNL A   1      41.697  23.462  25.921  1.00  0.00    -0.237 OA
ATOM     75  O   UNL A   1      40.995  23.453  28.286  1.00  0.00    -0.744 OA
ENDBRANCH  68  72
ENDBRANCH  51  65
BRANCH  52  76
ATOM     76  C   UNL A   1      39.201  32.594  36.911  1.00  0.00     0.023 A 
ATOM     77  C   UNL A   1      38.340  32.046  37.877  1.00  0.00     0.031 A 
ATOM     78  C   UNL A   1      39.771  33.851  37.181  1.00  0.00     0.131 A 
ATOM     79  C   UNL A   1      38.029  32.777  39.035  1.00  0.00     0.055 A 
ATOM     80  C   UNL A   1      39.512  34.544  38.366  1.00  0.00     0.041 A 
ATOM     81  F   UNL A   1      40.598  34.428  36.296  1.00  0.00    -0.206 F 
ATOM     82  C   UNL A   1      38.624  34.015  39.295  1.00  0.00     0.022 A 
BRANCH  79  83
ATOM     83  S   UNL A   1      36.744  32.143  40.149  1.00  0.00     0.124 S 
ATOM     84  O   UNL A   1      36.696  33.185  41.168  1.00  0.00    -0.237 OA
ATOM     85  O   UNL A   1      35.590  32.058  39.260  1.00  0.00    -0.237 OA
ATOM     86  O   UNL A   1      37.282  30.859  40.593  1.00  0.00    -0.744 OA
ENDBRANCH  79  83
ENDBRANCH  52  76
BRANCH  64  87
ATOM     87  C   UNL A   1      44.124  28.152  34.701  1.00  0.00     0.023 A 
ATOM     88  C   UNL A   1      44.107  26.933  35.399  1.00  0.00     0.031 A 
ATOM     89  C   UNL A   1      45.339  28.860  34.635  1.00  0.00     0.131 A 
ATOM     90  C   UNL A   1      45.260  26.495  36.065  1.00  0.00     0.055 A 
ATOM     91  C   UNL A   1      46.504  28.375  35.226  1.00  0.00     0.041 A 
ATOM     92  F   UNL A   1      45.412  30.031  33.984  1.00  0.00    -0.206 F 
ATOM     93  C   UNL A   1      46.465  27.194  35.961  1.00  0.00     0.022 A 
BRANCH  90  94
ATOM     94  S   UNL A   1      45.129  25.066  37.171  1.00  0.00     0.124 S 
ATOM     95  O   UNL A   1      44.332  24.139  36.373  1.00  0.00    -0.237 OA
ATOM     96  O   UNL A   1      46.526  24.696  37.371  1.00  0.00    -0.237 OA
ATOM     97  O   UNL A   1      44.456  25.608  38.350  1.00  0.00    -0.744 OA
ENDBRANCH  90  94
ENDBRANCH  64  87
ENDBRANCH  38  39
ENDBRANCH  30  33
ENDBRANCH  28  29
ENDBRANCH   1  28
TORSDOF 17
ENDMDL
MODEL 3
REMARK VINA RESULT:     -13.6      3.527      8.999
REMARK SMILES Cc1c(Cl)cccc1NC(=O)C[C@](C)(C(=O)NCCCNC(=O)c1ccc(-c2c3nc(c(-c4cc(S(=O)(=O)[O-])ccc4F)c4ccc([nH]4)c(-c4cc(S(=O)(=O)[O-])ccc4F)c4nc(c(-c5cc(S(=O)(=O)[O-])ccc5F)c5ccc2[nH]5)C=C4)C=C3)cc1)c1ccccc1
REMARK SMILES IDX 19 1 18 2 17 3 15 4 16 5 13 7 14 8 12 9 10 10 9 11 11 13
REMARK SMILES IDX 8 14 1 15 2 16 3 17 4 18 5 19 7 20 6 21 87 22 88 23 92 24
REMARK SMILES IDX 89 25 91 26 90 27 20 28 21 29 22 30 23 32 24 33 25 34 86 35
REMARK SMILES IDX 26 36 85 37 27 38 28 39 29 40 79 41 30 42 84 43 78 44 80 45
REMARK SMILES IDX 31 46 83 47 77 48 76 49 32 51 64 52 44 53 63 54 45 55 48 56
REMARK SMILES IDX 62 57 81 58 46 59 47 60 61 62 82 63 49 64 33 65 34 66 42 67
REMARK SMILES IDX 35 68 41 69 43 70 40 71 36 72 37 73 38 74 39 75 65 76 66 77
REMARK SMILES IDX 74 78 67 79 73 80 75 81 72 82 68 83 69 84 70 85 71 86 50 87
REMARK SMILES IDX 51 88 59 89 52 90 58 91 60 92 57 93 53 94 54 95 55 96 56 97
REMARK H PARENT 17 6 9 12 21 31 80 50 48 61
REMARK Flexibility Score: inf
ROOT
ATOM      1  C   UNL A   1      33.027  28.182  26.470  1.00  0.00     0.042 C 
ENDROOT
BRANCH   1   2
ATOM      2  C   UNL A   1      33.710  26.684  26.025  1.00  0.00     0.117 C 
BRANCH   2   3
ATOM      3  N   UNL A   1      33.085  24.702  26.252  1.00  0.00    -0.355 N 
ATOM      4  C   UNL A   1      33.171  23.290  26.000  1.00  0.00     0.230 C 
ATOM      5  O   UNL A   1      32.339  22.697  26.713  1.00  0.00    -0.274 OA
ATOM      6  H   UNL A   1      32.316  24.776  26.862  1.00  0.00     0.163 HD
BRANCH   4   7
ATOM      7  C   UNL A   1      34.062  22.439  24.938  1.00  0.00     0.080 C 
ATOM      8  C   UNL A   1      33.748  20.920  25.219  1.00  0.00     0.027 C 
BRANCH   7   9
ATOM      9  C   UNL A   1      33.924  22.821  23.420  1.00  0.00     0.121 C 
BRANCH   9  10
ATOM     10  C   UNL A   1      32.561  22.773  22.755  1.00  0.00     0.225 C 
ATOM     11  N   UNL A   1      31.727  23.849  22.795  1.00  0.00    -0.326 N 
ATOM     12  H   UNL A   1      30.766  23.700  22.639  1.00  0.00     0.169 HD
ATOM     13  O   UNL A   1      32.160  21.747  22.201  1.00  0.00    -0.275 OA
BRANCH  11  14
ATOM     14  C   UNL A   1      32.160  25.146  23.043  1.00  0.00     0.045 A 
ATOM     15  C   UNL A   1      29.804  25.843  24.530  1.00  0.00     0.048 C 
ATOM     16  C   UNL A   1      30.864  26.299  23.565  1.00  0.00    -0.009 A 
ATOM     17  C   UNL A   1      31.099  28.077  23.343  1.00  0.00     0.046 A 
ATOM     18  Cl  UNL A   1      29.966  29.203  23.976  1.00  0.00    -0.084 Cl
ATOM     19  C   UNL A   1      32.586  28.703  22.551  1.00  0.00     0.021 A 
ATOM     20  C   UNL A   1      33.733  25.786  22.350  1.00  0.00     0.026 A 
ATOM     21  C   UNL A   1      33.903  27.568  22.041  1.00  0.00     0.004 A 
ENDBRANCH  11  14
ENDBRANCH   9  10
ENDBRANCH   7   9
BRANCH   7  22
ATOM     22  C   UNL A   1      35.633  22.462  25.164  1.00  0.00    -0.032 A 
ATOM     23  C   UNL A   1      36.365  21.267  24.896  1.00  0.00     0.005 A 
ATOM     24  C   UNL A   1      36.372  23.558  25.610  1.00  0.00     0.005 A 
ATOM     25  C   UNL A   1      37.719  21.133  25.185  1.00  0.00     0.000 A 
ATOM     26  C   UNL A   1      37.742  23.429  25.890  1.00  0.00     0.000 A 
ATOM     27  C   UNL A   1      38.407  22.217  25.702  1.00  0.00     0.000 A 
ENDBRANCH   7  22
ENDBRANCH   4   7
ENDBRANCH   2   3
ENDBRANCH   1   2
BRANCH   1  28
ATOM     28  C   UNL A   1      33.900  29.327  25.991  1.00  0.00     0.118 C 
BRANCH  28  29
ATOM     29  N   UNL A   1      33.760  30.561  26.752  1.00  0.00    -0.352 N 
ATOM     30  C   UNL A   1      34.706  31.078  27.608  1.00  0.00     0.251 C 
ATOM     31  H   UNL A   1      32.921  31.067  26.647  1.00  0.00     0.163 HD
ATOM     32  O   UNL A   1      34.569  32.161  28.156  1.00  0.00    -0.269 OA
BRANCH  30  33
ATOM     33  C   UNL A   1      35.820  30.169  27.913  1.00  0.00     0.039 A 
ATOM     34  C   UNL A   1      37.010  30.408  27.226  1.00  0.00     0.014 A 
ATOM     35  C   UNL A   1      35.783  29.416  29.089  1.00  0.00     0.014 A 
ATOM     36  C   UNL A   1      38.193  29.909  27.748  1.00  0.00     0.010 A 
ATOM     37  C   UNL A   1      36.983  29.031  29.668  1.00  0.00     0.010 A 
ATOM     38  C   UNL A   1      38.192  29.246  28.986  1.00  0.00    -0.014 A 
BRANCH  38  39
ATOM     39  C   UNL A   1      39.455  28.679  29.505  1.00  0.00     0.031 A 
ATOM     40  C   UNL A   1      40.017  29.246  30.776  1.00  0.00     0.074 A 
ATOM     41  C   UNL A   1      40.041  27.642  28.876  1.00  0.00     0.049 A 
ATOM     42  N   UNL A   1      41.056  28.857  31.465  1.00  0.00    -0.248 NA
ATOM     43  C   UNL A   1      39.335  30.426  31.340  1.00  0.00     0.031 C 
ATOM     44  C   UNL A   1      39.583  27.044  27.618  1.00  0.00     0.029 A 
ATOM     45  N   UNL A   1      41.131  26.884  29.220  1.00  0.00    -0.354 N 
ATOM     46  C   UNL A   1      41.147  29.743  32.532  1.00  0.00     0.074 A 
ATOM     47  C   UNL A   1      40.122  30.741  32.352  1.00  0.00     0.031 C 
ATOM     48  C   UNL A   1      40.350  25.980  27.329  1.00  0.00     0.029 A 
ATOM     49  C   UNL A   1      41.383  25.847  28.351  1.00  0.00     0.049 A 
ATOM     50  H   UNL A   1      41.682  27.065  30.016  1.00  0.00     0.167 HD
ATOM     51  C   UNL A   1      41.988  29.701  33.590  1.00  0.00     0.034 A 
ATOM     52  C   UNL A   1      42.341  24.898  28.384  1.00  0.00     0.034 A 
ATOM     53  C   UNL A   1      42.993  28.685  33.747  1.00  0.00     0.049 A 
ATOM     54  C   UNL A   1      43.297  24.900  29.554  1.00  0.00     0.074 A 
ATOM     55  C   UNL A   1      43.884  28.513  34.789  1.00  0.00     0.029 A 
ATOM     56  N   UNL A   1      43.249  27.675  32.827  1.00  0.00    -0.354 N 
ATOM     57  N   UNL A   1      43.336  25.711  30.587  1.00  0.00    -0.248 NA
ATOM     58  C   UNL A   1      44.326  23.854  29.571  1.00  0.00     0.031 C 
ATOM     59  C   UNL A   1      44.740  27.461  34.453  1.00  0.00     0.029 A 
ATOM     60  C   UNL A   1      44.315  26.905  33.256  1.00  0.00     0.049 A 
ATOM     61  H   UNL A   1      42.746  27.531  31.993  1.00  0.00     0.167 HD
ATOM     62  C   UNL A   1      44.375  25.253  31.393  1.00  0.00     0.074 A 
ATOM     63  C   UNL A   1      44.918  24.082  30.733  1.00  0.00     0.031 C 
ATOM     64  C   UNL A   1      44.840  25.747  32.569  1.00  0.00     0.034 A 
BRANCH  51  65
ATOM     65  C   UNL A   1      41.874  30.803  34.613  1.00  0.00     0.023 A 
ATOM     66  C   UNL A   1      40.755  30.924  35.460  1.00  0.00     0.031 A 
ATOM     67  C   UNL A   1      42.882  31.777  34.713  1.00  0.00     0.131 A 
ATOM     68  C   UNL A   1      40.638  32.032  36.311  1.00  0.00     0.055 A 
ATOM     69  C   UNL A   1      42.802  32.827  35.629  1.00  0.00     0.041 A 
ATOM     70  F   UNL A   1      43.954  31.736  33.907  1.00  0.00    -0.206 F 
ATOM     71  C   UNL A   1      41.669  32.967  36.426  1.00  0.00     0.022 A 
BRANCH  68  72
ATOM     72  S   UNL A   1      39.056  32.319  37.150  1.00  0.00     0.124 S 
ATOM     73  O   UNL A   1      38.391  31.029  36.974  1.00  0.00    -0.237 OA
ATOM     74  O   UNL A   1      39.473  32.642  38.509  1.00  0.00    -0.237 OA
ATOM     75  O   UNL A   1      38.465  33.422  36.397  1.00  0.00    -0.744 OA
ENDBRANCH  68  72
ENDBRANCH  51  65
BRANCH  52  76
ATOM     76  C   UNL A   1      42.465  23.894  27.285  1.00  0.00     0.023 A 
ATOM     77  C   UNL A   1      41.909  22.608  27.395  1.00  0.00     0.031 A 
ATOM     78  C   UNL A   1      43.200  24.189  26.122  1.00  0.00     0.131 A 
ATOM     79  C   UNL A   1      42.144  21.652  26.393  1.00  0.00     0.055 A 
ATOM     80  C   UNL A   1      43.375  23.256  25.097  1.00  0.00     0.041 A 
ATOM     81  F   UNL A   1      43.759  25.398  25.960  1.00  0.00    -0.206 F 
ATOM     82  C   UNL A   1      42.859  21.974  25.237  1.00  0.00     0.022 A 
BRANCH  79  83
ATOM     83  S   UNL A   1      41.604  19.942  26.674  1.00  0.00     0.124 S 
ATOM     84  O   UNL A   1      40.796  20.082  27.879  1.00  0.00    -0.237 OA
ATOM     85  O   UNL A   1      40.878  19.650  25.442  1.00  0.00    -0.237 OA
ATOM     86  O   UNL A   1      42.859  19.213  26.843  1.00  0.00    -0.744 OA
ENDBRANCH  79  83
ENDBRANCH  52  76
BRANCH  64  87
ATOM     87  C   UNL A   1      45.963  24.992  33.235  1.00  0.00     0.023 A 
ATOM     88  C   UNL A   1      45.726  23.837  33.999  1.00  0.00     0.031 A 
ATOM     89  C   UNL A   1      47.290  25.438  33.102  1.00  0.00     0.131 A 
ATOM     90  C   UNL A   1      46.791  23.209  34.660  1.00  0.00     0.055 A 
ATOM     91  C   UNL A   1      48.355  24.759  33.692  1.00  0.00     0.041 A 
ATOM     92  F   UNL A   1      47.574  26.539  32.387  1.00  0.00    -0.206 F 
ATOM     93  C   UNL A   1      48.107  23.647  34.490  1.00  0.00     0.022 A 
BRANCH  90  94
ATOM     94  S   UNL A   1      46.415  21.891  35.845  1.00  0.00     0.124 S 
ATOM     95  O   UNL A   1      47.732  21.300  36.064  1.00  0.00    -0.237 OA
ATOM     96  O   UNL A   1      45.854  22.632  36.970  1.00  0.00    -0.237 OA
ATOM     97  O   UNL A   1      45.467  21.044  35.124  1.00  0.00    -0.744 OA
ENDBRANCH  90  94
ENDBRANCH  64  87
ENDBRANCH  38  39
ENDBRANCH  30  33
ENDBRANCH  28  29
ENDBRANCH   1  28
TORSDOF 17
ENDMDL
