MODEL 1
REMARK VINA RESULT:     -12.3      0.000      0.000
REMARK SMILES COc1ccc(-c2ccc(C(=O)NCCCNC(=O)c3ccc(-c4c5nc(c(-c6cc(S(=O)(=O)[O-])ccc6F)c6ccc([nH]6)c(-c6cc(S(=O)(=O)[O-])ccc6F)c6nc(c(-c7cc(S(=O)(=O)[O-])ccc7F)c7ccc4[nH]7)C=C6)C=C5)cc3)c(N)c2)cc1
REMARK SMILES IDX 15 1 14 2 13 3 11 4 12 5 10 7 7 8 8 9 85 10 9 11 83 12 6 13
REMARK SMILES IDX 3 14 4 15 87 16 5 17 86 18 2 19 1 20 84 21 16 24 17 25 18 26
REMARK SMILES IDX 19 28 20 29 21 30 82 31 22 32 81 33 23 34 24 35 25 36 75 37
REMARK SMILES IDX 26 38 80 39 74 40 76 41 27 42 79 43 73 44 72 45 28 47 60 48
REMARK SMILES IDX 40 49 59 50 41 51 44 52 58 53 77 54 42 55 43 56 57 58 78 59
REMARK SMILES IDX 45 60 29 61 30 62 38 63 31 64 37 65 39 66 36 67 32 68 33 69
REMARK SMILES IDX 34 70 35 71 61 72 62 73 70 74 63 75 69 76 71 77 68 78 64 79
REMARK SMILES IDX 65 80 66 81 67 82 46 83 47 84 55 85 48 86 54 87 56 88 53 89
REMARK SMILES IDX 49 90 50 91 51 92 52 93
REMARK H PARENT 13 6 84 22 84 23 17 27 76 46 44 57
REMARK Flexibility Score: inf
ROOT
ATOM      1  C   UNL A   1      31.649  28.594  25.087  1.00  0.00     0.042 C 
ENDROOT
BRANCH   1   2
ATOM      2  C   UNL A   1      31.312  28.462  23.602  1.00  0.00     0.118 C 
BRANCH   2   3
ATOM      3  N   UNL A   1      32.498  28.660  22.789  1.00  0.00    -0.352 N 
ATOM      4  C   UNL A   1      33.483  27.798  22.380  1.00  0.00     0.253 C 
ATOM      5  O   UNL A   1      34.398  28.274  21.703  1.00  0.00    -0.269 OA
ATOM      6  H   UNL A   1      32.617  29.584  22.471  1.00  0.00     0.163 HD
BRANCH   4   7
ATOM      7  C   UNL A   1      33.465  26.325  22.611  1.00  0.00     0.062 A 
ATOM      8  C   UNL A   1      33.527  23.604  23.399  1.00  0.00    -0.016 A 
ATOM      9  C   UNL A   1      34.029  24.592  24.246  1.00  0.00     0.010 A 
ATOM     10  C   UNL A   1      32.988  23.993  22.167  1.00  0.00     0.035 A 
ATOM     11  C   UNL A   1      34.008  25.930  23.851  1.00  0.00     0.016 A 
ATOM     12  C   UNL A   1      32.908  25.341  21.774  1.00  0.00     0.045 A 
BRANCH   8  13
ATOM     13  C   UNL A   1      33.504  22.197  23.797  1.00  0.00    -0.018 A 
ATOM     14  C   UNL A   1      33.490  19.484  24.521  1.00  0.00     0.118 A 
ATOM     15  C   UNL A   1      32.522  19.979  23.649  1.00  0.00     0.047 A 
ATOM     16  C   UNL A   1      34.491  20.327  25.002  1.00  0.00     0.047 A 
ATOM     17  C   UNL A   1      32.521  21.330  23.299  1.00  0.00     0.012 A 
ATOM     18  C   UNL A   1      34.495  21.678  24.644  1.00  0.00     0.012 A 
BRANCH  14  19
ATOM     19  O   UNL A   1      33.421  18.148  24.809  1.00  0.00    -0.497 OA
ATOM     20  C   UNL A   1      33.996  17.328  23.795  1.00  0.00     0.278 C 
ENDBRANCH  14  19
ENDBRANCH   8  13
BRANCH  12  21
ATOM     21  N   UNL A   1      32.162  25.609  20.630  1.00  0.00    -0.398 N 
ATOM     22  H   UNL A   1      31.502  24.953  20.309  1.00  0.00     0.156 HD
ATOM     23  H   UNL A   1      32.294  26.453  20.142  1.00  0.00     0.156 HD
ENDBRANCH  12  21
ENDBRANCH   4   7
ENDBRANCH   2   3
ENDBRANCH   1   2
BRANCH   1  24
ATOM     24  C   UNL A   1      32.880  29.444  25.370  1.00  0.00     0.118 C 
BRANCH  24  25
ATOM     25  N   UNL A   1      32.526  30.778  25.822  1.00  0.00    -0.352 N 
ATOM     26  C   UNL A   1      32.984  31.484  26.905  1.00  0.00     0.251 C 
ATOM     27  H   UNL A   1      31.859  31.244  25.268  1.00  0.00     0.163 HD
ATOM     28  O   UNL A   1      32.371  32.498  27.251  1.00  0.00    -0.269 OA
BRANCH  26  29
ATOM     29  C   UNL A   1      34.178  31.045  27.669  1.00  0.00     0.039 A 
ATOM     30  C   UNL A   1      35.130  32.003  28.037  1.00  0.00     0.014 A 
ATOM     31  C   UNL A   1      34.405  29.699  27.972  1.00  0.00     0.014 A 
ATOM     32  C   UNL A   1      36.281  31.618  28.733  1.00  0.00     0.010 A 
ATOM     33  C   UNL A   1      35.514  29.328  28.733  1.00  0.00     0.010 A 
ATOM     34  C   UNL A   1      36.476  30.279  29.104  1.00  0.00    -0.014 A 
BRANCH  34  35
ATOM     35  C   UNL A   1      37.703  29.847  29.827  1.00  0.00     0.031 A 
ATOM     36  C   UNL A   1      37.967  30.353  31.222  1.00  0.00     0.074 A 
ATOM     37  C   UNL A   1      38.597  29.041  29.221  1.00  0.00     0.049 A 
ATOM     38  N   UNL A   1      39.012  30.173  31.988  1.00  0.00    -0.248 NA
ATOM     39  C   UNL A   1      36.923  31.199  31.823  1.00  0.00     0.031 C 
ATOM     40  C   UNL A   1      38.469  28.506  27.864  1.00  0.00     0.029 A 
ATOM     41  N   UNL A   1      39.796  28.537  29.662  1.00  0.00    -0.354 N 
ATOM     42  C   UNL A   1      38.763  30.897  33.151  1.00  0.00     0.074 A 
ATOM     43  C   UNL A   1      37.492  31.564  32.962  1.00  0.00     0.031 C 
ATOM     44  C   UNL A   1      39.537  27.738  27.591  1.00  0.00     0.029 A 
ATOM     45  C   UNL A   1      40.447  27.759  28.733  1.00  0.00     0.049 A 
ATOM     46  H   UNL A   1      40.157  28.717  30.561  1.00  0.00     0.167 HD
ATOM     47  C   UNL A   1      39.511  30.980  34.279  1.00  0.00     0.034 A 
ATOM     48  C   UNL A   1      41.644  27.143  28.789  1.00  0.00     0.034 A 
ATOM     49  C   UNL A   1      40.766  30.291  34.461  1.00  0.00     0.049 A 
ATOM     50  C   UNL A   1      42.463  27.256  30.051  1.00  0.00     0.074 A 
ATOM     51  C   UNL A   1      41.587  30.273  35.576  1.00  0.00     0.029 A 
ATOM     52  N   UNL A   1      41.382  29.496  33.504  1.00  0.00    -0.354 N 
ATOM     53  N   UNL A   1      42.196  27.919  31.153  1.00  0.00    -0.248 NA
ATOM     54  C   UNL A   1      43.736  26.525  30.084  1.00  0.00     0.031 C 
ATOM     55  C   UNL A   1      42.722  29.514  35.274  1.00  0.00     0.029 A 
ATOM     56  C   UNL A   1      42.579  28.999  33.995  1.00  0.00     0.049 A 
ATOM     57  H   UNL A   1      41.020  29.312  32.607  1.00  0.00     0.167 HD
ATOM     58  C   UNL A   1      43.254  27.658  32.019  1.00  0.00     0.074 A 
ATOM     59  C   UNL A   1      44.153  26.765  31.319  1.00  0.00     0.031 C 
ATOM     60  C   UNL A   1      43.464  28.110  33.281  1.00  0.00     0.034 A 
BRANCH  47  61
ATOM     61  C   UNL A   1      38.996  31.862  35.391  1.00  0.00     0.023 A 
ATOM     62  C   UNL A   1      38.427  31.323  36.558  1.00  0.00     0.031 A 
ATOM     63  C   UNL A   1      39.055  33.263  35.277  1.00  0.00     0.131 A 
ATOM     64  C   UNL A   1      37.872  32.174  37.527  1.00  0.00     0.055 A 
ATOM     65  C   UNL A   1      38.574  34.105  36.281  1.00  0.00     0.041 A 
ATOM     66  F   UNL A   1      39.570  33.838  34.178  1.00  0.00    -0.206 F 
ATOM     67  C   UNL A   1      37.965  33.561  37.408  1.00  0.00     0.022 A 
BRANCH  64  68
ATOM     68  S   UNL A   1      36.912  31.439  38.878  1.00  0.00     0.124 S 
ATOM     69  O   UNL A   1      35.731  32.299  38.901  1.00  0.00    -0.237 OA
ATOM     70  O   UNL A   1      36.698  30.074  38.410  1.00  0.00    -0.237 OA
ATOM     71  O   UNL A   1      37.793  31.571  40.036  1.00  0.00    -0.744 OA
ENDBRANCH  64  68
ENDBRANCH  47  61
BRANCH  48  72
ATOM     72  C   UNL A   1      42.159  26.376  27.618  1.00  0.00     0.023 A 
ATOM     73  C   UNL A   1      41.825  25.023  27.435  1.00  0.00     0.031 A 
ATOM     74  C   UNL A   1      43.036  26.968  26.693  1.00  0.00     0.131 A 
ATOM     75  C   UNL A   1      42.408  24.294  26.387  1.00  0.00     0.055 A 
ATOM     76  C   UNL A   1      43.570  26.254  25.619  1.00  0.00     0.041 A 
ATOM     77  F   UNL A   1      43.383  28.260  26.816  1.00  0.00    -0.206 F 
ATOM     78  C   UNL A   1      43.268  24.903  25.470  1.00  0.00     0.022 A 
BRANCH  75  79
ATOM     79  S   UNL A   1      42.099  22.509  26.294  1.00  0.00     0.124 S 
ATOM     80  O   UNL A   1      42.821  22.021  27.463  1.00  0.00    -0.237 OA
ATOM     81  O   UNL A   1      40.643  22.452  26.369  1.00  0.00    -0.237 OA
ATOM     82  O   UNL A   1      42.670  22.132  25.003  1.00  0.00    -0.744 OA
ENDBRANCH  75  79
ENDBRANCH  48  72
BRANCH  60  83
ATOM     83  C   UNL A   1      44.688  27.598  33.999  1.00  0.00     0.023 A 
ATOM     84  C   UNL A   1      44.659  26.420  34.765  1.00  0.00     0.031 A 
ATOM     85  C   UNL A   1      45.898  28.309  33.923  1.00  0.00     0.131 A 
ATOM     86  C   UNL A   1      45.803  26.017  35.470  1.00  0.00     0.055 A 
ATOM     87  C   UNL A   1      47.049  27.873  34.580  1.00  0.00     0.041 A 
ATOM     88  F   UNL A   1      45.981  29.442  33.205  1.00  0.00    -0.206 F 
ATOM     89  C   UNL A   1      47.002  26.728  35.370  1.00  0.00     0.022 A 
BRANCH  86  90
ATOM     90  S   UNL A   1      45.680  24.598  36.592  1.00  0.00     0.124 S 
ATOM     91  O   UNL A   1      44.412  24.854  37.269  1.00  0.00    -0.237 OA
ATOM     92  O   UNL A   1      45.693  23.468  35.670  1.00  0.00    -0.237 OA
ATOM     93  O   UNL A   1      46.868  24.723  37.435  1.00  0.00    -0.744 OA
ENDBRANCH  86  90
ENDBRANCH  60  83
ENDBRANCH  34  35
ENDBRANCH  26  29
ENDBRANCH  24  25
ENDBRANCH   1  24
TORSDOF 16
ENDMDL
MODEL 2
REMARK VINA RESULT:     -12.3      0.614      7.618
REMARK SMILES COc1ccc(-c2ccc(C(=O)NCCCNC(=O)c3ccc(-c4c5nc(c(-c6cc(S(=O)(=O)[O-])ccc6F)c6ccc([nH]6)c(-c6cc(S(=O)(=O)[O-])ccc6F)c6nc(c(-c7cc(S(=O)(=O)[O-])ccc7F)c7ccc4[nH]7)C=C6)C=C5)cc3)c(N)c2)cc1
REMARK SMILES IDX 15 1 14 2 13 3 11 4 12 5 10 7 7 8 8 9 85 10 9 11 83 12 6 13
REMARK SMILES IDX 3 14 4 15 87 16 5 17 86 18 2 19 1 20 84 21 16 24 17 25 18 26
REMARK SMILES IDX 19 28 20 29 21 30 82 31 22 32 81 33 23 34 24 35 25 36 75 37
REMARK SMILES IDX 26 38 80 39 74 40 76 41 27 42 79 43 73 44 72 45 28 47 60 48
REMARK SMILES IDX 40 49 59 50 41 51 44 52 58 53 77 54 42 55 43 56 57 58 78 59
REMARK SMILES IDX 45 60 29 61 30 62 38 63 31 64 37 65 39 66 36 67 32 68 33 69
REMARK SMILES IDX 34 70 35 71 61 72 62 73 70 74 63 75 69 76 71 77 68 78 64 79
REMARK SMILES IDX 65 80 66 81 67 82 46 83 47 84 55 85 48 86 54 87 56 88 53 89
REMARK SMILES IDX 49 90 50 91 51 92 52 93
REMARK H PARENT 13 6 84 22 84 23 17 27 76 46 44 57
REMARK Flexibility Score: inf
ROOT
ATOM      1  C   UNL A   1      31.446  28.398  25.202  1.00  0.00     0.042 C 
ENDROOT
BRANCH   1   2
ATOM      2  C   UNL A   1      31.140  28.273  23.710  1.00  0.00     0.118 C 
BRANCH   2   3
ATOM      3  N   UNL A   1      32.328  28.543  22.919  1.00  0.00    -0.352 N 
ATOM      4  C   UNL A   1      33.354  27.734  22.504  1.00  0.00     0.253 C 
ATOM      5  O   UNL A   1      34.258  28.266  21.854  1.00  0.00    -0.269 OA
ATOM      6  H   UNL A   1      32.412  29.479  22.628  1.00  0.00     0.163 HD
BRANCH   4   7
ATOM      7  C   UNL A   1      33.396  26.256  22.697  1.00  0.00     0.062 A 
ATOM      8  C   UNL A   1      33.575  23.520  23.413  1.00  0.00    -0.016 A 
ATOM      9  C   UNL A   1      34.052  24.504  24.278  1.00  0.00     0.010 A 
ATOM     10  C   UNL A   1      33.001  23.920  22.200  1.00  0.00     0.035 A 
ATOM     11  C   UNL A   1      33.973  25.851  23.918  1.00  0.00     0.016 A 
ATOM     12  C   UNL A   1      32.864  25.273  21.843  1.00  0.00     0.045 A 
BRANCH   8  13
ATOM     13  C   UNL A   1      33.612  22.104  23.775  1.00  0.00    -0.018 A 
ATOM     14  C   UNL A   1      33.660  19.395  24.515  1.00  0.00     0.118 A 
ATOM     15  C   UNL A   1      34.719  20.232  24.861  1.00  0.00     0.047 A 
ATOM     16  C   UNL A   1      32.557  19.912  23.837  1.00  0.00     0.047 A 
ATOM     17  C   UNL A   1      34.701  21.575  24.483  1.00  0.00     0.012 A 
ATOM     18  C   UNL A   1      32.536  21.259  23.465  1.00  0.00     0.012 A 
BRANCH  14  19
ATOM     19  O   UNL A   1      33.754  18.095  24.928  1.00  0.00    -0.497 OA
ATOM     20  C   UNL A   1      32.504  17.547  25.339  1.00  0.00     0.278 C 
ENDBRANCH  14  19
ENDBRANCH   8  13
BRANCH  12  21
ATOM     21  N   UNL A   1      32.091  25.540  20.718  1.00  0.00    -0.398 N 
ATOM     22  H   UNL A   1      31.496  24.846  20.353  1.00  0.00     0.156 HD
ATOM     23  H   UNL A   1      32.137  26.424  20.286  1.00  0.00     0.156 HD
ENDBRANCH  12  21
ENDBRANCH   4   7
ENDBRANCH   2   3
ENDBRANCH   1   2
BRANCH   1  24
ATOM     24  C   UNL A   1      32.648  29.278  25.517  1.00  0.00     0.118 C 
BRANCH  24  25
ATOM     25  N   UNL A   1      32.257  30.643  25.821  1.00  0.00    -0.352 N 
ATOM     26  C   UNL A   1      32.701  31.480  26.812  1.00  0.00     0.251 C 
ATOM     27  H   UNL A   1      31.570  31.024  25.226  1.00  0.00     0.163 HD
ATOM     28  O   UNL A   1      32.060  32.508  27.050  1.00  0.00    -0.269 OA
BRANCH  26  29
ATOM     29  C   UNL A   1      33.915  31.166  27.606  1.00  0.00     0.039 A 
ATOM     30  C   UNL A   1      34.788  32.206  27.939  1.00  0.00     0.014 A 
ATOM     31  C   UNL A   1      34.237  29.855  27.971  1.00  0.00     0.014 A 
ATOM     32  C   UNL A   1      35.956  31.940  28.662  1.00  0.00     0.010 A 
ATOM     33  C   UNL A   1      35.361  29.601  28.758  1.00  0.00     0.010 A 
ATOM     34  C   UNL A   1      36.245  30.637  29.095  1.00  0.00    -0.014 A 
BRANCH  34  35
ATOM     35  C   UNL A   1      37.491  30.330  29.848  1.00  0.00     0.031 A 
ATOM     36  C   UNL A   1      38.539  29.440  29.229  1.00  0.00     0.074 A 
ATOM     37  C   UNL A   1      37.664  30.809  31.096  1.00  0.00     0.049 A 
ATOM     38  N   UNL A   1      39.648  28.977  29.747  1.00  0.00    -0.248 NA
ATOM     39  C   UNL A   1      38.288  28.989  27.851  1.00  0.00     0.031 C 
ATOM     40  C   UNL A   1      36.712  31.658  31.814  1.00  0.00     0.029 A 
ATOM     41  N   UNL A   1      38.697  30.644  31.986  1.00  0.00    -0.354 N 
ATOM     42  C   UNL A   1      40.217  28.167  28.768  1.00  0.00     0.074 A 
ATOM     43  C   UNL A   1      39.300  28.158  27.649  1.00  0.00     0.031 C 
ATOM     44  C   UNL A   1      37.211  31.951  33.026  1.00  0.00     0.029 A 
ATOM     45  C   UNL A   1      38.497  31.279  33.191  1.00  0.00     0.049 A 
ATOM     46  H   UNL A   1      39.504  30.120  31.782  1.00  0.00     0.167 HD
ATOM     47  C   UNL A   1      41.404  27.511  28.791  1.00  0.00     0.034 A 
ATOM     48  C   UNL A   1      39.256  31.305  34.304  1.00  0.00     0.034 A 
ATOM     49  C   UNL A   1      42.319  27.547  29.905  1.00  0.00     0.049 A 
ATOM     50  C   UNL A   1      40.568  30.560  34.310  1.00  0.00     0.074 A 
ATOM     51  C   UNL A   1      43.564  26.952  30.020  1.00  0.00     0.029 A 
ATOM     52  N   UNL A   1      42.090  28.217  31.100  1.00  0.00    -0.354 N 
ATOM     53  N   UNL A   1      41.105  29.825  33.363  1.00  0.00    -0.248 NA
ATOM     54  C   UNL A   1      41.384  30.662  35.526  1.00  0.00     0.031 C 
ATOM     55  C   UNL A   1      44.062  27.216  31.301  1.00  0.00     0.029 A 
ATOM     56  C   UNL A   1      43.160  28.035  31.962  1.00  0.00     0.049 A 
ATOM     57  H   UNL A   1      41.285  28.745  31.304  1.00  0.00     0.167 HD
ATOM     58  C   UNL A   1      42.335  29.405  33.860  1.00  0.00     0.074 A 
ATOM     59  C   UNL A   1      42.468  29.981  35.182  1.00  0.00     0.031 C 
ATOM     60  C   UNL A   1      43.275  28.617  33.278  1.00  0.00     0.034 A 
BRANCH  47  61
ATOM     61  C   UNL A   1      41.764  26.684  27.579  1.00  0.00     0.023 A 
ATOM     62  C   UNL A   1      41.521  25.300  27.531  1.00  0.00     0.031 A 
ATOM     63  C   UNL A   1      42.379  27.281  26.464  1.00  0.00     0.131 A 
ATOM     64  C   UNL A   1      41.957  24.549  26.428  1.00  0.00     0.055 A 
ATOM     65  C   UNL A   1      42.737  26.542  25.335  1.00  0.00     0.041 A 
ATOM     66  F   UNL A   1      42.654  28.596  26.458  1.00  0.00    -0.206 F 
ATOM     67  C   UNL A   1      42.540  25.164  25.319  1.00  0.00     0.022 A 
BRANCH  64  68
ATOM     68  S   UNL A   1      41.869  22.741  26.524  1.00  0.00     0.124 S 
ATOM     69  O   UNL A   1      42.251  22.500  27.914  1.00  0.00    -0.237 OA
ATOM     70  O   UNL A   1      40.475  22.472  26.190  1.00  0.00    -0.237 OA
ATOM     71  O   UNL A   1      42.845  22.296  25.531  1.00  0.00    -0.744 OA
ENDBRANCH  64  68
ENDBRANCH  47  61
BRANCH  48  72
ATOM     72  C   UNL A   1      38.800  32.045  35.517  1.00  0.00     0.023 A 
ATOM     73  C   UNL A   1      38.255  31.365  36.618  1.00  0.00     0.031 A 
ATOM     74  C   UNL A   1      38.853  33.448  35.570  1.00  0.00     0.131 A 
ATOM     75  C   UNL A   1      37.734  32.089  37.701  1.00  0.00     0.055 A 
ATOM     76  C   UNL A   1      38.384  34.164  36.674  1.00  0.00     0.041 A 
ATOM     77  F   UNL A   1      39.370  34.149  34.548  1.00  0.00    -0.206 F 
ATOM     78  C   UNL A   1      37.806  33.484  37.742  1.00  0.00     0.022 A 
BRANCH  75  79
ATOM     79  S   UNL A   1      36.873  31.186  39.018  1.00  0.00     0.124 S 
ATOM     80  O   UNL A   1      35.648  31.966  39.160  1.00  0.00    -0.237 OA
ATOM     81  O   UNL A   1      36.725  29.861  38.426  1.00  0.00    -0.237 OA
ATOM     82  O   UNL A   1      37.798  31.263  40.146  1.00  0.00    -0.744 OA
ENDBRANCH  75  79
ENDBRANCH  48  72
BRANCH  60  83
ATOM     83  C   UNL A   1      44.548  28.382  34.051  1.00  0.00     0.023 A 
ATOM     84  C   UNL A   1      44.692  27.295  34.930  1.00  0.00     0.031 A 
ATOM     85  C   UNL A   1      45.628  29.272  33.916  1.00  0.00     0.131 A 
ATOM     86  C   UNL A   1      45.869  27.154  35.680  1.00  0.00     0.055 A 
ATOM     87  C   UNL A   1      46.819  29.095  34.621  1.00  0.00     0.041 A 
ATOM     88  F   UNL A   1      45.544  30.329  33.090  1.00  0.00    -0.206 F 
ATOM     89  C   UNL A   1      46.939  28.039  35.519  1.00  0.00     0.022 A 
BRANCH  86  90
ATOM     90  S   UNL A   1      45.952  25.848  36.935  1.00  0.00     0.124 S 
ATOM     91  O   UNL A   1      46.006  24.641  36.115  1.00  0.00    -0.237 OA
ATOM     92  O   UNL A   1      47.175  26.184  37.656  1.00  0.00    -0.237 OA
ATOM     93  O   UNL A   1      44.717  26.024  37.697  1.00  0.00    -0.744 OA
ENDBRANCH  86  90
ENDBRANCH  60  83
ENDBRANCH  34  35
ENDBRANCH  26  29
ENDBRANCH  24  25
ENDBRANCH   1  24
TORSDOF 16
ENDMDL
MODEL 3
REMARK VINA RESULT:     -12.2      5.339      8.027
REMARK SMILES COc1ccc(-c2ccc(C(=O)NCCCNC(=O)c3ccc(-c4c5nc(c(-c6cc(S(=O)(=O)[O-])ccc6F)c6ccc([nH]6)c(-c6cc(S(=O)(=O)[O-])ccc6F)c6nc(c(-c7cc(S(=O)(=O)[O-])ccc7F)c7ccc4[nH]7)C=C6)C=C5)cc3)c(N)c2)cc1
REMARK SMILES IDX 15 1 14 2 13 3 11 4 12 5 10 7 7 8 8 9 85 10 9 11 83 12 6 13
REMARK SMILES IDX 3 14 4 15 87 16 5 17 86 18 2 19 1 20 84 21 16 24 17 25 18 26
REMARK SMILES IDX 19 28 20 29 21 30 82 31 22 32 81 33 23 34 24 35 25 36 75 37
REMARK SMILES IDX 26 38 80 39 74 40 76 41 27 42 79 43 73 44 72 45 28 47 60 48
REMARK SMILES IDX 40 49 59 50 41 51 44 52 58 53 77 54 42 55 43 56 57 58 78 59
REMARK SMILES IDX 45 60 29 61 30 62 38 63 31 64 37 65 39 66 36 67 32 68 33 69
REMARK SMILES IDX 34 70 35 71 61 72 62 73 70 74 63 75 69 76 71 77 68 78 64 79
REMARK SMILES IDX 65 80 66 81 67 82 46 83 47 84 55 85 48 86 54 87 56 88 53 89
REMARK SMILES IDX 49 90 50 91 51 92 52 93
REMARK H PARENT 13 6 84 22 84 23 17 27 76 46 44 57
REMARK Flexibility Score: inf
ROOT
ATOM      1  C   UNL A   1      35.003  22.007  24.599  1.00  0.00     0.042 C 
ENDROOT
BRANCH   1   2
ATOM      2  C   UNL A   1      33.653  21.420  25.012  1.00  0.00     0.118 C 
BRANCH   2   3
ATOM      3  N   UNL A   1      33.431  21.600  26.435  1.00  0.00    -0.352 N 
ATOM      4  C   UNL A   1      32.854  22.617  27.151  1.00  0.00     0.253 C 
ATOM      5  O   UNL A   1      32.833  22.496  28.378  1.00  0.00    -0.269 OA
ATOM      6  H   UNL A   1      33.754  20.853  26.989  1.00  0.00     0.163 HD
BRANCH   4   7
ATOM      7  C   UNL A   1      32.167  23.793  26.543  1.00  0.00     0.062 A 
ATOM      8  C   UNL A   1      31.202  26.142  25.285  1.00  0.00    -0.016 A 
ATOM      9  C   UNL A   1      32.570  25.965  25.485  1.00  0.00     0.010 A 
ATOM     10  C   UNL A   1      30.330  25.131  25.709  1.00  0.00     0.035 A 
ATOM     11  C   UNL A   1      33.043  24.812  26.116  1.00  0.00     0.016 A 
ATOM     12  C   UNL A   1      30.791  23.939  26.297  1.00  0.00     0.045 A 
BRANCH   8  13
ATOM     13  C   UNL A   1      30.677  27.321  24.598  1.00  0.00    -0.018 A 
ATOM     14  C   UNL A   1      29.634  29.592  23.316  1.00  0.00     0.118 A 
ATOM     15  C   UNL A   1      29.100  28.333  23.050  1.00  0.00     0.047 A 
ATOM     16  C   UNL A   1      30.661  29.729  24.251  1.00  0.00     0.047 A 
ATOM     17  C   UNL A   1      29.626  27.203  23.677  1.00  0.00     0.012 A 
ATOM     18  C   UNL A   1      31.181  28.598  24.885  1.00  0.00     0.012 A 
BRANCH  14  19
ATOM     19  O   UNL A   1      29.059  30.647  22.663  1.00  0.00    -0.497 OA
ATOM     20  C   UNL A   1      27.907  31.156  23.330  1.00  0.00     0.278 C 
ENDBRANCH  14  19
ENDBRANCH   8  13
BRANCH  12  21
ATOM     21  N   UNL A   1      29.846  22.933  26.476  1.00  0.00    -0.398 N 
ATOM     22  H   UNL A   1      28.936  23.160  26.773  1.00  0.00     0.156 HD
ATOM     23  H   UNL A   1      30.088  21.994  26.306  1.00  0.00     0.156 HD
ENDBRANCH  12  21
ENDBRANCH   4   7
ENDBRANCH   2   3
ENDBRANCH   1   2
BRANCH   1  24
ATOM     24  C   UNL A   1      36.011  22.104  25.736  1.00  0.00     0.118 C 
BRANCH  24  25
ATOM     25  N   UNL A   1      36.946  20.993  25.729  1.00  0.00    -0.352 N 
ATOM     26  C   UNL A   1      38.316  21.004  25.774  1.00  0.00     0.251 C 
ATOM     27  H   UNL A   1      36.534  20.100  25.687  1.00  0.00     0.163 HD
ATOM     28  O   UNL A   1      38.925  19.963  25.505  1.00  0.00    -0.269 OA
BRANCH  26  29
ATOM     29  C   UNL A   1      39.072  22.233  26.118  1.00  0.00     0.039 A 
ATOM     30  C   UNL A   1      40.244  22.114  26.873  1.00  0.00     0.014 A 
ATOM     31  C   UNL A   1      38.610  23.505  25.764  1.00  0.00     0.014 A 
ATOM     32  C   UNL A   1      40.964  23.256  27.239  1.00  0.00     0.010 A 
ATOM     33  C   UNL A   1      39.370  24.637  26.062  1.00  0.00     0.010 A 
ATOM     34  C   UNL A   1      40.545  24.527  26.821  1.00  0.00    -0.014 A 
BRANCH  34  35
ATOM     35  C   UNL A   1      41.286  25.756  27.216  1.00  0.00     0.031 A 
ATOM     36  C   UNL A   1      40.607  26.798  28.069  1.00  0.00     0.074 A 
ATOM     37  C   UNL A   1      42.545  25.957  26.779  1.00  0.00     0.049 A 
ATOM     38  N   UNL A   1      41.040  27.974  28.447  1.00  0.00    -0.248 NA
ATOM     39  C   UNL A   1      39.247  26.483  28.533  1.00  0.00     0.031 C 
ATOM     40  C   UNL A   1      43.300  25.038  25.927  1.00  0.00     0.029 A 
ATOM     41  N   UNL A   1      43.409  27.006  26.981  1.00  0.00    -0.354 N 
ATOM     42  C   UNL A   1      40.001  28.546  29.176  1.00  0.00     0.074 A 
ATOM     43  C   UNL A   1      38.898  27.610  29.136  1.00  0.00     0.031 C 
ATOM     44  C   UNL A   1      44.518  25.554  25.693  1.00  0.00     0.029 A 
ATOM     45  C   UNL A   1      44.618  26.859  26.340  1.00  0.00     0.049 A 
ATOM     46  H   UNL A   1      43.184  27.789  27.532  1.00  0.00     0.167 HD
ATOM     47  C   UNL A   1      39.976  29.731  29.836  1.00  0.00     0.034 A 
ATOM     48  C   UNL A   1      45.679  27.687  26.270  1.00  0.00     0.034 A 
ATOM     49  C   UNL A   1      41.092  30.644  29.886  1.00  0.00     0.049 A 
ATOM     50  C   UNL A   1      45.626  29.003  27.005  1.00  0.00     0.074 A 
ATOM     51  C   UNL A   1      41.190  31.852  30.556  1.00  0.00     0.029 A 
ATOM     52  N   UNL A   1      42.307  30.451  29.241  1.00  0.00    -0.354 N 
ATOM     53  N   UNL A   1      44.646  29.514  27.716  1.00  0.00    -0.248 NA
ATOM     54  C   UNL A   1      46.826  29.847  26.943  1.00  0.00     0.031 C 
ATOM     55  C   UNL A   1      42.440  32.413  30.272  1.00  0.00     0.029 A 
ATOM     56  C   UNL A   1      43.151  31.523  29.481  1.00  0.00     0.049 A 
ATOM     57  H   UNL A   1      42.534  29.666  28.692  1.00  0.00     0.167 HD
ATOM     58  C   UNL A   1      45.126  30.723  28.211  1.00  0.00     0.074 A 
ATOM     59  C   UNL A   1      46.486  30.858  27.731  1.00  0.00     0.031 C 
ATOM     60  C   UNL A   1      44.504  31.641  28.993  1.00  0.00     0.034 A 
BRANCH  47  61
ATOM     61  C   UNL A   1      38.694  30.108  30.539  1.00  0.00     0.023 A 
ATOM     62  C   UNL A   1      37.768  30.993  29.958  1.00  0.00     0.031 A 
ATOM     63  C   UNL A   1      38.401  29.596  31.815  1.00  0.00     0.131 A 
ATOM     64  C   UNL A   1      36.634  31.395  30.682  1.00  0.00     0.055 A 
ATOM     65  C   UNL A   1      37.231  29.937  32.496  1.00  0.00     0.041 A 
ATOM     66  F   UNL A   1      39.256  28.762  32.429  1.00  0.00    -0.206 F 
ATOM     67  C   UNL A   1      36.346  30.854  31.935  1.00  0.00     0.022 A 
BRANCH  64  68
ATOM     68  S   UNL A   1      35.612  32.736  30.013  1.00  0.00     0.124 S 
ATOM     69  O   UNL A   1      34.376  32.571  30.777  1.00  0.00    -0.237 OA
ATOM     70  O   UNL A   1      36.401  33.922  30.324  1.00  0.00    -0.237 OA
ATOM     71  O   UNL A   1      35.506  32.411  28.592  1.00  0.00    -0.744 OA
ENDBRANCH  64  68
ENDBRANCH  47  61
BRANCH  48  72
ATOM     72  C   UNL A   1      46.880  27.316  25.467  1.00  0.00     0.023 A 
ATOM     73  C   UNL A   1      47.051  27.791  24.157  1.00  0.00     0.031 A 
ATOM     74  C   UNL A   1      47.849  26.436  25.980  1.00  0.00     0.131 A 
ATOM     75  C   UNL A   1      48.133  27.342  23.385  1.00  0.00     0.055 A 
ATOM     76  C   UNL A   1      48.955  26.035  25.228  1.00  0.00     0.041 A 
ATOM     77  F   UNL A   1      47.739  25.956  27.230  1.00  0.00    -0.206 F 
ATOM     78  C   UNL A   1      49.093  26.476  23.915  1.00  0.00     0.022 A 
BRANCH  75  79
ATOM     79  S   UNL A   1      48.218  27.831  21.639  1.00  0.00     0.124 S 
ATOM     80  O   UNL A   1      48.465  26.551  20.985  1.00  0.00    -0.237 OA
ATOM     81  O   UNL A   1      46.899  28.416  21.427  1.00  0.00    -0.237 OA
ATOM     82  O   UNL A   1      49.331  28.777  21.605  1.00  0.00    -0.744 OA
ENDBRANCH  75  79
ENDBRANCH  48  72
BRANCH  60  83
ATOM     83  C   UNL A   1      45.313  32.840  29.421  1.00  0.00     0.023 A 
ATOM     84  C   UNL A   1      45.329  34.028  28.671  1.00  0.00     0.031 A 
ATOM     85  C   UNL A   1      46.091  32.784  30.591  1.00  0.00     0.131 A 
ATOM     86  C   UNL A   1      46.149  35.094  29.069  1.00  0.00     0.055 A 
ATOM     87  C   UNL A   1      46.860  33.868  31.014  1.00  0.00     0.041 A 
ATOM     88  F   UNL A   1      46.113  31.672  31.344  1.00  0.00    -0.206 F 
ATOM     89  C   UNL A   1      46.903  35.027  30.245  1.00  0.00     0.022 A 
BRANCH  86  90
ATOM     90  S   UNL A   1      46.286  36.541  27.985  1.00  0.00     0.124 S 
ATOM     91  O   UNL A   1      44.995  37.193  28.182  1.00  0.00    -0.237 OA
ATOM     92  O   UNL A   1      47.443  37.238  28.537  1.00  0.00    -0.237 OA
ATOM     93  O   UNL A   1      46.490  35.959  26.659  1.00  0.00    -0.744 OA
ENDBRANCH  86  90
ENDBRANCH  60  83
ENDBRANCH  34  35
ENDBRANCH  26  29
ENDBRANCH  24  25
ENDBRANCH   1  24
TORSDOF 16
ENDMDL
