MODEL 1
REMARK VINA RESULT:     -13.5      0.000      0.000
REMARK SMILES NS(=O)(=O)c1ccc(-n2nc(C(=O)NCCCC(=O)NCCCNC(=O)c3ccc(-c4c5nc(c(-c6cc(S(=O)(=O)[O-])ccc6F)c6ccc([nH]6)c(-c6cc(S(=O)(=O)[O-])ccc6F)c6nc(c(-c7cc(S(=O)(=O)[O-])ccc7F)c7ccc4[nH]7)C=C6)C=C5)cc3)cc2-c2ccccc2)cc1
REMARK SMILES IDX 18 1 19 2 20 3 17 5 16 6 15 7 14 8 12 9 13 10 11 12 9 13
REMARK SMILES IDX 10 14 91 15 90 16 8 17 5 18 6 19 99 20 7 21 98 22 2 23 3 24
REMARK SMILES IDX 4 25 1 26 92 29 93 30 97 31 94 32 96 33 95 34 21 35 22 36
REMARK SMILES IDX 23 37 24 38 25 39 26 41 27 42 28 43 89 44 29 45 88 46 30 47
REMARK SMILES IDX 31 48 32 49 82 50 33 51 87 52 81 53 83 54 34 55 86 56 80 57
REMARK SMILES IDX 79 58 35 60 67 61 47 62 66 63 48 64 51 65 65 66 84 67 49 68
REMARK SMILES IDX 50 69 64 71 85 72 52 73 36 74 37 75 45 76 38 77 44 78 46 79
REMARK SMILES IDX 43 80 39 81 40 82 41 83 42 84 68 85 69 86 77 87 70 88 76 89
REMARK SMILES IDX 78 90 75 91 71 92 72 93 73 94 74 95 53 96 54 97 62 98 55 99
REMARK SMILES IDX 61 100 63 101 60 102 56 103 57 104 58 105 59 106
REMARK H PARENT 20 4 14 11 1 27 1 28 24 40 83 59 51 70
REMARK Flexibility Score: inf
ROOT
ATOM      1  C   UNL A   1      32.835  29.034  23.721  1.00  0.00     0.220 C 
ATOM      2  O   UNL A   1      33.381  28.750  22.655  1.00  0.00    -0.275 OA
ATOM      3  N   UNL A   1      33.616  29.375  24.783  1.00  0.00    -0.356 N 
ATOM      4  H   UNL A   1      34.581  29.395  24.588  1.00  0.00     0.163 HD
ENDROOT
BRANCH   1   5
ATOM      5  C   UNL A   1      31.326  29.006  23.835  1.00  0.00     0.102 C 
BRANCH   5   6
ATOM      6  C   UNL A   1      30.652  28.005  22.893  1.00  0.00     0.031 C 
BRANCH   6   7
ATOM      7  C   UNL A   1      30.638  26.555  23.363  1.00  0.00     0.116 C 
BRANCH   7   8
ATOM      8  N   UNL A   1      29.936  26.352  24.619  1.00  0.00    -0.351 N 
ATOM      9  C   UNL A   1      30.162  25.443  25.629  1.00  0.00     0.271 C 
ATOM     10  O   UNL A   1      29.391  25.473  26.590  1.00  0.00    -0.267 OA
ATOM     11  H   UNL A   1      29.178  26.961  24.772  1.00  0.00     0.163 HD
BRANCH   9  12
ATOM     12  C   UNL A   1      31.269  24.478  25.524  1.00  0.00     0.151 A 
ATOM     13  N   UNL A   1      32.258  22.615  25.139  1.00  0.00    -0.232 N 
ATOM     14  N   UNL A   1      31.054  23.229  25.062  1.00  0.00    -0.162 NA
ATOM     15  C   UNL A   1      33.279  23.521  25.388  1.00  0.00     0.075 A 
ATOM     16  C   UNL A   1      32.644  24.665  25.815  1.00  0.00     0.065 A 
BRANCH  13  17
ATOM     17  C   UNL A   1      32.396  21.226  24.885  1.00  0.00     0.065 A 
ATOM     18  C   UNL A   1      32.999  18.557  24.388  1.00  0.00     0.082 A 
ATOM     19  C   UNL A   1      32.908  19.005  25.708  1.00  0.00     0.024 A 
ATOM     20  C   UNL A   1      32.746  19.423  23.317  1.00  0.00     0.024 A 
ATOM     21  C   UNL A   1      32.606  20.341  25.955  1.00  0.00     0.030 A 
ATOM     22  C   UNL A   1      32.415  20.758  23.565  1.00  0.00     0.030 A 
BRANCH  18  23
ATOM     23  S   UNL A   1      33.497  16.886  24.100  1.00  0.00     0.238 S 
ATOM     24  O   UNL A   1      33.792  16.731  22.690  1.00  0.00    -0.207 OA
ATOM     25  O   UNL A   1      32.624  15.997  24.818  1.00  0.00    -0.207 OA
BRANCH  23  26
ATOM     26  N   UNL A   1      34.976  16.769  24.894  1.00  0.00    -0.225 NA
ATOM     27  H   UNL A   1      35.712  17.149  24.298  1.00  0.00     0.137 HD
ATOM     28  H   UNL A   1      35.177  15.790  25.097  1.00  0.00     0.137 HD
ENDBRANCH  23  26
ENDBRANCH  18  23
ENDBRANCH  13  17
BRANCH  15  29
ATOM     29  C   UNL A   1      34.693  23.313  25.076  1.00  0.00     0.000 A 
ATOM     30  C   UNL A   1      35.133  23.410  23.744  1.00  0.00     0.010 A 
ATOM     31  C   UNL A   1      35.627  23.059  26.081  1.00  0.00     0.010 A 
ATOM     32  C   UNL A   1      36.472  23.204  23.418  1.00  0.00     0.001 A 
ATOM     33  C   UNL A   1      36.972  22.864  25.755  1.00  0.00     0.001 A 
ATOM     34  C   UNL A   1      37.390  22.928  24.424  1.00  0.00     0.000 A 
ENDBRANCH  15  29
ENDBRANCH   9  12
ENDBRANCH   7   8
ENDBRANCH   6   7
ENDBRANCH   5   6
ENDBRANCH   1   5
BRANCH   3  35
ATOM     35  C   UNL A   1      33.272  29.715  26.157  1.00  0.00     0.117 C 
BRANCH  35  36
ATOM     36  C   UNL A   1      34.017  28.844  27.176  1.00  0.00     0.042 C 
BRANCH  36  37
ATOM     37  C   UNL A   1      35.427  29.319  27.463  1.00  0.00     0.118 C 
BRANCH  37  38
ATOM     38  N   UNL A   1      35.599  29.821  28.823  1.00  0.00    -0.352 N 
ATOM     39  C   UNL A   1      36.595  29.473  29.722  1.00  0.00     0.251 C 
ATOM     40  H   UNL A   1      34.935  30.478  29.136  1.00  0.00     0.163 HD
ATOM     41  O   UNL A   1      36.420  29.622  30.925  1.00  0.00    -0.269 OA
BRANCH  39  42
ATOM     42  C   UNL A   1      37.851  28.901  29.197  1.00  0.00     0.039 A 
ATOM     43  C   UNL A   1      38.493  29.438  28.080  1.00  0.00     0.014 A 
ATOM     44  C   UNL A   1      38.418  27.834  29.888  1.00  0.00     0.014 A 
ATOM     45  C   UNL A   1      39.751  28.946  27.734  1.00  0.00     0.010 A 
ATOM     46  C   UNL A   1      39.728  27.494  29.670  1.00  0.00     0.010 A 
ATOM     47  C   UNL A   1      40.382  27.993  28.557  1.00  0.00    -0.014 A 
BRANCH  47  48
ATOM     48  C   UNL A   1      41.775  27.608  28.339  1.00  0.00     0.031 A 
ATOM     49  C   UNL A   1      41.928  26.345  27.577  1.00  0.00     0.074 A 
ATOM     50  C   UNL A   1      42.846  28.388  28.617  1.00  0.00     0.049 A 
ATOM     51  N   UNL A   1      42.203  25.182  28.061  1.00  0.00    -0.248 NA
ATOM     52  C   UNL A   1      41.526  26.315  26.162  1.00  0.00     0.031 C 
ATOM     53  C   UNL A   1      42.862  29.773  29.101  1.00  0.00     0.029 A 
ATOM     54  N   UNL A   1      44.172  28.129  28.432  1.00  0.00    -0.354 N 
ATOM     55  C   UNL A   1      42.315  24.338  26.965  1.00  0.00     0.074 A 
ATOM     56  C   UNL A   1      41.639  25.012  25.890  1.00  0.00     0.031 C 
ATOM     57  C   UNL A   1      44.099  30.297  28.950  1.00  0.00     0.029 A 
ATOM     58  C   UNL A   1      45.004  29.244  28.528  1.00  0.00     0.049 A 
ATOM     59  H   UNL A   1      44.514  27.225  28.246  1.00  0.00     0.167 HD
ATOM     60  C   UNL A   1      43.216  23.317  26.973  1.00  0.00     0.034 A 
ATOM     61  C   UNL A   1      46.342  29.306  28.280  1.00  0.00     0.034 A 
ATOM     62  C   UNL A   1      43.693  23.064  28.322  1.00  0.00     0.049 A 
ATOM     63  C   UNL A   1      46.864  27.928  28.451  1.00  0.00     0.074 A 
ATOM     64  C   UNL A   1      43.075  22.800  29.533  1.00  0.00     0.029 A 
ATOM     65  N   UNL A   1      44.966  23.481  28.650  1.00  0.00    -0.354 N 
ATOM     66  N   UNL A   1      46.864  27.304  29.597  1.00  0.00    -0.248 NA
ATOM     67  C   UNL A   1      46.915  27.069  27.280  1.00  0.00     0.031 C 
ATOM     68  C   UNL A   1      43.807  23.564  30.491  1.00  0.00     0.029 A 
ATOM     69  C   UNL A   1      44.890  24.159  29.842  1.00  0.00     0.049 A 
ATOM     70  H   UNL A   1      45.783  23.321  28.125  1.00  0.00     0.167 HD
ATOM     71  C   UNL A   1      46.452  26.015  29.299  1.00  0.00     0.074 A 
ATOM     72  C   UNL A   1      46.596  25.901  27.848  1.00  0.00     0.031 C 
ATOM     73  C   UNL A   1      45.763  25.261  30.209  1.00  0.00     0.034 A 
BRANCH  60  74
ATOM     74  C   UNL A   1      43.983  22.836  25.756  1.00  0.00     0.023 A 
ATOM     75  C   UNL A   1      44.055  21.444  25.568  1.00  0.00     0.031 A 
ATOM     76  C   UNL A   1      44.875  23.604  24.973  1.00  0.00     0.131 A 
ATOM     77  C   UNL A   1      45.058  20.873  24.767  1.00  0.00     0.055 A 
ATOM     78  C   UNL A   1      45.825  23.033  24.120  1.00  0.00     0.041 A 
ATOM     79  F   UNL A   1      44.951  24.936  25.042  1.00  0.00    -0.206 F 
ATOM     80  C   UNL A   1      45.948  21.658  24.044  1.00  0.00     0.022 A 
BRANCH  77  81
ATOM     81  S   UNL A   1      45.297  19.081  24.858  1.00  0.00     0.124 S 
ATOM     82  O   UNL A   1      43.970  18.638  25.274  1.00  0.00    -0.237 OA
ATOM     83  O   UNL A   1      45.685  18.762  23.489  1.00  0.00    -0.237 OA
ATOM     84  O   UNL A   1      46.350  18.932  25.858  1.00  0.00    -0.744 OA
ENDBRANCH  77  81
ENDBRANCH  60  74
BRANCH  61  85
ATOM     85  C   UNL A   1      47.106  30.401  27.610  1.00  0.00     0.023 A 
ATOM     86  C   UNL A   1      46.482  31.523  27.016  1.00  0.00     0.031 A 
ATOM     87  C   UNL A   1      48.507  30.480  27.782  1.00  0.00     0.131 A 
ATOM     88  C   UNL A   1      47.248  32.655  26.642  1.00  0.00     0.055 A 
ATOM     89  C   UNL A   1      49.256  31.600  27.413  1.00  0.00     0.041 A 
ATOM     90  F   UNL A   1      49.188  29.505  28.404  1.00  0.00    -0.206 F 
ATOM     91  C   UNL A   1      48.629  32.699  26.852  1.00  0.00     0.022 A 
BRANCH  88  92
ATOM     92  S   UNL A   1      46.447  34.148  25.961  1.00  0.00     0.124 S 
ATOM     93  O   UNL A   1      47.517  34.741  25.169  1.00  0.00    -0.237 OA
ATOM     94  O   UNL A   1      45.321  33.592  25.220  1.00  0.00    -0.237 OA
ATOM     95  O   UNL A   1      46.074  34.910  27.155  1.00  0.00    -0.744 OA
ENDBRANCH  88  92
ENDBRANCH  61  85
BRANCH  73  96
ATOM     96  C   UNL A   1      45.754  25.697  31.663  1.00  0.00     0.023 A 
ATOM     97  C   UNL A   1      46.778  25.448  32.607  1.00  0.00     0.031 A 
ATOM     98  C   UNL A   1      44.676  26.501  32.075  1.00  0.00     0.131 A 
ATOM     99  C   UNL A   1      46.684  25.985  33.908  1.00  0.00     0.055 A 
ATOM    100  C   UNL A   1      44.598  27.050  33.353  1.00  0.00     0.041 A 
ATOM    101  F   UNL A   1      43.680  26.794  31.223  1.00  0.00    -0.206 F 
ATOM    102  C   UNL A   1      45.600  26.788  34.279  1.00  0.00     0.022 A 
BRANCH  99 103
ATOM    103  S   UNL A   1      47.956  25.629  35.167  1.00  0.00     0.124 S 
ATOM    104  O   UNL A   1      48.645  26.903  35.331  1.00  0.00    -0.237 OA
ATOM    105  O   UNL A   1      47.156  25.184  36.305  1.00  0.00    -0.237 OA
ATOM    106  O   UNL A   1      48.764  24.576  34.546  1.00  0.00    -0.744 OA
ENDBRANCH  99 103
ENDBRANCH  73  96
ENDBRANCH  47  48
ENDBRANCH  39  42
ENDBRANCH  37  38
ENDBRANCH  36  37
ENDBRANCH  35  36
ENDBRANCH   3  35
TORSDOF 21
ENDMDL
MODEL 2
REMARK VINA RESULT:     -13.0      2.406      6.601
REMARK SMILES NS(=O)(=O)c1ccc(-n2nc(C(=O)NCCCC(=O)NCCCNC(=O)c3ccc(-c4c5nc(c(-c6cc(S(=O)(=O)[O-])ccc6F)c6ccc([nH]6)c(-c6cc(S(=O)(=O)[O-])ccc6F)c6nc(c(-c7cc(S(=O)(=O)[O-])ccc7F)c7ccc4[nH]7)C=C6)C=C5)cc3)cc2-c2ccccc2)cc1
REMARK SMILES IDX 18 1 19 2 20 3 17 5 16 6 15 7 14 8 12 9 13 10 11 12 9 13
REMARK SMILES IDX 10 14 91 15 90 16 8 17 5 18 6 19 99 20 7 21 98 22 2 23 3 24
REMARK SMILES IDX 4 25 1 26 92 29 93 30 97 31 94 32 96 33 95 34 21 35 22 36
REMARK SMILES IDX 23 37 24 38 25 39 26 41 27 42 28 43 89 44 29 45 88 46 30 47
REMARK SMILES IDX 31 48 32 49 82 50 33 51 87 52 81 53 83 54 34 55 86 56 80 57
REMARK SMILES IDX 79 58 35 60 67 61 47 62 66 63 48 64 51 65 65 66 84 67 49 68
REMARK SMILES IDX 50 69 64 71 85 72 52 73 36 74 37 75 45 76 38 77 44 78 46 79
REMARK SMILES IDX 43 80 39 81 40 82 41 83 42 84 68 85 69 86 77 87 70 88 76 89
REMARK SMILES IDX 78 90 75 91 71 92 72 93 73 94 74 95 53 96 54 97 62 98 55 99
REMARK SMILES IDX 61 100 63 101 60 102 56 103 57 104 58 105 59 106
REMARK H PARENT 20 4 14 11 1 27 1 28 24 40 83 59 51 70
REMARK Flexibility Score: inf
ROOT
ATOM      1  C   UNL A   1      33.144  28.975  24.338  1.00  0.00     0.220 C 
ATOM      2  O   UNL A   1      33.646  29.074  23.218  1.00  0.00    -0.275 OA
ATOM      3  N   UNL A   1      33.800  29.526  25.396  1.00  0.00    -0.356 N 
ATOM      4  H   UNL A   1      34.632  29.997  25.159  1.00  0.00     0.163 HD
ENDROOT
BRANCH   1   5
ATOM      5  C   UNL A   1      31.823  28.261  24.520  1.00  0.00     0.102 C 
BRANCH   5   6
ATOM      6  C   UNL A   1      31.226  27.720  23.219  1.00  0.00     0.031 C 
BRANCH   6   7
ATOM      7  C   UNL A   1      30.490  26.390  23.327  1.00  0.00     0.116 C 
BRANCH   7   8
ATOM      8  N   UNL A   1      29.826  26.189  24.603  1.00  0.00    -0.351 N 
ATOM      9  C   UNL A   1      30.117  25.319  25.633  1.00  0.00     0.271 C 
ATOM     10  O   UNL A   1      29.367  25.340  26.609  1.00  0.00    -0.267 OA
ATOM     11  H   UNL A   1      29.043  26.765  24.758  1.00  0.00     0.163 HD
BRANCH   9  12
ATOM     12  C   UNL A   1      31.268  24.406  25.527  1.00  0.00     0.151 A 
ATOM     13  N   UNL A   1      32.338  22.587  25.152  1.00  0.00    -0.232 N 
ATOM     14  N   UNL A   1      31.107  23.144  25.079  1.00  0.00    -0.162 NA
ATOM     15  C   UNL A   1      33.318  23.541  25.386  1.00  0.00     0.075 A 
ATOM     16  C   UNL A   1      32.634  24.659  25.807  1.00  0.00     0.065 A 
BRANCH  13  17
ATOM     17  C   UNL A   1      32.539  21.203  24.909  1.00  0.00     0.065 A 
ATOM     18  C   UNL A   1      33.245  18.574  24.342  1.00  0.00     0.082 A 
ATOM     19  C   UNL A   1      33.467  19.082  25.624  1.00  0.00     0.024 A 
ATOM     20  C   UNL A   1      32.631  19.356  23.356  1.00  0.00     0.024 A 
ATOM     21  C   UNL A   1      33.112  20.398  25.906  1.00  0.00     0.030 A 
ATOM     22  C   UNL A   1      32.250  20.669  23.647  1.00  0.00     0.030 A 
BRANCH  18  23
ATOM     23  S   UNL A   1      33.810  16.940  23.977  1.00  0.00     0.238 S 
ATOM     24  O   UNL A   1      34.965  16.657  24.805  1.00  0.00    -0.207 OA
ATOM     25  O   UNL A   1      33.802  16.739  22.554  1.00  0.00    -0.207 OA
BRANCH  23  26
ATOM     26  N   UNL A   1      32.577  15.953  24.557  1.00  0.00    -0.225 NA
ATOM     27  H   UNL A   1      32.983  15.143  25.026  1.00  0.00     0.137 HD
ATOM     28  H   UNL A   1      31.997  15.639  23.779  1.00  0.00     0.137 HD
ENDBRANCH  23  26
ENDBRANCH  18  23
ENDBRANCH  13  17
BRANCH  15  29
ATOM     29  C   UNL A   1      34.739  23.396  25.065  1.00  0.00     0.000 A 
ATOM     30  C   UNL A   1      35.123  23.029  23.764  1.00  0.00     0.010 A 
ATOM     31  C   UNL A   1      35.726  23.653  26.018  1.00  0.00     0.010 A 
ATOM     32  C   UNL A   1      36.468  22.872  23.435  1.00  0.00     0.001 A 
ATOM     33  C   UNL A   1      37.075  23.506  25.684  1.00  0.00     0.001 A 
ATOM     34  C   UNL A   1      37.443  23.108  24.398  1.00  0.00     0.000 A 
ENDBRANCH  15  29
ENDBRANCH   9  12
ENDBRANCH   7   8
ENDBRANCH   6   7
ENDBRANCH   5   6
ENDBRANCH   1   5
BRANCH   3  35
ATOM     35  C   UNL A   1      33.485  29.539  26.819  1.00  0.00     0.117 C 
BRANCH  35  36
ATOM     36  C   UNL A   1      33.198  30.953  27.338  1.00  0.00     0.042 C 
BRANCH  36  37
ATOM     37  C   UNL A   1      34.447  31.743  27.670  1.00  0.00     0.118 C 
BRANCH  37  38
ATOM     38  N   UNL A   1      34.405  32.360  28.993  1.00  0.00    -0.352 N 
ATOM     39  C   UNL A   1      35.178  32.028  30.093  1.00  0.00     0.251 C 
ATOM     40  H   UNL A   1      33.755  33.090  29.115  1.00  0.00     0.163 HD
ATOM     41  O   UNL A   1      34.794  32.304  31.223  1.00  0.00    -0.269 OA
BRANCH  39  42
ATOM     42  C   UNL A   1      36.453  31.318  29.872  1.00  0.00     0.039 A 
ATOM     43  C   UNL A   1      37.686  31.943  30.070  1.00  0.00     0.014 A 
ATOM     44  C   UNL A   1      36.397  29.975  29.514  1.00  0.00     0.014 A 
ATOM     45  C   UNL A   1      38.845  31.172  29.992  1.00  0.00     0.010 A 
ATOM     46  C   UNL A   1      37.510  29.184  29.636  1.00  0.00     0.010 A 
ATOM     47  C   UNL A   1      38.749  29.778  29.809  1.00  0.00    -0.014 A 
BRANCH  47  48
ATOM     48  C   UNL A   1      39.923  28.916  29.925  1.00  0.00     0.031 A 
ATOM     49  C   UNL A   1      40.299  28.613  31.327  1.00  0.00     0.074 A 
ATOM     50  C   UNL A   1      40.521  28.281  28.890  1.00  0.00     0.049 A 
ATOM     51  N   UNL A   1      41.251  29.159  32.004  1.00  0.00    -0.248 NA
ATOM     52  C   UNL A   1      39.400  27.777  32.139  1.00  0.00     0.031 C 
ATOM     53  C   UNL A   1      40.105  28.239  27.483  1.00  0.00     0.029 A 
ATOM     54  N   UNL A   1      41.599  27.446  28.898  1.00  0.00    -0.354 N 
ATOM     55  C   UNL A   1      41.262  28.503  33.227  1.00  0.00     0.074 A 
ATOM     56  C   UNL A   1      39.970  27.882  33.343  1.00  0.00     0.031 C 
ATOM     57  C   UNL A   1      40.770  27.255  26.837  1.00  0.00     0.029 A 
ATOM     58  C   UNL A   1      41.781  26.713  27.726  1.00  0.00     0.049 A 
ATOM     59  H   UNL A   1      42.202  27.367  29.673  1.00  0.00     0.167 HD
ATOM     60  C   UNL A   1      42.437  28.282  33.878  1.00  0.00     0.034 A 
ATOM     61  C   UNL A   1      42.695  25.731  27.493  1.00  0.00     0.034 A 
ATOM     62  C   UNL A   1      43.495  29.107  33.320  1.00  0.00     0.049 A 
ATOM     63  C   UNL A   1      43.807  25.957  28.449  1.00  0.00     0.074 A 
ATOM     64  C   UNL A   1      43.644  30.463  33.086  1.00  0.00     0.029 A 
ATOM     65  N   UNL A   1      44.440  28.497  32.520  1.00  0.00    -0.354 N 
ATOM     66  N   UNL A   1      44.576  27.011  28.411  1.00  0.00    -0.248 NA
ATOM     67  C   UNL A   1      43.745  25.285  29.737  1.00  0.00     0.031 C 
ATOM     68  C   UNL A   1      44.272  30.547  31.807  1.00  0.00     0.029 A 
ATOM     69  C   UNL A   1      44.573  29.252  31.381  1.00  0.00     0.049 A 
ATOM     70  H   UNL A   1      44.930  27.669  32.728  1.00  0.00     0.167 HD
ATOM     71  C   UNL A   1      44.717  27.395  29.735  1.00  0.00     0.074 A 
ATOM     72  C   UNL A   1      44.269  26.240  30.511  1.00  0.00     0.031 C 
ATOM     73  C   UNL A   1      44.907  28.706  30.077  1.00  0.00     0.034 A 
BRANCH  60  74
ATOM     74  C   UNL A   1      42.744  27.050  34.708  1.00  0.00     0.023 A 
ATOM     75  C   UNL A   1      43.558  26.073  34.106  1.00  0.00     0.031 A 
ATOM     76  C   UNL A   1      42.067  26.643  35.881  1.00  0.00     0.131 A 
ATOM     77  C   UNL A   1      43.558  24.747  34.569  1.00  0.00     0.055 A 
ATOM     78  C   UNL A   1      42.128  25.338  36.380  1.00  0.00     0.041 A 
ATOM     79  F   UNL A   1      41.241  27.440  36.565  1.00  0.00    -0.206 F 
ATOM     80  C   UNL A   1      42.844  24.370  35.701  1.00  0.00     0.022 A 
BRANCH  77  81
ATOM     81  S   UNL A   1      44.349  23.489  33.535  1.00  0.00     0.124 S 
ATOM     82  O   UNL A   1      45.678  24.063  33.356  1.00  0.00    -0.237 OA
ATOM     83  O   UNL A   1      44.264  22.307  34.386  1.00  0.00    -0.237 OA
ATOM     84  O   UNL A   1      43.511  23.461  32.340  1.00  0.00    -0.744 OA
ENDBRANCH  77  81
ENDBRANCH  60  74
BRANCH  61  85
ATOM     85  C   UNL A   1      42.510  24.461  26.730  1.00  0.00     0.023 A 
ATOM     86  C   UNL A   1      43.522  23.895  25.919  1.00  0.00     0.031 A 
ATOM     87  C   UNL A   1      41.394  23.637  27.005  1.00  0.00     0.131 A 
ATOM     88  C   UNL A   1      43.399  22.567  25.440  1.00  0.00     0.055 A 
ATOM     89  C   UNL A   1      41.280  22.328  26.532  1.00  0.00     0.041 A 
ATOM     90  F   UNL A   1      40.414  24.046  27.824  1.00  0.00    -0.206 F 
ATOM     91  C   UNL A   1      42.289  21.781  25.757  1.00  0.00     0.022 A 
BRANCH  88  92
ATOM     92  S   UNL A   1      44.738  21.790  24.472  1.00  0.00     0.124 S 
ATOM     93  O   UNL A   1      45.925  22.458  24.992  1.00  0.00    -0.237 OA
ATOM     94  O   UNL A   1      44.590  20.377  24.804  1.00  0.00    -0.237 OA
ATOM     95  O   UNL A   1      44.401  22.129  23.088  1.00  0.00    -0.744 OA
ENDBRANCH  88  92
ENDBRANCH  61  85
BRANCH  73  96
ATOM     96  C   UNL A   1      45.315  29.692  28.996  1.00  0.00     0.023 A 
ATOM     97  C   UNL A   1      46.642  30.003  28.620  1.00  0.00     0.031 A 
ATOM     98  C   UNL A   1      44.276  30.271  28.245  1.00  0.00     0.131 A 
ATOM     99  C   UNL A   1      46.882  30.876  27.537  1.00  0.00     0.055 A 
ATOM    100  C   UNL A   1      44.517  31.114  27.161  1.00  0.00     0.041 A 
ATOM    101  F   UNL A   1      42.992  30.002  28.536  1.00  0.00    -0.206 F 
ATOM    102  C   UNL A   1      45.823  31.426  26.807  1.00  0.00     0.022 A 
BRANCH  99 103
ATOM    103  S   UNL A   1      48.581  31.347  27.067  1.00  0.00     0.124 S 
ATOM    104  O   UNL A   1      49.235  31.598  28.346  1.00  0.00    -0.237 OA
ATOM    105  O   UNL A   1      49.043  30.171  26.333  1.00  0.00    -0.237 OA
ATOM    106  O   UNL A   1      48.386  32.539  26.239  1.00  0.00    -0.744 OA
ENDBRANCH  99 103
ENDBRANCH  73  96
ENDBRANCH  47  48
ENDBRANCH  39  42
ENDBRANCH  37  38
ENDBRANCH  36  37
ENDBRANCH  35  36
ENDBRANCH   3  35
TORSDOF 21
ENDMDL
MODEL 3
REMARK VINA RESULT:     -13.0      4.311      5.843
REMARK SMILES NS(=O)(=O)c1ccc(-n2nc(C(=O)NCCCC(=O)NCCCNC(=O)c3ccc(-c4c5nc(c(-c6cc(S(=O)(=O)[O-])ccc6F)c6ccc([nH]6)c(-c6cc(S(=O)(=O)[O-])ccc6F)c6nc(c(-c7cc(S(=O)(=O)[O-])ccc7F)c7ccc4[nH]7)C=C6)C=C5)cc3)cc2-c2ccccc2)cc1
REMARK SMILES IDX 18 1 19 2 20 3 17 5 16 6 15 7 14 8 12 9 13 10 11 12 9 13
REMARK SMILES IDX 10 14 91 15 90 16 8 17 5 18 6 19 99 20 7 21 98 22 2 23 3 24
REMARK SMILES IDX 4 25 1 26 92 29 93 30 97 31 94 32 96 33 95 34 21 35 22 36
REMARK SMILES IDX 23 37 24 38 25 39 26 41 27 42 28 43 89 44 29 45 88 46 30 47
REMARK SMILES IDX 31 48 32 49 82 50 33 51 87 52 81 53 83 54 34 55 86 56 80 57
REMARK SMILES IDX 79 58 35 60 67 61 47 62 66 63 48 64 51 65 65 66 84 67 49 68
REMARK SMILES IDX 50 69 64 71 85 72 52 73 36 74 37 75 45 76 38 77 44 78 46 79
REMARK SMILES IDX 43 80 39 81 40 82 41 83 42 84 68 85 69 86 77 87 70 88 76 89
REMARK SMILES IDX 78 90 75 91 71 92 72 93 73 94 74 95 53 96 54 97 62 98 55 99
REMARK SMILES IDX 61 100 63 101 60 102 56 103 57 104 58 105 59 106
REMARK H PARENT 20 4 14 11 1 27 1 28 24 40 83 59 51 70
REMARK Flexibility Score: inf
ROOT
ATOM      1  C   UNL A   1      32.341  29.085  23.865  1.00  0.00     0.220 C 
ATOM      2  O   UNL A   1      33.229  28.827  23.052  1.00  0.00    -0.275 OA
ATOM      3  N   UNL A   1      32.698  29.414  25.137  1.00  0.00    -0.356 N 
ATOM      4  H   UNL A   1      33.670  29.448  25.290  1.00  0.00     0.163 HD
ENDROOT
BRANCH   1   5
ATOM      5  C   UNL A   1      30.888  29.039  23.446  1.00  0.00     0.102 C 
BRANCH   5   6
ATOM      6  C   UNL A   1      30.549  27.874  22.513  1.00  0.00     0.031 C 
BRANCH   6   7
ATOM      7  C   UNL A   1      30.638  26.482  23.129  1.00  0.00     0.116 C 
BRANCH   7   8
ATOM      8  N   UNL A   1      29.973  26.365  24.415  1.00  0.00    -0.351 N 
ATOM      9  C   UNL A   1      30.239  25.537  25.484  1.00  0.00     0.271 C 
ATOM     10  O   UNL A   1      29.493  25.630  26.460  1.00  0.00    -0.267 OA
ATOM     11  H   UNL A   1      29.210  26.974  24.543  1.00  0.00     0.163 HD
BRANCH   9  12
ATOM     12  C   UNL A   1      31.358  24.582  25.420  1.00  0.00     0.151 A 
ATOM     13  N   UNL A   1      32.373  22.724  25.084  1.00  0.00    -0.232 N 
ATOM     14  N   UNL A   1      31.167  23.326  24.967  1.00  0.00    -0.162 NA
ATOM     15  C   UNL A   1      33.379  23.642  25.353  1.00  0.00     0.075 A 
ATOM     16  C   UNL A   1      32.722  24.785  25.749  1.00  0.00     0.065 A 
BRANCH  13  17
ATOM     17  C   UNL A   1      32.531  21.333  24.849  1.00  0.00     0.065 A 
ATOM     18  C   UNL A   1      33.162  18.677  24.320  1.00  0.00     0.082 A 
ATOM     19  C   UNL A   1      33.321  19.174  25.616  1.00  0.00     0.024 A 
ATOM     20  C   UNL A   1      32.648  19.486  23.299  1.00  0.00     0.024 A 
ATOM     21  C   UNL A   1      33.003  20.504  25.879  1.00  0.00     0.030 A 
ATOM     22  C   UNL A   1      32.304  20.813  23.569  1.00  0.00     0.030 A 
BRANCH  18  23
ATOM     23  S   UNL A   1      33.680  17.021  23.986  1.00  0.00     0.238 S 
ATOM     24  O   UNL A   1      34.070  16.934  22.592  1.00  0.00    -0.207 OA
ATOM     25  O   UNL A   1      32.761  16.101  24.598  1.00  0.00    -0.207 OA
BRANCH  23  26
ATOM     26  N   UNL A   1      35.103  16.862  24.870  1.00  0.00    -0.225 NA
ATOM     27  H   UNL A   1      35.416  17.783  25.177  1.00  0.00     0.137 HD
ATOM     28  H   UNL A   1      35.822  16.437  24.285  1.00  0.00     0.137 HD
ENDBRANCH  23  26
ENDBRANCH  18  23
ENDBRANCH  13  17
BRANCH  15  29
ATOM     29  C   UNL A   1      34.803  23.444  25.083  1.00  0.00     0.000 A 
ATOM     30  C   UNL A   1      35.720  23.447  26.149  1.00  0.00     0.010 A 
ATOM     31  C   UNL A   1      35.270  23.211  23.788  1.00  0.00     0.010 A 
ATOM     32  C   UNL A   1      37.083  23.272  25.919  1.00  0.00     0.001 A 
ATOM     33  C   UNL A   1      36.635  23.025  23.559  1.00  0.00     0.001 A 
ATOM     34  C   UNL A   1      37.540  23.064  24.623  1.00  0.00     0.000 A 
ENDBRANCH  15  29
ENDBRANCH   9  12
ENDBRANCH   7   8
ENDBRANCH   6   7
ENDBRANCH   5   6
ENDBRANCH   1   5
BRANCH   3  35
ATOM     35  C   UNL A   1      31.891  29.725  26.310  1.00  0.00     0.117 C 
BRANCH  35  36
ATOM     36  C   UNL A   1      31.625  31.229  26.451  1.00  0.00     0.042 C 
BRANCH  36  37
ATOM     37  C   UNL A   1      32.735  31.977  27.160  1.00  0.00     0.118 C 
BRANCH  37  38
ATOM     38  N   UNL A   1      32.393  33.364  27.463  1.00  0.00    -0.352 N 
ATOM     39  C   UNL A   1      32.997  34.188  28.398  1.00  0.00     0.251 C 
ATOM     40  H   UNL A   1      31.651  33.755  26.945  1.00  0.00     0.163 HD
ATOM     41  O   UNL A   1      32.394  35.153  28.852  1.00  0.00    -0.269 OA
BRANCH  39  42
ATOM     42  C   UNL A   1      34.366  33.863  28.846  1.00  0.00     0.039 A 
ATOM     43  C   UNL A   1      34.612  33.277  30.089  1.00  0.00     0.014 A 
ATOM     44  C   UNL A   1      35.414  34.105  27.963  1.00  0.00     0.014 A 
ATOM     45  C   UNL A   1      35.909  32.858  30.383  1.00  0.00     0.010 A 
ATOM     46  C   UNL A   1      36.635  33.516  28.169  1.00  0.00     0.010 A 
ATOM     47  C   UNL A   1      36.915  32.948  29.400  1.00  0.00    -0.014 A 
BRANCH  47  48
ATOM     48  C   UNL A   1      38.227  32.336  29.601  1.00  0.00     0.031 A 
ATOM     49  C   UNL A   1      38.276  30.904  29.220  1.00  0.00     0.074 A 
ATOM     50  C   UNL A   1      39.355  33.012  29.916  1.00  0.00     0.049 A 
ATOM     51  N   UNL A   1      38.236  29.892  30.019  1.00  0.00    -0.248 NA
ATOM     52  C   UNL A   1      38.140  30.540  27.800  1.00  0.00     0.031 C 
ATOM     53  C   UNL A   1      39.543  34.463  30.044  1.00  0.00     0.029 A 
ATOM     54  N   UNL A   1      40.621  32.539  30.103  1.00  0.00    -0.354 N 
ATOM     55  C   UNL A   1      38.385  28.773  29.212  1.00  0.00     0.074 A 
ATOM     56  C   UNL A   1      38.055  29.210  27.883  1.00  0.00     0.031 C 
ATOM     57  C   UNL A   1      40.863  34.755  30.054  1.00  0.00     0.029 A 
ATOM     58  C   UNL A   1      41.616  33.516  30.111  1.00  0.00     0.049 A 
ATOM     59  H   UNL A   1      40.815  31.581  30.221  1.00  0.00     0.167 HD
ATOM     60  C   UNL A   1      39.062  27.683  29.669  1.00  0.00     0.034 A 
ATOM     61  C   UNL A   1      42.964  33.329  30.164  1.00  0.00     0.034 A 
ATOM     62  C   UNL A   1      39.229  27.749  31.110  1.00  0.00     0.049 A 
ATOM     63  C   UNL A   1      43.179  31.994  30.775  1.00  0.00     0.074 A 
ATOM     64  C   UNL A   1      38.363  27.911  32.178  1.00  0.00     0.029 A 
ATOM     65  N   UNL A   1      40.476  28.066  31.606  1.00  0.00    -0.354 N 
ATOM     66  N   UNL A   1      42.852  31.714  32.007  1.00  0.00    -0.248 NA
ATOM     67  C   UNL A   1      43.279  30.847  29.887  1.00  0.00     0.031 C 
ATOM     68  C   UNL A   1      39.037  28.805  33.063  1.00  0.00     0.029 A 
ATOM     69  C   UNL A   1      40.312  29.050  32.551  1.00  0.00     0.049 A 
ATOM     70  H   UNL A   1      41.331  27.661  31.332  1.00  0.00     0.167 HD
ATOM     71  C   UNL A   1      42.267  30.459  31.942  1.00  0.00     0.074 A 
ATOM     72  C   UNL A   1      42.650  29.934  30.632  1.00  0.00     0.031 C 
ATOM     73  C   UNL A   1      41.295  30.083  32.829  1.00  0.00     0.034 A 
BRANCH  60  74
ATOM     74  C   UNL A   1      39.934  26.788  28.808  1.00  0.00     0.023 A 
ATOM     75  C   UNL A   1      41.017  27.405  28.156  1.00  0.00     0.031 A 
ATOM     76  C   UNL A   1      39.607  25.490  28.353  1.00  0.00     0.131 A 
ATOM     77  C   UNL A   1      41.616  26.814  27.031  1.00  0.00     0.055 A 
ATOM     78  C   UNL A   1      40.255  24.875  27.278  1.00  0.00     0.041 A 
ATOM     79  F   UNL A   1      38.596  24.772  28.851  1.00  0.00    -0.206 F 
ATOM     80  C   UNL A   1      41.239  25.553  26.583  1.00  0.00     0.022 A 
BRANCH  77  81
ATOM     81  S   UNL A   1      42.753  27.823  26.049  1.00  0.00     0.124 S 
ATOM     82  O   UNL A   1      44.043  27.383  26.567  1.00  0.00    -0.237 OA
ATOM     83  O   UNL A   1      42.425  27.405  24.690  1.00  0.00    -0.237 OA
ATOM     84  O   UNL A   1      42.371  29.190  26.391  1.00  0.00    -0.744 OA
ENDBRANCH  77  81
ENDBRANCH  60  74
BRANCH  61  85
ATOM     85  C   UNL A   1      44.029  34.086  29.440  1.00  0.00     0.023 A 
ATOM     86  C   UNL A   1      44.597  33.641  28.223  1.00  0.00     0.031 A 
ATOM     87  C   UNL A   1      44.318  35.417  29.817  1.00  0.00     0.131 A 
ATOM     88  C   UNL A   1      45.394  34.514  27.442  1.00  0.00     0.055 A 
ATOM     89  C   UNL A   1      45.103  36.274  29.041  1.00  0.00     0.041 A 
ATOM     90  F   UNL A   1      43.769  35.964  30.912  1.00  0.00    -0.206 F 
ATOM     91  C   UNL A   1      45.635  35.831  27.843  1.00  0.00     0.022 A 
BRANCH  88  92
ATOM     92  S   UNL A   1      46.057  33.987  25.824  1.00  0.00     0.124 S 
ATOM     93  O   UNL A   1      44.858  33.937  24.998  1.00  0.00    -0.237 OA
ATOM     94  O   UNL A   1      47.016  35.041  25.516  1.00  0.00    -0.237 OA
ATOM     95  O   UNL A   1      46.659  32.682  26.111  1.00  0.00    -0.744 OA
ENDBRANCH  88  92
ENDBRANCH  61  85
BRANCH  73  96
ATOM     96  C   UNL A   1      41.104  30.899  34.094  1.00  0.00     0.023 A 
ATOM     97  C   UNL A   1      40.219  31.993  34.247  1.00  0.00     0.031 A 
ATOM     98  C   UNL A   1      41.799  30.465  35.238  1.00  0.00     0.131 A 
ATOM     99  C   UNL A   1      40.073  32.612  35.506  1.00  0.00     0.055 A 
ATOM    100  C   UNL A   1      41.635  31.064  36.485  1.00  0.00     0.041 A 
ATOM    101  F   UNL A   1      42.640  29.420  35.167  1.00  0.00    -0.206 F 
ATOM    102  C   UNL A   1      40.776  32.146  36.623  1.00  0.00     0.022 A 
BRANCH  99 103
ATOM    103  S   UNL A   1      38.989  34.063  35.720  1.00  0.00     0.124 S 
ATOM    104  O   UNL A   1      39.699  34.882  36.697  1.00  0.00    -0.237 OA
ATOM    105  O   UNL A   1      38.915  34.605  34.366  1.00  0.00    -0.237 OA
ATOM    106  O   UNL A   1      37.736  33.483  36.210  1.00  0.00    -0.744 OA
ENDBRANCH  99 103
ENDBRANCH  73  96
ENDBRANCH  47  48
ENDBRANCH  39  42
ENDBRANCH  37  38
ENDBRANCH  36  37
ENDBRANCH  35  36
ENDBRANCH   3  35
TORSDOF 21
ENDMDL
