MODEL 1
REMARK VINA RESULT:     -12.7      0.000      0.000
REMARK SMILES Cc1ccc2c(c1)C=C(C(=O)NCCCNC(=O)c1ccc(-c3c4nc(c(-c5cc(S(=O)(=O)[O-])ccc5F)c5ccc([nH]5)c(-c5cc(S(=O)(=O)[O-])ccc5F)c5nc(c(-c6cc(S(=O)(=O)[O-])ccc6F)c6ccc3[nH]6)C=C5)C=C4)cc1)[C@@H](C(F)(F)F)O2
REMARK SMILES IDX 15 1 14 2 13 3 12 4 10 5 11 6 9 8 1 9 2 10 3 11 7 12 4 13
REMARK SMILES IDX 6 14 5 15 8 16 87 17 82 18 83 19 84 20 85 21 86 22 16 23
REMARK SMILES IDX 17 24 18 26 19 27 20 28 81 29 21 30 80 31 22 32 23 33 24 34
REMARK SMILES IDX 74 35 25 36 79 37 73 38 75 39 26 40 78 41 72 42 71 43 27 45
REMARK SMILES IDX 59 46 39 47 58 48 40 49 43 50 57 51 76 52 41 53 42 54 56 56
REMARK SMILES IDX 77 57 44 58 28 59 29 60 37 61 30 62 36 63 38 64 35 65 31 66
REMARK SMILES IDX 32 67 33 68 34 69 60 70 61 71 69 72 62 73 68 74 70 75 67 76
REMARK SMILES IDX 63 77 64 78 65 79 66 80 45 81 46 82 54 83 47 84 53 85 55 86
REMARK SMILES IDX 52 87 48 88 49 89 50 90 51 91
REMARK H PARENT 12 7 16 25 75 44 43 55
REMARK Flexibility Score: inf
ROOT
ATOM      1  C   UNL A   1      36.437  22.144  25.415  1.00  0.00     0.118 C 
ENDROOT
BRANCH   1   2
ATOM      2  C   UNL A   1      35.258  21.965  26.363  1.00  0.00     0.042 C 
BRANCH   2   3
ATOM      3  C   UNL A   1      34.131  21.154  25.744  1.00  0.00     0.118 C 
BRANCH   3   4
ATOM      4  N   UNL A   1      33.792  21.623  24.408  1.00  0.00    -0.352 N 
ATOM      5  C   UNL A   1      33.181  22.695  23.854  1.00  0.00     0.251 C 
ATOM      6  O   UNL A   1      33.115  22.679  22.620  1.00  0.00    -0.270 OA
ATOM      7  H   UNL A   1      34.088  20.984  23.719  1.00  0.00     0.163 HD
BRANCH   5   8
ATOM      8  C   UNL A   1      32.613  23.851  24.608  1.00  0.00     0.067 C 
ATOM      9  C   UNL A   1      34.393  29.113  27.326  1.00  0.00     0.044 C 
ATOM     10  C   UNL A   1      33.429  28.077  26.828  1.00  0.00    -0.050 A 
ATOM     11  C   UNL A   1      32.050  28.236  27.015  1.00  0.00     0.007 A 
ATOM     12  C   UNL A   1      33.902  26.959  26.127  1.00  0.00     0.015 A 
ATOM     13  C   UNL A   1      31.159  27.281  26.523  1.00  0.00     0.047 A 
ATOM     14  C   UNL A   1      33.011  25.997  25.639  1.00  0.00     0.017 A 
ATOM     15  C   UNL A   1      31.642  26.164  25.849  1.00  0.00     0.128 A 
ATOM     16  C   UNL A   1      33.480  24.845  24.881  1.00  0.00     0.025 C 
ATOM     17  O   UNL A   1      30.714  25.283  25.373  1.00  0.00    -0.475 OA
ATOM     18  C   UNL A   1      31.192  23.938  25.091  1.00  0.00     0.314 C 
BRANCH  18  19
ATOM     19  C   UNL A   1      30.931  23.044  26.319  1.00  0.00     0.429 C 
ATOM     20  F   UNL A   1      31.951  23.147  27.207  1.00  0.00    -0.167 F 
ATOM     21  F   UNL A   1      29.807  23.391  26.989  1.00  0.00    -0.167 F 
ATOM     22  F   UNL A   1      30.804  21.737  26.000  1.00  0.00    -0.167 F 
ENDBRANCH  18  19
ENDBRANCH   5   8
ENDBRANCH   3   4
ENDBRANCH   2   3
ENDBRANCH   1   2
BRANCH   1  23
ATOM     23  N   UNL A   1      37.417  21.067  25.543  1.00  0.00    -0.352 N 
ATOM     24  C   UNL A   1      38.747  21.108  25.896  1.00  0.00     0.251 C 
ATOM     25  H   UNL A   1      37.072  20.167  25.345  1.00  0.00     0.163 HD
ATOM     26  O   UNL A   1      39.451  20.118  25.712  1.00  0.00    -0.269 OA
BRANCH  24  27
ATOM     27  C   UNL A   1      39.326  22.342  26.465  1.00  0.00     0.039 A 
ATOM     28  C   UNL A   1      38.797  23.586  26.124  1.00  0.00     0.014 A 
ATOM     29  C   UNL A   1      40.412  22.262  27.341  1.00  0.00     0.014 A 
ATOM     30  C   UNL A   1      39.476  24.742  26.479  1.00  0.00     0.010 A 
ATOM     31  C   UNL A   1      41.024  23.434  27.797  1.00  0.00     0.010 A 
ATOM     32  C   UNL A   1      40.598  24.684  27.323  1.00  0.00    -0.014 A 
BRANCH  32  33
ATOM     33  C   UNL A   1      41.281  25.951  27.698  1.00  0.00     0.031 A 
ATOM     34  C   UNL A   1      42.645  26.285  27.158  1.00  0.00     0.074 A 
ATOM     35  C   UNL A   1      40.625  26.836  28.475  1.00  0.00     0.049 A 
ATOM     36  N   UNL A   1      43.352  27.371  27.336  1.00  0.00    -0.248 NA
ATOM     37  C   UNL A   1      43.307  25.275  26.317  1.00  0.00     0.031 C 
ATOM     38  C   UNL A   1      39.300  26.609  29.055  1.00  0.00     0.029 A 
ATOM     39  N   UNL A   1      40.954  28.103  28.883  1.00  0.00    -0.354 N 
ATOM     40  C   UNL A   1      44.549  27.166  26.659  1.00  0.00     0.074 A 
ATOM     41  C   UNL A   1      44.485  25.840  26.087  1.00  0.00     0.031 C 
ATOM     42  C   UNL A   1      38.896  27.724  29.675  1.00  0.00     0.029 A 
ATOM     43  C   UNL A   1      39.965  28.717  29.618  1.00  0.00     0.049 A 
ATOM     44  H   UNL A   1      41.814  28.533  28.670  1.00  0.00     0.167 HD
ATOM     45  C   UNL A   1      45.596  28.013  26.519  1.00  0.00     0.034 A 
ATOM     46  C   UNL A   1      39.920  29.935  30.195  1.00  0.00     0.034 A 
ATOM     47  C   UNL A   1      45.626  29.346  27.069  1.00  0.00     0.049 A 
ATOM     48  C   UNL A   1      41.096  30.858  30.025  1.00  0.00     0.074 A 
ATOM     49  C   UNL A   1      46.624  30.297  26.942  1.00  0.00     0.029 A 
ATOM     50  N   UNL A   1      44.623  29.919  27.837  1.00  0.00    -0.354 N 
ATOM     51  N   UNL A   1      42.201  30.663  29.343  1.00  0.00    -0.248 NA
ATOM     52  C   UNL A   1      41.031  32.161  30.699  1.00  0.00     0.031 C 
ATOM     53  C   UNL A   1      46.253  31.418  27.685  1.00  0.00     0.029 A 
ATOM     54  C   UNL A   1      44.992  31.200  28.217  1.00  0.00     0.049 A 
ATOM     55  H   UNL A   1      43.775  29.481  28.077  1.00  0.00     0.167 HD
ATOM     56  C   UNL A   1      42.959  31.817  29.501  1.00  0.00     0.074 A 
ATOM     57  C   UNL A   1      42.172  32.721  30.314  1.00  0.00     0.031 C 
ATOM     58  C   UNL A   1      44.199  32.097  29.026  1.00  0.00     0.034 A 
BRANCH  45  59
ATOM     59  C   UNL A   1      46.804  27.553  25.742  1.00  0.00     0.023 A 
ATOM     60  C   UNL A   1      46.969  27.952  24.401  1.00  0.00     0.031 A 
ATOM     61  C   UNL A   1      47.715  26.624  26.275  1.00  0.00     0.131 A 
ATOM     62  C   UNL A   1      48.000  27.399  23.632  1.00  0.00     0.055 A 
ATOM     63  C   UNL A   1      48.764  26.105  25.514  1.00  0.00     0.041 A 
ATOM     64  F   UNL A   1      47.601  26.211  27.548  1.00  0.00    -0.206 F 
ATOM     65  C   UNL A   1      48.902  26.483  24.182  1.00  0.00     0.022 A 
BRANCH  62  66
ATOM     66  S   UNL A   1      48.173  27.796  21.869  1.00  0.00     0.124 S 
ATOM     67  O   UNL A   1      49.296  28.731  21.883  1.00  0.00    -0.237 OA
ATOM     68  O   UNL A   1      48.459  26.487  21.289  1.00  0.00    -0.237 OA
ATOM     69  O   UNL A   1      46.885  28.377  21.512  1.00  0.00    -0.744 OA
ENDBRANCH  62  66
ENDBRANCH  45  59
BRANCH  46  70
ATOM     70  C   UNL A   1      38.692  30.332  30.943  1.00  0.00     0.023 A 
ATOM     71  C   UNL A   1      37.638  31.000  30.289  1.00  0.00     0.031 A 
ATOM     72  C   UNL A   1      38.615  30.186  32.337  1.00  0.00     0.131 A 
ATOM     73  C   UNL A   1      36.608  31.580  31.039  1.00  0.00     0.055 A 
ATOM     74  C   UNL A   1      37.542  30.694  33.072  1.00  0.00     0.041 A 
ATOM     75  F   UNL A   1      39.600  29.567  33.008  1.00  0.00    -0.206 F 
ATOM     76  C   UNL A   1      36.543  31.417  32.426  1.00  0.00     0.022 A 
BRANCH  73  77
ATOM     77  S   UNL A   1      35.418  32.708  30.259  1.00  0.00     0.124 S 
ATOM     78  O   UNL A   1      35.011  31.951  29.080  1.00  0.00    -0.237 OA
ATOM     79  O   UNL A   1      34.405  32.841  31.304  1.00  0.00    -0.237 OA
ATOM     80  O   UNL A   1      36.201  33.910  30.000  1.00  0.00    -0.744 OA
ENDBRANCH  73  77
ENDBRANCH  46  70
BRANCH  58  81
ATOM     81  C   UNL A   1      44.816  33.429  29.368  1.00  0.00     0.023 A 
ATOM     82  C   UNL A   1      44.667  34.522  28.493  1.00  0.00     0.031 A 
ATOM     83  C   UNL A   1      45.678  33.571  30.469  1.00  0.00     0.131 A 
ATOM     84  C   UNL A   1      45.403  35.692  28.708  1.00  0.00     0.055 A 
ATOM     85  C   UNL A   1      46.374  34.756  30.706  1.00  0.00     0.041 A 
ATOM     86  F   UNL A   1      45.861  32.554  31.326  1.00  0.00    -0.206 F 
ATOM     87  C   UNL A   1      46.251  35.819  29.814  1.00  0.00     0.022 A 
BRANCH  84  88
ATOM     88  S   UNL A   1      45.362  37.057  27.513  1.00  0.00     0.124 S 
ATOM     89  O   UNL A   1      43.944  37.116  27.171  1.00  0.00    -0.237 OA
ATOM     90  O   UNL A   1      45.859  38.177  28.309  1.00  0.00    -0.237 OA
ATOM     91  O   UNL A   1      46.245  36.612  26.439  1.00  0.00    -0.744 OA
ENDBRANCH  84  88
ENDBRANCH  58  81
ENDBRANCH  32  33
ENDBRANCH  24  27
ENDBRANCH   1  23
TORSDOF 14
ENDMDL
MODEL 2
REMARK VINA RESULT:     -12.7      5.253     10.317
REMARK SMILES Cc1ccc2c(c1)C=C(C(=O)NCCCNC(=O)c1ccc(-c3c4nc(c(-c5cc(S(=O)(=O)[O-])ccc5F)c5ccc([nH]5)c(-c5cc(S(=O)(=O)[O-])ccc5F)c5nc(c(-c6cc(S(=O)(=O)[O-])ccc6F)c6ccc3[nH]6)C=C5)C=C4)cc1)[C@@H](C(F)(F)F)O2
REMARK SMILES IDX 15 1 14 2 13 3 12 4 10 5 11 6 9 8 1 9 2 10 3 11 7 12 4 13
REMARK SMILES IDX 6 14 5 15 8 16 87 17 82 18 83 19 84 20 85 21 86 22 16 23
REMARK SMILES IDX 17 24 18 26 19 27 20 28 81 29 21 30 80 31 22 32 23 33 24 34
REMARK SMILES IDX 74 35 25 36 79 37 73 38 75 39 26 40 78 41 72 42 71 43 27 45
REMARK SMILES IDX 59 46 39 47 58 48 40 49 43 50 57 51 76 52 41 53 42 54 56 56
REMARK SMILES IDX 77 57 44 58 28 59 29 60 37 61 30 62 36 63 38 64 35 65 31 66
REMARK SMILES IDX 32 67 33 68 34 69 60 70 61 71 69 72 62 73 68 74 70 75 67 76
REMARK SMILES IDX 63 77 64 78 65 79 66 80 45 81 46 82 54 83 47 84 53 85 55 86
REMARK SMILES IDX 52 87 48 88 49 89 50 90 51 91
REMARK H PARENT 12 7 16 25 75 44 43 55
REMARK Flexibility Score: inf
ROOT
ATOM      1  C   UNL A   1      32.589  29.415  26.105  1.00  0.00     0.118 C 
ENDROOT
BRANCH   1   2
ATOM      2  C   UNL A   1      32.930  29.146  24.645  1.00  0.00     0.042 C 
BRANCH   2   3
ATOM      3  C   UNL A   1      31.695  28.879  23.799  1.00  0.00     0.118 C 
BRANCH   3   4
ATOM      4  N   UNL A   1      30.846  27.849  24.381  1.00  0.00    -0.352 N 
ATOM      5  C   UNL A   1      30.882  26.508  24.548  1.00  0.00     0.251 C 
ATOM      6  O   UNL A   1      29.902  26.028  25.130  1.00  0.00    -0.270 OA
ATOM      7  H   UNL A   1      30.021  28.235  24.754  1.00  0.00     0.163 HD
BRANCH   5   8
ATOM      8  C   UNL A   1      31.987  25.610  24.103  1.00  0.00     0.067 C 
ATOM      9  C   UNL A   1      37.572  23.659  25.906  1.00  0.00     0.044 C 
ATOM     10  C   UNL A   1      36.345  23.719  25.044  1.00  0.00    -0.050 A 
ATOM     11  C   UNL A   1      36.232  22.911  23.906  1.00  0.00     0.007 A 
ATOM     12  C   UNL A   1      35.279  24.557  25.400  1.00  0.00     0.015 A 
ATOM     13  C   UNL A   1      35.075  22.953  23.126  1.00  0.00     0.047 A 
ATOM     14  C   UNL A   1      34.121  24.605  24.616  1.00  0.00     0.017 A 
ATOM     15  C   UNL A   1      34.033  23.805  23.478  1.00  0.00     0.128 A 
ATOM     16  C   UNL A   1      32.989  25.444  24.987  1.00  0.00     0.025 C 
ATOM     17  O   UNL A   1      32.921  23.777  22.684  1.00  0.00    -0.475 OA
ATOM     18  C   UNL A   1      32.052  24.942  22.758  1.00  0.00     0.314 C 
BRANCH  18  19
ATOM     19  C   UNL A   1      32.431  25.922  21.630  1.00  0.00     0.429 C 
ATOM     20  F   UNL A   1      33.436  26.741  22.031  1.00  0.00    -0.167 F 
ATOM     21  F   UNL A   1      32.874  25.293  20.516  1.00  0.00    -0.167 F 
ATOM     22  F   UNL A   1      31.399  26.707  21.248  1.00  0.00    -0.167 F 
ENDBRANCH  18  19
ENDBRANCH   5   8
ENDBRANCH   3   4
ENDBRANCH   2   3
ENDBRANCH   1   2
BRANCH   1  23
ATOM     23  N   UNL A   1      32.370  30.836  26.367  1.00  0.00    -0.352 N 
ATOM     24  C   UNL A   1      33.064  31.713  27.169  1.00  0.00     0.251 C 
ATOM     25  H   UNL A   1      31.602  31.231  25.894  1.00  0.00     0.163 HD
ATOM     26  O   UNL A   1      32.572  32.808  27.433  1.00  0.00    -0.269 OA
BRANCH  24  27
ATOM     27  C   UNL A   1      34.376  31.329  27.728  1.00  0.00     0.039 A 
ATOM     28  C   UNL A   1      34.654  29.992  28.007  1.00  0.00     0.014 A 
ATOM     29  C   UNL A   1      35.338  32.310  27.984  1.00  0.00     0.014 A 
ATOM     30  C   UNL A   1      35.789  29.663  28.732  1.00  0.00     0.010 A 
ATOM     31  C   UNL A   1      36.539  31.957  28.609  1.00  0.00     0.010 A 
ATOM     32  C   UNL A   1      36.751  30.640  29.041  1.00  0.00    -0.014 A 
BRANCH  32  33
ATOM     33  C   UNL A   1      37.965  30.238  29.800  1.00  0.00     0.031 A 
ATOM     34  C   UNL A   1      38.148  30.637  31.239  1.00  0.00     0.074 A 
ATOM     35  C   UNL A   1      38.872  29.443  29.197  1.00  0.00     0.049 A 
ATOM     36  N   UNL A   1      39.116  30.319  32.060  1.00  0.00    -0.248 NA
ATOM     37  C   UNL A   1      37.122  31.507  31.836  1.00  0.00     0.031 C 
ATOM     38  C   UNL A   1      38.793  29.001  27.804  1.00  0.00     0.029 A 
ATOM     39  N   UNL A   1      40.008  28.839  29.674  1.00  0.00    -0.354 N 
ATOM     40  C   UNL A   1      38.835  30.970  33.256  1.00  0.00     0.074 A 
ATOM     41  C   UNL A   1      37.619  31.724  33.048  1.00  0.00     0.031 C 
ATOM     42  C   UNL A   1      39.787  28.138  27.561  1.00  0.00     0.029 A 
ATOM     43  C   UNL A   1      40.629  28.031  28.749  1.00  0.00     0.049 A 
ATOM     44  H   UNL A   1      40.346  28.970  30.589  1.00  0.00     0.167 HD
ATOM     45  C   UNL A   1      39.523  30.930  34.421  1.00  0.00     0.034 A 
ATOM     46  C   UNL A   1      41.754  27.293  28.834  1.00  0.00     0.034 A 
ATOM     47  C   UNL A   1      40.716  30.145  34.619  1.00  0.00     0.049 A 
ATOM     48  C   UNL A   1      42.501  27.265  30.140  1.00  0.00     0.074 A 
ATOM     49  C   UNL A   1      41.460  30.003  35.778  1.00  0.00     0.029 A 
ATOM     50  N   UNL A   1      41.335  29.368  33.650  1.00  0.00    -0.354 N 
ATOM     51  N   UNL A   1      42.195  27.852  31.273  1.00  0.00    -0.248 NA
ATOM     52  C   UNL A   1      43.744  26.484  30.186  1.00  0.00     0.031 C 
ATOM     53  C   UNL A   1      42.560  29.195  35.493  1.00  0.00     0.029 A 
ATOM     54  C   UNL A   1      42.468  28.769  34.177  1.00  0.00     0.049 A 
ATOM     55  H   UNL A   1      41.016  29.259  32.726  1.00  0.00     0.167 HD
ATOM     56  C   UNL A   1      43.202  27.508  32.169  1.00  0.00     0.074 A 
ATOM     57  C   UNL A   1      44.108  26.633  31.454  1.00  0.00     0.031 C 
ATOM     58  C   UNL A   1      43.365  27.893  33.459  1.00  0.00     0.034 A 
BRANCH  45  59
ATOM     59  C   UNL A   1      39.023  31.744  35.589  1.00  0.00     0.023 A 
ATOM     60  C   UNL A   1      38.384  31.102  36.668  1.00  0.00     0.031 A 
ATOM     61  C   UNL A   1      39.058  33.149  35.578  1.00  0.00     0.131 A 
ATOM     62  C   UNL A   1      37.778  31.867  37.673  1.00  0.00     0.055 A 
ATOM     63  C   UNL A   1      38.485  33.905  36.602  1.00  0.00     0.041 A 
ATOM     64  F   UNL A   1      39.654  33.809  34.572  1.00  0.00    -0.206 F 
ATOM     65  C   UNL A   1      37.831  33.263  37.650  1.00  0.00     0.022 A 
BRANCH  62  66
ATOM     66  S   UNL A   1      36.843  31.081  39.015  1.00  0.00     0.124 S 
ATOM     67  O   UNL A   1      35.638  31.906  39.062  1.00  0.00    -0.237 OA
ATOM     68  O   UNL A   1      36.652  29.727  38.501  1.00  0.00    -0.237 OA
ATOM     69  O   UNL A   1      37.722  31.198  40.172  1.00  0.00    -0.744 OA
ENDBRANCH  62  66
ENDBRANCH  45  59
BRANCH  46  70
ATOM     70  C   UNL A   1      42.190  26.504  27.645  1.00  0.00     0.023 A 
ATOM     71  C   UNL A   1      41.800  25.159  27.494  1.00  0.00     0.031 A 
ATOM     72  C   UNL A   1      43.113  27.030  26.727  1.00  0.00     0.131 A 
ATOM     73  C   UNL A   1      42.406  24.364  26.514  1.00  0.00     0.055 A 
ATOM     74  C   UNL A   1      43.652  26.255  25.699  1.00  0.00     0.041 A 
ATOM     75  F   UNL A   1      43.524  28.304  26.835  1.00  0.00    -0.206 F 
ATOM     76  C   UNL A   1      43.317  24.906  25.603  1.00  0.00     0.022 A 
BRANCH  73  77
ATOM     77  S   UNL A   1      42.161  22.565  26.501  1.00  0.00     0.124 S 
ATOM     78  O   UNL A   1      42.655  22.200  25.178  1.00  0.00    -0.237 OA
ATOM     79  O   UNL A   1      42.993  22.143  27.625  1.00  0.00    -0.237 OA
ATOM     80  O   UNL A   1      40.724  22.411  26.704  1.00  0.00    -0.744 OA
ENDBRANCH  73  77
ENDBRANCH  46  70
BRANCH  58  81
ATOM     81  C   UNL A   1      44.574  27.394  34.211  1.00  0.00     0.023 A 
ATOM     82  C   UNL A   1      44.485  26.225  34.991  1.00  0.00     0.031 A 
ATOM     83  C   UNL A   1      45.753  28.154  34.282  1.00  0.00     0.131 A 
ATOM     84  C   UNL A   1      45.539  25.876  35.843  1.00  0.00     0.055 A 
ATOM     85  C   UNL A   1      46.820  27.776  35.097  1.00  0.00     0.041 A 
ATOM     86  F   UNL A   1      45.881  29.282  33.564  1.00  0.00    -0.206 F 
ATOM     87  C   UNL A   1      46.710  26.640  35.895  1.00  0.00     0.022 A 
BRANCH  84  88
ATOM     88  S   UNL A   1      45.394  24.472  36.983  1.00  0.00     0.124 S 
ATOM     89  O   UNL A   1      44.666  25.065  38.102  1.00  0.00    -0.237 OA
ATOM     90  O   UNL A   1      44.638  23.507  36.189  1.00  0.00    -0.237 OA
ATOM     91  O   UNL A   1      46.778  24.104  37.266  1.00  0.00    -0.744 OA
ENDBRANCH  84  88
ENDBRANCH  58  81
ENDBRANCH  32  33
ENDBRANCH  24  27
ENDBRANCH   1  23
TORSDOF 14
ENDMDL
MODEL 3
REMARK VINA RESULT:     -12.5      5.105     10.060
REMARK SMILES Cc1ccc2c(c1)C=C(C(=O)NCCCNC(=O)c1ccc(-c3c4nc(c(-c5cc(S(=O)(=O)[O-])ccc5F)c5ccc([nH]5)c(-c5cc(S(=O)(=O)[O-])ccc5F)c5nc(c(-c6cc(S(=O)(=O)[O-])ccc6F)c6ccc3[nH]6)C=C5)C=C4)cc1)[C@@H](C(F)(F)F)O2
REMARK SMILES IDX 15 1 14 2 13 3 12 4 10 5 11 6 9 8 1 9 2 10 3 11 7 12 4 13
REMARK SMILES IDX 6 14 5 15 8 16 87 17 82 18 83 19 84 20 85 21 86 22 16 23
REMARK SMILES IDX 17 24 18 26 19 27 20 28 81 29 21 30 80 31 22 32 23 33 24 34
REMARK SMILES IDX 74 35 25 36 79 37 73 38 75 39 26 40 78 41 72 42 71 43 27 45
REMARK SMILES IDX 59 46 39 47 58 48 40 49 43 50 57 51 76 52 41 53 42 54 56 56
REMARK SMILES IDX 77 57 44 58 28 59 29 60 37 61 30 62 36 63 38 64 35 65 31 66
REMARK SMILES IDX 32 67 33 68 34 69 60 70 61 71 69 72 62 73 68 74 70 75 67 76
REMARK SMILES IDX 63 77 64 78 65 79 66 80 45 81 46 82 54 83 47 84 53 85 55 86
REMARK SMILES IDX 52 87 48 88 49 89 50 90 51 91
REMARK H PARENT 12 7 16 25 75 44 43 55
REMARK Flexibility Score: inf
ROOT
ATOM      1  C   UNL A   1      32.308  29.578  26.126  1.00  0.00     0.118 C 
ENDROOT
BRANCH   1   2
ATOM      2  C   UNL A   1      32.799  29.302  24.710  1.00  0.00     0.042 C 
BRANCH   2   3
ATOM      3  C   UNL A   1      31.678  28.866  23.780  1.00  0.00     0.118 C 
BRANCH   3   4
ATOM      4  N   UNL A   1      30.841  27.836  24.380  1.00  0.00    -0.352 N 
ATOM      5  C   UNL A   1      30.886  26.496  24.558  1.00  0.00     0.251 C 
ATOM      6  O   UNL A   1      29.915  26.015  25.152  1.00  0.00    -0.270 OA
ATOM      7  H   UNL A   1      30.016  28.220  24.757  1.00  0.00     0.163 HD
BRANCH   5   8
ATOM      8  C   UNL A   1      31.993  25.601  24.110  1.00  0.00     0.067 C 
ATOM      9  C   UNL A   1      37.581  23.655  25.907  1.00  0.00     0.044 C 
ATOM     10  C   UNL A   1      36.354  23.715  25.045  1.00  0.00    -0.050 A 
ATOM     11  C   UNL A   1      36.242  22.910  23.905  1.00  0.00     0.007 A 
ATOM     12  C   UNL A   1      35.286  24.550  25.404  1.00  0.00     0.015 A 
ATOM     13  C   UNL A   1      35.085  22.952  23.125  1.00  0.00     0.047 A 
ATOM     14  C   UNL A   1      34.128  24.598  24.620  1.00  0.00     0.017 A 
ATOM     15  C   UNL A   1      34.041  23.801  23.479  1.00  0.00     0.128 A 
ATOM     16  C   UNL A   1      32.995  25.434  24.993  1.00  0.00     0.025 C 
ATOM     17  O   UNL A   1      32.930  23.774  22.686  1.00  0.00    -0.475 OA
ATOM     18  C   UNL A   1      32.059  24.938  22.762  1.00  0.00     0.314 C 
BRANCH  18  19
ATOM     19  C   UNL A   1      32.436  25.922  21.638  1.00  0.00     0.429 C 
ATOM     20  F   UNL A   1      32.835  25.248  20.530  1.00  0.00    -0.167 F 
ATOM     21  F   UNL A   1      31.399  26.704  21.256  1.00  0.00    -0.167 F 
ATOM     22  F   UNL A   1      33.443  26.755  21.986  1.00  0.00    -0.167 F 
ENDBRANCH  18  19
ENDBRANCH   5   8
ENDBRANCH   3   4
ENDBRANCH   2   3
ENDBRANCH   1   2
BRANCH   1  23
ATOM     23  N   UNL A   1      32.107  31.005  26.372  1.00  0.00    -0.352 N 
ATOM     24  C   UNL A   1      32.832  31.890  27.137  1.00  0.00     0.251 C 
ATOM     25  H   UNL A   1      31.327  31.397  25.916  1.00  0.00     0.163 HD
ATOM     26  O   UNL A   1      32.356  32.992  27.398  1.00  0.00    -0.269 OA
BRANCH  24  27
ATOM     27  C   UNL A   1      34.158  31.504  27.661  1.00  0.00     0.039 A 
ATOM     28  C   UNL A   1      34.424  30.175  27.984  1.00  0.00     0.014 A 
ATOM     29  C   UNL A   1      35.145  32.477  27.839  1.00  0.00     0.014 A 
ATOM     30  C   UNL A   1      35.581  29.856  28.679  1.00  0.00     0.010 A 
ATOM     31  C   UNL A   1      36.364  32.129  28.432  1.00  0.00     0.010 A 
ATOM     32  C   UNL A   1      36.570  30.826  28.910  1.00  0.00    -0.014 A 
BRANCH  32  33
ATOM     33  C   UNL A   1      37.806  30.434  29.638  1.00  0.00     0.031 A 
ATOM     34  C   UNL A   1      38.041  30.868  31.059  1.00  0.00     0.074 A 
ATOM     35  C   UNL A   1      38.686  29.616  29.026  1.00  0.00     0.049 A 
ATOM     36  N   UNL A   1      39.033  30.564  31.855  1.00  0.00    -0.248 NA
ATOM     37  C   UNL A   1      37.042  31.762  31.668  1.00  0.00     0.031 C 
ATOM     38  C   UNL A   1      38.557  29.139  27.648  1.00  0.00     0.029 A 
ATOM     39  N   UNL A   1      39.833  29.015  29.480  1.00  0.00    -0.354 N 
ATOM     40  C   UNL A   1      38.797  31.248  33.043  1.00  0.00     0.074 A 
ATOM     41  C   UNL A   1      37.581  32.006  32.855  1.00  0.00     0.031 C 
ATOM     42  C   UNL A   1      39.536  28.262  27.394  1.00  0.00     0.029 A 
ATOM     43  C   UNL A   1      40.416  28.178  28.556  1.00  0.00     0.049 A 
ATOM     44  H   UNL A   1      40.202  29.167  30.380  1.00  0.00     0.167 HD
ATOM     45  C   UNL A   1      39.524  31.231  34.185  1.00  0.00     0.034 A 
ATOM     46  C   UNL A   1      41.538  27.433  28.623  1.00  0.00     0.034 A 
ATOM     47  C   UNL A   1      40.717  30.442  34.363  1.00  0.00     0.049 A 
ATOM     48  C   UNL A   1      42.328  27.433  29.903  1.00  0.00     0.074 A 
ATOM     49  C   UNL A   1      41.498  30.323  35.500  1.00  0.00     0.029 A 
ATOM     50  N   UNL A   1      41.297  29.635  33.394  1.00  0.00    -0.354 N 
ATOM     51  N   UNL A   1      42.065  28.051  31.031  1.00  0.00    -0.248 NA
ATOM     52  C   UNL A   1      43.566  26.642  29.928  1.00  0.00     0.031 C 
ATOM     53  C   UNL A   1      42.583  29.499  35.199  1.00  0.00     0.029 A 
ATOM     54  C   UNL A   1      42.443  29.041  33.898  1.00  0.00     0.049 A 
ATOM     55  H   UNL A   1      40.947  29.505  32.484  1.00  0.00     0.167 HD
ATOM     56  C   UNL A   1      43.099  27.722  31.900  1.00  0.00     0.074 A 
ATOM     57  C   UNL A   1      43.974  26.821  31.179  1.00  0.00     0.031 C 
ATOM     58  C   UNL A   1      43.309  28.139  33.174  1.00  0.00     0.034 A 
BRANCH  45  59
ATOM     59  C   UNL A   1      39.071  32.080  35.347  1.00  0.00     0.023 A 
ATOM     60  C   UNL A   1      39.559  33.394  35.487  1.00  0.00     0.031 A 
ATOM     61  C   UNL A   1      38.270  31.556  36.377  1.00  0.00     0.131 A 
ATOM     62  C   UNL A   1      39.268  34.125  36.645  1.00  0.00     0.055 A 
ATOM     63  C   UNL A   1      37.952  32.303  37.512  1.00  0.00     0.041 A 
ATOM     64  F   UNL A   1      37.781  30.308  36.291  1.00  0.00    -0.206 F 
ATOM     65  C   UNL A   1      38.463  33.590  37.655  1.00  0.00     0.022 A 
BRANCH  62  66
ATOM     66  S   UNL A   1      39.975  35.774  36.917  1.00  0.00     0.124 S 
ATOM     67  O   UNL A   1      41.390  35.463  37.112  1.00  0.00    -0.237 OA
ATOM     68  O   UNL A   1      39.653  36.454  35.665  1.00  0.00    -0.237 OA
ATOM     69  O   UNL A   1      39.279  36.266  38.100  1.00  0.00    -0.744 OA
ENDBRANCH  62  66
ENDBRANCH  45  59
BRANCH  46  70
ATOM     70  C   UNL A   1      41.927  26.610  27.441  1.00  0.00     0.023 A 
ATOM     71  C   UNL A   1      41.637  25.232  27.398  1.00  0.00     0.031 A 
ATOM     72  C   UNL A   1      42.718  27.149  26.413  1.00  0.00     0.131 A 
ATOM     73  C   UNL A   1      42.214  24.428  26.408  1.00  0.00     0.055 A 
ATOM     74  C   UNL A   1      43.223  26.357  25.380  1.00  0.00     0.041 A 
ATOM     75  F   UNL A   1      43.032  28.454  26.415  1.00  0.00    -0.206 F 
ATOM     76  C   UNL A   1      42.992  24.984  25.388  1.00  0.00     0.022 A 
BRANCH  73  77
ATOM     77  S   UNL A   1      42.116  22.619  26.513  1.00  0.00     0.124 S 
ATOM     78  O   UNL A   1      42.689  22.359  27.829  1.00  0.00    -0.237 OA
ATOM     79  O   UNL A   1      40.678  22.391  26.394  1.00  0.00    -0.237 OA
ATOM     80  O   UNL A   1      42.910  22.164  25.377  1.00  0.00    -0.744 OA
ENDBRANCH  73  77
ENDBRANCH  46  70
BRANCH  58  81
ATOM     81  C   UNL A   1      44.538  27.648  33.897  1.00  0.00     0.023 A 
ATOM     82  C   UNL A   1      44.471  26.491  34.696  1.00  0.00     0.031 A 
ATOM     83  C   UNL A   1      45.719  28.409  33.924  1.00  0.00     0.131 A 
ATOM     84  C   UNL A   1      45.548  26.152  35.523  1.00  0.00     0.055 A 
ATOM     85  C   UNL A   1      46.809  28.041  34.713  1.00  0.00     0.041 A 
ATOM     86  F   UNL A   1      45.827  29.526  33.188  1.00  0.00    -0.206 F 
ATOM     87  C   UNL A   1      46.721  26.916  35.530  1.00  0.00     0.022 A 
BRANCH  84  88
ATOM     88  S   UNL A   1      45.436  24.764  36.686  1.00  0.00     0.124 S 
ATOM     89  O   UNL A   1      44.348  23.977  36.111  1.00  0.00    -0.237 OA
ATOM     90  O   UNL A   1      46.764  24.165  36.578  1.00  0.00    -0.237 OA
ATOM     91  O   UNL A   1      45.137  25.400  37.965  1.00  0.00    -0.744 OA
ENDBRANCH  84  88
ENDBRANCH  58  81
ENDBRANCH  32  33
ENDBRANCH  24  27
ENDBRANCH   1  23
TORSDOF 14
ENDMDL
