MODEL 1
REMARK VINA RESULT:     -10.7      0.000      0.000
REMARK SMILES C[C@@](O)(CNC(=O)CC1([NH3+])CCC1)C(=O)NCCCNC(=O)c1ccc(-c2c3nc(c(-c4cc(S(=O)(=O)[O-])ccc4F)c4ccc([nH]4)c(-c4cc(S(=O)(=O)[O-])ccc4F)c4nc(c(-c5cc(S(=O)(=O)[O-])ccc5F)c5ccc2[nH]5)C=C4)C=C3)cc1
REMARK SMILES IDX 17 1 16 2 14 3 15 4 2 6 1 7 3 8 4 10 5 11 6 12 7 14 8 15
REMARK SMILES IDX 9 16 11 17 13 18 12 19 10 20 18 24 19 25 20 26 21 27 22 29
REMARK SMILES IDX 23 30 24 31 85 32 25 33 84 34 26 35 27 36 28 37 78 38 29 39
REMARK SMILES IDX 83 40 77 41 79 42 30 43 82 44 76 45 75 46 31 48 63 49 43 50
REMARK SMILES IDX 62 51 44 52 47 53 61 54 80 55 45 56 46 57 60 59 81 60 48 61
REMARK SMILES IDX 32 62 33 63 41 64 34 65 40 66 42 67 39 68 35 69 36 70 37 71
REMARK SMILES IDX 38 72 64 73 65 74 73 75 66 76 72 77 74 78 71 79 67 80 68 81
REMARK SMILES IDX 69 82 70 83 49 84 50 85 58 86 51 87 57 88 59 89 56 90 52 91
REMARK SMILES IDX 53 92 54 93 55 94
REMARK H PARENT 16 5 3 9 5 13 10 21 10 22 10 23 20 28 79 47 47 58
REMARK Flexibility Score: inf
ROOT
ATOM      1  C   UNL A   1      31.168  27.059  26.133  1.00  0.00     0.117 C 
ENDROOT
BRANCH   1   2
ATOM      2  N   UNL A   1      30.400  25.880  26.531  1.00  0.00    -0.353 N 
ATOM      3  C   UNL A   1      30.594  24.542  26.302  1.00  0.00     0.253 C 
ATOM      4  O   UNL A   1      30.218  23.789  27.208  1.00  0.00    -0.272 OA
ATOM      5  H   UNL A   1      29.595  26.085  27.060  1.00  0.00     0.163 HD
BRANCH   3   6
ATOM      6  C   UNL A   1      31.204  23.959  24.989  1.00  0.00     0.157 C 
ATOM      7  C   UNL A   1      32.524  24.703  24.693  1.00  0.00     0.055 C 
BRANCH   6   8
ATOM      8  O   UNL A   1      30.342  24.215  23.871  1.00  0.00    -0.378 OA
ATOM      9  H   UNL A   1      30.441  23.505  23.217  1.00  0.00     0.212 HD
ENDBRANCH   6   8
BRANCH   6  10
ATOM     10  C   UNL A   1      31.484  22.421  25.035  1.00  0.00     0.160 C 
BRANCH  10  11
ATOM     11  N   UNL A   1      32.202  21.912  26.204  1.00  0.00    -0.352 N 
ATOM     12  C   UNL A   1      33.398  21.275  26.346  1.00  0.00     0.226 C 
ATOM     13  H   UNL A   1      31.729  22.060  27.055  1.00  0.00     0.163 HD
ATOM     14  O   UNL A   1      33.857  21.195  27.489  1.00  0.00    -0.275 OA
BRANCH  12  15
ATOM     15  C   UNL A   1      34.151  20.671  25.172  1.00  0.00     0.168 C 
BRANCH  15  16
ATOM     16  C   UNL A   1      33.771  19.239  24.849  1.00  0.00     0.103 C 
ATOM     17  C   UNL A   1      32.812  18.327  25.689  1.00  0.00     0.069 C 
ATOM     18  C   UNL A   1      32.744  19.051  23.695  1.00  0.00     0.069 C 
ATOM     19  C   UNL A   1      32.292  17.740  24.345  1.00  0.00     0.013 C 
BRANCH  16  20
ATOM     20  N   UNL A   1      34.951  18.393  24.667  1.00  0.00    -0.352 N 
ATOM     21  H   UNL A   1      34.657  17.429  24.504  1.00  0.00     0.344 HD
ATOM     22  H   UNL A   1      35.531  18.434  25.505  1.00  0.00     0.344 HD
ATOM     23  H   UNL A   1      35.487  18.724  23.866  1.00  0.00     0.344 HD
ENDBRANCH  16  20
ENDBRANCH  15  16
ENDBRANCH  12  15
ENDBRANCH  10  11
ENDBRANCH   6  10
ENDBRANCH   3   6
ENDBRANCH   1   2
BRANCH   1  24
ATOM     24  C   UNL A   1      32.183  27.629  27.156  1.00  0.00     0.042 C 
BRANCH  24  25
ATOM     25  C   UNL A   1      33.450  28.320  26.622  1.00  0.00     0.118 C 
BRANCH  25  26
ATOM     26  N   UNL A   1      33.418  29.761  26.826  1.00  0.00    -0.352 N 
ATOM     27  C   UNL A   1      34.229  30.631  27.512  1.00  0.00     0.251 C 
ATOM     28  H   UNL A   1      32.660  30.202  26.380  1.00  0.00     0.163 HD
ATOM     29  O   UNL A   1      33.837  31.796  27.612  1.00  0.00    -0.269 OA
BRANCH  27  30
ATOM     30  C   UNL A   1      35.522  30.258  28.150  1.00  0.00     0.039 A 
ATOM     31  C   UNL A   1      36.676  30.374  27.363  1.00  0.00     0.014 A 
ATOM     32  C   UNL A   1      35.630  29.665  29.411  1.00  0.00     0.014 A 
ATOM     33  C   UNL A   1      37.918  29.920  27.830  1.00  0.00     0.010 A 
ATOM     34  C   UNL A   1      36.889  29.246  29.897  1.00  0.00     0.010 A 
ATOM     35  C   UNL A   1      38.048  29.358  29.110  1.00  0.00    -0.014 A 
BRANCH  35  36
ATOM     36  C   UNL A   1      39.395  28.894  29.577  1.00  0.00     0.031 A 
ATOM     37  C   UNL A   1      40.114  29.577  30.716  1.00  0.00     0.074 A 
ATOM     38  C   UNL A   1      39.972  27.817  29.002  1.00  0.00     0.049 A 
ATOM     39  N   UNL A   1      41.243  29.253  31.300  1.00  0.00    -0.248 NA
ATOM     40  C   UNL A   1      39.488  30.789  31.259  1.00  0.00     0.031 C 
ATOM     41  C   UNL A   1      39.410  27.066  27.879  1.00  0.00     0.029 A 
ATOM     42  N   UNL A   1      41.145  27.157  29.287  1.00  0.00    -0.354 N 
ATOM     43  C   UNL A   1      41.465  30.219  32.278  1.00  0.00     0.074 A 
ATOM     44  C   UNL A   1      40.378  31.172  32.163  1.00  0.00     0.031 C 
ATOM     45  C   UNL A   1      40.218  26.034  27.591  1.00  0.00     0.029 A 
ATOM     46  C   UNL A   1      41.379  26.066  28.479  1.00  0.00     0.049 A 
ATOM     47  H   UNL A   1      41.761  27.438  30.002  1.00  0.00     0.167 HD
ATOM     48  C   UNL A   1      42.465  30.298  33.195  1.00  0.00     0.034 A 
ATOM     49  C   UNL A   1      42.406  25.191  28.440  1.00  0.00     0.034 A 
ATOM     50  C   UNL A   1      43.552  29.349  33.302  1.00  0.00     0.049 A 
ATOM     51  C   UNL A   1      43.529  25.321  29.439  1.00  0.00     0.074 A 
ATOM     52  C   UNL A   1      44.575  29.311  34.235  1.00  0.00     0.029 A 
ATOM     53  N   UNL A   1      43.775  28.286  32.435  1.00  0.00    -0.354 N 
ATOM     54  N   UNL A   1      43.685  26.202  30.399  1.00  0.00    -0.248 NA
ATOM     55  C   UNL A   1      44.609  24.327  29.356  1.00  0.00     0.031 C 
ATOM     56  C   UNL A   1      45.461  28.287  33.881  1.00  0.00     0.029 A 
ATOM     57  C   UNL A   1      44.945  27.620  32.783  1.00  0.00     0.049 A 
ATOM     58  H   UNL A   1      43.191  28.040  31.682  1.00  0.00     0.167 HD
ATOM     59  C   UNL A   1      44.867  25.853  31.048  1.00  0.00     0.074 A 
ATOM     60  C   UNL A   1      45.373  24.670  30.382  1.00  0.00     0.031 C 
ATOM     61  C   UNL A   1      45.471  26.455  32.106  1.00  0.00     0.034 A 
BRANCH  48  62
ATOM     62  C   UNL A   1      42.452  31.484  34.138  1.00  0.00     0.023 A 
ATOM     63  C   UNL A   1      41.723  31.470  35.341  1.00  0.00     0.031 A 
ATOM     64  C   UNL A   1      43.156  32.660  33.816  1.00  0.00     0.131 A 
ATOM     65  C   UNL A   1      41.638  32.631  36.126  1.00  0.00     0.055 A 
ATOM     66  C   UNL A   1      43.142  33.782  34.650  1.00  0.00     0.041 A 
ATOM     67  F   UNL A   1      43.860  32.746  32.677  1.00  0.00    -0.206 F 
ATOM     68  C   UNL A   1      42.363  33.779  35.803  1.00  0.00     0.022 A 
BRANCH  65  69
ATOM     69  S   UNL A   1      40.426  32.676  37.476  1.00  0.00     0.124 S 
ATOM     70  O   UNL A   1      41.227  32.216  38.608  1.00  0.00    -0.237 OA
ATOM     71  O   UNL A   1      40.034  34.081  37.500  1.00  0.00    -0.237 OA
ATOM     72  O   UNL A   1      39.389  31.745  37.038  1.00  0.00    -0.744 OA
ENDBRANCH  65  69
ENDBRANCH  48  62
BRANCH  49  73
ATOM     73  C   UNL A   1      42.437  24.123  27.398  1.00  0.00     0.023 A 
ATOM     74  C   UNL A   1      41.815  22.880  27.600  1.00  0.00     0.031 A 
ATOM     75  C   UNL A   1      43.118  24.329  26.184  1.00  0.00     0.131 A 
ATOM     76  C   UNL A   1      41.913  21.881  26.616  1.00  0.00     0.055 A 
ATOM     77  C   UNL A   1      43.168  23.354  25.189  1.00  0.00     0.041 A 
ATOM     78  F   UNL A   1      43.732  25.499  25.941  1.00  0.00    -0.206 F 
ATOM     79  C   UNL A   1      42.571  22.117  25.406  1.00  0.00     0.022 A 
BRANCH  76  80
ATOM     80  S   UNL A   1      41.221  20.240  26.963  1.00  0.00     0.124 S 
ATOM     81  O   UNL A   1      42.348  19.370  26.646  1.00  0.00    -0.237 OA
ATOM     82  O   UNL A   1      40.872  20.350  28.375  1.00  0.00    -0.237 OA
ATOM     83  O   UNL A   1      40.086  20.149  26.048  1.00  0.00    -0.744 OA
ENDBRANCH  76  80
ENDBRANCH  49  73
BRANCH  61  84
ATOM     84  C   UNL A   1      46.741  25.821  32.632  1.00  0.00     0.023 A 
ATOM     85  C   UNL A   1      48.003  26.105  32.080  1.00  0.00     0.031 A 
ATOM     86  C   UNL A   1      46.685  24.904  33.699  1.00  0.00     0.131 A 
ATOM     87  C   UNL A   1      49.145  25.439  32.554  1.00  0.00     0.055 A 
ATOM     88  C   UNL A   1      47.833  24.294  34.210  1.00  0.00     0.041 A 
ATOM     89  F   UNL A   1      45.510  24.584  34.265  1.00  0.00    -0.206 F 
ATOM     90  C   UNL A   1      49.070  24.550  33.628  1.00  0.00     0.022 A 
BRANCH  87  91
ATOM     91  S   UNL A   1      50.718  25.668  31.678  1.00  0.00     0.124 S 
ATOM     92  O   UNL A   1      51.368  26.694  32.485  1.00  0.00    -0.237 OA
ATOM     93  O   UNL A   1      51.309  24.335  31.743  1.00  0.00    -0.237 OA
ATOM     94  O   UNL A   1      50.308  26.098  30.343  1.00  0.00    -0.744 OA
ENDBRANCH  87  91
ENDBRANCH  61  84
ENDBRANCH  35  36
ENDBRANCH  27  30
ENDBRANCH  25  26
ENDBRANCH  24  25
ENDBRANCH   1  24
TORSDOF 19
ENDMDL
MODEL 2
REMARK VINA RESULT:     -10.7      2.711      3.360
REMARK SMILES C[C@@](O)(CNC(=O)CC1([NH3+])CCC1)C(=O)NCCCNC(=O)c1ccc(-c2c3nc(c(-c4cc(S(=O)(=O)[O-])ccc4F)c4ccc([nH]4)c(-c4cc(S(=O)(=O)[O-])ccc4F)c4nc(c(-c5cc(S(=O)(=O)[O-])ccc5F)c5ccc2[nH]5)C=C4)C=C3)cc1
REMARK SMILES IDX 17 1 16 2 14 3 15 4 2 6 1 7 3 8 4 10 5 11 6 12 7 14 8 15
REMARK SMILES IDX 9 16 11 17 13 18 12 19 10 20 18 24 19 25 20 26 21 27 22 29
REMARK SMILES IDX 23 30 24 31 85 32 25 33 84 34 26 35 27 36 28 37 78 38 29 39
REMARK SMILES IDX 83 40 77 41 79 42 30 43 82 44 76 45 75 46 31 48 63 49 43 50
REMARK SMILES IDX 62 51 44 52 47 53 61 54 80 55 45 56 46 57 60 59 81 60 48 61
REMARK SMILES IDX 32 62 33 63 41 64 34 65 40 66 42 67 39 68 35 69 36 70 37 71
REMARK SMILES IDX 38 72 64 73 65 74 73 75 66 76 72 77 74 78 71 79 67 80 68 81
REMARK SMILES IDX 69 82 70 83 49 84 50 85 58 86 51 87 57 88 59 89 56 90 52 91
REMARK SMILES IDX 53 92 54 93 55 94
REMARK H PARENT 16 5 3 9 5 13 10 21 10 22 10 23 20 28 79 47 47 58
REMARK Flexibility Score: inf
ROOT
ATOM      1  C   UNL A   1      32.359  26.747  26.353  1.00  0.00     0.117 C 
ENDROOT
BRANCH   1   2
ATOM      2  N   UNL A   1      31.366  25.682  26.492  1.00  0.00    -0.353 N 
ATOM      3  C   UNL A   1      31.490  24.317  26.534  1.00  0.00     0.253 C 
ATOM      4  O   UNL A   1      30.668  23.732  27.251  1.00  0.00    -0.272 OA
ATOM      5  H   UNL A   1      30.439  26.004  26.569  1.00  0.00     0.163 HD
BRANCH   3   6
ATOM      6  C   UNL A   1      32.549  23.509  25.722  1.00  0.00     0.157 C 
ATOM      7  C   UNL A   1      33.907  23.619  26.448  1.00  0.00     0.055 C 
BRANCH   6   8
ATOM      8  O   UNL A   1      32.743  24.088  24.424  1.00  0.00    -0.378 OA
ATOM      9  H   UNL A   1      33.408  23.576  23.937  1.00  0.00     0.212 HD
ENDBRANCH   6   8
BRANCH   6  10
ATOM     10  C   UNL A   1      32.195  21.999  25.524  1.00  0.00     0.160 C 
BRANCH  10  11
ATOM     11  N   UNL A   1      32.150  21.502  24.148  1.00  0.00    -0.352 N 
ATOM     12  C   UNL A   1      32.557  20.334  23.576  1.00  0.00     0.226 C 
ATOM     13  H   UNL A   1      31.744  22.135  23.512  1.00  0.00     0.163 HD
ATOM     14  O   UNL A   1      32.152  20.101  22.432  1.00  0.00    -0.275 OA
BRANCH  12  15
ATOM     15  C   UNL A   1      33.473  19.349  24.282  1.00  0.00     0.168 C 
BRANCH  15  16
ATOM     16  C   UNL A   1      33.095  17.892  24.098  1.00  0.00     0.103 C 
ATOM     17  C   UNL A   1      34.092  16.697  23.908  1.00  0.00     0.069 C 
ATOM     18  C   UNL A   1      32.629  17.143  25.380  1.00  0.00     0.069 C 
ATOM     19  C   UNL A   1      33.121  15.831  24.762  1.00  0.00     0.013 C 
BRANCH  16  20
ATOM     20  N   UNL A   1      32.154  17.711  22.993  1.00  0.00    -0.352 N 
ATOM     21  H   UNL A   1      31.576  18.547  22.897  1.00  0.00     0.344 HD
ATOM     22  H   UNL A   1      31.558  16.906  23.183  1.00  0.00     0.344 HD
ATOM     23  H   UNL A   1      32.671  17.556  22.128  1.00  0.00     0.344 HD
ENDBRANCH  16  20
ENDBRANCH  15  16
ENDBRANCH  12  15
ENDBRANCH  10  11
ENDBRANCH   6  10
ENDBRANCH   3   6
ENDBRANCH   1   2
BRANCH   1  24
ATOM     24  C   UNL A   1      31.853  28.210  26.432  1.00  0.00     0.042 C 
BRANCH  24  25
ATOM     25  C   UNL A   1      32.577  29.280  25.596  1.00  0.00     0.118 C 
BRANCH  25  26
ATOM     26  N   UNL A   1      32.304  30.628  26.074  1.00  0.00    -0.352 N 
ATOM     27  C   UNL A   1      32.961  31.470  26.936  1.00  0.00     0.251 C 
ATOM     28  H   UNL A   1      31.480  31.016  25.700  1.00  0.00     0.163 HD
ATOM     29  O   UNL A   1      32.379  32.512  27.249  1.00  0.00    -0.269 OA
BRANCH  27  30
ATOM     30  C   UNL A   1      34.302  31.200  27.527  1.00  0.00     0.039 A 
ATOM     31  C   UNL A   1      34.524  29.912  28.035  1.00  0.00     0.014 A 
ATOM     32  C   UNL A   1      35.276  32.179  27.740  1.00  0.00     0.014 A 
ATOM     33  C   UNL A   1      35.702  29.602  28.729  1.00  0.00     0.010 A 
ATOM     34  C   UNL A   1      36.480  31.854  28.403  1.00  0.00     0.010 A 
ATOM     35  C   UNL A   1      36.706  30.565  28.915  1.00  0.00    -0.014 A 
BRANCH  35  36
ATOM     36  C   UNL A   1      37.957  30.193  29.654  1.00  0.00     0.031 A 
ATOM     37  C   UNL A   1      38.223  30.688  31.055  1.00  0.00     0.074 A 
ATOM     38  C   UNL A   1      38.854  29.363  29.081  1.00  0.00     0.049 A 
ATOM     39  N   UNL A   1      39.211  30.395  31.867  1.00  0.00    -0.248 NA
ATOM     40  C   UNL A   1      37.261  31.649  31.609  1.00  0.00     0.031 C 
ATOM     41  C   UNL A   1      38.745  28.818  27.726  1.00  0.00     0.029 A 
ATOM     42  N   UNL A   1      40.023  28.818  29.562  1.00  0.00    -0.354 N 
ATOM     43  C   UNL A   1      38.993  31.133  33.027  1.00  0.00     0.074 A 
ATOM     44  C   UNL A   1      37.807  31.932  32.783  1.00  0.00     0.031 C 
ATOM     45  C   UNL A   1      39.782  27.997  27.497  1.00  0.00     0.029 A 
ATOM     46  C   UNL A   1      40.655  27.982  28.668  1.00  0.00     0.049 A 
ATOM     47  H   UNL A   1      40.375  29.010  30.461  1.00  0.00     0.167 HD
ATOM     48  C   UNL A   1      39.697  31.135  34.189  1.00  0.00     0.034 A 
ATOM     49  C   UNL A   1      41.807  27.286  28.765  1.00  0.00     0.034 A 
ATOM     50  C   UNL A   1      40.884  30.342  34.425  1.00  0.00     0.049 A 
ATOM     51  C   UNL A   1      42.599  27.334  30.048  1.00  0.00     0.074 A 
ATOM     52  C   UNL A   1      41.629  30.230  35.588  1.00  0.00     0.029 A 
ATOM     53  N   UNL A   1      41.516  29.544  33.479  1.00  0.00    -0.354 N 
ATOM     54  N   UNL A   1      42.338  27.986  31.156  1.00  0.00    -0.248 NA
ATOM     55  C   UNL A   1      43.835  26.540  30.096  1.00  0.00     0.031 C 
ATOM     56  C   UNL A   1      42.755  29.442  35.320  1.00  0.00     0.029 A 
ATOM     57  C   UNL A   1      42.667  28.979  34.018  1.00  0.00     0.049 A 
ATOM     58  H   UNL A   1      41.197  29.400  32.559  1.00  0.00     0.167 HD
ATOM     59  C   UNL A   1      43.365  27.660  32.041  1.00  0.00     0.074 A 
ATOM     60  C   UNL A   1      44.238  26.740  31.342  1.00  0.00     0.031 C 
ATOM     61  C   UNL A   1      43.559  28.082  33.318  1.00  0.00     0.034 A 
BRANCH  48  62
ATOM     62  C   UNL A   1      39.222  32.062  35.289  1.00  0.00     0.023 A 
ATOM     63  C   UNL A   1      39.714  33.373  35.421  1.00  0.00     0.031 A 
ATOM     64  C   UNL A   1      38.282  31.619  36.240  1.00  0.00     0.131 A 
ATOM     65  C   UNL A   1      39.341  34.157  36.525  1.00  0.00     0.055 A 
ATOM     66  C   UNL A   1      37.844  32.439  37.284  1.00  0.00     0.041 A 
ATOM     67  F   UNL A   1      37.782  30.376  36.180  1.00  0.00    -0.206 F 
ATOM     68  C   UNL A   1      38.389  33.709  37.443  1.00  0.00     0.022 A 
BRANCH  65  69
ATOM     69  S   UNL A   1      40.249  35.696  36.840  1.00  0.00     0.124 S 
ATOM     70  O   UNL A   1      41.625  35.287  36.570  1.00  0.00    -0.237 OA
ATOM     71  O   UNL A   1      39.654  36.615  35.877  1.00  0.00    -0.237 OA
ATOM     72  O   UNL A   1      39.959  35.985  38.242  1.00  0.00    -0.744 OA
ENDBRANCH  65  69
ENDBRANCH  48  62
BRANCH  49  73
ATOM     73  C   UNL A   1      42.301  26.497  27.598  1.00  0.00     0.023 A 
ATOM     74  C   UNL A   1      42.119  25.106  27.519  1.00  0.00     0.031 A 
ATOM     75  C   UNL A   1      42.992  27.131  26.549  1.00  0.00     0.131 A 
ATOM     76  C   UNL A   1      42.647  24.393  26.429  1.00  0.00     0.055 A 
ATOM     77  C   UNL A   1      43.468  26.426  25.443  1.00  0.00     0.041 A 
ATOM     78  F   UNL A   1      43.196  28.458  26.576  1.00  0.00    -0.206 F 
ATOM     79  C   UNL A   1      43.305  25.046  25.384  1.00  0.00     0.022 A 
BRANCH  76  80
ATOM     80  S   UNL A   1      42.518  22.583  26.424  1.00  0.00     0.124 S 
ATOM     81  O   UNL A   1      43.737  22.196  27.126  1.00  0.00    -0.237 OA
ATOM     82  O   UNL A   1      41.267  22.365  27.141  1.00  0.00    -0.237 OA
ATOM     83  O   UNL A   1      42.484  22.249  25.002  1.00  0.00    -0.744 OA
ENDBRANCH  76  80
ENDBRANCH  49  73
BRANCH  61  84
ATOM     84  C   UNL A   1      44.753  27.521  34.059  1.00  0.00     0.023 A 
ATOM     85  C   UNL A   1      44.679  26.328  34.800  1.00  0.00     0.031 A 
ATOM     86  C   UNL A   1      45.986  28.202  34.036  1.00  0.00     0.131 A 
ATOM     87  C   UNL A   1      45.793  25.883  35.531  1.00  0.00     0.055 A 
ATOM     88  C   UNL A   1      47.109  27.720  34.711  1.00  0.00     0.041 A 
ATOM     89  F   UNL A   1      46.119  29.351  33.353  1.00  0.00    -0.206 F 
ATOM     90  C   UNL A   1      47.013  26.562  35.475  1.00  0.00     0.022 A 
BRANCH  87  91
ATOM     91  S   UNL A   1      45.599  24.462  36.644  1.00  0.00     0.124 S 
ATOM     92  O   UNL A   1      44.706  24.998  37.666  1.00  0.00    -0.237 OA
ATOM     93  O   UNL A   1      45.027  23.451  35.763  1.00  0.00    -0.237 OA
ATOM     94  O   UNL A   1      46.963  24.191  37.095  1.00  0.00    -0.744 OA
ENDBRANCH  87  91
ENDBRANCH  61  84
ENDBRANCH  35  36
ENDBRANCH  27  30
ENDBRANCH  25  26
ENDBRANCH  24  25
ENDBRANCH   1  24
TORSDOF 19
ENDMDL
MODEL 3
REMARK VINA RESULT:     -10.6      2.770      3.537
REMARK SMILES C[C@@](O)(CNC(=O)CC1([NH3+])CCC1)C(=O)NCCCNC(=O)c1ccc(-c2c3nc(c(-c4cc(S(=O)(=O)[O-])ccc4F)c4ccc([nH]4)c(-c4cc(S(=O)(=O)[O-])ccc4F)c4nc(c(-c5cc(S(=O)(=O)[O-])ccc5F)c5ccc2[nH]5)C=C4)C=C3)cc1
REMARK SMILES IDX 17 1 16 2 14 3 15 4 2 6 1 7 3 8 4 10 5 11 6 12 7 14 8 15
REMARK SMILES IDX 9 16 11 17 13 18 12 19 10 20 18 24 19 25 20 26 21 27 22 29
REMARK SMILES IDX 23 30 24 31 85 32 25 33 84 34 26 35 27 36 28 37 78 38 29 39
REMARK SMILES IDX 83 40 77 41 79 42 30 43 82 44 76 45 75 46 31 48 63 49 43 50
REMARK SMILES IDX 62 51 44 52 47 53 61 54 80 55 45 56 46 57 60 59 81 60 48 61
REMARK SMILES IDX 32 62 33 63 41 64 34 65 40 66 42 67 39 68 35 69 36 70 37 71
REMARK SMILES IDX 38 72 64 73 65 74 73 75 66 76 72 77 74 78 71 79 67 80 68 81
REMARK SMILES IDX 69 82 70 83 49 84 50 85 58 86 51 87 57 88 59 89 56 90 52 91
REMARK SMILES IDX 53 92 54 93 55 94
REMARK H PARENT 16 5 3 9 5 13 10 21 10 22 10 23 20 28 79 47 47 58
REMARK Flexibility Score: inf
ROOT
ATOM      1  C   UNL A   1      31.819  27.081  25.497  1.00  0.00     0.117 C 
ENDROOT
BRANCH   1   2
ATOM      2  N   UNL A   1      31.090  26.087  26.284  1.00  0.00    -0.353 N 
ATOM      3  C   UNL A   1      31.103  24.716  26.262  1.00  0.00     0.253 C 
ATOM      4  O   UNL A   1      30.923  24.166  27.356  1.00  0.00    -0.272 OA
ATOM      5  H   UNL A   1      30.478  26.472  26.951  1.00  0.00     0.163 HD
BRANCH   3   6
ATOM      6  C   UNL A   1      31.286  23.863  24.967  1.00  0.00     0.157 C 
ATOM      7  C   UNL A   1      32.645  24.228  24.332  1.00  0.00     0.055 C 
BRANCH   6   8
ATOM      8  O   UNL A   1      30.287  24.198  23.994  1.00  0.00    -0.378 OA
ATOM      9  H   UNL A   1      30.718  24.533  23.191  1.00  0.00     0.212 HD
ENDBRANCH   6   8
BRANCH   6  10
ATOM     10  C   UNL A   1      31.229  22.318  25.199  1.00  0.00     0.160 C 
BRANCH  10  11
ATOM     11  N   UNL A   1      32.081  21.773  26.258  1.00  0.00    -0.352 N 
ATOM     12  C   UNL A   1      33.226  21.035  26.231  1.00  0.00     0.226 C 
ATOM     13  H   UNL A   1      31.766  21.983  27.167  1.00  0.00     0.163 HD
ATOM     14  O   UNL A   1      33.855  20.941  27.290  1.00  0.00    -0.275 OA
BRANCH  12  15
ATOM     15  C   UNL A   1      33.725  20.338  24.977  1.00  0.00     0.168 C 
BRANCH  15  16
ATOM     16  C   UNL A   1      33.404  18.857  24.907  1.00  0.00     0.103 C 
ATOM     17  C   UNL A   1      32.463  18.167  23.859  1.00  0.00     0.069 C 
ATOM     18  C   UNL A   1      34.522  17.945  24.326  1.00  0.00     0.069 C 
ATOM     19  C   UNL A   1      33.444  16.958  23.867  1.00  0.00     0.013 C 
BRANCH  16  20
ATOM     20  N   UNL A   1      32.899  18.351  26.183  1.00  0.00    -0.352 N 
ATOM     21  H   UNL A   1      31.879  18.350  26.169  1.00  0.00     0.344 HD
ATOM     22  H   UNL A   1      33.228  18.951  26.940  1.00  0.00     0.344 HD
ATOM     23  H   UNL A   1      33.238  17.401  26.330  1.00  0.00     0.344 HD
ENDBRANCH  16  20
ENDBRANCH  15  16
ENDBRANCH  12  15
ENDBRANCH  10  11
ENDBRANCH   6  10
ENDBRANCH   3   6
ENDBRANCH   1   2
BRANCH   1  24
ATOM     24  C   UNL A   1      33.115  27.667  26.112  1.00  0.00     0.042 C 
BRANCH  24  25
ATOM     25  C   UNL A   1      33.798  28.845  25.393  1.00  0.00     0.118 C 
BRANCH  25  26
ATOM     26  N   UNL A   1      33.312  30.134  25.865  1.00  0.00    -0.352 N 
ATOM     27  C   UNL A   1      33.637  30.923  26.939  1.00  0.00     0.251 C 
ATOM     28  H   UNL A   1      32.606  30.518  25.296  1.00  0.00     0.163 HD
ATOM     29  O   UNL A   1      32.924  31.908  27.143  1.00  0.00    -0.269 OA
BRANCH  27  30
ATOM     30  C   UNL A   1      34.767  30.658  27.874  1.00  0.00     0.039 A 
ATOM     31  C   UNL A   1      35.867  31.525  27.803  1.00  0.00     0.014 A 
ATOM     32  C   UNL A   1      34.858  29.528  28.691  1.00  0.00     0.014 A 
ATOM     33  C   UNL A   1      37.030  31.277  28.544  1.00  0.00     0.010 A 
ATOM     34  C   UNL A   1      36.015  29.303  29.469  1.00  0.00     0.010 A 
ATOM     35  C   UNL A   1      37.121  30.167  29.399  1.00  0.00    -0.014 A 
BRANCH  35  36
ATOM     36  C   UNL A   1      38.379  29.942  30.184  1.00  0.00     0.031 A 
ATOM     37  C   UNL A   1      38.575  30.551  31.552  1.00  0.00     0.074 A 
ATOM     38  C   UNL A   1      39.349  29.147  29.685  1.00  0.00     0.049 A 
ATOM     39  N   UNL A   1      39.564  30.389  32.399  1.00  0.00    -0.248 NA
ATOM     40  C   UNL A   1      37.532  31.470  32.021  1.00  0.00     0.031 C 
ATOM     41  C   UNL A   1      39.312  28.505  28.370  1.00  0.00     0.029 A 
ATOM     42  N   UNL A   1      40.544  28.727  30.223  1.00  0.00    -0.354 N 
ATOM     43  C   UNL A   1      39.264  31.185  33.501  1.00  0.00     0.074 A 
ATOM     44  C   UNL A   1      38.027  31.873  33.182  1.00  0.00     0.031 C 
ATOM     45  C   UNL A   1      40.413  27.753  28.217  1.00  0.00     0.029 A 
ATOM     46  C   UNL A   1      41.258  27.884  29.401  1.00  0.00     0.049 A 
ATOM     47  H   UNL A   1      40.860  29.006  31.113  1.00  0.00     0.167 HD
ATOM     48  C   UNL A   1      39.939  31.320  34.673  1.00  0.00     0.034 A 
ATOM     49  C   UNL A   1      42.457  27.286  29.566  1.00  0.00     0.034 A 
ATOM     50  C   UNL A   1      41.177  30.638  34.984  1.00  0.00     0.049 A 
ATOM     51  C   UNL A   1      43.213  27.481  30.857  1.00  0.00     0.074 A 
ATOM     52  C   UNL A   1      41.902  30.663  36.165  1.00  0.00     0.029 A 
ATOM     53  N   UNL A   1      41.889  29.829  34.107  1.00  0.00    -0.354 N 
ATOM     54  N   UNL A   1      42.879  28.184  31.912  1.00  0.00    -0.248 NA
ATOM     55  C   UNL A   1      44.504  26.789  30.981  1.00  0.00     0.031 C 
ATOM     56  C   UNL A   1      43.089  29.947  35.972  1.00  0.00     0.029 A 
ATOM     57  C   UNL A   1      43.066  29.392  34.704  1.00  0.00     0.049 A 
ATOM     58  H   UNL A   1      41.602  29.598  33.194  1.00  0.00     0.167 HD
ATOM     59  C   UNL A   1      43.907  27.999  32.835  1.00  0.00     0.074 A 
ATOM     60  C   UNL A   1      44.862  27.103  32.217  1.00  0.00     0.031 C 
ATOM     61  C   UNL A   1      44.039  28.520  34.083  1.00  0.00     0.034 A 
BRANCH  48  62
ATOM     62  C   UNL A   1      39.371  32.281  35.698  1.00  0.00     0.023 A 
ATOM     63  C   UNL A   1      39.765  33.629  35.752  1.00  0.00     0.031 A 
ATOM     64  C   UNL A   1      38.440  31.834  36.655  1.00  0.00     0.131 A 
ATOM     65  C   UNL A   1      39.308  34.455  36.792  1.00  0.00     0.055 A 
ATOM     66  C   UNL A   1      37.918  32.686  37.632  1.00  0.00     0.041 A 
ATOM     67  F   UNL A   1      38.031  30.556  36.668  1.00  0.00    -0.206 F 
ATOM     68  C   UNL A   1      38.367  34.000  37.717  1.00  0.00     0.022 A 
BRANCH  65  69
ATOM     69  S   UNL A   1      40.097  36.072  37.023  1.00  0.00     0.124 S 
ATOM     70  O   UNL A   1      39.361  36.598  38.171  1.00  0.00    -0.237 OA
ATOM     71  O   UNL A   1      41.489  35.712  37.267  1.00  0.00    -0.237 OA
ATOM     72  O   UNL A   1      39.841  36.762  35.762  1.00  0.00    -0.744 OA
ENDBRANCH  65  69
ENDBRANCH  48  62
BRANCH  49  73
ATOM     73  C   UNL A   1      43.035  26.460  28.465  1.00  0.00     0.023 A 
ATOM     74  C   UNL A   1      44.079  26.939  27.657  1.00  0.00     0.031 A 
ATOM     75  C   UNL A   1      42.526  25.177  28.192  1.00  0.00     0.131 A 
ATOM     76  C   UNL A   1      44.559  26.152  26.596  1.00  0.00     0.055 A 
ATOM     77  C   UNL A   1      43.042  24.378  27.171  1.00  0.00     0.041 A 
ATOM     78  F   UNL A   1      41.527  24.672  28.933  1.00  0.00    -0.206 F 
ATOM     79  C   UNL A   1      44.059  24.869  26.360  1.00  0.00     0.022 A 
BRANCH  76  80
ATOM     80  S   UNL A   1      45.810  26.852  25.483  1.00  0.00     0.124 S 
ATOM     81  O   UNL A   1      45.076  27.952  24.867  1.00  0.00    -0.237 OA
ATOM     82  O   UNL A   1      46.868  27.228  26.413  1.00  0.00    -0.237 OA
ATOM     83  O   UNL A   1      46.132  25.740  24.592  1.00  0.00    -0.744 OA
ENDBRANCH  76  80
ENDBRANCH  49  73
BRANCH  61  84
ATOM     84  C   UNL A   1      45.255  28.104  34.882  1.00  0.00     0.023 A 
ATOM     85  C   UNL A   1      46.449  28.847  34.867  1.00  0.00     0.031 A 
ATOM     86  C   UNL A   1      45.224  26.932  35.663  1.00  0.00     0.131 A 
ATOM     87  C   UNL A   1      47.575  28.385  35.568  1.00  0.00     0.055 A 
ATOM     88  C   UNL A   1      46.326  26.512  36.411  1.00  0.00     0.041 A 
ATOM     89  F   UNL A   1      44.116  26.174  35.713  1.00  0.00    -0.206 F 
ATOM     90  C   UNL A   1      47.515  27.232  36.354  1.00  0.00     0.022 A 
BRANCH  87  91
ATOM     91  S   UNL A   1      49.156  29.251  35.353  1.00  0.00     0.124 S 
ATOM     92  O   UNL A   1      49.739  29.153  36.687  1.00  0.00    -0.237 OA
ATOM     93  O   UNL A   1      49.806  28.461  34.313  1.00  0.00    -0.237 OA
ATOM     94  O   UNL A   1      48.757  30.598  34.950  1.00  0.00    -0.744 OA
ENDBRANCH  87  91
ENDBRANCH  61  84
ENDBRANCH  35  36
ENDBRANCH  27  30
ENDBRANCH  25  26
ENDBRANCH  24  25
ENDBRANCH   1  24
TORSDOF 19
ENDMDL
