MODEL 1
REMARK VINA RESULT:     -13.4      0.000      0.000
REMARK SMILES Cc1ccc2c(c1)c(-c1ccnc3c(C)cccc13)c(C)n2CC(=O)NCCCNC(=O)c1ccc(-c2c3nc(c(-c4cc(S(=O)(=O)[O-])ccc4F)c4ccc([nH]4)c(-c4cc(S(=O)(=O)[O-])ccc4F)c4nc(c(-c5cc(S(=O)(=O)[O-])ccc5F)c5ccc2[nH]5)C=C4)C=C3)cc1
REMARK SMILES IDX 28 1 27 2 26 3 24 4 25 5 23 7 22 8 1 9 2 10 3 11 7 12 4 13
REMARK SMILES IDX 6 14 5 15 8 16 20 17 21 18 9 19 10 20 19 21 11 22 13 23
REMARK SMILES IDX 18 24 12 25 14 26 17 27 15 28 16 29 29 30 30 31 31 32 32 34
REMARK SMILES IDX 33 35 34 36 95 37 35 38 94 39 36 40 37 41 38 42 88 43 39 44
REMARK SMILES IDX 93 45 87 46 89 47 40 48 92 49 86 50 85 51 41 53 73 54 53 55
REMARK SMILES IDX 72 56 54 57 57 58 71 59 90 60 55 61 56 62 70 64 91 65 58 66
REMARK SMILES IDX 42 67 43 68 51 69 44 70 50 71 52 72 49 73 45 74 46 75 47 76
REMARK SMILES IDX 48 77 74 78 75 79 83 80 76 81 82 82 84 83 81 84 77 85 78 86
REMARK SMILES IDX 79 87 80 88 59 89 60 90 68 91 61 92 67 93 69 94 66 95 62 96
REMARK SMILES IDX 63 97 64 98 65 99
REMARK H PARENT 26 6 30 33 89 52 57 63
REMARK Flexibility Score: inf
ROOT
ATOM      1  C   UNL A   1      32.551  30.570  27.072  1.00  0.00     0.042 C 
ENDROOT
BRANCH   1   2
ATOM      2  C   UNL A   1      32.281  29.596  25.924  1.00  0.00     0.117 C 
BRANCH   2   3
ATOM      3  N   UNL A   1      31.469  28.459  26.327  1.00  0.00    -0.354 N 
ATOM      4  C   UNL A   1      31.803  27.146  26.474  1.00  0.00     0.239 C 
ATOM      5  O   UNL A   1      30.925  26.373  26.872  1.00  0.00    -0.273 OA
ATOM      6  H   UNL A   1      30.529  28.671  26.526  1.00  0.00     0.163 HD
BRANCH   4   7
ATOM      7  C   UNL A   1      33.216  26.658  26.225  1.00  0.00     0.222 C 
BRANCH   7   8
ATOM      8  N   UNL A   1      33.293  25.528  25.306  1.00  0.00    -0.335 N 
ATOM      9  C   UNL A   1      32.717  25.091  19.694  1.00  0.00     0.044 C 
ATOM     10  C   UNL A   1      32.897  25.285  21.173  1.00  0.00    -0.050 A 
ATOM     11  C   UNL A   1      32.989  26.568  21.714  1.00  0.00     0.005 A 
ATOM     12  C   UNL A   1      33.016  24.170  22.019  1.00  0.00     0.014 A 
ATOM     13  C   UNL A   1      33.157  26.768  23.086  1.00  0.00     0.027 A 
ATOM     14  C   UNL A   1      33.181  24.346  23.410  1.00  0.00     0.008 A 
ATOM     15  C   UNL A   1      33.224  25.642  23.926  1.00  0.00     0.049 A 
ATOM     16  C   UNL A   1      33.318  23.450  24.509  1.00  0.00     0.011 A 
ATOM     17  C   UNL A   1      33.452  24.203  25.668  1.00  0.00     0.024 A 
ATOM     18  C   UNL A   1      33.668  23.738  27.071  1.00  0.00     0.065 C 
BRANCH  16  19
ATOM     19  C   UNL A   1      33.340  21.992  24.501  1.00  0.00    -0.005 A 
ATOM     20  C   UNL A   1      32.129  21.325  24.342  1.00  0.00     0.029 A 
ATOM     21  C   UNL A   1      34.546  21.257  24.645  1.00  0.00     0.008 A 
ATOM     22  C   UNL A   1      32.156  19.952  24.293  1.00  0.00     0.112 A 
ATOM     23  C   UNL A   1      34.464  19.848  24.573  1.00  0.00     0.074 A 
ATOM     24  C   UNL A   1      35.805  21.865  24.864  1.00  0.00     0.011 A 
ATOM     25  N   UNL A   1      33.285  19.218  24.384  1.00  0.00    -0.256 NA
ATOM     26  C   UNL A   1      35.646  19.101  24.704  1.00  0.00    -0.025 A 
ATOM     27  C   UNL A   1      36.964  21.112  25.010  1.00  0.00     0.001 A 
ATOM     28  C   UNL A   1      35.641  17.596  24.628  1.00  0.00     0.047 C 
ATOM     29  C   UNL A   1      36.884  19.732  24.928  1.00  0.00     0.005 A 
ENDBRANCH  16  19
ENDBRANCH   7   8
ENDBRANCH   4   7
ENDBRANCH   2   3
ENDBRANCH   1   2
BRANCH   1  30
ATOM     30  C   UNL A   1      34.002  30.574  27.552  1.00  0.00     0.118 C 
BRANCH  30  31
ATOM     31  N   UNL A   1      34.552  31.899  27.762  1.00  0.00    -0.352 N 
ATOM     32  C   UNL A   1      35.772  32.400  28.120  1.00  0.00     0.251 C 
ATOM     33  H   UNL A   1      33.886  32.607  27.611  1.00  0.00     0.163 HD
ATOM     34  O   UNL A   1      35.860  33.631  28.102  1.00  0.00    -0.269 OA
BRANCH  32  35
ATOM     35  C   UNL A   1      36.934  31.598  28.586  1.00  0.00     0.039 A 
ATOM     36  C   UNL A   1      38.021  32.077  29.317  1.00  0.00     0.014 A 
ATOM     37  C   UNL A   1      36.936  30.246  28.186  1.00  0.00     0.014 A 
ATOM     38  C   UNL A   1      39.135  31.269  29.530  1.00  0.00     0.010 A 
ATOM     39  C   UNL A   1      38.036  29.430  28.412  1.00  0.00     0.010 A 
ATOM     40  C   UNL A   1      39.160  29.964  29.028  1.00  0.00    -0.014 A 
BRANCH  40  41
ATOM     41  C   UNL A   1      40.361  29.161  29.239  1.00  0.00     0.031 A 
ATOM     42  C   UNL A   1      40.609  28.772  30.657  1.00  0.00     0.074 A 
ATOM     43  C   UNL A   1      41.119  28.703  28.223  1.00  0.00     0.049 A 
ATOM     44  N   UNL A   1      41.602  29.096  31.420  1.00  0.00    -0.248 NA
ATOM     45  C   UNL A   1      39.539  28.039  31.352  1.00  0.00     0.031 C 
ATOM     46  C   UNL A   1      40.819  28.749  26.787  1.00  0.00     0.029 A 
ATOM     47  N   UNL A   1      42.282  27.993  28.263  1.00  0.00    -0.354 N 
ATOM     48  C   UNL A   1      41.383  28.446  32.636  1.00  0.00     0.074 A 
ATOM     49  C   UNL A   1      40.029  27.955  32.588  1.00  0.00     0.031 C 
ATOM     50  C   UNL A   1      41.636  27.894  26.131  1.00  0.00     0.029 A 
ATOM     51  C   UNL A   1      42.612  27.365  27.068  1.00  0.00     0.049 A 
ATOM     52  H   UNL A   1      42.841  27.931  29.070  1.00  0.00     0.167 HD
ATOM     53  C   UNL A   1      42.395  28.181  33.511  1.00  0.00     0.034 A 
ATOM     54  C   UNL A   1      43.569  26.422  26.877  1.00  0.00     0.034 A 
ATOM     55  C   UNL A   1      43.566  28.952  33.200  1.00  0.00     0.049 A 
ATOM     56  C   UNL A   1      44.499  26.471  28.027  1.00  0.00     0.074 A 
ATOM     57  C   UNL A   1      43.885  30.294  33.210  1.00  0.00     0.029 A 
ATOM     58  N   UNL A   1      44.544  28.332  32.464  1.00  0.00    -0.354 N 
ATOM     59  N   UNL A   1      45.321  27.453  28.263  1.00  0.00    -0.248 NA
ATOM     60  C   UNL A   1      44.203  25.614  29.164  1.00  0.00     0.031 C 
ATOM     61  C   UNL A   1      44.771  30.470  32.111  1.00  0.00     0.029 A 
ATOM     62  C   UNL A   1      44.995  29.221  31.525  1.00  0.00     0.049 A 
ATOM     63  H   UNL A   1      44.867  27.410  32.589  1.00  0.00     0.167 HD
ATOM     64  C   UNL A   1      45.271  27.618  29.638  1.00  0.00     0.074 A 
ATOM     65  C   UNL A   1      44.659  26.393  30.148  1.00  0.00     0.031 C 
ATOM     66  C   UNL A   1      45.467  28.843  30.207  1.00  0.00     0.034 A 
BRANCH  53  67
ATOM     67  C   UNL A   1      42.444  26.974  34.423  1.00  0.00     0.023 A 
ATOM     68  C   UNL A   1      43.214  25.830  34.140  1.00  0.00     0.031 A 
ATOM     69  C   UNL A   1      41.905  27.039  35.726  1.00  0.00     0.131 A 
ATOM     70  C   UNL A   1      43.425  24.827  35.095  1.00  0.00     0.055 A 
ATOM     71  C   UNL A   1      42.172  26.070  36.703  1.00  0.00     0.041 A 
ATOM     72  F   UNL A   1      41.155  28.082  36.114  1.00  0.00    -0.206 F 
ATOM     73  C   UNL A   1      42.939  24.955  36.390  1.00  0.00     0.022 A 
BRANCH  70  74
ATOM     74  S   UNL A   1      44.364  23.337  34.656  1.00  0.00     0.124 S 
ATOM     75  O   UNL A   1      44.691  22.792  35.974  1.00  0.00    -0.237 OA
ATOM     76  O   UNL A   1      43.373  22.581  33.891  1.00  0.00    -0.237 OA
ATOM     77  O   UNL A   1      45.482  23.850  33.883  1.00  0.00    -0.744 OA
ENDBRANCH  70  74
ENDBRANCH  53  67
BRANCH  54  78
ATOM     78  C   UNL A   1      43.449  25.197  26.050  1.00  0.00     0.023 A 
ATOM     79  C   UNL A   1      42.526  24.203  26.423  1.00  0.00     0.031 A 
ATOM     80  C   UNL A   1      44.443  24.842  25.122  1.00  0.00     0.131 A 
ATOM     81  C   UNL A   1      42.649  22.897  25.929  1.00  0.00     0.055 A 
ATOM     82  C   UNL A   1      44.550  23.542  24.612  1.00  0.00     0.041 A 
ATOM     83  F   UNL A   1      45.379  25.731  24.753  1.00  0.00    -0.206 F 
ATOM     84  C   UNL A   1      43.660  22.557  25.029  1.00  0.00     0.022 A 
BRANCH  81  85
ATOM     85  S   UNL A   1      41.553  21.585  26.535  1.00  0.00     0.124 S 
ATOM     86  O   UNL A   1      41.599  21.791  27.981  1.00  0.00    -0.237 OA
ATOM     87  O   UNL A   1      40.290  21.936  25.891  1.00  0.00    -0.237 OA
ATOM     88  O   UNL A   1      42.190  20.361  26.064  1.00  0.00    -0.744 OA
ENDBRANCH  81  85
ENDBRANCH  54  78
BRANCH  66  89
ATOM     89  C   UNL A   1      45.993  29.971  29.346  1.00  0.00     0.023 A 
ATOM     90  C   UNL A   1      45.057  30.650  28.549  1.00  0.00     0.031 A 
ATOM     91  C   UNL A   1      47.357  30.232  29.113  1.00  0.00     0.131 A 
ATOM     92  C   UNL A   1      45.484  31.505  27.528  1.00  0.00     0.055 A 
ATOM     93  C   UNL A   1      47.778  31.148  28.142  1.00  0.00     0.041 A 
ATOM     94  F   UNL A   1      48.321  29.554  29.746  1.00  0.00    -0.206 F 
ATOM     95  C   UNL A   1      46.840  31.775  27.329  1.00  0.00     0.022 A 
BRANCH  92  96
ATOM     96  S   UNL A   1      44.295  32.145  26.323  1.00  0.00     0.124 S 
ATOM     97  O   UNL A   1      45.151  32.460  25.183  1.00  0.00    -0.237 OA
ATOM     98  O   UNL A   1      43.400  31.003  26.137  1.00  0.00    -0.237 OA
ATOM     99  O   UNL A   1      43.695  33.296  26.992  1.00  0.00    -0.744 OA
ENDBRANCH  92  96
ENDBRANCH  66  89
ENDBRANCH  40  41
ENDBRANCH  32  35
ENDBRANCH  30  31
ENDBRANCH   1  30
TORSDOF 15
ENDMDL
MODEL 2
REMARK VINA RESULT:     -13.0      3.270      8.968
REMARK SMILES Cc1ccc2c(c1)c(-c1ccnc3c(C)cccc13)c(C)n2CC(=O)NCCCNC(=O)c1ccc(-c2c3nc(c(-c4cc(S(=O)(=O)[O-])ccc4F)c4ccc([nH]4)c(-c4cc(S(=O)(=O)[O-])ccc4F)c4nc(c(-c5cc(S(=O)(=O)[O-])ccc5F)c5ccc2[nH]5)C=C4)C=C3)cc1
REMARK SMILES IDX 28 1 27 2 26 3 24 4 25 5 23 7 22 8 1 9 2 10 3 11 7 12 4 13
REMARK SMILES IDX 6 14 5 15 8 16 20 17 21 18 9 19 10 20 19 21 11 22 13 23
REMARK SMILES IDX 18 24 12 25 14 26 17 27 15 28 16 29 29 30 30 31 31 32 32 34
REMARK SMILES IDX 33 35 34 36 95 37 35 38 94 39 36 40 37 41 38 42 88 43 39 44
REMARK SMILES IDX 93 45 87 46 89 47 40 48 92 49 86 50 85 51 41 53 73 54 53 55
REMARK SMILES IDX 72 56 54 57 57 58 71 59 90 60 55 61 56 62 70 64 91 65 58 66
REMARK SMILES IDX 42 67 43 68 51 69 44 70 50 71 52 72 49 73 45 74 46 75 47 76
REMARK SMILES IDX 48 77 74 78 75 79 83 80 76 81 82 82 84 83 81 84 77 85 78 86
REMARK SMILES IDX 79 87 80 88 59 89 60 90 68 91 61 92 67 93 69 94 66 95 62 96
REMARK SMILES IDX 63 97 64 98 65 99
REMARK H PARENT 26 6 30 33 89 52 57 63
REMARK Flexibility Score: inf
ROOT
ATOM      1  C   UNL A   1      40.568  20.258  26.139  1.00  0.00     0.042 C 
ENDROOT
BRANCH   1   2
ATOM      2  C   UNL A   1      39.153  20.737  25.813  1.00  0.00     0.117 C 
BRANCH   2   3
ATOM      3  N   UNL A   1      38.835  22.018  26.425  1.00  0.00    -0.354 N 
ATOM      4  C   UNL A   1      38.016  23.019  25.996  1.00  0.00     0.239 C 
ATOM      5  O   UNL A   1      37.884  24.004  26.730  1.00  0.00    -0.273 OA
ATOM      6  H   UNL A   1      39.282  22.189  27.284  1.00  0.00     0.163 HD
BRANCH   4   7
ATOM      7  C   UNL A   1      37.238  22.903  24.700  1.00  0.00     0.222 C 
BRANCH   7   8
ATOM      8  N   UNL A   1      35.805  22.714  24.893  1.00  0.00    -0.335 N 
ATOM      9  C   UNL A   1      32.457  18.160  24.637  1.00  0.00     0.044 C 
ATOM     10  C   UNL A   1      33.409  19.319  24.727  1.00  0.00    -0.050 A 
ATOM     11  C   UNL A   1      34.787  19.107  24.714  1.00  0.00     0.005 A 
ATOM     12  C   UNL A   1      32.913  20.625  24.870  1.00  0.00     0.014 A 
ATOM     13  C   UNL A   1      35.687  20.173  24.798  1.00  0.00     0.027 A 
ATOM     14  C   UNL A   1      33.801  21.719  24.951  1.00  0.00     0.008 A 
ATOM     15  C   UNL A   1      35.175  21.480  24.889  1.00  0.00     0.049 A 
ATOM     16  C   UNL A   1      33.626  23.127  25.085  1.00  0.00     0.011 A 
ATOM     17  C   UNL A   1      34.881  23.720  25.113  1.00  0.00     0.024 A 
ATOM     18  C   UNL A   1      35.235  25.161  25.283  1.00  0.00     0.065 C 
BRANCH  16  19
ATOM     19  C   UNL A   1      32.385  23.885  25.196  1.00  0.00    -0.005 A 
ATOM     20  C   UNL A   1      31.631  23.730  26.356  1.00  0.00     0.029 A 
ATOM     21  C   UNL A   1      31.944  24.761  24.170  1.00  0.00     0.008 A 
ATOM     22  C   UNL A   1      30.483  24.477  26.477  1.00  0.00     0.112 A 
ATOM     23  C   UNL A   1      30.753  25.487  24.398  1.00  0.00     0.074 A 
ATOM     24  C   UNL A   1      32.629  24.928  22.943  1.00  0.00     0.011 A 
ATOM     25  N   UNL A   1      30.051  25.351  25.544  1.00  0.00    -0.256 NA
ATOM     26  C   UNL A   1      30.303  26.366  23.400  1.00  0.00    -0.025 A 
ATOM     27  C   UNL A   1      32.162  25.787  21.956  1.00  0.00     0.001 A 
ATOM     28  C   UNL A   1      29.048  27.182  23.573  1.00  0.00     0.047 C 
ATOM     29  C   UNL A   1      31.001  26.507  22.186  1.00  0.00     0.005 A 
ENDBRANCH  16  19
ENDBRANCH   7   8
ENDBRANCH   4   7
ENDBRANCH   2   3
ENDBRANCH   1   2
BRANCH   1  30
ATOM     30  C   UNL A   1      41.481  21.354  26.689  1.00  0.00     0.118 C 
BRANCH  30  31
ATOM     31  N   UNL A   1      42.214  22.079  25.670  1.00  0.00    -0.352 N 
ATOM     32  C   UNL A   1      42.608  23.376  25.493  1.00  0.00     0.251 C 
ATOM     33  H   UNL A   1      42.495  21.498  24.928  1.00  0.00     0.163 HD
ATOM     34  O   UNL A   1      43.315  23.579  24.502  1.00  0.00    -0.269 OA
BRANCH  32  35
ATOM     35  C   UNL A   1      42.196  24.529  26.336  1.00  0.00     0.039 A 
ATOM     36  C   UNL A   1      41.225  25.477  26.011  1.00  0.00     0.014 A 
ATOM     37  C   UNL A   1      42.911  24.684  27.541  1.00  0.00     0.014 A 
ATOM     38  C   UNL A   1      41.064  26.614  26.799  1.00  0.00     0.010 A 
ATOM     39  C   UNL A   1      42.741  25.806  28.340  1.00  0.00     0.010 A 
ATOM     40  C   UNL A   1      41.862  26.801  27.931  1.00  0.00    -0.014 A 
BRANCH  40  41
ATOM     41  C   UNL A   1      41.689  28.025  28.709  1.00  0.00     0.031 A 
ATOM     42  C   UNL A   1      42.649  29.115  28.375  1.00  0.00     0.074 A 
ATOM     43  C   UNL A   1      40.668  28.202  29.572  1.00  0.00     0.049 A 
ATOM     44  N   UNL A   1      43.549  29.655  29.131  1.00  0.00    -0.248 NA
ATOM     45  C   UNL A   1      42.700  29.564  26.975  1.00  0.00     0.031 C 
ATOM     46  C   UNL A   1      39.493  27.343  29.762  1.00  0.00     0.029 A 
ATOM     47  N   UNL A   1      40.405  29.255  30.396  1.00  0.00    -0.354 N 
ATOM     48  C   UNL A   1      44.153  30.651  28.361  1.00  0.00     0.074 A 
ATOM     49  C   UNL A   1      43.709  30.434  27.008  1.00  0.00     0.031 C 
ATOM     50  C   UNL A   1      38.546  28.024  30.447  1.00  0.00     0.029 A 
ATOM     51  C   UNL A   1      39.103  29.295  30.877  1.00  0.00     0.049 A 
ATOM     52  H   UNL A   1      41.082  29.930  30.632  1.00  0.00     0.167 HD
ATOM     53  C   UNL A   1      44.811  31.705  28.923  1.00  0.00     0.034 A 
ATOM     54  C   UNL A   1      38.499  30.328  31.519  1.00  0.00     0.034 A 
ATOM     55  C   UNL A   1      45.105  31.457  30.307  1.00  0.00     0.049 A 
ATOM     56  C   UNL A   1      39.553  31.240  32.015  1.00  0.00     0.074 A 
ATOM     57  C   UNL A   1      45.906  30.568  30.992  1.00  0.00     0.029 A 
ATOM     58  N   UNL A   1      44.242  31.987  31.233  1.00  0.00    -0.354 N 
ATOM     59  N   UNL A   1      40.381  30.948  32.977  1.00  0.00    -0.248 NA
ATOM     60  C   UNL A   1      39.967  32.324  31.137  1.00  0.00     0.031 C 
ATOM     61  C   UNL A   1      45.190  30.274  32.186  1.00  0.00     0.029 A 
ATOM     62  C   UNL A   1      44.022  31.040  32.197  1.00  0.00     0.049 A 
ATOM     63  H   UNL A   1      43.849  32.890  31.209  1.00  0.00     0.167 HD
ATOM     64  C   UNL A   1      41.594  31.468  32.554  1.00  0.00     0.074 A 
ATOM     65  C   UNL A   1      41.256  32.397  31.476  1.00  0.00     0.031 C 
ATOM     66  C   UNL A   1      42.774  30.889  32.920  1.00  0.00     0.034 A 
BRANCH  53  67
ATOM     67  C   UNL A   1      44.875  33.094  28.323  1.00  0.00     0.023 A 
ATOM     68  C   UNL A   1      46.003  33.580  27.636  1.00  0.00     0.031 A 
ATOM     69  C   UNL A   1      43.709  33.881  28.215  1.00  0.00     0.131 A 
ATOM     70  C   UNL A   1      45.962  34.770  26.897  1.00  0.00     0.055 A 
ATOM     71  C   UNL A   1      43.648  35.035  27.421  1.00  0.00     0.041 A 
ATOM     72  F   UNL A   1      42.570  33.520  28.825  1.00  0.00    -0.206 F 
ATOM     73  C   UNL A   1      44.779  35.484  26.753  1.00  0.00     0.022 A 
BRANCH  70  74
ATOM     74  S   UNL A   1      47.463  35.392  26.091  1.00  0.00     0.124 S 
ATOM     75  O   UNL A   1      48.457  35.243  27.153  1.00  0.00    -0.237 OA
ATOM     76  O   UNL A   1      47.599  34.464  24.968  1.00  0.00    -0.237 OA
ATOM     77  O   UNL A   1      47.119  36.757  25.726  1.00  0.00    -0.744 OA
ENDBRANCH  70  74
ENDBRANCH  53  67
BRANCH  54  78
ATOM     78  C   UNL A   1      37.115  30.814  31.301  1.00  0.00     0.023 A 
ATOM     79  C   UNL A   1      36.650  31.001  29.986  1.00  0.00     0.031 A 
ATOM     80  C   UNL A   1      36.379  31.412  32.339  1.00  0.00     0.131 A 
ATOM     81  C   UNL A   1      35.534  31.810  29.735  1.00  0.00     0.055 A 
ATOM     82  C   UNL A   1      35.250  32.201  32.087  1.00  0.00     0.041 A 
ATOM     83  F   UNL A   1      36.789  31.306  33.612  1.00  0.00    -0.206 F 
ATOM     84  C   UNL A   1      34.832  32.418  30.777  1.00  0.00     0.022 A 
BRANCH  81  85
ATOM     85  S   UNL A   1      35.036  32.174  28.030  1.00  0.00     0.124 S 
ATOM     86  O   UNL A   1      36.078  33.103  27.597  1.00  0.00    -0.237 OA
ATOM     87  O   UNL A   1      35.084  30.849  27.419  1.00  0.00    -0.237 OA
ATOM     88  O   UNL A   1      33.709  32.760  28.177  1.00  0.00    -0.744 OA
ENDBRANCH  81  85
ENDBRANCH  54  78
BRANCH  66  89
ATOM     89  C   UNL A   1      42.761  29.828  33.999  1.00  0.00     0.023 A 
ATOM     90  C   UNL A   1      43.315  30.180  35.241  1.00  0.00     0.031 A 
ATOM     91  C   UNL A   1      42.453  28.471  33.785  1.00  0.00     0.131 A 
ATOM     92  C   UNL A   1      43.597  29.196  36.194  1.00  0.00     0.055 A 
ATOM     93  C   UNL A   1      42.665  27.500  34.771  1.00  0.00     0.041 A 
ATOM     94  F   UNL A   1      42.024  28.026  32.598  1.00  0.00    -0.206 F 
ATOM     95  C   UNL A   1      43.259  27.858  35.976  1.00  0.00     0.022 A 
BRANCH  92  96
ATOM     96  S   UNL A   1      44.573  29.607  37.662  1.00  0.00     0.124 S 
ATOM     97  O   UNL A   1      45.850  30.009  37.081  1.00  0.00    -0.237 OA
ATOM     98  O   UNL A   1      43.789  30.687  38.260  1.00  0.00    -0.237 OA
ATOM     99  O   UNL A   1      44.598  28.366  38.431  1.00  0.00    -0.744 OA
ENDBRANCH  92  96
ENDBRANCH  66  89
ENDBRANCH  40  41
ENDBRANCH  32  35
ENDBRANCH  30  31
ENDBRANCH   1  30
TORSDOF 15
ENDMDL
MODEL 3
REMARK VINA RESULT:     -12.9      5.094     11.555
REMARK SMILES Cc1ccc2c(c1)c(-c1ccnc3c(C)cccc13)c(C)n2CC(=O)NCCCNC(=O)c1ccc(-c2c3nc(c(-c4cc(S(=O)(=O)[O-])ccc4F)c4ccc([nH]4)c(-c4cc(S(=O)(=O)[O-])ccc4F)c4nc(c(-c5cc(S(=O)(=O)[O-])ccc5F)c5ccc2[nH]5)C=C4)C=C3)cc1
REMARK SMILES IDX 28 1 27 2 26 3 24 4 25 5 23 7 22 8 1 9 2 10 3 11 7 12 4 13
REMARK SMILES IDX 6 14 5 15 8 16 20 17 21 18 9 19 10 20 19 21 11 22 13 23
REMARK SMILES IDX 18 24 12 25 14 26 17 27 15 28 16 29 29 30 30 31 31 32 32 34
REMARK SMILES IDX 33 35 34 36 95 37 35 38 94 39 36 40 37 41 38 42 88 43 39 44
REMARK SMILES IDX 93 45 87 46 89 47 40 48 92 49 86 50 85 51 41 53 73 54 53 55
REMARK SMILES IDX 72 56 54 57 57 58 71 59 90 60 55 61 56 62 70 64 91 65 58 66
REMARK SMILES IDX 42 67 43 68 51 69 44 70 50 71 52 72 49 73 45 74 46 75 47 76
REMARK SMILES IDX 48 77 74 78 75 79 83 80 76 81 82 82 84 83 81 84 77 85 78 86
REMARK SMILES IDX 79 87 80 88 59 89 60 90 68 91 61 92 67 93 69 94 66 95 62 96
REMARK SMILES IDX 63 97 64 98 65 99
REMARK H PARENT 26 6 30 33 89 52 57 63
REMARK Flexibility Score: inf
ROOT
ATOM      1  C   UNL A   1      44.055  22.235  24.517  1.00  0.00     0.042 C 
ENDROOT
BRANCH   1   2
ATOM      2  C   UNL A   1      44.803  23.545  24.263  1.00  0.00     0.117 C 
BRANCH   2   3
ATOM      3  N   UNL A   1      44.138  24.698  24.850  1.00  0.00    -0.354 N 
ATOM      4  C   UNL A   1      44.659  25.790  25.476  1.00  0.00     0.239 C 
ATOM      5  O   UNL A   1      43.871  26.662  25.856  1.00  0.00    -0.273 OA
ATOM      6  H   UNL A   1      43.156  24.688  24.784  1.00  0.00     0.163 HD
BRANCH   4   7
ATOM      7  C   UNL A   1      46.156  25.967  25.641  1.00  0.00     0.222 C 
BRANCH   7   8
ATOM      8  N   UNL A   1      46.545  26.467  26.954  1.00  0.00    -0.335 N 
ATOM      9  C   UNL A   1      48.724  31.386  28.707  1.00  0.00     0.044 C 
ATOM     10  C   UNL A   1      48.109  30.121  28.179  1.00  0.00    -0.050 A 
ATOM     11  C   UNL A   1      47.638  30.056  26.868  1.00  0.00     0.005 A 
ATOM     12  C   UNL A   1      47.966  29.005  29.020  1.00  0.00     0.014 A 
ATOM     13  C   UNL A   1      47.062  28.888  26.360  1.00  0.00     0.027 A 
ATOM     14  C   UNL A   1      47.393  27.812  28.529  1.00  0.00     0.008 A 
ATOM     15  C   UNL A   1      46.972  27.763  27.199  1.00  0.00     0.049 A 
ATOM     16  C   UNL A   1      47.122  26.537  29.103  1.00  0.00     0.011 A 
ATOM     17  C   UNL A   1      46.537  25.738  28.130  1.00  0.00     0.024 A 
ATOM     18  C   UNL A   1      46.030  24.338  28.244  1.00  0.00     0.065 C 
BRANCH  16  19
ATOM     19  C   UNL A   1      47.370  26.078  30.465  1.00  0.00    -0.005 A 
ATOM     20  C   UNL A   1      48.661  25.669  30.787  1.00  0.00     0.029 A 
ATOM     21  C   UNL A   1      46.346  26.045  31.446  1.00  0.00     0.008 A 
ATOM     22  C   UNL A   1      48.903  25.276  32.082  1.00  0.00     0.112 A 
ATOM     23  C   UNL A   1      46.702  25.631  32.749  1.00  0.00     0.074 A 
ATOM     24  C   UNL A   1      45.000  26.393  31.177  1.00  0.00     0.011 A 
ATOM     25  N   UNL A   1      47.968  25.269  33.054  1.00  0.00    -0.256 NA
ATOM     26  C   UNL A   1      45.706  25.598  33.738  1.00  0.00    -0.025 A 
ATOM     27  C   UNL A   1      44.021  26.339  32.161  1.00  0.00     0.001 A 
ATOM     28  C   UNL A   1      46.010  25.178  35.152  1.00  0.00     0.047 C 
ATOM     29  C   UNL A   1      44.374  25.944  33.440  1.00  0.00     0.005 A 
ENDBRANCH  16  19
ENDBRANCH   7   8
ENDBRANCH   4   7
ENDBRANCH   2   3
ENDBRANCH   1   2
BRANCH   1  30
ATOM     30  C   UNL A   1      43.565  22.072  25.956  1.00  0.00     0.118 C 
BRANCH  30  31
ATOM     31  N   UNL A   1      42.126  21.957  26.082  1.00  0.00    -0.352 N 
ATOM     32  C   UNL A   1      41.116  22.784  26.486  1.00  0.00     0.251 C 
ATOM     33  H   UNL A   1      41.798  21.070  25.811  1.00  0.00     0.163 HD
ATOM     34  O   UNL A   1      39.978  22.325  26.358  1.00  0.00    -0.269 OA
BRANCH  32  35
ATOM     35  C   UNL A   1      41.291  24.118  27.119  1.00  0.00     0.039 A 
ATOM     36  C   UNL A   1      42.182  24.429  28.146  1.00  0.00     0.014 A 
ATOM     37  C   UNL A   1      40.420  25.126  26.656  1.00  0.00     0.014 A 
ATOM     38  C   UNL A   1      42.117  25.667  28.782  1.00  0.00     0.010 A 
ATOM     39  C   UNL A   1      40.365  26.368  27.273  1.00  0.00     0.010 A 
ATOM     40  C   UNL A   1      41.171  26.612  28.377  1.00  0.00    -0.014 A 
BRANCH  40  41
ATOM     41  C   UNL A   1      41.109  27.884  29.093  1.00  0.00     0.031 A 
ATOM     42  C   UNL A   1      42.145  28.876  28.689  1.00  0.00     0.074 A 
ATOM     43  C   UNL A   1      40.121  28.185  29.961  1.00  0.00     0.049 A 
ATOM     44  N   UNL A   1      43.099  29.381  29.403  1.00  0.00    -0.248 NA
ATOM     45  C   UNL A   1      42.205  29.248  27.267  1.00  0.00     0.031 C 
ATOM     46  C   UNL A   1      38.886  27.432  30.212  1.00  0.00     0.029 A 
ATOM     47  N   UNL A   1      39.957  29.295  30.733  1.00  0.00    -0.354 N 
ATOM     48  C   UNL A   1      43.764  30.286  28.573  1.00  0.00     0.074 A 
ATOM     49  C   UNL A   1      43.279  30.036  27.240  1.00  0.00     0.031 C 
ATOM     50  C   UNL A   1      38.009  28.220  30.875  1.00  0.00     0.029 A 
ATOM     51  C   UNL A   1      38.671  29.463  31.230  1.00  0.00     0.049 A 
ATOM     52  H   UNL A   1      40.689  29.926  30.923  1.00  0.00     0.167 HD
ATOM     53  C   UNL A   1      44.513  31.311  29.071  1.00  0.00     0.034 A 
ATOM     54  C   UNL A   1      38.162  30.572  31.826  1.00  0.00     0.034 A 
ATOM     55  C   UNL A   1      44.812  31.110  30.461  1.00  0.00     0.049 A 
ATOM     56  C   UNL A   1      39.294  31.421  32.259  1.00  0.00     0.074 A 
ATOM     57  C   UNL A   1      45.554  30.197  31.180  1.00  0.00     0.029 A 
ATOM     58  N   UNL A   1      44.011  31.754  31.371  1.00  0.00    -0.354 N 
ATOM     59  N   UNL A   1      40.114  31.113  33.222  1.00  0.00    -0.248 NA
ATOM     60  C   UNL A   1      39.775  32.423  31.321  1.00  0.00     0.031 C 
ATOM     61  C   UNL A   1      44.840  30.021  32.398  1.00  0.00     0.029 A 
ATOM     62  C   UNL A   1      43.735  30.877  32.386  1.00  0.00     0.049 A 
ATOM     63  H   UNL A   1      43.690  32.682  31.306  1.00  0.00     0.167 HD
ATOM     64  C   UNL A   1      41.356  31.514  32.755  1.00  0.00     0.074 A 
ATOM     65  C   UNL A   1      41.072  32.410  31.636  1.00  0.00     0.031 C 
ATOM     66  C   UNL A   1      42.493  30.862  33.133  1.00  0.00     0.034 A 
BRANCH  53  67
ATOM     67  C   UNL A   1      44.675  32.658  28.398  1.00  0.00     0.023 A 
ATOM     68  C   UNL A   1      45.798  32.996  27.621  1.00  0.00     0.031 A 
ATOM     69  C   UNL A   1      43.588  33.555  28.322  1.00  0.00     0.131 A 
ATOM     70  C   UNL A   1      45.826  34.151  26.827  1.00  0.00     0.055 A 
ATOM     71  C   UNL A   1      43.589  34.673  27.476  1.00  0.00     0.041 A 
ATOM     72  F   UNL A   1      42.461  33.339  29.018  1.00  0.00    -0.206 F 
ATOM     73  C   UNL A   1      44.713  34.975  26.719  1.00  0.00     0.022 A 
BRANCH  70  74
ATOM     74  S   UNL A   1      47.326  34.580  25.900  1.00  0.00     0.124 S 
ATOM     75  O   UNL A   1      48.089  33.335  25.972  1.00  0.00    -0.237 OA
ATOM     76  O   UNL A   1      46.775  34.905  24.584  1.00  0.00    -0.237 OA
ATOM     77  O   UNL A   1      47.875  35.708  26.636  1.00  0.00    -0.744 OA
ENDBRANCH  70  74
ENDBRANCH  53  67
BRANCH  54  78
ATOM     78  C   UNL A   1      36.817  31.154  31.604  1.00  0.00     0.023 A 
ATOM     79  C   UNL A   1      36.352  31.331  30.287  1.00  0.00     0.031 A 
ATOM     80  C   UNL A   1      36.141  31.843  32.626  1.00  0.00     0.131 A 
ATOM     81  C   UNL A   1      35.298  32.213  30.018  1.00  0.00     0.055 A 
ATOM     82  C   UNL A   1      35.072  32.707  32.357  1.00  0.00     0.041 A 
ATOM     83  F   UNL A   1      36.557  31.750  33.899  1.00  0.00    -0.206 F 
ATOM     84  C   UNL A   1      34.657  32.909  31.044  1.00  0.00     0.022 A 
BRANCH  81  85
ATOM     85  S   UNL A   1      34.809  32.555  28.305  1.00  0.00     0.124 S 
ATOM     86  O   UNL A   1      34.313  31.253  27.862  1.00  0.00    -0.237 OA
ATOM     87  O   UNL A   1      33.791  33.585  28.489  1.00  0.00    -0.237 OA
ATOM     88  O   UNL A   1      36.049  32.990  27.674  1.00  0.00    -0.744 OA
ENDBRANCH  81  85
ENDBRANCH  54  78
BRANCH  66  89
ATOM     89  C   UNL A   1      42.417  29.862  34.266  1.00  0.00     0.023 A 
ATOM     90  C   UNL A   1      43.165  30.150  35.420  1.00  0.00     0.031 A 
ATOM     91  C   UNL A   1      41.850  28.576  34.164  1.00  0.00     0.131 A 
ATOM     92  C   UNL A   1      43.377  29.167  36.391  1.00  0.00     0.055 A 
ATOM     93  C   UNL A   1      42.000  27.620  35.175  1.00  0.00     0.041 A 
ATOM     94  F   UNL A   1      41.214  28.174  33.057  1.00  0.00    -0.206 F 
ATOM     95  C   UNL A   1      42.784  27.906  36.287  1.00  0.00     0.022 A 
BRANCH  92  96
ATOM     96  S   UNL A   1      44.574  29.446  37.720  1.00  0.00     0.124 S 
ATOM     97  O   UNL A   1      43.957  30.539  38.466  1.00  0.00    -0.237 OA
ATOM     98  O   UNL A   1      44.586  28.152  38.400  1.00  0.00    -0.237 OA
ATOM     99  O   UNL A   1      45.809  29.785  37.019  1.00  0.00    -0.744 OA
ENDBRANCH  92  96
ENDBRANCH  66  89
ENDBRANCH  40  41
ENDBRANCH  32  35
ENDBRANCH  30  31
ENDBRANCH   1  30
TORSDOF 15
ENDMDL
