MODEL 1
REMARK VINA RESULT:     -13.4      0.000      0.000
REMARK SMILES O=C(C[C@]1(C(=O)NC2CCCCC2)CC(c2ccc([N+](=O)[O-])cc2)=NO1)NCCCNC(=O)c1ccc(-c2c3nc(c(-c4cc(S(=O)(=O)[O-])ccc4F)c4ccc([nH]4)c(-c4cc(S(=O)(=O)[O-])ccc4F)c4nc(c(-c5cc(S(=O)(=O)[O-])ccc5F)c5ccc2[nH]5)C=C4)C=C3)cc1
REMARK SMILES IDX 29 1 28 2 27 3 1 4 2 5 3 7 4 8 14 9 26 10 15 11 25 12 5 13
REMARK SMILES IDX 6 14 7 15 8 17 9 18 13 19 10 20 12 21 11 22 16 23 17 24
REMARK SMILES IDX 24 25 18 26 23 27 19 28 20 29 21 30 22 31 30 32 31 33 32 34
REMARK SMILES IDX 33 36 34 37 35 38 96 39 36 40 95 41 37 42 38 43 39 44 89 45
REMARK SMILES IDX 40 46 94 47 88 48 90 49 41 50 93 51 87 52 86 53 42 55 74 56
REMARK SMILES IDX 54 57 73 58 55 59 58 60 72 61 91 62 56 63 57 64 71 66 92 67
REMARK SMILES IDX 59 68 43 69 44 70 52 71 45 72 51 73 53 74 50 75 46 76 47 77
REMARK SMILES IDX 48 78 49 79 75 80 76 81 84 82 77 83 83 84 85 85 82 86 78 87
REMARK SMILES IDX 79 88 80 89 81 90 60 91 61 92 69 93 62 94 68 95 70 96 67 97
REMARK SMILES IDX 63 98 64 99 65 100 66 101
REMARK H PARENT 27 6 7 16 31 35 90 54 58 65
REMARK Flexibility Score: inf
ROOT
ATOM      1  C   UNL A   1      37.041  22.012  24.046  1.00  0.00     0.042 C 
ENDROOT
BRANCH   1   2
ATOM      2  C   UNL A   1      36.096  23.185  23.844  1.00  0.00     0.117 C 
BRANCH   2   3
ATOM      3  N   UNL A   1      35.279  23.461  25.010  1.00  0.00    -0.356 N 
ATOM      4  O   UNL A   1      34.299  25.364  24.184  1.00  0.00    -0.275 OA
ATOM      5  C   UNL A   1      34.379  24.499  25.052  1.00  0.00     0.224 C 
ATOM      6  H   UNL A   1      35.372  22.883  25.802  1.00  0.00     0.163 HD
BRANCH   5   7
ATOM      7  C   UNL A   1      33.383  24.430  26.191  1.00  0.00     0.162 C 
BRANCH   7   8
ATOM      8  C   UNL A   1      32.370  23.283  25.939  1.00  0.00     0.229 C 
ATOM      9  C   UNL A   1      32.971  21.957  26.378  1.00  0.00     0.123 C 
ATOM     10  O   UNL A   1      32.209  23.170  24.503  1.00  0.00    -0.378 OA
ATOM     11  C   UNL A   1      32.835  21.176  25.126  1.00  0.00     0.092 C 
ATOM     12  N   UNL A   1      32.449  21.835  24.089  1.00  0.00    -0.089 NA
BRANCH   8  13
ATOM     13  C   UNL A   1      30.980  23.760  26.469  1.00  0.00     0.268 C 
ATOM     14  O   UNL A   1      30.271  22.990  27.137  1.00  0.00    -0.270 OA
ATOM     15  N   UNL A   1      30.429  24.987  26.288  1.00  0.00    -0.350 N 
ATOM     16  H   UNL A   1      29.747  25.232  26.955  1.00  0.00     0.163 HD
BRANCH  15  17
ATOM     17  C   UNL A   1      30.672  25.997  25.282  1.00  0.00     0.082 C 
ATOM     18  C   UNL A   1      29.388  26.254  24.481  1.00  0.00     0.025 C 
ATOM     19  C   UNL A   1      31.165  27.314  25.885  1.00  0.00     0.025 C 
ATOM     20  C   UNL A   1      29.635  27.241  23.348  1.00  0.00     0.002 C 
ATOM     21  C   UNL A   1      31.448  28.333  24.777  1.00  0.00     0.002 C 
ATOM     22  C   UNL A   1      30.246  28.545  23.854  1.00  0.00     0.000 C 
ENDBRANCH  15  17
ENDBRANCH   8  13
BRANCH  11  23
ATOM     23  C   UNL A   1      33.189  19.751  25.100  1.00  0.00    -0.000 A 
ATOM     24  C   UNL A   1      34.445  19.354  24.636  1.00  0.00     0.017 A 
ATOM     25  C   UNL A   1      32.270  18.803  25.555  1.00  0.00     0.017 A 
ATOM     26  C   UNL A   1      34.789  17.997  24.648  1.00  0.00     0.086 A 
ATOM     27  C   UNL A   1      32.601  17.448  25.564  1.00  0.00     0.086 A 
ATOM     28  C   UNL A   1      33.864  17.049  25.114  1.00  0.00     0.269 A 
BRANCH  28  29
ATOM     29  N   UNL A   1      34.216  15.622  25.128  1.00  0.00     0.062 N 
ATOM     30  O   UNL A   1      35.417  15.325  25.116  1.00  0.00    -0.258 OA
ATOM     31  O   UNL A   1      33.287  14.801  25.149  1.00  0.00    -0.258 OA
ENDBRANCH  28  29
ENDBRANCH  11  23
ENDBRANCH   7   8
ENDBRANCH   5   7
ENDBRANCH   2   3
ENDBRANCH   1   2
BRANCH   1  32
ATOM     32  C   UNL A   1      37.122  21.506  25.483  1.00  0.00     0.118 C 
BRANCH  32  33
ATOM     33  N   UNL A   1      38.218  20.572  25.705  1.00  0.00    -0.352 N 
ATOM     34  C   UNL A   1      39.498  20.810  26.150  1.00  0.00     0.251 C 
ATOM     35  H   UNL A   1      38.011  19.630  25.508  1.00  0.00     0.163 HD
ATOM     36  O   UNL A   1      40.313  19.890  26.149  1.00  0.00    -0.269 OA
BRANCH  34  37
ATOM     37  C   UNL A   1      39.900  22.167  26.588  1.00  0.00     0.039 A 
ATOM     38  C   UNL A   1      40.977  22.303  27.468  1.00  0.00     0.014 A 
ATOM     39  C   UNL A   1      39.230  23.304  26.126  1.00  0.00     0.014 A 
ATOM     40  C   UNL A   1      41.435  23.577  27.815  1.00  0.00     0.010 A 
ATOM     41  C   UNL A   1      39.735  24.571  26.412  1.00  0.00     0.010 A 
ATOM     42  C   UNL A   1      40.850  24.723  27.253  1.00  0.00    -0.014 A 
BRANCH  42  43
ATOM     43  C   UNL A   1      41.393  26.083  27.515  1.00  0.00     0.031 A 
ATOM     44  C   UNL A   1      42.765  26.460  27.022  1.00  0.00     0.074 A 
ATOM     45  C   UNL A   1      40.685  26.953  28.263  1.00  0.00     0.049 A 
ATOM     46  N   UNL A   1      43.452  27.551  27.240  1.00  0.00    -0.248 NA
ATOM     47  C   UNL A   1      43.463  25.462  26.199  1.00  0.00     0.031 C 
ATOM     48  C   UNL A   1      39.359  26.697  28.829  1.00  0.00     0.029 A 
ATOM     49  N   UNL A   1      40.985  28.224  28.691  1.00  0.00    -0.354 N 
ATOM     50  C   UNL A   1      44.671  27.368  26.593  1.00  0.00     0.074 A 
ATOM     51  C   UNL A   1      44.645  26.036  26.026  1.00  0.00     0.031 C 
ATOM     52  C   UNL A   1      38.954  27.780  29.512  1.00  0.00     0.029 A 
ATOM     53  C   UNL A   1      40.008  28.788  29.479  1.00  0.00     0.049 A 
ATOM     54  H   UNL A   1      41.821  28.687  28.454  1.00  0.00     0.167 HD
ATOM     55  C   UNL A   1      45.706  28.237  26.468  1.00  0.00     0.034 A 
ATOM     56  C   UNL A   1      39.971  29.975  30.120  1.00  0.00     0.034 A 
ATOM     57  C   UNL A   1      45.714  29.565  27.031  1.00  0.00     0.049 A 
ATOM     58  C   UNL A   1      41.149  30.909  29.997  1.00  0.00     0.074 A 
ATOM     59  C   UNL A   1      46.686  30.544  26.916  1.00  0.00     0.029 A 
ATOM     60  N   UNL A   1      44.707  30.101  27.825  1.00  0.00    -0.354 N 
ATOM     61  N   UNL A   1      42.275  30.738  29.342  1.00  0.00    -0.248 NA
ATOM     62  C   UNL A   1      41.048  32.198  30.692  1.00  0.00     0.031 C 
ATOM     63  C   UNL A   1      46.301  31.641  27.696  1.00  0.00     0.029 A 
ATOM     64  C   UNL A   1      45.051  31.381  28.233  1.00  0.00     0.049 A 
ATOM     65  H   UNL A   1      43.872  29.638  28.064  1.00  0.00     0.167 HD
ATOM     66  C   UNL A   1      43.000  31.912  29.523  1.00  0.00     0.074 A 
ATOM     67  C   UNL A   1      42.180  32.787  30.336  1.00  0.00     0.031 C 
ATOM     68  C   UNL A   1      44.231  32.241  29.054  1.00  0.00     0.034 A 
BRANCH  55  69
ATOM     69  C   UNL A   1      46.925  27.760  25.713  1.00  0.00     0.023 A 
ATOM     70  C   UNL A   1      47.124  28.076  24.357  1.00  0.00     0.031 A 
ATOM     71  C   UNL A   1      47.890  26.960  26.349  1.00  0.00     0.131 A 
ATOM     72  C   UNL A   1      48.215  27.532  23.663  1.00  0.00     0.055 A 
ATOM     73  C   UNL A   1      49.019  26.490  25.674  1.00  0.00     0.041 A 
ATOM     74  F   UNL A   1      47.746  26.608  27.636  1.00  0.00    -0.206 F 
ATOM     75  C   UNL A   1      49.178  26.762  24.319  1.00  0.00     0.022 A 
BRANCH  72  76
ATOM     76  S   UNL A   1      48.276  27.722  21.860  1.00  0.00     0.124 S 
ATOM     77  O   UNL A   1      49.382  28.663  21.701  1.00  0.00    -0.237 OA
ATOM     78  O   UNL A   1      48.526  26.360  21.406  1.00  0.00    -0.237 OA
ATOM     79  O   UNL A   1      46.958  28.260  21.527  1.00  0.00    -0.744 OA
ENDBRANCH  72  76
ENDBRANCH  55  69
BRANCH  56  80
ATOM     80  C   UNL A   1      38.792  30.347  30.954  1.00  0.00     0.023 A 
ATOM     81  C   UNL A   1      37.710  31.049  30.402  1.00  0.00     0.031 A 
ATOM     82  C   UNL A   1      38.751  30.043  32.326  1.00  0.00     0.131 A 
ATOM     83  C   UNL A   1      36.654  31.467  31.227  1.00  0.00     0.055 A 
ATOM     84  C   UNL A   1      37.673  30.414  33.132  1.00  0.00     0.041 A 
ATOM     85  F   UNL A   1      39.759  29.370  32.904  1.00  0.00    -0.206 F 
ATOM     86  C   UNL A   1      36.621  31.143  32.585  1.00  0.00     0.022 A 
BRANCH  83  87
ATOM     87  S   UNL A   1      35.359  32.518  30.514  1.00  0.00     0.124 S 
ATOM     88  O   UNL A   1      34.325  32.455  31.540  1.00  0.00    -0.237 OA
ATOM     89  O   UNL A   1      36.050  33.796  30.377  1.00  0.00    -0.237 OA
ATOM     90  O   UNL A   1      35.033  31.851  29.256  1.00  0.00    -0.744 OA
ENDBRANCH  83  87
ENDBRANCH  56  80
BRANCH  68  91
ATOM     91  C   UNL A   1      44.741  33.626  29.371  1.00  0.00     0.023 A 
ATOM     92  C   UNL A   1      44.380  34.744  28.599  1.00  0.00     0.031 A 
ATOM     93  C   UNL A   1      45.607  33.826  30.460  1.00  0.00     0.131 A 
ATOM     94  C   UNL A   1      44.925  36.003  28.895  1.00  0.00     0.055 A 
ATOM     95  C   UNL A   1      46.099  35.090  30.787  1.00  0.00     0.041 A 
ATOM     96  F   UNL A   1      45.988  32.793  31.230  1.00  0.00    -0.206 F 
ATOM     97  C   UNL A   1      45.769  36.186  29.995  1.00  0.00     0.022 A 
BRANCH  94  98
ATOM     98  S   UNL A   1      44.585  37.388  27.775  1.00  0.00     0.124 S 
ATOM     99  O   UNL A   1      44.072  38.402  28.693  1.00  0.00    -0.237 OA
ATOM    100  O   UNL A   1      45.899  37.655  27.200  1.00  0.00    -0.237 OA
ATOM    101  O   UNL A   1      43.599  36.842  26.843  1.00  0.00    -0.744 OA
ENDBRANCH  94  98
ENDBRANCH  68  91
ENDBRANCH  42  43
ENDBRANCH  34  37
ENDBRANCH  32  33
ENDBRANCH   1  32
TORSDOF 18
ENDMDL
MODEL 2
REMARK VINA RESULT:     -13.4      0.806      7.252
REMARK SMILES O=C(C[C@]1(C(=O)NC2CCCCC2)CC(c2ccc([N+](=O)[O-])cc2)=NO1)NCCCNC(=O)c1ccc(-c2c3nc(c(-c4cc(S(=O)(=O)[O-])ccc4F)c4ccc([nH]4)c(-c4cc(S(=O)(=O)[O-])ccc4F)c4nc(c(-c5cc(S(=O)(=O)[O-])ccc5F)c5ccc2[nH]5)C=C4)C=C3)cc1
REMARK SMILES IDX 29 1 28 2 27 3 1 4 2 5 3 7 4 8 14 9 26 10 15 11 25 12 5 13
REMARK SMILES IDX 6 14 7 15 8 17 9 18 13 19 10 20 12 21 11 22 16 23 17 24
REMARK SMILES IDX 24 25 18 26 23 27 19 28 20 29 21 30 22 31 30 32 31 33 32 34
REMARK SMILES IDX 33 36 34 37 35 38 96 39 36 40 95 41 37 42 38 43 39 44 89 45
REMARK SMILES IDX 40 46 94 47 88 48 90 49 41 50 93 51 87 52 86 53 42 55 74 56
REMARK SMILES IDX 54 57 73 58 55 59 58 60 72 61 91 62 56 63 57 64 71 66 92 67
REMARK SMILES IDX 59 68 43 69 44 70 52 71 45 72 51 73 53 74 50 75 46 76 47 77
REMARK SMILES IDX 48 78 49 79 75 80 76 81 84 82 77 83 83 84 85 85 82 86 78 87
REMARK SMILES IDX 79 88 80 89 81 90 60 91 61 92 69 93 62 94 68 95 70 96 67 97
REMARK SMILES IDX 63 98 64 99 65 100 66 101
REMARK H PARENT 27 6 7 16 31 35 90 54 58 65
REMARK Flexibility Score: inf
ROOT
ATOM      1  C   UNL A   1      36.695  22.303  23.971  1.00  0.00     0.042 C 
ENDROOT
BRANCH   1   2
ATOM      2  C   UNL A   1      36.013  23.661  23.922  1.00  0.00     0.117 C 
BRANCH   2   3
ATOM      3  N   UNL A   1      35.107  23.879  25.034  1.00  0.00    -0.356 N 
ATOM      4  O   UNL A   1      34.410  25.965  24.381  1.00  0.00    -0.275 OA
ATOM      5  C   UNL A   1      34.313  24.996  25.129  1.00  0.00     0.224 C 
ATOM      6  H   UNL A   1      35.059  23.202  25.746  1.00  0.00     0.163 HD
BRANCH   5   7
ATOM      7  C   UNL A   1      33.199  24.897  26.151  1.00  0.00     0.162 C 
BRANCH   7   8
ATOM      8  C   UNL A   1      32.137  23.872  25.677  1.00  0.00     0.229 C 
ATOM      9  C   UNL A   1      32.630  22.458  25.937  1.00  0.00     0.123 C 
ATOM     10  O   UNL A   1      32.054  23.986  24.234  1.00  0.00    -0.378 OA
ATOM     11  C   UNL A   1      32.522  21.883  24.576  1.00  0.00     0.092 C 
ATOM     12  N   UNL A   1      32.238  22.715  23.634  1.00  0.00    -0.089 NA
BRANCH   8  13
ATOM     13  C   UNL A   1      30.749  24.357  26.204  1.00  0.00     0.268 C 
ATOM     14  O   UNL A   1      30.047  23.603  26.898  1.00  0.00    -0.270 OA
ATOM     15  N   UNL A   1      30.191  25.577  25.995  1.00  0.00    -0.350 N 
ATOM     16  H   UNL A   1      29.513  25.838  26.660  1.00  0.00     0.163 HD
BRANCH  15  17
ATOM     17  C   UNL A   1      30.423  26.561  24.960  1.00  0.00     0.082 C 
ATOM     18  C   UNL A   1      29.107  26.870  24.232  1.00  0.00     0.025 C 
ATOM     19  C   UNL A   1      31.014  27.860  25.512  1.00  0.00     0.025 C 
ATOM     20  C   UNL A   1      29.335  27.828  23.070  1.00  0.00     0.002 C 
ATOM     21  C   UNL A   1      31.279  28.849  24.374  1.00  0.00     0.002 C 
ATOM     22  C   UNL A   1      30.036  29.108  23.519  1.00  0.00     0.000 C 
ENDBRANCH  15  17
ENDBRANCH   8  13
BRANCH  11  23
ATOM     23  C   UNL A   1      32.792  20.457  24.349  1.00  0.00    -0.000 A 
ATOM     24  C   UNL A   1      32.180  19.793  23.284  1.00  0.00     0.017 A 
ATOM     25  C   UNL A   1      33.673  19.779  25.195  1.00  0.00     0.017 A 
ATOM     26  C   UNL A   1      32.471  18.443  23.053  1.00  0.00     0.086 A 
ATOM     27  C   UNL A   1      33.963  18.433  24.977  1.00  0.00     0.086 A 
ATOM     28  C   UNL A   1      33.363  17.769  23.901  1.00  0.00     0.269 A 
BRANCH  28  29
ATOM     29  N   UNL A   1      33.673  16.352  23.668  1.00  0.00     0.062 N 
ATOM     30  O   UNL A   1      34.282  16.058  22.630  1.00  0.00    -0.258 OA
ATOM     31  O   UNL A   1      33.304  15.534  24.523  1.00  0.00    -0.258 OA
ENDBRANCH  28  29
ENDBRANCH  11  23
ENDBRANCH   7   8
ENDBRANCH   5   7
ENDBRANCH   2   3
ENDBRANCH   1   2
BRANCH   1  32
ATOM     32  C   UNL A   1      36.738  21.667  25.356  1.00  0.00     0.118 C 
BRANCH  32  33
ATOM     33  N   UNL A   1      37.740  20.616  25.478  1.00  0.00    -0.352 N 
ATOM     34  C   UNL A   1      39.048  20.694  25.897  1.00  0.00     0.251 C 
ATOM     35  H   UNL A   1      37.435  19.716  25.223  1.00  0.00     0.163 HD
ATOM     36  O   UNL A   1      39.767  19.702  25.807  1.00  0.00    -0.269 OA
BRANCH  34  37
ATOM     37  C   UNL A   1      39.594  21.970  26.415  1.00  0.00     0.039 A 
ATOM     38  C   UNL A   1      40.714  21.938  27.250  1.00  0.00     0.014 A 
ATOM     39  C   UNL A   1      39.017  23.197  26.072  1.00  0.00     0.014 A 
ATOM     40  C   UNL A   1      41.306  23.134  27.669  1.00  0.00     0.010 A 
ATOM     41  C   UNL A   1      39.652  24.386  26.428  1.00  0.00     0.010 A 
ATOM     42  C   UNL A   1      40.809  24.369  27.223  1.00  0.00    -0.014 A 
BRANCH  42  43
ATOM     43  C   UNL A   1      41.489  25.649  27.559  1.00  0.00     0.031 A 
ATOM     44  C   UNL A   1      40.767  26.706  28.350  1.00  0.00     0.074 A 
ATOM     45  C   UNL A   1      42.728  25.893  27.085  1.00  0.00     0.049 A 
ATOM     46  N   UNL A   1      41.147  27.921  28.650  1.00  0.00    -0.248 NA
ATOM     47  C   UNL A   1      39.428  26.356  28.845  1.00  0.00     0.031 C 
ATOM     48  C   UNL A   1      43.520  24.964  26.276  1.00  0.00     0.029 A 
ATOM     49  N   UNL A   1      43.533  26.999  27.200  1.00  0.00    -0.354 N 
ATOM     50  C   UNL A   1      40.090  28.487  29.356  1.00  0.00     0.074 A 
ATOM     51  C   UNL A   1      39.033  27.498  29.387  1.00  0.00     0.031 C 
ATOM     52  C   UNL A   1      44.702  25.531  25.985  1.00  0.00     0.029 A 
ATOM     53  C   UNL A   1      44.734  26.881  26.538  1.00  0.00     0.049 A 
ATOM     54  H   UNL A   1      43.275  27.801  27.709  1.00  0.00     0.167 HD
ATOM     55  C   UNL A   1      40.016  29.710  29.940  1.00  0.00     0.034 A 
ATOM     56  C   UNL A   1      45.740  27.765  26.377  1.00  0.00     0.034 A 
ATOM     57  C   UNL A   1      41.082  30.682  29.909  1.00  0.00     0.049 A 
ATOM     58  C   UNL A   1      45.620  29.132  27.004  1.00  0.00     0.074 A 
ATOM     59  C   UNL A   1      41.132  31.926  30.515  1.00  0.00     0.029 A 
ATOM     60  N   UNL A   1      42.283  30.528  29.227  1.00  0.00    -0.354 N 
ATOM     61  N   UNL A   1      44.632  29.634  27.709  1.00  0.00    -0.248 NA
ATOM     62  C   UNL A   1      46.754  30.047  26.821  1.00  0.00     0.031 C 
ATOM     63  C   UNL A   1      42.328  32.550  30.143  1.00  0.00     0.029 A 
ATOM     64  C   UNL A   1      43.063  31.666  29.370  1.00  0.00     0.049 A 
ATOM     65  H   UNL A   1      42.541  29.728  28.716  1.00  0.00     0.167 HD
ATOM     66  C   UNL A   1      45.041  30.912  28.078  1.00  0.00     0.074 A 
ATOM     67  C   UNL A   1      46.369  31.098  27.529  1.00  0.00     0.031 C 
ATOM     68  C   UNL A   1      44.382  31.846  28.809  1.00  0.00     0.034 A 
BRANCH  55  69
ATOM     69  C   UNL A   1      38.726  30.069  30.639  1.00  0.00     0.023 A 
ATOM     70  C   UNL A   1      37.694  30.757  29.977  1.00  0.00     0.031 A 
ATOM     71  C   UNL A   1      38.532  29.739  31.993  1.00  0.00     0.131 A 
ATOM     72  C   UNL A   1      36.554  31.163  30.687  1.00  0.00     0.055 A 
ATOM     73  C   UNL A   1      37.358  30.072  32.672  1.00  0.00     0.041 A 
ATOM     74  F   UNL A   1      39.489  29.100  32.684  1.00  0.00    -0.206 F 
ATOM     75  C   UNL A   1      36.367  30.802  32.023  1.00  0.00     0.022 A 
BRANCH  72  76
ATOM     76  S   UNL A   1      35.389  32.294  29.879  1.00  0.00     0.124 S 
ATOM     77  O   UNL A   1      34.430  32.546  30.952  1.00  0.00    -0.237 OA
ATOM     78  O   UNL A   1      36.243  33.416  29.508  1.00  0.00    -0.237 OA
ATOM     79  O   UNL A   1      34.868  31.509  28.760  1.00  0.00    -0.744 OA
ENDBRANCH  72  76
ENDBRANCH  55  69
BRANCH  56  80
ATOM     80  C   UNL A   1      46.943  27.403  25.573  1.00  0.00     0.023 A 
ATOM     81  C   UNL A   1      47.079  27.829  24.243  1.00  0.00     0.031 A 
ATOM     82  C   UNL A   1      47.956  26.589  26.111  1.00  0.00     0.131 A 
ATOM     83  C   UNL A   1      48.176  27.400  23.479  1.00  0.00     0.055 A 
ATOM     84  C   UNL A   1      49.072  26.209  25.365  1.00  0.00     0.041 A 
ATOM     85  F   UNL A   1      47.877  26.157  27.380  1.00  0.00    -0.206 F 
ATOM     86  C   UNL A   1      49.180  26.604  24.034  1.00  0.00     0.022 A 
BRANCH  83  87
ATOM     87  S   UNL A   1      48.228  27.829  21.718  1.00  0.00     0.124 S 
ATOM     88  O   UNL A   1      48.507  26.535  21.105  1.00  0.00    -0.237 OA
ATOM     89  O   UNL A   1      46.890  28.367  21.498  1.00  0.00    -0.237 OA
ATOM     90  O   UNL A   1      49.312  28.806  21.637  1.00  0.00    -0.744 OA
ENDBRANCH  83  87
ENDBRANCH  56  80
BRANCH  68  91
ATOM     91  C   UNL A   1      45.112  33.135  29.098  1.00  0.00     0.023 A 
ATOM     92  C   UNL A   1      45.041  34.239  28.230  1.00  0.00     0.031 A 
ATOM     93  C   UNL A   1      45.896  33.256  30.258  1.00  0.00     0.131 A 
ATOM     94  C   UNL A   1      45.784  35.397  28.509  1.00  0.00     0.055 A 
ATOM     95  C   UNL A   1      46.586  34.431  30.562  1.00  0.00     0.041 A 
ATOM     96  F   UNL A   1      46.003  32.233  31.121  1.00  0.00    -0.206 F 
ATOM     97  C   UNL A   1      46.542  35.506  29.679  1.00  0.00     0.022 A 
BRANCH  94  98
ATOM     98  S   UNL A   1      45.815  36.732  27.282  1.00  0.00     0.124 S 
ATOM     99  O   UNL A   1      44.409  37.117  27.218  1.00  0.00    -0.237 OA
ATOM    100  O   UNL A   1      46.714  37.702  27.898  1.00  0.00    -0.237 OA
ATOM    101  O   UNL A   1      46.335  36.082  26.079  1.00  0.00    -0.744 OA
ENDBRANCH  94  98
ENDBRANCH  68  91
ENDBRANCH  42  43
ENDBRANCH  34  37
ENDBRANCH  32  33
ENDBRANCH   1  32
TORSDOF 18
ENDMDL
MODEL 3
REMARK VINA RESULT:     -13.1      2.103      4.828
REMARK SMILES O=C(C[C@]1(C(=O)NC2CCCCC2)CC(c2ccc([N+](=O)[O-])cc2)=NO1)NCCCNC(=O)c1ccc(-c2c3nc(c(-c4cc(S(=O)(=O)[O-])ccc4F)c4ccc([nH]4)c(-c4cc(S(=O)(=O)[O-])ccc4F)c4nc(c(-c5cc(S(=O)(=O)[O-])ccc5F)c5ccc2[nH]5)C=C4)C=C3)cc1
REMARK SMILES IDX 29 1 28 2 27 3 1 4 2 5 3 7 4 8 14 9 26 10 15 11 25 12 5 13
REMARK SMILES IDX 6 14 7 15 8 17 9 18 13 19 10 20 12 21 11 22 16 23 17 24
REMARK SMILES IDX 24 25 18 26 23 27 19 28 20 29 21 30 22 31 30 32 31 33 32 34
REMARK SMILES IDX 33 36 34 37 35 38 96 39 36 40 95 41 37 42 38 43 39 44 89 45
REMARK SMILES IDX 40 46 94 47 88 48 90 49 41 50 93 51 87 52 86 53 42 55 74 56
REMARK SMILES IDX 54 57 73 58 55 59 58 60 72 61 91 62 56 63 57 64 71 66 92 67
REMARK SMILES IDX 59 68 43 69 44 70 52 71 45 72 51 73 53 74 50 75 46 76 47 77
REMARK SMILES IDX 48 78 49 79 75 80 76 81 84 82 77 83 83 84 85 85 82 86 78 87
REMARK SMILES IDX 79 88 80 89 81 90 60 91 61 92 69 93 62 94 68 95 70 96 67 97
REMARK SMILES IDX 63 98 64 99 65 100 66 101
REMARK H PARENT 27 6 7 16 31 35 90 54 58 65
REMARK Flexibility Score: inf
ROOT
ATOM      1  C   UNL A   1      34.906  21.610  25.847  1.00  0.00     0.042 C 
ENDROOT
BRANCH   1   2
ATOM      2  C   UNL A   1      33.992  21.838  24.655  1.00  0.00     0.117 C 
BRANCH   2   3
ATOM      3  N   UNL A   1      32.915  22.768  24.937  1.00  0.00    -0.356 N 
ATOM      4  O   UNL A   1      31.812  22.485  22.946  1.00  0.00    -0.275 OA
ATOM      5  C   UNL A   1      31.859  22.957  24.078  1.00  0.00     0.224 C 
ATOM      6  H   UNL A   1      32.941  23.283  25.776  1.00  0.00     0.163 HD
BRANCH   5   7
ATOM      7  C   UNL A   1      30.677  23.688  24.678  1.00  0.00     0.162 C 
BRANCH   7   8
ATOM      8  C   UNL A   1      31.060  25.161  24.973  1.00  0.00     0.229 C 
ATOM      9  C   UNL A   1      29.921  26.083  24.567  1.00  0.00     0.123 C 
ATOM     10  O   UNL A   1      32.156  25.498  24.086  1.00  0.00    -0.378 OA
ATOM     11  C   UNL A   1      30.634  26.998  23.644  1.00  0.00     0.092 C 
ATOM     12  N   UNL A   1      31.845  26.670  23.351  1.00  0.00    -0.089 NA
BRANCH   8  13
ATOM     13  C   UNL A   1      31.669  25.210  26.410  1.00  0.00     0.268 C 
ATOM     14  O   UNL A   1      31.427  24.301  27.220  1.00  0.00    -0.270 OA
ATOM     15  N   UNL A   1      32.489  26.173  26.904  1.00  0.00    -0.350 N 
ATOM     16  H   UNL A   1      33.046  25.887  27.663  1.00  0.00     0.163 HD
BRANCH  15  17
ATOM     17  C   UNL A   1      32.683  27.549  26.504  1.00  0.00     0.082 C 
ATOM     18  C   UNL A   1      31.656  28.446  27.210  1.00  0.00     0.025 C 
ATOM     19  C   UNL A   1      34.094  28.054  26.813  1.00  0.00     0.025 C 
ATOM     20  C   UNL A   1      31.768  29.889  26.735  1.00  0.00     0.002 C 
ATOM     21  C   UNL A   1      34.259  29.498  26.333  1.00  0.00     0.002 C 
ATOM     22  C   UNL A   1      33.186  30.431  26.896  1.00  0.00     0.000 C 
ENDBRANCH  15  17
ENDBRANCH   8  13
BRANCH  11  23
ATOM     23  C   UNL A   1      29.943  28.161  23.073  1.00  0.00    -0.000 A 
ATOM     24  C   UNL A   1      30.679  29.170  22.448  1.00  0.00     0.017 A 
ATOM     25  C   UNL A   1      28.551  28.241  23.146  1.00  0.00     0.017 A 
ATOM     26  C   UNL A   1      30.011  30.258  21.874  1.00  0.00     0.086 A 
ATOM     27  C   UNL A   1      27.877  29.325  22.583  1.00  0.00     0.086 A 
ATOM     28  C   UNL A   1      28.611  30.330  21.943  1.00  0.00     0.269 A 
BRANCH  28  29
ATOM     29  N   UNL A   1      27.901  31.469  21.345  1.00  0.00     0.062 N 
ATOM     30  O   UNL A   1      27.594  31.392  20.148  1.00  0.00    -0.258 OA
ATOM     31  O   UNL A   1      27.654  32.440  22.075  1.00  0.00    -0.258 OA
ENDBRANCH  28  29
ENDBRANCH  11  23
ENDBRANCH   7   8
ENDBRANCH   5   7
ENDBRANCH   2   3
ENDBRANCH   1   2
BRANCH   1  32
ATOM     32  C   UNL A   1      36.310  22.182  25.686  1.00  0.00     0.118 C 
BRANCH  32  33
ATOM     33  N   UNL A   1      37.357  21.172  25.750  1.00  0.00    -0.352 N 
ATOM     34  C   UNL A   1      38.692  21.308  26.055  1.00  0.00     0.251 C 
ATOM     35  H   UNL A   1      37.066  20.253  25.546  1.00  0.00     0.163 HD
ATOM     36  O   UNL A   1      39.437  20.339  25.931  1.00  0.00    -0.269 OA
BRANCH  34  37
ATOM     37  C   UNL A   1      39.231  22.617  26.491  1.00  0.00     0.039 A 
ATOM     38  C   UNL A   1      40.383  22.645  27.282  1.00  0.00     0.014 A 
ATOM     39  C   UNL A   1      38.616  23.814  26.115  1.00  0.00     0.014 A 
ATOM     40  C   UNL A   1      40.965  23.870  27.621  1.00  0.00     0.010 A 
ATOM     41  C   UNL A   1      39.239  25.031  26.389  1.00  0.00     0.010 A 
ATOM     42  C   UNL A   1      40.426  25.073  27.137  1.00  0.00    -0.014 A 
BRANCH  42  43
ATOM     43  C   UNL A   1      41.092  26.380  27.386  1.00  0.00     0.031 A 
ATOM     44  C   UNL A   1      42.473  26.642  26.848  1.00  0.00     0.074 A 
ATOM     45  C   UNL A   1      40.488  27.302  28.163  1.00  0.00     0.049 A 
ATOM     46  N   UNL A   1      43.259  27.670  27.046  1.00  0.00    -0.248 NA
ATOM     47  C   UNL A   1      43.055  25.595  25.996  1.00  0.00     0.031 C 
ATOM     48  C   UNL A   1      39.165  27.154  28.774  1.00  0.00     0.029 A 
ATOM     49  N   UNL A   1      40.909  28.538  28.586  1.00  0.00    -0.354 N 
ATOM     50  C   UNL A   1      44.434  27.388  26.356  1.00  0.00     0.074 A 
ATOM     51  C   UNL A   1      44.275  26.068  25.784  1.00  0.00     0.031 C 
ATOM     52  C   UNL A   1      38.877  28.263  29.476  1.00  0.00     0.029 A 
ATOM     53  C   UNL A   1      40.012  29.178  29.411  1.00  0.00     0.049 A 
ATOM     54  H   UNL A   1      41.773  28.931  28.323  1.00  0.00     0.167 HD
ATOM     55  C   UNL A   1      45.534  28.167  26.199  1.00  0.00     0.034 A 
ATOM     56  C   UNL A   1      40.099  30.358  30.058  1.00  0.00     0.034 A 
ATOM     57  C   UNL A   1      45.675  29.485  26.767  1.00  0.00     0.049 A 
ATOM     58  C   UNL A   1      41.347  31.190  29.898  1.00  0.00     0.074 A 
ATOM     59  C   UNL A   1      46.723  30.379  26.623  1.00  0.00     0.029 A 
ATOM     60  N   UNL A   1      44.746  30.099  27.599  1.00  0.00    -0.354 N 
ATOM     61  N   UNL A   1      42.430  30.929  29.203  1.00  0.00    -0.248 NA
ATOM     62  C   UNL A   1      41.380  32.478  30.602  1.00  0.00     0.031 C 
ATOM     63  C   UNL A   1      46.460  31.499  27.421  1.00  0.00     0.029 A 
ATOM     64  C   UNL A   1      45.212  31.342  28.001  1.00  0.00     0.049 A 
ATOM     65  H   UNL A   1      43.883  29.707  27.865  1.00  0.00     0.167 HD
ATOM     66  C   UNL A   1      43.259  32.035  29.364  1.00  0.00     0.074 A 
ATOM     67  C   UNL A   1      42.545  32.971  30.209  1.00  0.00     0.031 C 
ATOM     68  C   UNL A   1      44.496  32.262  28.854  1.00  0.00     0.034 A 
BRANCH  55  69
ATOM     69  C   UNL A   1      46.682  27.594  25.399  1.00  0.00     0.023 A 
ATOM     70  C   UNL A   1      46.967  28.037  24.096  1.00  0.00     0.031 A 
ATOM     71  C   UNL A   1      47.487  26.575  25.937  1.00  0.00     0.131 A 
ATOM     72  C   UNL A   1      47.975  27.411  23.347  1.00  0.00     0.055 A 
ATOM     73  C   UNL A   1      48.544  26.014  25.217  1.00  0.00     0.041 A 
ATOM     74  F   UNL A   1      47.252  26.096  27.169  1.00  0.00    -0.206 F 
ATOM     75  C   UNL A   1      48.783  26.420  23.908  1.00  0.00     0.022 A 
BRANCH  72  76
ATOM     76  S   UNL A   1      48.116  27.810  21.583  1.00  0.00     0.124 S 
ATOM     77  O   UNL A   1      46.810  28.406  21.310  1.00  0.00    -0.237 OA
ATOM     78  O   UNL A   1      49.253  28.723  21.555  1.00  0.00    -0.237 OA
ATOM     79  O   UNL A   1      48.343  26.510  20.954  1.00  0.00    -0.744 OA
ENDBRANCH  72  76
ENDBRANCH  55  69
BRANCH  56  80
ATOM     80  C   UNL A   1      38.985  30.823  30.935  1.00  0.00     0.023 A 
ATOM     81  C   UNL A   1      37.919  31.571  30.413  1.00  0.00     0.031 A 
ATOM     82  C   UNL A   1      38.994  30.562  32.316  1.00  0.00     0.131 A 
ATOM     83  C   UNL A   1      36.930  32.074  31.273  1.00  0.00     0.055 A 
ATOM     84  C   UNL A   1      37.979  31.018  33.160  1.00  0.00     0.041 A 
ATOM     85  F   UNL A   1      39.988  29.847  32.866  1.00  0.00    -0.206 F 
ATOM     86  C   UNL A   1      36.946  31.792  32.641  1.00  0.00     0.022 A 
BRANCH  83  87
ATOM     87  S   UNL A   1      35.665  33.180  30.589  1.00  0.00     0.124 S 
ATOM     88  O   UNL A   1      36.234  33.514  29.288  1.00  0.00    -0.237 OA
ATOM     89  O   UNL A   1      34.488  32.319  30.573  1.00  0.00    -0.237 OA
ATOM     90  O   UNL A   1      35.618  34.279  31.551  1.00  0.00    -0.744 OA
ENDBRANCH  83  87
ENDBRANCH  56  80
BRANCH  68  91
ATOM     91  C   UNL A   1      45.133  33.596  29.160  1.00  0.00     0.023 A 
ATOM     92  C   UNL A   1      45.026  34.688  28.280  1.00  0.00     0.031 A 
ATOM     93  C   UNL A   1      45.864  33.773  30.347  1.00  0.00     0.131 A 
ATOM     94  C   UNL A   1      45.685  35.892  28.578  1.00  0.00     0.055 A 
ATOM     95  C   UNL A   1      46.467  34.990  30.667  1.00  0.00     0.041 A 
ATOM     96  F   UNL A   1      46.002  32.763  31.222  1.00  0.00    -0.206 F 
ATOM     97  C   UNL A   1      46.390  36.055  29.774  1.00  0.00     0.022 A 
BRANCH  94  98
ATOM     98  S   UNL A   1      45.679  37.219  27.341  1.00  0.00     0.124 S 
ATOM     99  O   UNL A   1      46.326  36.575  26.202  1.00  0.00    -0.237 OA
ATOM    100  O   UNL A   1      44.255  37.499  27.191  1.00  0.00    -0.237 OA
ATOM    101  O   UNL A   1      46.456  38.283  27.975  1.00  0.00    -0.744 OA
ENDBRANCH  94  98
ENDBRANCH  68  91
ENDBRANCH  42  43
ENDBRANCH  34  37
ENDBRANCH  32  33
ENDBRANCH   1  32
TORSDOF 18
ENDMDL
