MODEL 1
REMARK VINA RESULT:     -12.8      0.000      0.000
REMARK SMILES CN1C=C/C(=C\C=C/C=N\c2ccc(C(=O)NCCCNC(=O)c3ccc(-c4c5nc(c(-c6cc(S(=O)(=O)[O-])ccc6F)c6ccc([nH]6)c(-c6cc(S(=O)(=O)[O-])ccc6F)c6nc(c(-c7cc(S(=O)(=O)[O-])ccc7F)c7ccc4[nH]7)C=C6)C=C5)cc3)cc2)c2ccccc21
REMARK SMILES IDX 19 1 18 2 17 3 15 4 16 5 14 7 11 8 12 9 88 10 13 11 87 12
REMARK SMILES IDX 10 13 9 14 8 15 7 16 6 17 1 18 2 19 3 20 94 21 4 22 89 23
REMARK SMILES IDX 93 24 5 25 90 26 92 27 91 28 20 29 21 30 22 31 23 33 24 34
REMARK SMILES IDX 25 35 86 36 26 37 85 38 27 39 28 40 29 41 79 42 30 43 84 44
REMARK SMILES IDX 78 45 80 46 31 47 83 48 77 49 76 50 32 52 64 53 44 54 63 55
REMARK SMILES IDX 45 56 48 57 62 58 81 59 46 60 47 61 61 63 82 64 49 65 33 66
REMARK SMILES IDX 34 67 42 68 35 69 41 70 43 71 40 72 36 73 37 74 38 75 39 76
REMARK SMILES IDX 65 77 66 78 74 79 67 80 73 81 75 82 72 83 68 84 69 85 70 86
REMARK SMILES IDX 71 87 50 88 51 89 59 90 52 91 58 92 60 93 57 94 53 95 54 96
REMARK SMILES IDX 55 97 56 98
REMARK H PARENT 17 6 21 32 80 51 48 62
REMARK Flexibility Score: inf
ROOT
ATOM      1  C   UNL A   1      35.705  22.161  26.097  1.00  0.00     0.042 C 
ENDROOT
BRANCH   1   2
ATOM      2  C   UNL A   1      34.459  21.293  25.999  1.00  0.00     0.118 C 
BRANCH   2   3
ATOM      3  N   UNL A   1      33.405  21.663  26.934  1.00  0.00    -0.352 N 
ATOM      4  C   UNL A   1      32.415  22.610  26.917  1.00  0.00     0.251 C 
ATOM      5  O   UNL A   1      31.678  22.677  27.903  1.00  0.00    -0.269 OA
ATOM      6  H   UNL A   1      33.406  21.118  27.754  1.00  0.00     0.163 HD
BRANCH   4   7
ATOM      7  C   UNL A   1      32.223  23.587  25.814  1.00  0.00     0.039 A 
ATOM      8  C   UNL A   1      32.192  25.392  23.653  1.00  0.00     0.063 A 
ATOM      9  C   UNL A   1      33.022  25.623  24.751  1.00  0.00     0.029 A 
ATOM     10  C   UNL A   1      31.265  24.352  23.723  1.00  0.00     0.029 A 
ATOM     11  C   UNL A   1      33.069  24.707  25.803  1.00  0.00     0.016 A 
ATOM     12  C   UNL A   1      31.252  23.480  24.818  1.00  0.00     0.016 A 
BRANCH   8  13
ATOM     13  N   UNL A   1      32.237  26.185  22.500  1.00  0.00    -0.257 NA
ATOM     14  C   UNL A   1      31.406  27.170  22.342  1.00  0.00     0.111 C 
BRANCH  14  15
ATOM     15  C   UNL A   1      30.311  27.639  23.239  1.00  0.00     0.020 C 
ATOM     16  C   UNL A   1      30.470  28.346  24.367  1.00  0.00     0.002 C 
BRANCH  16  17
ATOM     17  C   UNL A   1      31.718  28.674  25.026  1.00  0.00     0.009 C 
ATOM     18  C   UNL A   1      32.880  33.394  27.948  1.00  0.00     0.149 C 
ATOM     19  N   UNL A   1      32.614  32.183  27.175  1.00  0.00    -0.351 N 
ATOM     20  C   UNL A   1      31.462  32.042  26.424  1.00  0.00     0.086 C 
ATOM     21  C   UNL A   1      33.565  31.123  27.211  1.00  0.00     0.048 A 
ATOM     22  C   UNL A   1      31.131  30.958  25.714  1.00  0.00     0.026 C 
ATOM     23  C   UNL A   1      33.327  29.923  26.470  1.00  0.00     0.005 A 
ATOM     24  C   UNL A   1      34.751  31.211  27.972  1.00  0.00     0.027 A 
ATOM     25  C   UNL A   1      32.030  29.806  25.699  1.00  0.00    -0.015 C 
ATOM     26  C   UNL A   1      34.287  28.891  26.522  1.00  0.00     0.011 A 
ATOM     27  C   UNL A   1      35.677  30.168  28.013  1.00  0.00     0.002 A 
ATOM     28  C   UNL A   1      35.447  29.011  27.286  1.00  0.00     0.001 A 
ENDBRANCH  16  17
ENDBRANCH  14  15
ENDBRANCH   8  13
ENDBRANCH   4   7
ENDBRANCH   2   3
ENDBRANCH   1   2
BRANCH   1  29
ATOM     29  C   UNL A   1      36.753  21.916  25.022  1.00  0.00     0.118 C 
BRANCH  29  30
ATOM     30  N   UNL A   1      37.755  20.927  25.397  1.00  0.00    -0.352 N 
ATOM     31  C   UNL A   1      39.004  21.054  25.969  1.00  0.00     0.251 C 
ATOM     32  H   UNL A   1      37.494  19.998  25.206  1.00  0.00     0.163 HD
ATOM     33  O   UNL A   1      39.721  20.065  26.049  1.00  0.00    -0.269 OA
BRANCH  31  34
ATOM     34  C   UNL A   1      39.503  22.371  26.435  1.00  0.00     0.039 A 
ATOM     35  C   UNL A   1      38.854  23.555  26.103  1.00  0.00     0.014 A 
ATOM     36  C   UNL A   1      40.647  22.420  27.242  1.00  0.00     0.014 A 
ATOM     37  C   UNL A   1      39.465  24.778  26.360  1.00  0.00     0.010 A 
ATOM     38  C   UNL A   1      41.194  23.657  27.612  1.00  0.00     0.010 A 
ATOM     39  C   UNL A   1      40.646  24.849  27.116  1.00  0.00    -0.014 A 
BRANCH  39  40
ATOM     40  C   UNL A   1      41.274  26.177  27.368  1.00  0.00     0.031 A 
ATOM     41  C   UNL A   1      40.608  27.191  28.264  1.00  0.00     0.074 A 
ATOM     42  C   UNL A   1      42.492  26.437  26.852  1.00  0.00     0.049 A 
ATOM     43  N   UNL A   1      41.039  28.370  28.634  1.00  0.00    -0.248 NA
ATOM     44  C   UNL A   1      39.287  26.842  28.813  1.00  0.00     0.031 C 
ATOM     45  C   UNL A   1      43.238  25.531  25.980  1.00  0.00     0.029 A 
ATOM     46  N   UNL A   1      43.337  27.509  27.014  1.00  0.00    -0.354 N 
ATOM     47  C   UNL A   1      40.042  28.909  29.441  1.00  0.00     0.074 A 
ATOM     48  C   UNL A   1      38.965  27.946  29.474  1.00  0.00     0.031 C 
ATOM     49  C   UNL A   1      44.456  26.038  25.755  1.00  0.00     0.029 A 
ATOM     50  C   UNL A   1      44.554  27.350  26.390  1.00  0.00     0.049 A 
ATOM     51  H   UNL A   1      43.095  28.314  27.528  1.00  0.00     0.167 HD
ATOM     52  C   UNL A   1      40.035  30.088  30.108  1.00  0.00     0.034 A 
ATOM     53  C   UNL A   1      45.628  28.163  26.324  1.00  0.00     0.034 A 
ATOM     54  C   UNL A   1      41.124  31.032  30.082  1.00  0.00     0.049 A 
ATOM     55  C   UNL A   1      45.581  29.484  27.046  1.00  0.00     0.074 A 
ATOM     56  C   UNL A   1      41.211  32.254  30.726  1.00  0.00     0.029 A 
ATOM     57  N   UNL A   1      42.316  30.859  29.393  1.00  0.00    -0.354 N 
ATOM     58  N   UNL A   1      44.633  29.969  27.812  1.00  0.00    -0.248 NA
ATOM     59  C   UNL A   1      46.741  30.372  26.893  1.00  0.00     0.031 C 
ATOM     60  C   UNL A   1      42.429  32.843  30.383  1.00  0.00     0.029 A 
ATOM     61  C   UNL A   1      43.135  31.960  29.581  1.00  0.00     0.049 A 
ATOM     62  H   UNL A   1      42.546  30.070  28.850  1.00  0.00     0.167 HD
ATOM     63  C   UNL A   1      45.085  31.213  28.241  1.00  0.00     0.074 A 
ATOM     64  C   UNL A   1      46.406  31.391  27.674  1.00  0.00     0.031 C 
ATOM     65  C   UNL A   1      44.457  32.126  29.021  1.00  0.00     0.034 A 
BRANCH  52  66
ATOM     66  C   UNL A   1      38.825  30.439  30.941  1.00  0.00     0.023 A 
ATOM     67  C   UNL A   1      37.956  31.469  30.531  1.00  0.00     0.031 A 
ATOM     68  C   UNL A   1      38.598  29.839  32.193  1.00  0.00     0.131 A 
ATOM     69  C   UNL A   1      36.922  31.888  31.378  1.00  0.00     0.055 A 
ATOM     70  C   UNL A   1      37.542  30.234  33.016  1.00  0.00     0.041 A 
ATOM     71  F   UNL A   1      39.396  28.851  32.630  1.00  0.00    -0.206 F 
ATOM     72  C   UNL A   1      36.706  31.271  32.615  1.00  0.00     0.022 A 
BRANCH  69  73
ATOM     73  S   UNL A   1      35.856  33.288  30.940  1.00  0.00     0.124 S 
ATOM     74  O   UNL A   1      34.525  32.695  31.046  1.00  0.00    -0.237 OA
ATOM     75  O   UNL A   1      36.189  34.262  31.978  1.00  0.00    -0.237 OA
ATOM     76  O   UNL A   1      36.275  33.639  29.588  1.00  0.00    -0.744 OA
ENDBRANCH  69  73
ENDBRANCH  52  66
BRANCH  53  77
ATOM     77  C   UNL A   1      46.839  27.707  25.579  1.00  0.00     0.023 A 
ATOM     78  C   UNL A   1      47.063  28.107  24.248  1.00  0.00     0.031 A 
ATOM     79  C   UNL A   1      47.718  26.767  26.141  1.00  0.00     0.131 A 
ATOM     80  C   UNL A   1      48.077  27.499  23.499  1.00  0.00     0.055 A 
ATOM     81  C   UNL A   1      48.779  26.224  25.415  1.00  0.00     0.041 A 
ATOM     82  F   UNL A   1      47.541  26.347  27.404  1.00  0.00    -0.206 F 
ATOM     83  C   UNL A   1      48.949  26.573  24.079  1.00  0.00     0.022 A 
BRANCH  80  84
ATOM     84  S   UNL A   1      48.199  27.773  21.708  1.00  0.00     0.124 S 
ATOM     85  O   UNL A   1      46.895  28.350  21.400  1.00  0.00    -0.237 OA
ATOM     86  O   UNL A   1      49.332  28.690  21.624  1.00  0.00    -0.237 OA
ATOM     87  O   UNL A   1      48.443  26.437  21.173  1.00  0.00    -0.744 OA
ENDBRANCH  80  84
ENDBRANCH  53  77
BRANCH  65  88
ATOM     88  C   UNL A   1      45.168  33.423  29.329  1.00  0.00     0.023 A 
ATOM     89  C   UNL A   1      45.067  34.509  28.439  1.00  0.00     0.031 A 
ATOM     90  C   UNL A   1      46.061  33.526  30.409  1.00  0.00     0.131 A 
ATOM     91  C   UNL A   1      45.877  35.637  28.624  1.00  0.00     0.055 A 
ATOM     92  C   UNL A   1      46.832  34.670  30.615  1.00  0.00     0.041 A 
ATOM     93  F   UNL A   1      46.199  32.511  31.278  1.00  0.00    -0.206 F 
ATOM     94  C   UNL A   1      46.753  35.726  29.711  1.00  0.00     0.022 A 
BRANCH  91  95
ATOM     95  S   UNL A   1      45.891  36.987  27.413  1.00  0.00     0.124 S 
ATOM     96  O   UNL A   1      46.637  36.390  26.306  1.00  0.00    -0.237 OA
ATOM     97  O   UNL A   1      44.467  37.193  27.165  1.00  0.00    -0.237 OA
ATOM     98  O   UNL A   1      46.573  38.075  28.104  1.00  0.00    -0.744 OA
ENDBRANCH  91  95
ENDBRANCH  65  88
ENDBRANCH  39  40
ENDBRANCH  31  34
ENDBRANCH  29  30
ENDBRANCH   1  29
TORSDOF 16
ENDMDL
MODEL 2
REMARK VINA RESULT:     -12.8      2.312      7.848
REMARK SMILES CN1C=C/C(=C\C=C/C=N\c2ccc(C(=O)NCCCNC(=O)c3ccc(-c4c5nc(c(-c6cc(S(=O)(=O)[O-])ccc6F)c6ccc([nH]6)c(-c6cc(S(=O)(=O)[O-])ccc6F)c6nc(c(-c7cc(S(=O)(=O)[O-])ccc7F)c7ccc4[nH]7)C=C6)C=C5)cc3)cc2)c2ccccc21
REMARK SMILES IDX 19 1 18 2 17 3 15 4 16 5 14 7 11 8 12 9 88 10 13 11 87 12
REMARK SMILES IDX 10 13 9 14 8 15 7 16 6 17 1 18 2 19 3 20 94 21 4 22 89 23
REMARK SMILES IDX 93 24 5 25 90 26 92 27 91 28 20 29 21 30 22 31 23 33 24 34
REMARK SMILES IDX 25 35 86 36 26 37 85 38 27 39 28 40 29 41 79 42 30 43 84 44
REMARK SMILES IDX 78 45 80 46 31 47 83 48 77 49 76 50 32 52 64 53 44 54 63 55
REMARK SMILES IDX 45 56 48 57 62 58 81 59 46 60 47 61 61 63 82 64 49 65 33 66
REMARK SMILES IDX 34 67 42 68 35 69 41 70 43 71 40 72 36 73 37 74 38 75 39 76
REMARK SMILES IDX 65 77 66 78 74 79 67 80 73 81 75 82 72 83 68 84 69 85 70 86
REMARK SMILES IDX 71 87 50 88 51 89 59 90 52 91 58 92 60 93 57 94 53 95 54 96
REMARK SMILES IDX 55 97 56 98
REMARK H PARENT 17 6 21 32 80 51 48 62
REMARK Flexibility Score: inf
ROOT
ATOM      1  C   UNL A   1      38.152  20.027  25.126  1.00  0.00     0.042 C 
ENDROOT
BRANCH   1   2
ATOM      2  C   UNL A   1      37.134  21.145  24.947  1.00  0.00     0.118 C 
BRANCH   2   3
ATOM      3  N   UNL A   1      35.920  20.970  25.731  1.00  0.00    -0.352 N 
ATOM      4  C   UNL A   1      34.659  21.500  25.653  1.00  0.00     0.251 C 
ATOM      5  O   UNL A   1      33.842  21.148  26.508  1.00  0.00    -0.269 OA
ATOM      6  H   UNL A   1      36.029  20.337  26.478  1.00  0.00     0.163 HD
BRANCH   4   7
ATOM      7  C   UNL A   1      34.246  22.510  24.644  1.00  0.00     0.039 A 
ATOM      8  C   UNL A   1      33.797  24.511  22.715  1.00  0.00     0.063 A 
ATOM      9  C   UNL A   1      34.335  24.841  23.960  1.00  0.00     0.029 A 
ATOM     10  C   UNL A   1      33.335  23.211  22.511  1.00  0.00     0.029 A 
ATOM     11  C   UNL A   1      34.597  23.844  24.900  1.00  0.00     0.016 A 
ATOM     12  C   UNL A   1      33.520  22.225  23.488  1.00  0.00     0.016 A 
BRANCH   8  13
ATOM     13  N   UNL A   1      33.678  25.444  21.679  1.00  0.00    -0.257 NA
ATOM     14  C   UNL A   1      32.567  26.092  21.495  1.00  0.00     0.111 C 
BRANCH  14  15
ATOM     15  C   UNL A   1      31.282  26.000  22.246  1.00  0.00     0.020 C 
ATOM     16  C   UNL A   1      31.019  26.585  23.424  1.00  0.00     0.002 C 
BRANCH  16  17
ATOM     17  C   UNL A   1      31.952  27.295  24.277  1.00  0.00     0.009 C 
ATOM     18  C   UNL A   1      31.273  32.474  26.484  1.00  0.00     0.149 C 
ATOM     19  N   UNL A   1      31.484  31.150  25.903  1.00  0.00    -0.351 N 
ATOM     20  C   UNL A   1      30.625  30.634  24.950  1.00  0.00     0.086 C 
ATOM     21  C   UNL A   1      32.596  30.376  26.343  1.00  0.00     0.048 A 
ATOM     22  C   UNL A   1      30.732  29.423  24.392  1.00  0.00     0.026 C 
ATOM     23  C   UNL A   1      32.822  29.074  25.797  1.00  0.00     0.005 A 
ATOM     24  C   UNL A   1      33.494  30.853  27.322  1.00  0.00     0.027 A 
ATOM     25  C   UNL A   1      31.828  28.542  24.787  1.00  0.00    -0.015 C 
ATOM     26  C   UNL A   1      33.933  28.331  26.249  1.00  0.00     0.011 A 
ATOM     27  C   UNL A   1      34.578  30.089  27.758  1.00  0.00     0.002 A 
ATOM     28  C   UNL A   1      34.799  28.832  27.219  1.00  0.00     0.001 A 
ENDBRANCH  16  17
ENDBRANCH  14  15
ENDBRANCH   8  13
ENDBRANCH   4   7
ENDBRANCH   2   3
ENDBRANCH   1   2
BRANCH   1  29
ATOM     29  C   UNL A   1      39.409  20.410  25.891  1.00  0.00     0.118 C 
BRANCH  29  30
ATOM     30  N   UNL A   1      40.418  19.359  25.923  1.00  0.00    -0.352 N 
ATOM     31  C   UNL A   1      41.785  19.401  26.107  1.00  0.00     0.251 C 
ATOM     32  H   UNL A   1      40.059  18.453  25.788  1.00  0.00     0.163 HD
ATOM     33  O   UNL A   1      42.435  18.377  25.941  1.00  0.00    -0.269 OA
BRANCH  31  34
ATOM     34  C   UNL A   1      42.473  20.670  26.449  1.00  0.00     0.039 A 
ATOM     35  C   UNL A   1      42.643  21.074  27.769  1.00  0.00     0.014 A 
ATOM     36  C   UNL A   1      42.977  21.471  25.417  1.00  0.00     0.014 A 
ATOM     37  C   UNL A   1      43.085  22.363  28.048  1.00  0.00     0.010 A 
ATOM     38  C   UNL A   1      43.541  22.721  25.708  1.00  0.00     0.010 A 
ATOM     39  C   UNL A   1      43.539  23.208  27.023  1.00  0.00    -0.014 A 
BRANCH  39  40
ATOM     40  C   UNL A   1      44.001  24.584  27.362  1.00  0.00     0.031 A 
ATOM     41  C   UNL A   1      45.413  25.022  27.067  1.00  0.00     0.074 A 
ATOM     42  C   UNL A   1      43.116  25.471  27.862  1.00  0.00     0.049 A 
ATOM     43  N   UNL A   1      45.965  26.195  27.245  1.00  0.00    -0.248 NA
ATOM     44  C   UNL A   1      46.328  24.015  26.504  1.00  0.00     0.031 C 
ATOM     45  C   UNL A   1      41.722  25.166  28.180  1.00  0.00     0.029 A 
ATOM     46  N   UNL A   1      43.236  26.809  28.151  1.00  0.00    -0.354 N 
ATOM     47  C   UNL A   1      47.289  26.064  26.834  1.00  0.00     0.074 A 
ATOM     48  C   UNL A   1      47.469  24.687  26.436  1.00  0.00     0.031 C 
ATOM     49  C   UNL A   1      41.094  26.294  28.533  1.00  0.00     0.029 A 
ATOM     50  C   UNL A   1      42.057  27.392  28.557  1.00  0.00     0.049 A 
ATOM     51  H   UNL A   1      44.084  27.303  28.074  1.00  0.00     0.167 HD
ATOM     52  C   UNL A   1      48.256  27.011  26.776  1.00  0.00     0.034 A 
ATOM     53  C   UNL A   1      41.775  28.661  28.917  1.00  0.00     0.034 A 
ATOM     54  C   UNL A   1      48.058  28.387  27.158  1.00  0.00     0.049 A 
ATOM     55  C   UNL A   1      42.877  29.686  28.877  1.00  0.00     0.074 A 
ATOM     56  C   UNL A   1      48.977  29.421  27.135  1.00  0.00     0.029 A 
ATOM     57  N   UNL A   1      46.864  28.925  27.618  1.00  0.00    -0.354 N 
ATOM     58  N   UNL A   1      44.118  29.544  28.475  1.00  0.00    -0.248 NA
ATOM     59  C   UNL A   1      42.549  31.041  29.343  1.00  0.00     0.031 C 
ATOM     60  C   UNL A   1      48.356  30.569  27.630  1.00  0.00     0.029 A 
ATOM     61  C   UNL A   1      47.029  30.272  27.898  1.00  0.00     0.049 A 
ATOM     62  H   UNL A   1      46.024  28.424  27.729  1.00  0.00     0.167 HD
ATOM     63  C   UNL A   1      44.715  30.791  28.629  1.00  0.00     0.074 A 
ATOM     64  C   UNL A   1      43.690  31.683  29.131  1.00  0.00     0.031 C 
ATOM     65  C   UNL A   1      45.999  31.158  28.388  1.00  0.00     0.034 A 
BRANCH  52  66
ATOM     66  C   UNL A   1      49.623  26.616  26.270  1.00  0.00     0.023 A 
ATOM     67  C   UNL A   1      50.067  27.057  25.008  1.00  0.00     0.031 A 
ATOM     68  C   UNL A   1      50.434  25.712  26.979  1.00  0.00     0.131 A 
ATOM     69  C   UNL A   1      51.271  26.569  24.483  1.00  0.00     0.055 A 
ATOM     70  C   UNL A   1      51.651  25.259  26.468  1.00  0.00     0.041 A 
ATOM     71  F   UNL A   1      50.056  25.262  28.188  1.00  0.00    -0.206 F 
ATOM     72  C   UNL A   1      52.068  25.678  25.209  1.00  0.00     0.022 A 
BRANCH  69  73
ATOM     73  S   UNL A   1      51.819  27.019  22.814  1.00  0.00     0.124 S 
ATOM     74  O   UNL A   1      50.570  26.945  22.058  1.00  0.00    -0.237 OA
ATOM     75  O   UNL A   1      52.344  28.367  23.019  1.00  0.00    -0.237 OA
ATOM     76  O   UNL A   1      52.809  26.001  22.482  1.00  0.00    -0.744 OA
ENDBRANCH  69  73
ENDBRANCH  52  66
BRANCH  53  77
ATOM     77  C   UNL A   1      40.375  29.013  29.297  1.00  0.00     0.023 A 
ATOM     78  C   UNL A   1      39.960  28.983  30.642  1.00  0.00     0.031 A 
ATOM     79  C   UNL A   1      39.403  29.259  28.313  1.00  0.00     0.131 A 
ATOM     80  C   UNL A   1      38.601  29.101  30.955  1.00  0.00     0.055 A 
ATOM     81  C   UNL A   1      38.059  29.456  28.638  1.00  0.00     0.041 A 
ATOM     82  F   UNL A   1      39.746  29.288  27.016  1.00  0.00    -0.206 F 
ATOM     83  C   UNL A   1      37.649  29.354  29.963  1.00  0.00     0.022 A 
BRANCH  80  84
ATOM     84  S   UNL A   1      38.006  28.769  32.638  1.00  0.00     0.124 S 
ATOM     85  O   UNL A   1      36.645  29.294  32.589  1.00  0.00    -0.237 OA
ATOM     86  O   UNL A   1      38.120  27.315  32.713  1.00  0.00    -0.237 OA
ATOM     87  O   UNL A   1      38.939  29.507  33.484  1.00  0.00    -0.744 OA
ENDBRANCH  80  84
ENDBRANCH  53  77
BRANCH  65  88
ATOM     88  C   UNL A   1      46.403  32.588  28.658  1.00  0.00     0.023 A 
ATOM     89  C   UNL A   1      46.499  33.505  27.594  1.00  0.00     0.031 A 
ATOM     90  C   UNL A   1      46.839  32.994  29.931  1.00  0.00     0.131 A 
ATOM     91  C   UNL A   1      47.058  34.770  27.815  1.00  0.00     0.055 A 
ATOM     92  C   UNL A   1      47.353  34.271  30.155  1.00  0.00     0.041 A 
ATOM     93  F   UNL A   1      46.778  32.150  30.974  1.00  0.00    -0.206 F 
ATOM     94  C   UNL A   1      47.479  35.161  29.091  1.00  0.00     0.022 A 
BRANCH  91  95
ATOM     95  S   UNL A   1      47.345  35.919  26.441  1.00  0.00     0.124 S 
ATOM     96  O   UNL A   1      46.049  36.589  26.334  1.00  0.00    -0.237 OA
ATOM     97  O   UNL A   1      48.433  36.747  26.954  1.00  0.00    -0.237 OA
ATOM     98  O   UNL A   1      47.689  35.052  25.321  1.00  0.00    -0.744 OA
ENDBRANCH  91  95
ENDBRANCH  65  88
ENDBRANCH  39  40
ENDBRANCH  31  34
ENDBRANCH  29  30
ENDBRANCH   1  29
TORSDOF 16
ENDMDL
MODEL 3
REMARK VINA RESULT:     -12.6      1.925      7.820
REMARK SMILES CN1C=C/C(=C\C=C/C=N\c2ccc(C(=O)NCCCNC(=O)c3ccc(-c4c5nc(c(-c6cc(S(=O)(=O)[O-])ccc6F)c6ccc([nH]6)c(-c6cc(S(=O)(=O)[O-])ccc6F)c6nc(c(-c7cc(S(=O)(=O)[O-])ccc7F)c7ccc4[nH]7)C=C6)C=C5)cc3)cc2)c2ccccc21
REMARK SMILES IDX 19 1 18 2 17 3 15 4 16 5 14 7 11 8 12 9 88 10 13 11 87 12
REMARK SMILES IDX 10 13 9 14 8 15 7 16 6 17 1 18 2 19 3 20 94 21 4 22 89 23
REMARK SMILES IDX 93 24 5 25 90 26 92 27 91 28 20 29 21 30 22 31 23 33 24 34
REMARK SMILES IDX 25 35 86 36 26 37 85 38 27 39 28 40 29 41 79 42 30 43 84 44
REMARK SMILES IDX 78 45 80 46 31 47 83 48 77 49 76 50 32 52 64 53 44 54 63 55
REMARK SMILES IDX 45 56 48 57 62 58 81 59 46 60 47 61 61 63 82 64 49 65 33 66
REMARK SMILES IDX 34 67 42 68 35 69 41 70 43 71 40 72 36 73 37 74 38 75 39 76
REMARK SMILES IDX 65 77 66 78 74 79 67 80 73 81 75 82 72 83 68 84 69 85 70 86
REMARK SMILES IDX 71 87 50 88 51 89 59 90 52 91 58 92 60 93 57 94 53 95 54 96
REMARK SMILES IDX 55 97 56 98
REMARK H PARENT 17 6 21 32 80 51 48 62
REMARK Flexibility Score: inf
ROOT
ATOM      1  C   UNL A   1      38.058  20.065  24.698  1.00  0.00     0.042 C 
ENDROOT
BRANCH   1   2
ATOM      2  C   UNL A   1      37.300  21.342  24.362  1.00  0.00     0.118 C 
BRANCH   2   3
ATOM      3  N   UNL A   1      37.725  22.501  25.134  1.00  0.00    -0.352 N 
ATOM      4  C   UNL A   1      37.052  23.507  25.778  1.00  0.00     0.251 C 
ATOM      5  O   UNL A   1      37.729  24.372  26.339  1.00  0.00    -0.269 OA
ATOM      6  H   UNL A   1      38.704  22.580  25.207  1.00  0.00     0.163 HD
BRANCH   4   7
ATOM      7  C   UNL A   1      35.572  23.642  25.783  1.00  0.00     0.039 A 
ATOM      8  C   UNL A   1      32.799  24.002  25.466  1.00  0.00     0.063 A 
ATOM      9  C   UNL A   1      33.670  25.082  25.317  1.00  0.00     0.029 A 
ATOM     10  C   UNL A   1      33.308  22.792  25.936  1.00  0.00     0.029 A 
ATOM     11  C   UNL A   1      35.048  24.895  25.432  1.00  0.00     0.016 A 
ATOM     12  C   UNL A   1      34.684  22.626  26.135  1.00  0.00     0.016 A 
BRANCH   8  13
ATOM     13  N   UNL A   1      31.430  24.101  25.191  1.00  0.00    -0.257 NA
ATOM     14  C   UNL A   1      31.015  24.449  24.011  1.00  0.00     0.111 C 
BRANCH  14  15
ATOM     15  C   UNL A   1      31.804  24.808  22.797  1.00  0.00     0.020 C 
ATOM     16  C   UNL A   1      31.722  25.964  22.122  1.00  0.00     0.002 C 
BRANCH  16  17
ATOM     17  C   UNL A   1      30.766  27.034  22.331  1.00  0.00     0.009 C 
ATOM     18  C   UNL A   1      31.267  31.382  25.939  1.00  0.00     0.149 C 
ATOM     19  N   UNL A   1      31.102  30.255  25.023  1.00  0.00    -0.351 N 
ATOM     20  C   UNL A   1      31.977  29.183  25.029  1.00  0.00     0.086 C 
ATOM     21  C   UNL A   1      30.019  30.275  24.098  1.00  0.00     0.048 A 
ATOM     22  C   UNL A   1      31.912  28.130  24.207  1.00  0.00     0.026 C 
ATOM     23  C   UNL A   1      29.838  29.188  23.186  1.00  0.00     0.005 A 
ATOM     24  C   UNL A   1      29.107  31.350  24.043  1.00  0.00     0.027 A 
ATOM     25  C   UNL A   1      30.847  28.061  23.208  1.00  0.00    -0.015 C 
ATOM     26  C   UNL A   1      28.754  29.233  22.283  1.00  0.00     0.011 A 
ATOM     27  C   UNL A   1      28.051  31.372  23.130  1.00  0.00     0.002 A 
ATOM     28  C   UNL A   1      27.873  30.313  22.254  1.00  0.00     0.001 A 
ENDBRANCH  16  17
ENDBRANCH  14  15
ENDBRANCH   8  13
ENDBRANCH   4   7
ENDBRANCH   2   3
ENDBRANCH   1   2
BRANCH   1  29
ATOM     29  C   UNL A   1      38.985  20.157  25.900  1.00  0.00     0.118 C 
BRANCH  29  30
ATOM     30  N   UNL A   1      40.077  19.194  25.872  1.00  0.00    -0.352 N 
ATOM     31  C   UNL A   1      41.440  19.342  26.031  1.00  0.00     0.251 C 
ATOM     32  H   UNL A   1      39.792  18.266  25.708  1.00  0.00     0.163 HD
ATOM     33  O   UNL A   1      42.169  18.383  25.812  1.00  0.00    -0.269 OA
BRANCH  31  34
ATOM     34  C   UNL A   1      42.029  20.651  26.408  1.00  0.00     0.039 A 
ATOM     35  C   UNL A   1      42.201  21.015  27.739  1.00  0.00     0.014 A 
ATOM     36  C   UNL A   1      42.435  21.532  25.398  1.00  0.00     0.014 A 
ATOM     37  C   UNL A   1      42.541  22.325  28.061  1.00  0.00     0.010 A 
ATOM     38  C   UNL A   1      42.901  22.812  25.727  1.00  0.00     0.010 A 
ATOM     39  C   UNL A   1      42.894  23.246  27.061  1.00  0.00    -0.014 A 
BRANCH  39  40
ATOM     40  C   UNL A   1      43.249  24.641  27.446  1.00  0.00     0.031 A 
ATOM     41  C   UNL A   1      44.592  25.225  27.090  1.00  0.00     0.074 A 
ATOM     42  C   UNL A   1      42.320  25.414  28.045  1.00  0.00     0.049 A 
ATOM     43  N   UNL A   1      45.044  26.436  27.297  1.00  0.00    -0.248 NA
ATOM     44  C   UNL A   1      45.557  24.339  26.418  1.00  0.00     0.031 C 
ATOM     45  C   UNL A   1      40.984  24.963  28.431  1.00  0.00     0.029 A 
ATOM     46  N   UNL A   1      42.335  26.742  28.399  1.00  0.00    -0.354 N 
ATOM     47  C   UNL A   1      46.344  26.453  26.800  1.00  0.00     0.074 A 
ATOM     48  C   UNL A   1      46.624  25.120  26.318  1.00  0.00     0.031 C 
ATOM     49  C   UNL A   1      40.279  26.008  28.882  1.00  0.00     0.029 A 
ATOM     50  C   UNL A   1      41.136  27.189  28.907  1.00  0.00     0.049 A 
ATOM     51  H   UNL A   1      43.127  27.319  28.298  1.00  0.00     0.167 HD
ATOM     52  C   UNL A   1      47.214  27.489  26.735  1.00  0.00     0.034 A 
ATOM     53  C   UNL A   1      40.763  28.407  29.352  1.00  0.00     0.034 A 
ATOM     54  C   UNL A   1      46.915  28.820  27.203  1.00  0.00     0.049 A 
ATOM     55  C   UNL A   1      41.760  29.534  29.300  1.00  0.00     0.074 A 
ATOM     56  C   UNL A   1      47.731  29.937  27.180  1.00  0.00     0.029 A 
ATOM     57  N   UNL A   1      45.710  29.219  27.763  1.00  0.00    -0.354 N 
ATOM     58  N   UNL A   1      42.980  29.530  28.817  1.00  0.00    -0.248 NA
ATOM     59  C   UNL A   1      41.340  30.826  29.859  1.00  0.00     0.031 C 
ATOM     60  C   UNL A   1      47.041  30.995  27.774  1.00  0.00     0.029 A 
ATOM     61  C   UNL A   1      45.768  30.559  28.106  1.00  0.00     0.049 A 
ATOM     62  H   UNL A   1      44.928  28.635  27.897  1.00  0.00     0.167 HD
ATOM     63  C   UNL A   1      43.469  30.820  29.002  1.00  0.00     0.074 A 
ATOM     64  C   UNL A   1      42.401  31.584  29.613  1.00  0.00     0.031 C 
ATOM     65  C   UNL A   1      44.694  31.318  28.705  1.00  0.00     0.034 A 
BRANCH  52  66
ATOM     66  C   UNL A   1      48.576  27.251  26.127  1.00  0.00     0.023 A 
ATOM     67  C   UNL A   1      48.806  27.541  24.768  1.00  0.00     0.031 A 
ATOM     68  C   UNL A   1      49.606  26.630  26.856  1.00  0.00     0.131 A 
ATOM     69  C   UNL A   1      50.023  27.182  24.174  1.00  0.00     0.055 A 
ATOM     70  C   UNL A   1      50.831  26.310  26.269  1.00  0.00     0.041 A 
ATOM     71  F   UNL A   1      49.437  26.333  28.155  1.00  0.00    -0.206 F 
ATOM     72  C   UNL A   1      51.039  26.575  24.920  1.00  0.00     0.022 A 
BRANCH  69  73
ATOM     73  S   UNL A   1      50.314  27.430  22.402  1.00  0.00     0.124 S 
ATOM     74  O   UNL A   1      49.165  26.747  21.811  1.00  0.00    -0.237 OA
ATOM     75  O   UNL A   1      50.298  28.887  22.291  1.00  0.00    -0.237 OA
ATOM     76  O   UNL A   1      51.605  26.794  22.165  1.00  0.00    -0.744 OA
ENDBRANCH  69  73
ENDBRANCH  52  66
BRANCH  53  77
ATOM     77  C   UNL A   1      39.364  28.605  29.835  1.00  0.00     0.023 A 
ATOM     78  C   UNL A   1      38.360  29.078  28.969  1.00  0.00     0.031 A 
ATOM     79  C   UNL A   1      39.043  28.449  31.193  1.00  0.00     0.131 A 
ATOM     80  C   UNL A   1      37.118  29.465  29.487  1.00  0.00     0.055 A 
ATOM     81  C   UNL A   1      37.776  28.759  31.692  1.00  0.00     0.041 A 
ATOM     82  F   UNL A   1      39.968  28.009  32.060  1.00  0.00    -0.206 F 
ATOM     83  C   UNL A   1      36.813  29.293  30.840  1.00  0.00     0.022 A 
BRANCH  80  84
ATOM     84  S   UNL A   1      35.917  30.352  28.453  1.00  0.00     0.124 S 
ATOM     85  O   UNL A   1      36.759  30.854  27.372  1.00  0.00    -0.237 OA
ATOM     86  O   UNL A   1      34.992  29.282  28.089  1.00  0.00    -0.237 OA
ATOM     87  O   UNL A   1      35.371  31.364  29.352  1.00  0.00    -0.744 OA
ENDBRANCH  80  84
ENDBRANCH  53  77
BRANCH  65  88
ATOM     88  C   UNL A   1      44.982  32.765  29.026  1.00  0.00     0.023 A 
ATOM     89  C   UNL A   1      44.686  33.769  28.084  1.00  0.00     0.031 A 
ATOM     90  C   UNL A   1      45.685  33.128  30.189  1.00  0.00     0.131 A 
ATOM     91  C   UNL A   1      45.129  35.080  28.302  1.00  0.00     0.055 A 
ATOM     92  C   UNL A   1      46.083  34.444  30.422  1.00  0.00     0.041 A 
ATOM     93  F   UNL A   1      45.999  32.204  31.111  1.00  0.00    -0.206 F 
ATOM     94  C   UNL A   1      45.819  35.425  29.469  1.00  0.00     0.022 A 
BRANCH  91  95
ATOM     95  S   UNL A   1      44.907  36.364  27.040  1.00  0.00     0.124 S 
ATOM     96  O   UNL A   1      46.004  36.073  26.119  1.00  0.00    -0.237 OA
ATOM     97  O   UNL A   1      43.571  36.067  26.531  1.00  0.00    -0.237 OA
ATOM     98  O   UNL A   1      45.034  37.614  27.781  1.00  0.00    -0.744 OA
ENDBRANCH  91  95
ENDBRANCH  65  88
ENDBRANCH  39  40
ENDBRANCH  31  34
ENDBRANCH  29  30
ENDBRANCH   1  29
TORSDOF 16
ENDMDL
