MODEL 1
REMARK VINA RESULT:     -13.7      0.000      0.000
REMARK SMILES C[C@H]1[C@H](C)CC[C@@]2(C(=O)NCCCNC(=O)c3ccc(-c4c5nc(c(-c6cc(S(=O)(=O)[O-])ccc6F)c6ccc([nH]6)c(-c6cc(S(=O)(=O)[O-])ccc6F)c6nc(c(-c7cc(S(=O)(=O)[O-])ccc7F)c7ccc4[nH]7)C=C6)C=C5)cc3)CC[C@@]3(C)C(=CC[C@@H]4[C@@]5(C)CC[C@H](O)C(C)(C)[C@@H]5CC[C@]43C)[C@H]12
REMARK SMILES IDX 13 1 12 2 11 3 10 4 8 5 9 6 7 8 1 9 2 10 3 11 102 12 4 13
REMARK SMILES IDX 5 14 84 15 6 16 80 17 82 18 85 19 81 20 83 21 100 22 86 23
REMARK SMILES IDX 87 24 99 25 101 26 88 27 98 28 89 29 90 30 97 31 91 32 94 33
REMARK SMILES IDX 92 34 95 35 96 36 93 37 14 39 15 40 16 42 17 43 18 44 79 45
REMARK SMILES IDX 19 46 78 47 20 48 21 49 22 50 72 51 23 52 77 53 71 54 73 55
REMARK SMILES IDX 24 56 76 57 70 58 69 59 25 61 57 62 37 63 56 64 38 65 41 66
REMARK SMILES IDX 55 67 74 68 39 69 40 70 54 72 75 73 42 74 26 75 27 76 35 77
REMARK SMILES IDX 28 78 34 79 36 80 33 81 29 82 30 83 31 84 32 85 58 86 59 87
REMARK SMILES IDX 67 88 60 89 66 90 68 91 65 92 61 93 62 94 63 95 64 96 43 97
REMARK SMILES IDX 44 98 52 99 45 100 51 101 53 102 50 103 46 104 47 105 48 106
REMARK SMILES IDX 49 107
REMARK H PARENT 10 7 93 38 14 41 73 60 41 71
REMARK Flexibility Score: inf
ROOT
ATOM      1  C   UNL A   1      34.432  30.747  27.524  1.00  0.00     0.118 C 
ENDROOT
BRANCH   1   2
ATOM      2  C   UNL A   1      35.010  29.336  27.635  1.00  0.00     0.042 C 
BRANCH   2   3
ATOM      3  C   UNL A   1      34.389  28.361  26.635  1.00  0.00     0.117 C 
BRANCH   3   4
ATOM      4  N   UNL A   1      34.072  28.968  25.355  1.00  0.00    -0.356 N 
ATOM      5  C   UNL A   1      32.922  29.177  24.665  1.00  0.00     0.226 C 
ATOM      6  O   UNL A   1      33.118  29.343  23.452  1.00  0.00    -0.274 OA
ATOM      7  H   UNL A   1      34.868  29.303  24.884  1.00  0.00     0.163 HD
BRANCH   5   8
ATOM      8  C   UNL A   1      31.465  29.254  25.261  1.00  0.00     0.056 C 
ATOM      9  C   UNL A   1      28.763  28.806  22.391  1.00  0.00     0.008 C 
ATOM     10  C   UNL A   1      29.886  29.492  23.202  1.00  0.00    -0.003 C 
ATOM     11  C   UNL A   1      29.400  30.876  23.726  1.00  0.00    -0.011 C 
ATOM     12  C   UNL A   1      30.366  28.604  24.372  1.00  0.00     0.034 C 
ATOM     13  C   UNL A   1      29.113  31.857  22.576  1.00  0.00     0.008 C 
ATOM     14  C   UNL A   1      30.334  31.572  24.731  1.00  0.00     0.005 C 
ATOM     15  C   UNL A   1      30.855  27.178  24.074  1.00  0.00    -0.063 C 
ATOM     16  C   UNL A   1      31.107  30.688  25.700  1.00  0.00     0.018 C 
ATOM     17  C   UNL A   1      31.465  28.392  26.592  1.00  0.00     0.018 C 
ATOM     18  C   UNL A   1      30.812  26.193  25.272  1.00  0.00    -0.006 C 
ATOM     19  C   UNL A   1      31.501  26.891  22.927  1.00  0.00    -0.027 C 
ATOM     20  C   UNL A   1      31.616  26.862  26.437  1.00  0.00     0.013 C 
ATOM     21  C   UNL A   1      29.347  26.017  25.760  1.00  0.00     0.017 C 
ATOM     22  C   UNL A   1      31.427  24.736  24.864  1.00  0.00    -0.020 C 
ATOM     23  C   UNL A   1      32.393  25.700  22.730  1.00  0.00     0.032 C 
ATOM     24  C   UNL A   1      32.759  25.015  24.069  1.00  0.00     0.006 C 
ATOM     25  C   UNL A   1      31.700  23.846  26.103  1.00  0.00     0.008 C 
ATOM     26  C   UNL A   1      30.398  23.951  23.989  1.00  0.00     0.012 C 
ATOM     27  C   UNL A   1      33.849  23.863  23.958  1.00  0.00    -0.025 C 
ATOM     28  C   UNL A   1      32.560  22.616  25.792  1.00  0.00     0.005 C 
ATOM     29  C   UNL A   1      33.573  22.975  22.726  1.00  0.00     0.012 C 
ATOM     30  C   UNL A   1      35.247  24.539  23.767  1.00  0.00     0.010 C 
ATOM     31  C   UNL A   1      33.944  23.073  25.314  1.00  0.00     0.003 C 
ATOM     32  C   UNL A   1      36.426  23.569  23.823  1.00  0.00     0.033 C 
ATOM     33  C   UNL A   1      35.084  21.988  25.401  1.00  0.00    -0.006 C 
ATOM     34  C   UNL A   1      36.437  22.696  25.081  1.00  0.00     0.120 C 
ATOM     35  C   UNL A   1      34.860  20.744  24.514  1.00  0.00     0.014 C 
ATOM     36  C   UNL A   1      35.187  21.441  26.852  1.00  0.00     0.014 C 
BRANCH  34  37
ATOM     37  O   UNL A   1      37.502  21.749  24.984  1.00  0.00    -0.393 OA
ATOM     38  H   UNL A   1      38.254  22.051  25.518  1.00  0.00     0.210 HD
ENDBRANCH  34  37
ENDBRANCH   5   8
ENDBRANCH   3   4
ENDBRANCH   2   3
ENDBRANCH   1   2
BRANCH   1  39
ATOM     39  N   UNL A   1      34.409  31.498  28.775  1.00  0.00    -0.352 N 
ATOM     40  C   UNL A   1      35.289  31.579  29.834  1.00  0.00     0.251 C 
ATOM     41  H   UNL A   1      33.607  32.057  28.885  1.00  0.00     0.163 HD
ATOM     42  O   UNL A   1      34.976  32.267  30.800  1.00  0.00    -0.269 OA
BRANCH  40  43
ATOM     43  C   UNL A   1      36.554  30.802  29.864  1.00  0.00     0.039 A 
ATOM     44  C   UNL A   1      37.655  31.284  29.144  1.00  0.00     0.014 A 
ATOM     45  C   UNL A   1      36.685  29.617  30.580  1.00  0.00     0.014 A 
ATOM     46  C   UNL A   1      38.899  30.647  29.246  1.00  0.00     0.010 A 
ATOM     47  C   UNL A   1      37.943  29.055  30.778  1.00  0.00     0.010 A 
ATOM     48  C   UNL A   1      39.074  29.571  30.128  1.00  0.00    -0.014 A 
BRANCH  48  49
ATOM     49  C   UNL A   1      40.413  28.978  30.419  1.00  0.00     0.031 A 
ATOM     50  C   UNL A   1      41.276  29.556  31.513  1.00  0.00     0.074 A 
ATOM     51  C   UNL A   1      40.911  28.017  29.612  1.00  0.00     0.049 A 
ATOM     52  N   UNL A   1      42.547  29.360  31.761  1.00  0.00    -0.248 NA
ATOM     53  C   UNL A   1      40.635  30.531  32.407  1.00  0.00     0.031 C 
ATOM     54  C   UNL A   1      40.209  27.412  28.477  1.00  0.00     0.029 A 
ATOM     55  N   UNL A   1      42.136  27.396  29.605  1.00  0.00    -0.354 N 
ATOM     56  C   UNL A   1      42.871  30.235  32.795  1.00  0.00     0.074 A 
ATOM     57  C   UNL A   1      41.673  30.994  33.087  1.00  0.00     0.031 C 
ATOM     58  C   UNL A   1      40.999  26.489  27.908  1.00  0.00     0.029 A 
ATOM     59  C   UNL A   1      42.286  26.477  28.591  1.00  0.00     0.049 A 
ATOM     60  H   UNL A   1      42.840  27.589  30.265  1.00  0.00     0.167 HD
ATOM     61  C   UNL A   1      44.051  30.379  33.452  1.00  0.00     0.034 A 
ATOM     62  C   UNL A   1      43.346  25.725  28.235  1.00  0.00     0.034 A 
ATOM     63  C   UNL A   1      45.212  29.561  33.195  1.00  0.00     0.049 A 
ATOM     64  C   UNL A   1      44.625  25.851  29.020  1.00  0.00     0.074 A 
ATOM     65  C   UNL A   1      46.429  29.557  33.856  1.00  0.00     0.029 A 
ATOM     66  N   UNL A   1      45.298  28.591  32.205  1.00  0.00    -0.354 N 
ATOM     67  N   UNL A   1      44.906  26.663  30.012  1.00  0.00    -0.248 NA
ATOM     68  C   UNL A   1      45.725  24.954  28.643  1.00  0.00     0.031 C 
ATOM     69  C   UNL A   1      47.262  28.617  33.239  1.00  0.00     0.029 A 
ATOM     70  C   UNL A   1      46.547  27.990  32.232  1.00  0.00     0.049 A 
ATOM     71  H   UNL A   1      44.576  28.362  31.576  1.00  0.00     0.167 HD
ATOM     72  C   UNL A   1      46.208  26.356  30.394  1.00  0.00     0.074 A 
ATOM     73  C   UNL A   1      46.650  25.276  29.535  1.00  0.00     0.031 C 
ATOM     74  C   UNL A   1      46.970  26.915  31.368  1.00  0.00     0.034 A 
BRANCH  61  75
ATOM     75  C   UNL A   1      44.140  31.467  34.497  1.00  0.00     0.023 A 
ATOM     76  C   UNL A   1      43.880  31.213  35.855  1.00  0.00     0.031 A 
ATOM     77  C   UNL A   1      44.447  32.789  34.127  1.00  0.00     0.131 A 
ATOM     78  C   UNL A   1      43.830  32.274  36.771  1.00  0.00     0.055 A 
ATOM     79  C   UNL A   1      44.490  33.827  35.063  1.00  0.00     0.041 A 
ATOM     80  F   UNL A   1      44.691  33.101  32.845  1.00  0.00    -0.206 F 
ATOM     81  C   UNL A   1      44.159  33.576  36.391  1.00  0.00     0.022 A 
BRANCH  78  82
ATOM     82  S   UNL A   1      43.163  31.950  38.426  1.00  0.00     0.124 S 
ATOM     83  O   UNL A   1      43.320  33.255  39.065  1.00  0.00    -0.237 OA
ATOM     84  O   UNL A   1      41.793  31.540  38.140  1.00  0.00    -0.237 OA
ATOM     85  O   UNL A   1      44.034  30.898  38.948  1.00  0.00    -0.744 OA
ENDBRANCH  78  82
ENDBRANCH  61  75
BRANCH  62  86
ATOM     86  C   UNL A   1      43.251  24.786  27.081  1.00  0.00     0.023 A 
ATOM     87  C   UNL A   1      42.569  23.565  27.204  1.00  0.00     0.031 A 
ATOM     88  C   UNL A   1      43.860  25.081  25.849  1.00  0.00     0.131 A 
ATOM     89  C   UNL A   1      42.549  22.664  26.129  1.00  0.00     0.055 A 
ATOM     90  C   UNL A   1      43.796  24.201  24.766  1.00  0.00     0.041 A 
ATOM     91  F   UNL A   1      44.513  26.241  25.674  1.00  0.00    -0.206 F 
ATOM     92  C   UNL A   1      43.148  22.978  24.908  1.00  0.00     0.022 A 
BRANCH  89  93
ATOM     93  S   UNL A   1      41.787  21.036  26.378  1.00  0.00     0.124 S 
ATOM     94  O   UNL A   1      40.391  21.309  26.059  1.00  0.00    -0.237 OA
ATOM     95  O   UNL A   1      42.516  20.212  25.419  1.00  0.00    -0.237 OA
ATOM     96  O   UNL A   1      42.062  20.743  27.783  1.00  0.00    -0.744 OA
ENDBRANCH  89  93
ENDBRANCH  62  86
BRANCH  74  97
ATOM     97  C   UNL A   1      48.339  26.325  31.586  1.00  0.00     0.023 A 
ATOM     98  C   UNL A   1      48.545  25.233  32.445  1.00  0.00     0.031 A 
ATOM     99  C   UNL A   1      49.454  26.871  30.925  1.00  0.00     0.131 A 
ATOM    100  C   UNL A   1      49.844  24.749  32.657  1.00  0.00     0.055 A 
ATOM    101  C   UNL A   1      50.737  26.352  31.099  1.00  0.00     0.041 A 
ATOM    102  F   UNL A   1      49.311  27.916  30.094  1.00  0.00    -0.206 F 
ATOM    103  C   UNL A   1      50.939  25.292  31.979  1.00  0.00     0.022 A 
BRANCH 100 104
ATOM    104  S   UNL A   1      50.098  23.443  33.891  1.00  0.00     0.124 S 
ATOM    105  O   UNL A   1      51.162  24.007  34.715  1.00  0.00    -0.237 OA
ATOM    106  O   UNL A   1      48.785  23.349  34.520  1.00  0.00    -0.237 OA
ATOM    107  O   UNL A   1      50.483  22.284  33.089  1.00  0.00    -0.744 OA
ENDBRANCH 100 104
ENDBRANCH  74  97
ENDBRANCH  48  49
ENDBRANCH  40  43
ENDBRANCH   1  39
TORSDOF 14
ENDMDL
MODEL 2
REMARK VINA RESULT:     -13.4      1.260      1.551
REMARK SMILES C[C@H]1[C@H](C)CC[C@@]2(C(=O)NCCCNC(=O)c3ccc(-c4c5nc(c(-c6cc(S(=O)(=O)[O-])ccc6F)c6ccc([nH]6)c(-c6cc(S(=O)(=O)[O-])ccc6F)c6nc(c(-c7cc(S(=O)(=O)[O-])ccc7F)c7ccc4[nH]7)C=C6)C=C5)cc3)CC[C@@]3(C)C(=CC[C@@H]4[C@@]5(C)CC[C@H](O)C(C)(C)[C@@H]5CC[C@]43C)[C@H]12
REMARK SMILES IDX 13 1 12 2 11 3 10 4 8 5 9 6 7 8 1 9 2 10 3 11 102 12 4 13
REMARK SMILES IDX 5 14 84 15 6 16 80 17 82 18 85 19 81 20 83 21 100 22 86 23
REMARK SMILES IDX 87 24 99 25 101 26 88 27 98 28 89 29 90 30 97 31 91 32 94 33
REMARK SMILES IDX 92 34 95 35 96 36 93 37 14 39 15 40 16 42 17 43 18 44 79 45
REMARK SMILES IDX 19 46 78 47 20 48 21 49 22 50 72 51 23 52 77 53 71 54 73 55
REMARK SMILES IDX 24 56 76 57 70 58 69 59 25 61 57 62 37 63 56 64 38 65 41 66
REMARK SMILES IDX 55 67 74 68 39 69 40 70 54 72 75 73 42 74 26 75 27 76 35 77
REMARK SMILES IDX 28 78 34 79 36 80 33 81 29 82 30 83 31 84 32 85 58 86 59 87
REMARK SMILES IDX 67 88 60 89 66 90 68 91 65 92 61 93 62 94 63 95 64 96 43 97
REMARK SMILES IDX 44 98 52 99 45 100 51 101 53 102 50 103 46 104 47 105 48 106
REMARK SMILES IDX 49 107
REMARK H PARENT 10 7 93 38 14 41 73 60 41 71
REMARK Flexibility Score: inf
ROOT
ATOM      1  C   UNL A   1      34.104  31.194  27.285  1.00  0.00     0.118 C 
ENDROOT
BRANCH   1   2
ATOM      2  C   UNL A   1      33.830  29.724  27.603  1.00  0.00     0.042 C 
BRANCH   2   3
ATOM      3  C   UNL A   1      34.396  28.774  26.547  1.00  0.00     0.117 C 
BRANCH   3   4
ATOM      4  N   UNL A   1      34.006  29.117  25.192  1.00  0.00    -0.356 N 
ATOM      5  C   UNL A   1      32.827  29.119  24.518  1.00  0.00     0.226 C 
ATOM      6  O   UNL A   1      32.982  29.077  23.288  1.00  0.00    -0.274 OA
ATOM      7  H   UNL A   1      34.764  29.415  24.640  1.00  0.00     0.163 HD
BRANCH   5   8
ATOM      8  C   UNL A   1      31.382  29.202  25.143  1.00  0.00     0.056 C 
ATOM      9  C   UNL A   1      28.621  28.786  22.326  1.00  0.00     0.008 C 
ATOM     10  C   UNL A   1      29.764  29.461  23.117  1.00  0.00    -0.003 C 
ATOM     11  C   UNL A   1      29.298  30.845  23.657  1.00  0.00    -0.011 C 
ATOM     12  C   UNL A   1      30.263  28.564  24.274  1.00  0.00     0.034 C 
ATOM     13  C   UNL A   1      28.994  31.834  22.518  1.00  0.00     0.008 C 
ATOM     14  C   UNL A   1      30.257  31.531  24.647  1.00  0.00     0.005 C 
ATOM     15  C   UNL A   1      30.736  27.137  23.959  1.00  0.00    -0.063 C 
ATOM     16  C   UNL A   1      31.043  30.637  25.596  1.00  0.00     0.018 C 
ATOM     17  C   UNL A   1      31.404  28.335  26.470  1.00  0.00     0.018 C 
ATOM     18  C   UNL A   1      30.710  26.146  25.153  1.00  0.00    -0.006 C 
ATOM     19  C   UNL A   1      31.357  26.851  22.798  1.00  0.00    -0.027 C 
ATOM     20  C   UNL A   1      31.542  26.804  26.305  1.00  0.00     0.013 C 
ATOM     21  C   UNL A   1      29.254  25.977  25.670  1.00  0.00     0.017 C 
ATOM     22  C   UNL A   1      31.307  24.687  24.726  1.00  0.00    -0.020 C 
ATOM     23  C   UNL A   1      32.237  25.655  22.578  1.00  0.00     0.032 C 
ATOM     24  C   UNL A   1      32.625  24.961  23.905  1.00  0.00     0.006 C 
ATOM     25  C   UNL A   1      31.599  23.790  25.955  1.00  0.00     0.008 C 
ATOM     26  C   UNL A   1      30.256  23.914  23.868  1.00  0.00     0.012 C 
ATOM     27  C   UNL A   1      33.705  23.803  23.767  1.00  0.00    -0.025 C 
ATOM     28  C   UNL A   1      32.445  22.556  25.622  1.00  0.00     0.005 C 
ATOM     29  C   UNL A   1      33.398  22.923  22.537  1.00  0.00     0.012 C 
ATOM     30  C   UNL A   1      35.103  24.471  23.552  1.00  0.00     0.010 C 
ATOM     31  C   UNL A   1      33.822  23.006  25.118  1.00  0.00     0.003 C 
ATOM     32  C   UNL A   1      36.277  23.493  23.580  1.00  0.00     0.033 C 
ATOM     33  C   UNL A   1      34.956  21.914  25.176  1.00  0.00    -0.006 C 
ATOM     34  C   UNL A   1      36.308  22.613  24.833  1.00  0.00     0.120 C 
ATOM     35  C   UNL A   1      34.707  20.675  24.288  1.00  0.00     0.014 C 
ATOM     36  C   UNL A   1      35.085  21.359  26.623  1.00  0.00     0.014 C 
BRANCH  34  37
ATOM     37  O   UNL A   1      37.364  21.660  24.711  1.00  0.00    -0.393 OA
ATOM     38  H   UNL A   1      37.939  21.713  25.490  1.00  0.00     0.210 HD
ENDBRANCH  34  37
ENDBRANCH   5   8
ENDBRANCH   3   4
ENDBRANCH   2   3
ENDBRANCH   1   2
BRANCH   1  39
ATOM     39  N   UNL A   1      34.122  32.077  28.446  1.00  0.00    -0.352 N 
ATOM     40  C   UNL A   1      34.996  32.214  29.504  1.00  0.00     0.251 C 
ATOM     41  H   UNL A   1      33.360  32.699  28.481  1.00  0.00     0.163 HD
ATOM     42  O   UNL A   1      34.723  33.023  30.385  1.00  0.00    -0.269 OA
BRANCH  40  43
ATOM     43  C   UNL A   1      36.203  31.359  29.640  1.00  0.00     0.039 A 
ATOM     44  C   UNL A   1      37.392  31.776  29.026  1.00  0.00     0.014 A 
ATOM     45  C   UNL A   1      36.197  30.166  30.353  1.00  0.00     0.014 A 
ATOM     46  C   UNL A   1      38.580  31.062  29.232  1.00  0.00     0.010 A 
ATOM     47  C   UNL A   1      37.395  29.526  30.657  1.00  0.00     0.010 A 
ATOM     48  C   UNL A   1      38.609  29.974  30.116  1.00  0.00    -0.014 A 
BRANCH  48  49
ATOM     49  C   UNL A   1      39.877  29.298  30.520  1.00  0.00     0.031 A 
ATOM     50  C   UNL A   1      40.701  29.849  31.657  1.00  0.00     0.074 A 
ATOM     51  C   UNL A   1      40.359  28.278  29.778  1.00  0.00     0.049 A 
ATOM     52  N   UNL A   1      41.934  29.572  32.002  1.00  0.00    -0.248 NA
ATOM     53  C   UNL A   1      40.071  30.896  32.474  1.00  0.00     0.031 C 
ATOM     54  C   UNL A   1      39.697  27.686  28.613  1.00  0.00     0.029 A 
ATOM     55  N   UNL A   1      41.533  27.572  29.877  1.00  0.00    -0.354 N 
ATOM     56  C   UNL A   1      42.247  30.456  33.031  1.00  0.00     0.074 A 
ATOM     57  C   UNL A   1      41.090  31.307  33.214  1.00  0.00     0.031 C 
ATOM     58  C   UNL A   1      40.456  26.691  28.128  1.00  0.00     0.029 A 
ATOM     59  C   UNL A   1      41.687  26.612  28.903  1.00  0.00     0.049 A 
ATOM     60  H   UNL A   1      42.202  27.736  30.581  1.00  0.00     0.167 HD
ATOM     61  C   UNL A   1      43.385  30.538  33.768  1.00  0.00     0.034 A 
ATOM     62  C   UNL A   1      42.712  25.775  28.645  1.00  0.00     0.034 A 
ATOM     63  C   UNL A   1      44.500  29.632  33.619  1.00  0.00     0.049 A 
ATOM     64  C   UNL A   1      43.939  25.837  29.517  1.00  0.00     0.074 A 
ATOM     65  C   UNL A   1      45.663  29.564  34.366  1.00  0.00     0.029 A 
ATOM     66  N   UNL A   1      44.583  28.626  32.666  1.00  0.00    -0.354 N 
ATOM     67  N   UNL A   1      44.208  26.659  30.504  1.00  0.00    -0.248 NA
ATOM     68  C   UNL A   1      44.995  24.853  29.247  1.00  0.00     0.031 C 
ATOM     69  C   UNL A   1      46.467  28.547  33.838  1.00  0.00     0.029 A 
ATOM     70  C   UNL A   1      45.780  27.939  32.800  1.00  0.00     0.049 A 
ATOM     71  H   UNL A   1      43.893  28.428  31.992  1.00  0.00     0.167 HD
ATOM     72  C   UNL A   1      45.454  26.274  30.988  1.00  0.00     0.074 A 
ATOM     73  C   UNL A   1      45.875  25.137  30.194  1.00  0.00     0.031 C 
ATOM     74  C   UNL A   1      46.184  26.810  31.999  1.00  0.00     0.034 A 
BRANCH  61  75
ATOM     75  C   UNL A   1      43.480  31.651  34.786  1.00  0.00     0.023 A 
ATOM     76  C   UNL A   1      42.901  31.539  36.062  1.00  0.00     0.031 A 
ATOM     77  C   UNL A   1      44.120  32.861  34.464  1.00  0.00     0.131 A 
ATOM     78  C   UNL A   1      42.883  32.644  36.925  1.00  0.00     0.055 A 
ATOM     79  C   UNL A   1      44.183  33.927  35.366  1.00  0.00     0.041 A 
ATOM     80  F   UNL A   1      44.682  33.038  33.257  1.00  0.00    -0.206 F 
ATOM     81  C   UNL A   1      43.542  33.830  36.597  1.00  0.00     0.022 A 
BRANCH  78  82
ATOM     82  S   UNL A   1      41.838  32.563  38.405  1.00  0.00     0.124 S 
ATOM     83  O   UNL A   1      42.526  31.541  39.192  1.00  0.00    -0.237 OA
ATOM     84  O   UNL A   1      41.914  33.924  38.921  1.00  0.00    -0.237 OA
ATOM     85  O   UNL A   1      40.533  32.163  37.883  1.00  0.00    -0.744 OA
ENDBRANCH  78  82
ENDBRANCH  61  75
BRANCH  62  86
ATOM     86  C   UNL A   1      42.631  24.807  27.514  1.00  0.00     0.023 A 
ATOM     87  C   UNL A   1      41.850  23.646  27.619  1.00  0.00     0.031 A 
ATOM     88  C   UNL A   1      43.349  25.014  26.325  1.00  0.00     0.131 A 
ATOM     89  C   UNL A   1      41.839  22.713  26.572  1.00  0.00     0.055 A 
ATOM     90  C   UNL A   1      43.298  24.106  25.265  1.00  0.00     0.041 A 
ATOM     91  F   UNL A   1      44.101  26.116  26.168  1.00  0.00    -0.206 F 
ATOM     92  C   UNL A   1      42.549  22.940  25.392  1.00  0.00     0.022 A 
BRANCH  89  93
ATOM     93  S   UNL A   1      40.939  21.155  26.808  1.00  0.00     0.124 S 
ATOM     94  O   UNL A   1      41.821  20.199  26.148  1.00  0.00    -0.237 OA
ATOM     95  O   UNL A   1      40.867  21.066  28.262  1.00  0.00    -0.237 OA
ATOM     96  O   UNL A   1      39.663  21.395  26.137  1.00  0.00    -0.744 OA
ENDBRANCH  89  93
ENDBRANCH  62  86
BRANCH  74  97
ATOM     97  C   UNL A   1      47.488  26.132  32.331  1.00  0.00     0.023 A 
ATOM     98  C   UNL A   1      48.678  26.442  31.652  1.00  0.00     0.031 A 
ATOM     99  C   UNL A   1      47.535  25.155  33.343  1.00  0.00     0.131 A 
ATOM    100  C   UNL A   1      49.857  25.748  31.960  1.00  0.00     0.055 A 
ATOM    101  C   UNL A   1      48.722  24.506  33.680  1.00  0.00     0.041 A 
ATOM    102  F   UNL A   1      46.425  24.821  34.021  1.00  0.00    -0.206 F 
ATOM    103  C   UNL A   1      49.890  24.793  32.979  1.00  0.00     0.022 A 
BRANCH 100 104
ATOM    104  S   UNL A   1      51.338  26.058  30.958  1.00  0.00     0.124 S 
ATOM    105  O   UNL A   1      52.332  25.221  31.621  1.00  0.00    -0.237 OA
ATOM    106  O   UNL A   1      50.916  25.619  29.632  1.00  0.00    -0.237 OA
ATOM    107  O   UNL A   1      51.549  27.497  31.095  1.00  0.00    -0.744 OA
ENDBRANCH 100 104
ENDBRANCH  74  97
ENDBRANCH  48  49
ENDBRANCH  40  43
ENDBRANCH   1  39
TORSDOF 14
ENDMDL
MODEL 3
REMARK VINA RESULT:     -13.3      4.104      9.594
REMARK SMILES C[C@H]1[C@H](C)CC[C@@]2(C(=O)NCCCNC(=O)c3ccc(-c4c5nc(c(-c6cc(S(=O)(=O)[O-])ccc6F)c6ccc([nH]6)c(-c6cc(S(=O)(=O)[O-])ccc6F)c6nc(c(-c7cc(S(=O)(=O)[O-])ccc7F)c7ccc4[nH]7)C=C6)C=C5)cc3)CC[C@@]3(C)C(=CC[C@@H]4[C@@]5(C)CC[C@H](O)C(C)(C)[C@@H]5CC[C@]43C)[C@H]12
REMARK SMILES IDX 13 1 12 2 11 3 10 4 8 5 9 6 7 8 1 9 2 10 3 11 102 12 4 13
REMARK SMILES IDX 5 14 84 15 6 16 80 17 82 18 85 19 81 20 83 21 100 22 86 23
REMARK SMILES IDX 87 24 99 25 101 26 88 27 98 28 89 29 90 30 97 31 91 32 94 33
REMARK SMILES IDX 92 34 95 35 96 36 93 37 14 39 15 40 16 42 17 43 18 44 79 45
REMARK SMILES IDX 19 46 78 47 20 48 21 49 22 50 72 51 23 52 77 53 71 54 73 55
REMARK SMILES IDX 24 56 76 57 70 58 69 59 25 61 57 62 37 63 56 64 38 65 41 66
REMARK SMILES IDX 55 67 74 68 39 69 40 70 54 72 75 73 42 74 26 75 27 76 35 77
REMARK SMILES IDX 28 78 34 79 36 80 33 81 29 82 30 83 31 84 32 85 58 86 59 87
REMARK SMILES IDX 67 88 60 89 66 90 68 91 65 92 61 93 62 94 63 95 64 96 43 97
REMARK SMILES IDX 44 98 52 99 45 100 51 101 53 102 50 103 46 104 47 105 48 106
REMARK SMILES IDX 49 107
REMARK H PARENT 10 7 93 38 14 41 73 60 41 71
REMARK Flexibility Score: inf
ROOT
ATOM      1  C   UNL A   1      38.762  22.283  26.284  1.00  0.00     0.118 C 
ENDROOT
BRANCH   1   2
ATOM      2  C   UNL A   1      38.303  23.740  26.231  1.00  0.00     0.042 C 
BRANCH   2   3
ATOM      3  C   UNL A   1      36.799  23.879  25.993  1.00  0.00     0.117 C 
BRANCH   3   4
ATOM      4  N   UNL A   1      36.015  22.831  26.619  1.00  0.00    -0.356 N 
ATOM      5  C   UNL A   1      35.247  21.814  26.149  1.00  0.00     0.226 C 
ATOM      6  O   UNL A   1      34.427  21.410  26.987  1.00  0.00    -0.274 OA
ATOM      7  H   UNL A   1      36.047  22.865  27.602  1.00  0.00     0.163 HD
BRANCH   5   8
ATOM      8  C   UNL A   1      35.343  21.137  24.729  1.00  0.00     0.056 C 
ATOM      9  C   UNL A   1      32.152  18.885  24.042  1.00  0.00     0.008 C 
ATOM     10  C   UNL A   1      33.481  19.315  24.702  1.00  0.00    -0.003 C 
ATOM     11  C   UNL A   1      34.558  18.207  24.511  1.00  0.00    -0.011 C 
ATOM     12  C   UNL A   1      33.983  20.666  24.142  1.00  0.00     0.034 C 
ATOM     13  C   UNL A   1      34.180  16.906  25.240  1.00  0.00     0.008 C 
ATOM     14  C   UNL A   1      35.990  18.591  24.924  1.00  0.00     0.005 C 
ATOM     15  C   UNL A   1      33.054  21.888  24.200  1.00  0.00    -0.063 C 
ATOM     16  C   UNL A   1      36.421  20.034  24.699  1.00  0.00     0.018 C 
ATOM     17  C   UNL A   1      35.852  22.251  23.721  1.00  0.00     0.018 C 
ATOM     18  C   UNL A   1      33.375  23.020  23.189  1.00  0.00    -0.006 C 
ATOM     19  C   UNL A   1      32.190  22.056  25.221  1.00  0.00    -0.027 C 
ATOM     20  C   UNL A   1      34.876  23.408  23.406  1.00  0.00     0.013 C 
ATOM     21  C   UNL A   1      33.239  22.485  21.735  1.00  0.00     0.017 C 
ATOM     22  C   UNL A   1      32.379  24.298  23.392  1.00  0.00    -0.020 C 
ATOM     23  C   UNL A   1      31.587  23.374  25.614  1.00  0.00     0.032 C 
ATOM     24  C   UNL A   1      32.305  24.570  24.943  1.00  0.00     0.006 C 
ATOM     25  C   UNL A   1      32.875  25.555  22.634  1.00  0.00     0.008 C 
ATOM     26  C   UNL A   1      30.968  23.971  22.806  1.00  0.00     0.012 C 
ATOM     27  C   UNL A   1      31.845  26.002  25.456  1.00  0.00    -0.025 C 
ATOM     28  C   UNL A   1      32.154  26.842  23.051  1.00  0.00     0.005 C 
ATOM     29  C   UNL A   1      30.310  26.054  25.608  1.00  0.00     0.012 C 
ATOM     30  C   UNL A   1      32.482  26.237  26.865  1.00  0.00     0.010 C 
ATOM     31  C   UNL A   1      32.440  27.126  24.532  1.00  0.00     0.003 C 
ATOM     32  C   UNL A   1      32.281  27.647  27.418  1.00  0.00     0.033 C 
ATOM     33  C   UNL A   1      32.183  28.610  24.999  1.00  0.00    -0.006 C 
ATOM     34  C   UNL A   1      32.728  28.750  26.454  1.00  0.00     0.120 C 
ATOM     35  C   UNL A   1      30.716  29.078  24.886  1.00  0.00     0.014 C 
ATOM     36  C   UNL A   1      32.995  29.594  24.111  1.00  0.00     0.014 C 
BRANCH  34  37
ATOM     37  O   UNL A   1      32.393  30.022  27.009  1.00  0.00    -0.393 OA
ATOM     38  H   UNL A   1      33.200  30.467  27.309  1.00  0.00     0.210 HD
ENDBRANCH  34  37
ENDBRANCH   5   8
ENDBRANCH   3   4
ENDBRANCH   2   3
ENDBRANCH   1   2
BRANCH   1  39
ATOM     39  N   UNL A   1      40.166  22.072  25.948  1.00  0.00    -0.352 N 
ATOM     40  C   UNL A   1      41.289  22.861  26.082  1.00  0.00     0.251 C 
ATOM     41  H   UNL A   1      40.348  21.193  25.546  1.00  0.00     0.163 HD
ATOM     42  O   UNL A   1      42.356  22.435  25.652  1.00  0.00    -0.269 OA
BRANCH  40  43
ATOM     43  C   UNL A   1      41.222  24.230  26.655  1.00  0.00     0.039 A 
ATOM     44  C   UNL A   1      41.297  24.378  28.046  1.00  0.00     0.014 A 
ATOM     45  C   UNL A   1      41.090  25.365  25.864  1.00  0.00     0.014 A 
ATOM     46  C   UNL A   1      41.360  25.656  28.618  1.00  0.00     0.010 A 
ATOM     47  C   UNL A   1      41.275  26.629  26.418  1.00  0.00     0.010 A 
ATOM     48  C   UNL A   1      41.431  26.795  27.802  1.00  0.00    -0.014 A 
BRANCH  48  49
ATOM     49  C   UNL A   1      41.691  28.160  28.346  1.00  0.00     0.031 A 
ATOM     50  C   UNL A   1      43.106  28.631  28.568  1.00  0.00     0.074 A 
ATOM     51  C   UNL A   1      40.659  28.920  28.771  1.00  0.00     0.049 A 
ATOM     52  N   UNL A   1      43.544  29.660  29.250  1.00  0.00    -0.248 NA
ATOM     53  C   UNL A   1      44.171  27.794  27.997  1.00  0.00     0.031 C 
ATOM     54  C   UNL A   1      39.242  28.561  28.675  1.00  0.00     0.029 A 
ATOM     55  N   UNL A   1      40.642  30.144  29.393  1.00  0.00    -0.354 N 
ATOM     56  C   UNL A   1      44.932  29.555  29.245  1.00  0.00     0.074 A 
ATOM     57  C   UNL A   1      45.255  28.335  28.535  1.00  0.00     0.031 C 
ATOM     58  C   UNL A   1      38.497  29.552  29.188  1.00  0.00     0.029 A 
ATOM     59  C   UNL A   1      39.378  30.590  29.707  1.00  0.00     0.049 A 
ATOM     60  H   UNL A   1      41.458  30.656  29.595  1.00  0.00     0.167 HD
ATOM     61  C   UNL A   1      45.853  30.407  29.766  1.00  0.00     0.034 A 
ATOM     62  C   UNL A   1      38.971  31.698  30.359  1.00  0.00     0.034 A 
ATOM     63  C   UNL A   1      45.514  31.655  30.406  1.00  0.00     0.049 A 
ATOM     64  C   UNL A   1      40.008  32.663  30.870  1.00  0.00     0.074 A 
ATOM     65  C   UNL A   1      46.362  32.636  30.891  1.00  0.00     0.029 A 
ATOM     66  N   UNL A   1      44.220  32.103  30.639  1.00  0.00    -0.354 N 
ATOM     67  N   UNL A   1      41.316  32.564  30.832  1.00  0.00    -0.248 NA
ATOM     68  C   UNL A   1      39.514  33.893  31.503  1.00  0.00     0.031 C 
ATOM     69  C   UNL A   1      45.583  33.654  31.454  1.00  0.00     0.029 A 
ATOM     70  C   UNL A   1      44.248  33.339  31.267  1.00  0.00     0.049 A 
ATOM     71  H   UNL A   1      43.402  31.614  30.393  1.00  0.00     0.167 HD
ATOM     72  C   UNL A   1      41.801  33.731  31.414  1.00  0.00     0.074 A 
ATOM     73  C   UNL A   1      40.645  34.524  31.781  1.00  0.00     0.031 C 
ATOM     74  C   UNL A   1      43.086  34.114  31.626  1.00  0.00     0.034 A 
BRANCH  61  75
ATOM     75  C   UNL A   1      47.307  30.005  29.674  1.00  0.00     0.023 A 
ATOM     76  C   UNL A   1      48.087  30.297  28.541  1.00  0.00     0.031 A 
ATOM     77  C   UNL A   1      47.915  29.280  30.715  1.00  0.00     0.131 A 
ATOM     78  C   UNL A   1      49.386  29.782  28.430  1.00  0.00     0.055 A 
ATOM     79  C   UNL A   1      49.244  28.852  30.639  1.00  0.00     0.041 A 
ATOM     80  F   UNL A   1      47.223  28.957  31.819  1.00  0.00    -0.206 F 
ATOM     81  C   UNL A   1      49.981  29.084  29.482  1.00  0.00     0.022 A 
BRANCH  78  82
ATOM     82  S   UNL A   1      50.221  29.894  26.824  1.00  0.00     0.124 S 
ATOM     83  O   UNL A   1      51.575  29.462  27.168  1.00  0.00    -0.237 OA
ATOM     84  O   UNL A   1      49.447  28.972  26.000  1.00  0.00    -0.237 OA
ATOM     85  O   UNL A   1      50.096  31.306  26.469  1.00  0.00    -0.744 OA
ENDBRANCH  78  82
ENDBRANCH  61  75
BRANCH  62  86
ATOM     86  C   UNL A   1      37.519  31.959  30.570  1.00  0.00     0.023 A 
ATOM     87  C   UNL A   1      36.709  32.402  29.513  1.00  0.00     0.031 A 
ATOM     88  C   UNL A   1      36.925  31.794  31.833  1.00  0.00     0.131 A 
ATOM     89  C   UNL A   1      35.360  32.708  29.746  1.00  0.00     0.055 A 
ATOM     90  C   UNL A   1      35.570  32.054  32.049  1.00  0.00     0.041 A 
ATOM     91  F   UNL A   1      37.653  31.359  32.875  1.00  0.00    -0.206 F 
ATOM     92  C   UNL A   1      34.782  32.527  31.004  1.00  0.00     0.022 A 
BRANCH  89  93
ATOM     93  S   UNL A   1      34.387  33.421  28.391  1.00  0.00     0.124 S 
ATOM     94  O   UNL A   1      35.431  33.942  27.517  1.00  0.00    -0.237 OA
ATOM     95  O   UNL A   1      33.658  32.257  27.899  1.00  0.00    -0.237 OA
ATOM     96  O   UNL A   1      33.567  34.431  29.056  1.00  0.00    -0.744 OA
ENDBRANCH  89  93
ENDBRANCH  62  86
BRANCH  74  97
ATOM     97  C   UNL A   1      43.299  35.476  32.234  1.00  0.00     0.023 A 
ATOM     98  C   UNL A   1      43.568  36.605  31.443  1.00  0.00     0.031 A 
ATOM     99  C   UNL A   1      43.238  35.640  33.630  1.00  0.00     0.131 A 
ATOM    100  C   UNL A   1      43.811  37.843  32.056  1.00  0.00     0.055 A 
ATOM    101  C   UNL A   1      43.429  36.885  34.230  1.00  0.00     0.041 A 
ATOM    102  F   UNL A   1      42.985  34.592  34.430  1.00  0.00    -0.206 F 
ATOM    103  C   UNL A   1      43.729  37.993  33.443  1.00  0.00     0.022 A 
BRANCH 100 104
ATOM    104  S   UNL A   1      44.311  39.246  31.020  1.00  0.00     0.124 S 
ATOM    105  O   UNL A   1      45.767  39.169  31.086  1.00  0.00    -0.237 OA
ATOM    106  O   UNL A   1      43.713  38.911  29.732  1.00  0.00    -0.237 OA
ATOM    107  O   UNL A   1      43.720  40.399  31.695  1.00  0.00    -0.744 OA
ENDBRANCH 100 104
ENDBRANCH  74  97
ENDBRANCH  48  49
ENDBRANCH  40  43
ENDBRANCH   1  39
TORSDOF 14
ENDMDL
