MODEL 1
REMARK VINA RESULT:     -12.7      0.000      0.000
REMARK SMILES C[N@H+]1C[C@@H](Oc2cccc3cccnc23)C[C@H]1C(=O)NCCCNC(=O)c1ccc(-c2c3nc(c(-c4cc(S(=O)(=O)[O-])ccc4F)c4ccc([nH]4)c(-c4cc(S(=O)(=O)[O-])ccc4F)c4nc(c(-c5cc(S(=O)(=O)[O-])ccc5F)c5ccc2[nH]5)C=C4)C=C3)cc1
REMARK SMILES IDX 22 1 21 2 20 3 18 4 19 5 17 7 1 8 2 9 3 10 4 12 16 13 5 14
REMARK SMILES IDX 6 15 7 16 15 17 8 18 10 19 14 20 9 21 11 22 13 23 12 24
REMARK SMILES IDX 23 25 24 26 25 27 26 29 27 30 28 31 89 32 29 33 88 34 30 35
REMARK SMILES IDX 31 36 32 37 82 38 33 39 87 40 81 41 83 42 34 43 86 44 80 45
REMARK SMILES IDX 79 46 35 48 67 49 47 50 66 51 48 52 51 53 65 54 84 55 49 56
REMARK SMILES IDX 50 57 64 59 85 60 52 61 36 62 37 63 45 64 38 65 44 66 46 67
REMARK SMILES IDX 43 68 39 69 40 70 41 71 42 72 68 73 69 74 77 75 70 76 76 77
REMARK SMILES IDX 78 78 75 79 71 80 72 81 73 82 74 83 53 84 54 85 62 86 55 87
REMARK SMILES IDX 61 88 63 89 60 90 56 91 57 92 58 93 59 94
REMARK H PARENT 20 6 2 11 24 28 83 47 51 58
REMARK Flexibility Score: inf
ROOT
ATOM      1  C   UNL A   1      32.000  27.679  26.373  1.00  0.00     0.042 C 
ENDROOT
BRANCH   1   2
ATOM      2  C   UNL A   1      31.235  26.987  25.258  1.00  0.00     0.118 C 
BRANCH   2   3
ATOM      3  N   UNL A   1      30.871  27.815  24.136  1.00  0.00    -0.351 N 
ATOM      4  C   UNL A   1      31.023  27.585  22.803  1.00  0.00     0.278 C 
ATOM      5  O   UNL A   1      30.250  28.217  22.068  1.00  0.00    -0.268 OA
ATOM      6  H   UNL A   1      30.451  28.674  24.368  1.00  0.00     0.163 HD
BRANCH   4   7
ATOM      7  C   UNL A   1      32.023  26.593  22.154  1.00  0.00     0.278 C 
ATOM      8  C   UNL A   1      33.930  28.171  22.313  1.00  0.00     0.333 C 
ATOM      9  N   UNL A   1      33.456  26.810  22.349  1.00  0.00    -0.324 N 
ATOM     10  C   UNL A   1      33.981  25.898  23.360  1.00  0.00     0.308 C 
ATOM     11  H   UNL A   1      33.925  26.536  21.485  1.00  0.00     0.348 HD
ATOM     12  C   UNL A   1      33.043  24.670  23.290  1.00  0.00     0.234 C 
ATOM     13  C   UNL A   1      31.809  25.126  22.497  1.00  0.00     0.126 C 
BRANCH  12  14
ATOM     14  O   UNL A   1      32.903  23.893  24.494  1.00  0.00    -0.482 OA
BRANCH  14  15
ATOM     15  C   UNL A   1      33.205  22.554  24.560  1.00  0.00     0.146 A 
ATOM     16  C   UNL A   1      32.238  21.590  24.247  1.00  0.00     0.049 A 
ATOM     17  C   UNL A   1      34.540  22.168  24.795  1.00  0.00     0.112 A 
ATOM     18  C   UNL A   1      32.526  20.231  24.331  1.00  0.00     0.005 A 
ATOM     19  C   UNL A   1      34.830  20.779  24.806  1.00  0.00     0.004 A 
ATOM     20  N   UNL A   1      35.521  23.076  25.014  1.00  0.00    -0.252 NA
ATOM     21  C   UNL A   1      33.821  19.825  24.619  1.00  0.00     0.010 A 
ATOM     22  C   UNL A   1      36.150  20.364  25.003  1.00  0.00     0.012 A 
ATOM     23  C   UNL A   1      36.788  22.633  25.198  1.00  0.00     0.112 A 
ATOM     24  C   UNL A   1      37.151  21.303  25.194  1.00  0.00     0.021 A 
ENDBRANCH  14  15
ENDBRANCH  12  14
ENDBRANCH   4   7
ENDBRANCH   2   3
ENDBRANCH   1   2
BRANCH   1  25
ATOM     25  C   UNL A   1      32.955  28.752  25.876  1.00  0.00     0.118 C 
BRANCH  25  26
ATOM     26  N   UNL A   1      32.413  30.100  26.013  1.00  0.00    -0.352 N 
ATOM     27  C   UNL A   1      32.809  31.141  26.819  1.00  0.00     0.251 C 
ATOM     28  H   UNL A   1      31.640  30.295  25.437  1.00  0.00     0.163 HD
ATOM     29  O   UNL A   1      32.138  32.166  26.872  1.00  0.00    -0.269 OA
BRANCH  27  30
ATOM     30  C   UNL A   1      34.037  31.025  27.624  1.00  0.00     0.039 A 
ATOM     31  C   UNL A   1      34.821  32.161  27.856  1.00  0.00     0.014 A 
ATOM     32  C   UNL A   1      34.437  29.779  28.107  1.00  0.00     0.014 A 
ATOM     33  C   UNL A   1      35.989  32.053  28.613  1.00  0.00     0.010 A 
ATOM     34  C   UNL A   1      35.550  29.687  28.926  1.00  0.00     0.010 A 
ATOM     35  C   UNL A   1      36.352  30.816  29.160  1.00  0.00    -0.014 A 
BRANCH  35  36
ATOM     36  C   UNL A   1      37.625  30.604  29.884  1.00  0.00     0.031 A 
ATOM     37  C   UNL A   1      38.658  29.718  29.244  1.00  0.00     0.074 A 
ATOM     38  C   UNL A   1      37.786  31.073  31.132  1.00  0.00     0.049 A 
ATOM     39  N   UNL A   1      39.695  29.128  29.771  1.00  0.00    -0.248 NA
ATOM     40  C   UNL A   1      38.435  29.400  27.825  1.00  0.00     0.031 C 
ATOM     41  C   UNL A   1      36.833  31.923  31.847  1.00  0.00     0.029 A 
ATOM     42  N   UNL A   1      38.793  30.863  32.036  1.00  0.00    -0.354 N 
ATOM     43  C   UNL A   1      40.216  28.320  28.764  1.00  0.00     0.074 A 
ATOM     44  C   UNL A   1      39.342  28.461  27.618  1.00  0.00     0.031 C 
ATOM     45  C   UNL A   1      37.296  32.152  33.087  1.00  0.00     0.029 A 
ATOM     46  C   UNL A   1      38.549  31.425  33.267  1.00  0.00     0.049 A 
ATOM     47  H   UNL A   1      39.612  30.358  31.826  1.00  0.00     0.167 HD
ATOM     48  C   UNL A   1      41.325  27.539  28.798  1.00  0.00     0.034 A 
ATOM     49  C   UNL A   1      39.245  31.330  34.415  1.00  0.00     0.034 A 
ATOM     50  C   UNL A   1      42.185  27.454  29.953  1.00  0.00     0.049 A 
ATOM     51  C   UNL A   1      40.502  30.499  34.424  1.00  0.00     0.074 A 
ATOM     52  C   UNL A   1      43.365  26.750  30.109  1.00  0.00     0.029 A 
ATOM     53  N   UNL A   1      41.951  28.108  31.160  1.00  0.00    -0.354 N 
ATOM     54  N   UNL A   1      40.998  29.744  33.470  1.00  0.00    -0.248 NA
ATOM     55  C   UNL A   1      41.292  30.512  35.659  1.00  0.00     0.031 C 
ATOM     56  C   UNL A   1      43.819  26.942  31.420  1.00  0.00     0.029 A 
ATOM     57  C   UNL A   1      42.956  27.817  32.066  1.00  0.00     0.049 A 
ATOM     58  H   UNL A   1      41.181  28.694  31.342  1.00  0.00     0.167 HD
ATOM     59  C   UNL A   1      42.173  29.206  33.984  1.00  0.00     0.074 A 
ATOM     60  C   UNL A   1      42.315  29.736  35.327  1.00  0.00     0.031 C 
ATOM     61  C   UNL A   1      43.058  28.353  33.404  1.00  0.00     0.034 A 
BRANCH  48  62
ATOM     62  C   UNL A   1      41.618  26.705  27.570  1.00  0.00     0.023 A 
ATOM     63  C   UNL A   1      41.273  25.342  27.500  1.00  0.00     0.031 A 
ATOM     64  C   UNL A   1      42.341  27.250  26.494  1.00  0.00     0.131 A 
ATOM     65  C   UNL A   1      41.756  24.548  26.448  1.00  0.00     0.055 A 
ATOM     66  C   UNL A   1      42.729  26.475  25.396  1.00  0.00     0.041 A 
ATOM     67  F   UNL A   1      42.719  28.538  26.504  1.00  0.00    -0.206 F 
ATOM     68  C   UNL A   1      42.459  25.110  25.381  1.00  0.00     0.022 A 
BRANCH  65  69
ATOM     69  S   UNL A   1      41.625  22.744  26.603  1.00  0.00     0.124 S 
ATOM     70  O   UNL A   1      40.178  22.560  26.670  1.00  0.00    -0.237 OA
ATOM     71  O   UNL A   1      42.274  22.275  25.385  1.00  0.00    -0.237 OA
ATOM     72  O   UNL A   1      42.341  22.454  27.845  1.00  0.00    -0.744 OA
ENDBRANCH  65  69
ENDBRANCH  48  62
BRANCH  49  73
ATOM     73  C   UNL A   1      38.763  32.028  35.638  1.00  0.00     0.023 A 
ATOM     74  C   UNL A   1      38.130  31.318  36.669  1.00  0.00     0.031 A 
ATOM     75  C   UNL A   1      38.950  33.411  35.803  1.00  0.00     0.131 A 
ATOM     76  C   UNL A   1      37.687  31.997  37.815  1.00  0.00     0.055 A 
ATOM     77  C   UNL A   1      38.538  34.076  36.960  1.00  0.00     0.041 A 
ATOM     78  F   UNL A   1      39.566  34.132  34.852  1.00  0.00    -0.206 F 
ATOM     79  C   UNL A   1      37.896  33.369  37.972  1.00  0.00     0.022 A 
BRANCH  76  80
ATOM     80  S   UNL A   1      36.803  31.061  39.091  1.00  0.00     0.124 S 
ATOM     81  O   UNL A   1      36.679  29.748  38.468  1.00  0.00    -0.237 OA
ATOM     82  O   UNL A   1      37.721  31.150  40.222  1.00  0.00    -0.237 OA
ATOM     83  O   UNL A   1      35.551  31.799  39.250  1.00  0.00    -0.744 OA
ENDBRANCH  76  80
ENDBRANCH  49  73
BRANCH  61  84
ATOM     84  C   UNL A   1      44.269  27.983  34.219  1.00  0.00     0.023 A 
ATOM     85  C   UNL A   1      44.268  26.867  35.072  1.00  0.00     0.031 A 
ATOM     86  C   UNL A   1      45.433  28.767  34.148  1.00  0.00     0.131 A 
ATOM     87  C   UNL A   1      45.395  26.594  35.862  1.00  0.00     0.055 A 
ATOM     88  C   UNL A   1      46.569  28.461  34.896  1.00  0.00     0.041 A 
ATOM     89  F   UNL A   1      45.483  29.844  33.348  1.00  0.00    -0.206 F 
ATOM     90  C   UNL A   1      46.550  27.375  35.768  1.00  0.00     0.022 A 
BRANCH  87  91
ATOM     91  S   UNL A   1      45.300  25.253  37.078  1.00  0.00     0.124 S 
ATOM     92  O   UNL A   1      46.705  25.054  37.418  1.00  0.00    -0.237 OA
ATOM     93  O   UNL A   1      44.467  25.837  38.124  1.00  0.00    -0.237 OA
ATOM     94  O   UNL A   1      44.681  24.158  36.333  1.00  0.00    -0.744 OA
ENDBRANCH  87  91
ENDBRANCH  61  84
ENDBRANCH  35  36
ENDBRANCH  27  30
ENDBRANCH  25  26
ENDBRANCH   1  25
TORSDOF 15
ENDMDL
MODEL 2
REMARK VINA RESULT:     -12.5      5.100     10.313
REMARK SMILES C[N@H+]1C[C@@H](Oc2cccc3cccnc23)C[C@H]1C(=O)NCCCNC(=O)c1ccc(-c2c3nc(c(-c4cc(S(=O)(=O)[O-])ccc4F)c4ccc([nH]4)c(-c4cc(S(=O)(=O)[O-])ccc4F)c4nc(c(-c5cc(S(=O)(=O)[O-])ccc5F)c5ccc2[nH]5)C=C4)C=C3)cc1
REMARK SMILES IDX 22 1 21 2 20 3 18 4 19 5 17 7 1 8 2 9 3 10 4 12 16 13 5 14
REMARK SMILES IDX 6 15 7 16 15 17 8 18 10 19 14 20 9 21 11 22 13 23 12 24
REMARK SMILES IDX 23 25 24 26 25 27 26 29 27 30 28 31 89 32 29 33 88 34 30 35
REMARK SMILES IDX 31 36 32 37 82 38 33 39 87 40 81 41 83 42 34 43 86 44 80 45
REMARK SMILES IDX 79 46 35 48 67 49 47 50 66 51 48 52 51 53 65 54 84 55 49 56
REMARK SMILES IDX 50 57 64 59 85 60 52 61 36 62 37 63 45 64 38 65 44 66 46 67
REMARK SMILES IDX 43 68 39 69 40 70 41 71 42 72 68 73 69 74 77 75 70 76 76 77
REMARK SMILES IDX 78 78 75 79 71 80 72 81 73 82 74 83 53 84 54 85 62 86 55 87
REMARK SMILES IDX 61 88 63 89 60 90 56 91 57 92 58 93 59 94
REMARK H PARENT 20 6 2 11 24 28 83 47 51 58
REMARK Flexibility Score: inf
ROOT
ATOM      1  C   UNL A   1      35.685  22.967  24.272  1.00  0.00     0.042 C 
ENDROOT
BRANCH   1   2
ATOM      2  C   UNL A   1      34.260  22.630  23.871  1.00  0.00     0.118 C 
BRANCH   2   3
ATOM      3  N   UNL A   1      33.734  21.395  24.394  1.00  0.00    -0.351 N 
ATOM      4  C   UNL A   1      32.552  21.154  25.026  1.00  0.00     0.278 C 
ATOM      5  O   UNL A   1      32.155  19.981  24.970  1.00  0.00    -0.268 OA
ATOM      6  H   UNL A   1      34.315  20.610  24.278  1.00  0.00     0.163 HD
BRANCH   4   7
ATOM      7  C   UNL A   1      31.669  22.206  25.748  1.00  0.00     0.278 C 
ATOM      8  C   UNL A   1      33.068  22.200  27.797  1.00  0.00     0.333 C 
ATOM      9  N   UNL A   1      32.232  22.937  26.881  1.00  0.00    -0.324 N 
ATOM     10  C   UNL A   1      32.629  24.283  26.479  1.00  0.00     0.308 C 
ATOM     11  H   UNL A   1      31.479  23.081  27.555  1.00  0.00     0.348 HD
ATOM     12  C   UNL A   1      31.692  24.619  25.294  1.00  0.00     0.234 C 
ATOM     13  C   UNL A   1      31.071  23.283  24.856  1.00  0.00     0.126 C 
BRANCH  12  14
ATOM     14  O   UNL A   1      32.188  25.559  24.323  1.00  0.00    -0.482 OA
BRANCH  14  15
ATOM     15  C   UNL A   1      31.564  26.752  24.050  1.00  0.00     0.146 A 
ATOM     16  C   UNL A   1      30.537  26.817  23.100  1.00  0.00     0.049 A 
ATOM     17  C   UNL A   1      31.864  27.875  24.847  1.00  0.00     0.112 A 
ATOM     18  C   UNL A   1      29.913  28.025  22.800  1.00  0.00     0.005 A 
ATOM     19  C   UNL A   1      31.166  29.080  24.575  1.00  0.00     0.004 A 
ATOM     20  N   UNL A   1      32.789  27.825  25.836  1.00  0.00    -0.252 NA
ATOM     21  C   UNL A   1      30.233  29.159  23.532  1.00  0.00     0.010 A 
ATOM     22  C   UNL A   1      31.416  30.202  25.370  1.00  0.00     0.012 A 
ATOM     23  C   UNL A   1      32.999  28.934  26.585  1.00  0.00     0.112 A 
ATOM     24  C   UNL A   1      32.341  30.130  26.399  1.00  0.00     0.021 A 
ENDBRANCH  14  15
ENDBRANCH  12  14
ENDBRANCH   4   7
ENDBRANCH   2   3
ENDBRANCH   1   2
BRANCH   1  25
ATOM     25  C   UNL A   1      36.073  22.425  25.638  1.00  0.00     0.118 C 
BRANCH  25  26
ATOM     26  N   UNL A   1      36.995  21.296  25.558  1.00  0.00    -0.352 N 
ATOM     27  C   UNL A   1      38.353  21.240  25.755  1.00  0.00     0.251 C 
ATOM     28  H   UNL A   1      36.576  20.437  25.325  1.00  0.00     0.163 HD
ATOM     29  O   UNL A   1      38.966  20.204  25.520  1.00  0.00    -0.269 OA
BRANCH  27  30
ATOM     30  C   UNL A   1      39.077  22.426  26.245  1.00  0.00     0.039 A 
ATOM     31  C   UNL A   1      38.691  23.700  25.814  1.00  0.00     0.014 A 
ATOM     32  C   UNL A   1      40.172  22.269  27.096  1.00  0.00     0.014 A 
ATOM     33  C   UNL A   1      39.380  24.825  26.272  1.00  0.00     0.010 A 
ATOM     34  C   UNL A   1      40.803  23.388  27.614  1.00  0.00     0.010 A 
ATOM     35  C   UNL A   1      40.432  24.673  27.183  1.00  0.00    -0.014 A 
BRANCH  35  36
ATOM     36  C   UNL A   1      41.272  25.806  27.631  1.00  0.00     0.031 A 
ATOM     37  C   UNL A   1      40.619  26.882  28.454  1.00  0.00     0.074 A 
ATOM     38  C   UNL A   1      42.535  25.933  27.192  1.00  0.00     0.049 A 
ATOM     39  N   UNL A   1      41.019  28.097  28.710  1.00  0.00    -0.248 NA
ATOM     40  C   UNL A   1      39.293  26.552  28.999  1.00  0.00     0.031 C 
ATOM     41  C   UNL A   1      43.250  24.955  26.371  1.00  0.00     0.029 A 
ATOM     42  N   UNL A   1      43.425  26.963  27.340  1.00  0.00    -0.354 N 
ATOM     43  C   UNL A   1      39.967  28.699  29.395  1.00  0.00     0.074 A 
ATOM     44  C   UNL A   1      38.898  27.726  29.461  1.00  0.00     0.031 C 
ATOM     45  C   UNL A   1      44.468  25.438  26.077  1.00  0.00     0.029 A 
ATOM     46  C   UNL A   1      44.597  26.777  26.645  1.00  0.00     0.049 A 
ATOM     47  H   UNL A   1      43.245  27.760  27.890  1.00  0.00     0.167 HD
ATOM     48  C   UNL A   1      39.908  29.948  29.922  1.00  0.00     0.034 A 
ATOM     49  C   UNL A   1      45.638  27.611  26.462  1.00  0.00     0.034 A 
ATOM     50  C   UNL A   1      41.013  30.874  29.860  1.00  0.00     0.049 A 
ATOM     51  C   UNL A   1      45.580  28.977  27.095  1.00  0.00     0.074 A 
ATOM     52  C   UNL A   1      41.114  32.144  30.397  1.00  0.00     0.029 A 
ATOM     53  N   UNL A   1      42.222  30.617  29.218  1.00  0.00    -0.354 N 
ATOM     54  N   UNL A   1      44.590  29.541  27.750  1.00  0.00    -0.248 NA
ATOM     55  C   UNL A   1      46.778  29.813  26.970  1.00  0.00     0.031 C 
ATOM     56  C   UNL A   1      42.363  32.671  30.041  1.00  0.00     0.029 A 
ATOM     57  C   UNL A   1      43.068  31.707  29.336  1.00  0.00     0.049 A 
ATOM     58  H   UNL A   1      42.443  29.781  28.749  1.00  0.00     0.167 HD
ATOM     59  C   UNL A   1      45.054  30.795  28.133  1.00  0.00     0.074 A 
ATOM     60  C   UNL A   1      46.418  30.895  27.647  1.00  0.00     0.031 C 
ATOM     61  C   UNL A   1      44.418  31.776  28.825  1.00  0.00     0.034 A 
BRANCH  48  62
ATOM     62  C   UNL A   1      38.602  30.367  30.558  1.00  0.00     0.023 A 
ATOM     63  C   UNL A   1      37.584  30.994  29.815  1.00  0.00     0.031 A 
ATOM     64  C   UNL A   1      38.406  30.229  31.944  1.00  0.00     0.131 A 
ATOM     65  C   UNL A   1      36.485  31.569  30.474  1.00  0.00     0.055 A 
ATOM     66  C   UNL A   1      37.257  30.712  32.580  1.00  0.00     0.041 A 
ATOM     67  F   UNL A   1      39.344  29.658  32.715  1.00  0.00    -0.206 F 
ATOM     68  C   UNL A   1      36.301  31.410  31.848  1.00  0.00     0.022 A 
BRANCH  65  69
ATOM     69  S   UNL A   1      35.416  32.698  29.537  1.00  0.00     0.124 S 
ATOM     70  O   UNL A   1      34.285  32.855  30.449  1.00  0.00    -0.237 OA
ATOM     71  O   UNL A   1      36.267  33.868  29.364  1.00  0.00    -0.237 OA
ATOM     72  O   UNL A   1      35.120  31.953  28.313  1.00  0.00    -0.744 OA
ENDBRANCH  65  69
ENDBRANCH  48  62
BRANCH  49  73
ATOM     73  C   UNL A   1      46.803  27.181  25.643  1.00  0.00     0.023 A 
ATOM     74  C   UNL A   1      46.971  27.647  24.330  1.00  0.00     0.031 A 
ATOM     75  C   UNL A   1      47.777  26.314  26.169  1.00  0.00     0.131 A 
ATOM     76  C   UNL A   1      48.080  27.229  23.578  1.00  0.00     0.055 A 
ATOM     77  C   UNL A   1      48.897  25.930  25.428  1.00  0.00     0.041 A 
ATOM     78  F   UNL A   1      47.669  25.854  27.425  1.00  0.00    -0.206 F 
ATOM     79  C   UNL A   1      49.049  26.382  24.121  1.00  0.00     0.022 A 
BRANCH  76  80
ATOM     80  S   UNL A   1      48.224  27.790  21.859  1.00  0.00     0.124 S 
ATOM     81  O   UNL A   1      49.450  28.578  21.903  1.00  0.00    -0.237 OA
ATOM     82  O   UNL A   1      48.300  26.526  21.134  1.00  0.00    -0.237 OA
ATOM     83  O   UNL A   1      46.996  28.554  21.646  1.00  0.00    -0.744 OA
ENDBRANCH  76  80
ENDBRANCH  49  73
BRANCH  61  84
ATOM     84  C   UNL A   1      45.218  33.019  29.119  1.00  0.00     0.023 A 
ATOM     85  C   UNL A   1      45.225  34.114  28.238  1.00  0.00     0.031 A 
ATOM     86  C   UNL A   1      45.988  33.099  30.291  1.00  0.00     0.131 A 
ATOM     87  C   UNL A   1      46.034  35.225  28.519  1.00  0.00     0.055 A 
ATOM     88  C   UNL A   1      46.749  34.229  30.591  1.00  0.00     0.041 A 
ATOM     89  F   UNL A   1      46.014  32.079  31.163  1.00  0.00    -0.206 F 
ATOM     90  C   UNL A   1      46.783  35.296  29.696  1.00  0.00     0.022 A 
BRANCH  87  91
ATOM     91  S   UNL A   1      46.157  36.544  27.281  1.00  0.00     0.124 S 
ATOM     92  O   UNL A   1      46.714  35.832  26.135  1.00  0.00    -0.237 OA
ATOM     93  O   UNL A   1      44.771  36.980  27.149  1.00  0.00    -0.237 OA
ATOM     94  O   UNL A   1      47.055  37.515  27.904  1.00  0.00    -0.744 OA
ENDBRANCH  87  91
ENDBRANCH  61  84
ENDBRANCH  35  36
ENDBRANCH  27  30
ENDBRANCH  25  26
ENDBRANCH   1  25
TORSDOF 15
ENDMDL
MODEL 3
REMARK VINA RESULT:     -12.5      2.090      2.711
REMARK SMILES C[N@H+]1C[C@@H](Oc2cccc3cccnc23)C[C@H]1C(=O)NCCCNC(=O)c1ccc(-c2c3nc(c(-c4cc(S(=O)(=O)[O-])ccc4F)c4ccc([nH]4)c(-c4cc(S(=O)(=O)[O-])ccc4F)c4nc(c(-c5cc(S(=O)(=O)[O-])ccc5F)c5ccc2[nH]5)C=C4)C=C3)cc1
REMARK SMILES IDX 22 1 21 2 20 3 18 4 19 5 17 7 1 8 2 9 3 10 4 12 16 13 5 14
REMARK SMILES IDX 6 15 7 16 15 17 8 18 10 19 14 20 9 21 11 22 13 23 12 24
REMARK SMILES IDX 23 25 24 26 25 27 26 29 27 30 28 31 89 32 29 33 88 34 30 35
REMARK SMILES IDX 31 36 32 37 82 38 33 39 87 40 81 41 83 42 34 43 86 44 80 45
REMARK SMILES IDX 79 46 35 48 67 49 47 50 66 51 48 52 51 53 65 54 84 55 49 56
REMARK SMILES IDX 50 57 64 59 85 60 52 61 36 62 37 63 45 64 38 65 44 66 46 67
REMARK SMILES IDX 43 68 39 69 40 70 41 71 42 72 68 73 69 74 77 75 70 76 76 77
REMARK SMILES IDX 78 78 75 79 71 80 72 81 73 82 74 83 53 84 54 85 62 86 55 87
REMARK SMILES IDX 61 88 63 89 60 90 56 91 57 92 58 93 59 94
REMARK H PARENT 20 6 2 11 24 28 83 47 51 58
REMARK Flexibility Score: inf
ROOT
ATOM      1  C   UNL A   1      31.898  30.674  26.873  1.00  0.00     0.042 C 
ENDROOT
BRANCH   1   2
ATOM      2  C   UNL A   1      31.779  30.375  25.388  1.00  0.00     0.118 C 
BRANCH   2   3
ATOM      3  N   UNL A   1      32.904  29.705  24.789  1.00  0.00    -0.351 N 
ATOM      4  C   UNL A   1      32.992  28.447  24.275  1.00  0.00     0.278 C 
ATOM      5  O   UNL A   1      33.897  28.280  23.444  1.00  0.00    -0.268 OA
ATOM      6  H   UNL A   1      33.733  30.234  24.744  1.00  0.00     0.163 HD
BRANCH   4   7
ATOM      7  C   UNL A   1      32.052  27.257  24.603  1.00  0.00     0.278 C 
ATOM      8  C   UNL A   1      30.471  27.800  22.770  1.00  0.00     0.333 C 
ATOM      9  N   UNL A   1      31.119  26.795  23.577  1.00  0.00    -0.324 N 
ATOM     10  C   UNL A   1      31.614  25.579  22.940  1.00  0.00     0.308 C 
ATOM     11  H   UNL A   1      30.263  26.508  24.053  1.00  0.00     0.348 HD
ATOM     12  C   UNL A   1      32.492  24.911  24.025  1.00  0.00     0.234 C 
ATOM     13  C   UNL A   1      32.742  25.991  25.089  1.00  0.00     0.126 C 
BRANCH  12  14
ATOM     14  O   UNL A   1      33.561  24.066  23.562  1.00  0.00    -0.482 OA
BRANCH  14  15
ATOM     15  C   UNL A   1      33.727  22.770  23.986  1.00  0.00     0.146 A 
ATOM     16  C   UNL A   1      32.675  21.850  23.893  1.00  0.00     0.049 A 
ATOM     17  C   UNL A   1      35.013  22.339  24.371  1.00  0.00     0.112 A 
ATOM     18  C   UNL A   1      32.825  20.540  24.339  1.00  0.00     0.005 A 
ATOM     19  C   UNL A   1      35.163  20.981  24.755  1.00  0.00     0.004 A 
ATOM     20  N   UNL A   1      36.075  23.179  24.388  1.00  0.00    -0.252 NA
ATOM     21  C   UNL A   1      34.068  20.107  24.778  1.00  0.00     0.010 A 
ATOM     22  C   UNL A   1      36.433  20.513  25.109  1.00  0.00     0.012 A 
ATOM     23  C   UNL A   1      37.288  22.686  24.735  1.00  0.00     0.112 A 
ATOM     24  C   UNL A   1      37.518  21.375  25.093  1.00  0.00     0.021 A 
ENDBRANCH  14  15
ENDBRANCH  12  14
ENDBRANCH   4   7
ENDBRANCH   2   3
ENDBRANCH   1   2
BRANCH   1  25
ATOM     25  C   UNL A   1      33.070  31.580  27.214  1.00  0.00     0.118 C 
BRANCH  25  26
ATOM     26  N   UNL A   1      32.658  32.947  27.518  1.00  0.00    -0.352 N 
ATOM     27  C   UNL A   1      33.181  33.858  28.405  1.00  0.00     0.251 C 
ATOM     28  H   UNL A   1      31.882  33.268  27.007  1.00  0.00     0.163 HD
ATOM     29  O   UNL A   1      32.608  34.925  28.598  1.00  0.00    -0.269 OA
BRANCH  27  30
ATOM     30  C   UNL A   1      34.427  33.553  29.128  1.00  0.00     0.039 A 
ATOM     31  C   UNL A   1      35.620  34.175  28.742  1.00  0.00     0.014 A 
ATOM     32  C   UNL A   1      34.421  32.612  30.158  1.00  0.00     0.014 A 
ATOM     33  C   UNL A   1      36.805  33.882  29.421  1.00  0.00     0.010 A 
ATOM     34  C   UNL A   1      35.578  32.383  30.884  1.00  0.00     0.010 A 
ATOM     35  C   UNL A   1      36.785  32.993  30.503  1.00  0.00    -0.014 A 
BRANCH  35  36
ATOM     36  C   UNL A   1      38.014  32.557  31.203  1.00  0.00     0.031 A 
ATOM     37  C   UNL A   1      38.787  31.409  30.616  1.00  0.00     0.074 A 
ATOM     38  C   UNL A   1      38.339  33.079  32.397  1.00  0.00     0.049 A 
ATOM     39  N   UNL A   1      39.691  30.643  31.162  1.00  0.00    -0.248 NA
ATOM     40  C   UNL A   1      38.426  31.034  29.239  1.00  0.00     0.031 C 
ATOM     41  C   UNL A   1      37.639  34.180  33.060  1.00  0.00     0.029 A 
ATOM     42  N   UNL A   1      39.319  32.720  33.284  1.00  0.00    -0.354 N 
ATOM     43  C   UNL A   1      39.965  29.658  30.218  1.00  0.00     0.074 A 
ATOM     44  C   UNL A   1      39.088  29.899  29.092  1.00  0.00     0.031 C 
ATOM     45  C   UNL A   1      38.206  34.398  34.258  1.00  0.00     0.029 A 
ATOM     46  C   UNL A   1      39.271  33.423  34.465  1.00  0.00     0.049 A 
ATOM     47  H   UNL A   1      39.992  32.026  33.096  1.00  0.00     0.167 HD
ATOM     48  C   UNL A   1      40.871  28.650  30.289  1.00  0.00     0.034 A 
ATOM     49  C   UNL A   1      39.987  33.267  35.594  1.00  0.00     0.034 A 
ATOM     50  C   UNL A   1      41.749  28.467  31.419  1.00  0.00     0.049 A 
ATOM     51  C   UNL A   1      41.023  32.175  35.641  1.00  0.00     0.074 A 
ATOM     52  C   UNL A   1      42.748  27.529  31.602  1.00  0.00     0.029 A 
ATOM     53  N   UNL A   1      41.729  29.255  32.567  1.00  0.00    -0.354 N 
ATOM     54  N   UNL A   1      41.288  31.251  34.745  1.00  0.00    -0.248 NA
ATOM     55  C   UNL A   1      41.860  32.110  36.844  1.00  0.00     0.031 C 
ATOM     56  C   UNL A   1      43.300  27.720  32.875  1.00  0.00     0.029 A 
ATOM     57  C   UNL A   1      42.690  28.819  33.464  1.00  0.00     0.049 A 
ATOM     58  H   UNL A   1      41.121  30.014  32.719  1.00  0.00     0.167 HD
ATOM     59  C   UNL A   1      42.338  30.503  35.270  1.00  0.00     0.074 A 
ATOM     60  C   UNL A   1      42.664  31.097  36.553  1.00  0.00     0.031 C 
ATOM     61  C   UNL A   1      42.978  29.427  34.743  1.00  0.00     0.034 A 
BRANCH  48  62
ATOM     62  C   UNL A   1      40.907  27.673  29.134  1.00  0.00     0.023 A 
ATOM     63  C   UNL A   1      41.856  27.782  28.100  1.00  0.00     0.031 A 
ATOM     64  C   UNL A   1      39.921  26.678  29.011  1.00  0.00     0.131 A 
ATOM     65  C   UNL A   1      41.723  27.005  26.939  1.00  0.00     0.055 A 
ATOM     66  C   UNL A   1      39.858  25.834  27.897  1.00  0.00     0.041 A 
ATOM     67  F   UNL A   1      38.975  26.530  29.950  1.00  0.00    -0.206 F 
ATOM     68  C   UNL A   1      40.747  26.012  26.840  1.00  0.00     0.022 A 
BRANCH  65  69
ATOM     69  S   UNL A   1      42.716  27.453  25.487  1.00  0.00     0.124 S 
ATOM     70  O   UNL A   1      44.011  27.748  26.096  1.00  0.00    -0.237 OA
ATOM     71  O   UNL A   1      42.652  26.244  24.675  1.00  0.00    -0.237 OA
ATOM     72  O   UNL A   1      42.016  28.613  24.937  1.00  0.00    -0.744 OA
ENDBRANCH  65  69
ENDBRANCH  48  62
BRANCH  49  73
ATOM     73  C   UNL A   1      39.737  34.155  36.762  1.00  0.00     0.023 A 
ATOM     74  C   UNL A   1      39.151  33.654  37.935  1.00  0.00     0.031 A 
ATOM     75  C   UNL A   1      40.103  35.512  36.731  1.00  0.00     0.131 A 
ATOM     76  C   UNL A   1      38.928  34.510  39.025  1.00  0.00     0.055 A 
ATOM     77  C   UNL A   1      39.911  36.351  37.831  1.00  0.00     0.041 A 
ATOM     78  F   UNL A   1      40.682  36.034  35.639  1.00  0.00    -0.206 F 
ATOM     79  C   UNL A   1      39.313  35.853  38.985  1.00  0.00     0.022 A 
BRANCH  76  80
ATOM     80  S   UNL A   1      38.097  33.847  40.493  1.00  0.00     0.124 S 
ATOM     81  O   UNL A   1      37.207  32.850  39.910  1.00  0.00    -0.237 OA
ATOM     82  O   UNL A   1      39.220  33.330  41.269  1.00  0.00    -0.237 OA
ATOM     83  O   UNL A   1      37.434  35.017  41.068  1.00  0.00    -0.744 OA
ENDBRANCH  76  80
ENDBRANCH  49  73
BRANCH  61  84
ATOM     84  C   UNL A   1      44.116  28.859  35.551  1.00  0.00     0.023 A 
ATOM     85  C   UNL A   1      43.927  27.777  36.427  1.00  0.00     0.031 A 
ATOM     86  C   UNL A   1      45.400  29.419  35.448  1.00  0.00     0.131 A 
ATOM     87  C   UNL A   1      44.999  27.320  37.208  1.00  0.00     0.055 A 
ATOM     88  C   UNL A   1      46.475  28.927  36.188  1.00  0.00     0.041 A 
ATOM     89  F   UNL A   1      45.630  30.454  34.625  1.00  0.00    -0.206 F 
ATOM     90  C   UNL A   1      46.274  27.878  37.083  1.00  0.00     0.022 A 
BRANCH  87  91
ATOM     91  S   UNL A   1      44.684  26.041  38.453  1.00  0.00     0.124 S 
ATOM     92  O   UNL A   1      43.711  25.191  37.773  1.00  0.00    -0.237 OA
ATOM     93  O   UNL A   1      46.009  25.463  38.649  1.00  0.00    -0.237 OA
ATOM     94  O   UNL A   1      44.162  26.792  39.592  1.00  0.00    -0.744 OA
ENDBRANCH  87  91
ENDBRANCH  61  84
ENDBRANCH  35  36
ENDBRANCH  27  30
ENDBRANCH  25  26
ENDBRANCH   1  25
TORSDOF 15
ENDMDL
