MODEL 1
REMARK VINA RESULT:      -9.7      0.000      0.000
REMARK SMILES CCC[C@@H](C)C[NH2+][C@@](C)(CC)C(=O)NCCCNC(=O)c1ccc(-c2c3nc(c(-c4cc(S(=O)(=O)[O-])ccc4F)c4ccc([nH]4)c(-c4cc(S(=O)(=O)[O-])ccc4F)c4nc(c(-c5cc(S(=O)(=O)[O-])ccc5F)c5ccc2[nH]5)C=C4)C=C3)cc1
REMARK SMILES IDX 15 1 14 2 12 3 13 4 8 6 9 7 7 8 6 11 4 12 5 13 3 14 2 15
REMARK SMILES IDX 1 16 10 17 11 18 16 19 17 20 18 21 19 22 20 24 21 25 22 26
REMARK SMILES IDX 83 27 23 28 82 29 24 30 25 31 26 32 76 33 27 34 81 35 75 36
REMARK SMILES IDX 77 37 28 38 80 39 74 40 73 41 29 43 61 44 41 45 60 46 42 47
REMARK SMILES IDX 45 48 59 49 78 50 43 51 44 52 58 54 79 55 46 56 30 57 31 58
REMARK SMILES IDX 39 59 32 60 38 61 40 62 37 63 33 64 34 65 35 66 36 67 62 68
REMARK SMILES IDX 63 69 71 70 64 71 70 72 72 73 69 74 65 75 66 76 67 77 68 78
REMARK SMILES IDX 47 79 48 80 56 81 49 82 55 83 57 84 54 85 50 86 51 87 52 88
REMARK SMILES IDX 53 89
REMARK H PARENT 14 5 7 9 7 10 18 23 77 42 45 53
REMARK Flexibility Score: inf
ROOT
ATOM      1  C   UNL A   1      31.346  30.799  26.500  1.00  0.00     0.118 C 
ENDROOT
BRANCH   1   2
ATOM      2  N   UNL A   1      31.781  30.297  25.213  1.00  0.00    -0.351 N 
ATOM      3  C   UNL A   1      32.494  29.198  24.848  1.00  0.00     0.281 C 
ATOM      4  O   UNL A   1      32.841  29.183  23.660  1.00  0.00    -0.268 OA
ATOM      5  H   UNL A   1      31.508  30.861  24.456  1.00  0.00     0.163 HD
BRANCH   3   6
ATOM      6  C   UNL A   1      32.850  28.051  25.861  1.00  0.00     0.172 C 
ATOM      7  C   UNL A   1      31.603  27.232  26.260  1.00  0.00     0.090 C 
BRANCH   6   8
ATOM      8  N   UNL A   1      33.843  27.107  25.258  1.00  0.00    -0.334 N 
ATOM      9  H   UNL A   1      34.003  27.395  24.293  1.00  0.00     0.347 HD
ATOM     10  H   UNL A   1      34.673  27.162  25.849  1.00  0.00     0.347 HD
BRANCH   8  11
ATOM     11  C   UNL A   1      33.450  25.695  25.249  1.00  0.00     0.264 C 
BRANCH  11  12
ATOM     12  C   UNL A   1      33.995  24.962  24.002  1.00  0.00     0.041 C 
ATOM     13  C   UNL A   1      33.670  25.802  22.760  1.00  0.00     0.013 C 
BRANCH  12  14
ATOM     14  C   UNL A   1      33.412  23.534  23.887  1.00  0.00     0.009 C 
BRANCH  14  15
ATOM     15  C   UNL A   1      34.381  22.392  24.201  1.00  0.00    -0.003 C 
ATOM     16  C   UNL A   1      35.826  22.723  23.863  1.00  0.00     0.004 C 
ENDBRANCH  14  15
ENDBRANCH  12  14
ENDBRANCH  11  12
ENDBRANCH   8  11
ENDBRANCH   6   8
BRANCH   6  17
ATOM     17  C   UNL A   1      33.524  28.642  27.129  1.00  0.00     0.075 C 
ATOM     18  C   UNL A   1      34.862  29.337  26.882  1.00  0.00     0.011 C 
ENDBRANCH   6  17
ENDBRANCH   3   6
ENDBRANCH   1   2
BRANCH   1  19
ATOM     19  C   UNL A   1      31.433  32.318  26.572  1.00  0.00     0.042 C 
BRANCH  19  20
ATOM     20  C   UNL A   1      32.739  32.823  27.166  1.00  0.00     0.118 C 
BRANCH  20  21
ATOM     21  N   UNL A   1      32.606  34.155  27.745  1.00  0.00    -0.352 N 
ATOM     22  C   UNL A   1      33.231  34.706  28.836  1.00  0.00     0.251 C 
ATOM     23  H   UNL A   1      31.971  34.749  27.284  1.00  0.00     0.163 HD
ATOM     24  O   UNL A   1      32.799  35.755  29.313  1.00  0.00    -0.269 OA
BRANCH  22  25
ATOM     25  C   UNL A   1      34.396  34.029  29.441  1.00  0.00     0.039 A 
ATOM     26  C   UNL A   1      35.683  34.455  29.108  1.00  0.00     0.014 A 
ATOM     27  C   UNL A   1      34.217  32.972  30.338  1.00  0.00     0.014 A 
ATOM     28  C   UNL A   1      36.786  33.869  29.733  1.00  0.00     0.010 A 
ATOM     29  C   UNL A   1      35.308  32.461  31.031  1.00  0.00     0.010 A 
ATOM     30  C   UNL A   1      36.605  32.897  30.732  1.00  0.00    -0.014 A 
BRANCH  30  31
ATOM     31  C   UNL A   1      37.757  32.305  31.461  1.00  0.00     0.031 A 
ATOM     32  C   UNL A   1      38.542  31.184  30.831  1.00  0.00     0.074 A 
ATOM     33  C   UNL A   1      38.058  32.731  32.704  1.00  0.00     0.049 A 
ATOM     34  N   UNL A   1      39.506  30.461  31.339  1.00  0.00    -0.248 NA
ATOM     35  C   UNL A   1      38.172  30.809  29.456  1.00  0.00     0.031 C 
ATOM     36  C   UNL A   1      37.357  33.794  33.428  1.00  0.00     0.029 A 
ATOM     37  N   UNL A   1      39.029  32.321  33.583  1.00  0.00    -0.354 N 
ATOM     38  C   UNL A   1      39.857  29.549  30.349  1.00  0.00     0.074 A 
ATOM     39  C   UNL A   1      38.947  29.758  29.244  1.00  0.00     0.031 C 
ATOM     40  C   UNL A   1      37.941  33.973  34.624  1.00  0.00     0.029 A 
ATOM     41  C   UNL A   1      39.018  33.001  34.780  1.00  0.00     0.049 A 
ATOM     42  H   UNL A   1      39.675  31.606  33.377  1.00  0.00     0.167 HD
ATOM     43  C   UNL A   1      40.867  28.644  30.348  1.00  0.00     0.034 A 
ATOM     44  C   UNL A   1      39.779  32.846  35.883  1.00  0.00     0.034 A 
ATOM     45  C   UNL A   1      41.769  28.449  31.455  1.00  0.00     0.049 A 
ATOM     46  C   UNL A   1      40.848  31.778  35.881  1.00  0.00     0.074 A 
ATOM     47  C   UNL A   1      42.833  27.571  31.555  1.00  0.00     0.029 A 
ATOM     48  N   UNL A   1      41.716  29.145  32.655  1.00  0.00    -0.354 N 
ATOM     49  N   UNL A   1      41.183  30.942  34.925  1.00  0.00    -0.248 NA
ATOM     50  C   UNL A   1      41.650  31.641  37.105  1.00  0.00     0.031 C 
ATOM     51  C   UNL A   1      43.380  27.688  32.836  1.00  0.00     0.029 A 
ATOM     52  C   UNL A   1      42.713  28.700  33.507  1.00  0.00     0.049 A 
ATOM     53  H   UNL A   1      41.064  29.852  32.870  1.00  0.00     0.167 HD
ATOM     54  C   UNL A   1      42.264  30.217  35.417  1.00  0.00     0.074 A 
ATOM     55  C   UNL A   1      42.534  30.722  36.747  1.00  0.00     0.031 C 
ATOM     56  C   UNL A   1      42.976  29.224  34.826  1.00  0.00     0.034 A 
BRANCH  43  57
ATOM     57  C   UNL A   1      41.038  27.796  29.112  1.00  0.00     0.023 A 
ATOM     58  C   UNL A   1      42.050  28.067  28.174  1.00  0.00     0.031 A 
ATOM     59  C   UNL A   1      40.182  26.710  28.859  1.00  0.00     0.131 A 
ATOM     60  C   UNL A   1      42.139  27.307  26.999  1.00  0.00     0.055 A 
ATOM     61  C   UNL A   1      40.328  25.905  27.728  1.00  0.00     0.041 A 
ATOM     62  F   UNL A   1      39.182  26.417  29.706  1.00  0.00    -0.206 F 
ATOM     63  C   UNL A   1      41.304  26.209  26.782  1.00  0.00     0.022 A 
BRANCH  60  64
ATOM     64  S   UNL A   1      43.277  27.858  25.699  1.00  0.00     0.124 S 
ATOM     65  O   UNL A   1      42.376  27.990  24.556  1.00  0.00    -0.237 OA
ATOM     66  O   UNL A   1      43.804  29.102  26.244  1.00  0.00    -0.237 OA
ATOM     67  O   UNL A   1      44.240  26.762  25.600  1.00  0.00    -0.744 OA
ENDBRANCH  60  64
ENDBRANCH  43  57
BRANCH  44  68
ATOM     68  C   UNL A   1      39.567  33.697  37.091  1.00  0.00     0.023 A 
ATOM     69  C   UNL A   1      40.362  34.833  37.316  1.00  0.00     0.031 A 
ATOM     70  C   UNL A   1      38.636  33.343  38.083  1.00  0.00     0.131 A 
ATOM     71  C   UNL A   1      40.272  35.522  38.535  1.00  0.00     0.055 A 
ATOM     72  C   UNL A   1      38.498  34.077  39.263  1.00  0.00     0.041 A 
ATOM     73  F   UNL A   1      37.848  32.267  37.925  1.00  0.00    -0.206 F 
ATOM     74  C   UNL A   1      39.334  35.161  39.504  1.00  0.00     0.022 A 
BRANCH  71  75
ATOM     75  S   UNL A   1      41.502  36.807  38.892  1.00  0.00     0.124 S 
ATOM     76  O   UNL A   1      42.165  36.947  37.601  1.00  0.00    -0.237 OA
ATOM     77  O   UNL A   1      40.660  37.924  39.308  1.00  0.00    -0.237 OA
ATOM     78  O   UNL A   1      42.315  36.213  39.951  1.00  0.00    -0.744 OA
ENDBRANCH  71  75
ENDBRANCH  44  68
BRANCH  56  79
ATOM     79  C   UNL A   1      44.158  28.674  35.586  1.00  0.00     0.023 A 
ATOM     80  C   UNL A   1      44.039  27.584  36.465  1.00  0.00     0.031 A 
ATOM     81  C   UNL A   1      45.429  29.259  35.427  1.00  0.00     0.131 A 
ATOM     82  C   UNL A   1      45.155  27.149  37.194  1.00  0.00     0.055 A 
ATOM     83  C   UNL A   1      46.550  28.778  36.104  1.00  0.00     0.041 A 
ATOM     84  F   UNL A   1      45.601  30.305  34.603  1.00  0.00    -0.206 F 
ATOM     85  C   UNL A   1      46.414  27.726  37.004  1.00  0.00     0.022 A 
BRANCH  82  86
ATOM     86  S   UNL A   1      44.922  25.877  38.466  1.00  0.00     0.124 S 
ATOM     87  O   UNL A   1      44.120  24.883  37.759  1.00  0.00    -0.237 OA
ATOM     88  O   UNL A   1      46.294  25.488  38.773  1.00  0.00    -0.237 OA
ATOM     89  O   UNL A   1      44.226  26.587  39.537  1.00  0.00    -0.744 OA
ENDBRANCH  82  86
ENDBRANCH  56  79
ENDBRANCH  30  31
ENDBRANCH  22  25
ENDBRANCH  20  21
ENDBRANCH  19  20
ENDBRANCH   1  19
TORSDOF 19
ENDMDL
MODEL 2
REMARK VINA RESULT:      -9.5      2.315      8.188
REMARK SMILES CCC[C@@H](C)C[NH2+][C@@](C)(CC)C(=O)NCCCNC(=O)c1ccc(-c2c3nc(c(-c4cc(S(=O)(=O)[O-])ccc4F)c4ccc([nH]4)c(-c4cc(S(=O)(=O)[O-])ccc4F)c4nc(c(-c5cc(S(=O)(=O)[O-])ccc5F)c5ccc2[nH]5)C=C4)C=C3)cc1
REMARK SMILES IDX 15 1 14 2 12 3 13 4 8 6 9 7 7 8 6 11 4 12 5 13 3 14 2 15
REMARK SMILES IDX 1 16 10 17 11 18 16 19 17 20 18 21 19 22 20 24 21 25 22 26
REMARK SMILES IDX 83 27 23 28 82 29 24 30 25 31 26 32 76 33 27 34 81 35 75 36
REMARK SMILES IDX 77 37 28 38 80 39 74 40 73 41 29 43 61 44 41 45 60 46 42 47
REMARK SMILES IDX 45 48 59 49 78 50 43 51 44 52 58 54 79 55 46 56 30 57 31 58
REMARK SMILES IDX 39 59 32 60 38 61 40 62 37 63 33 64 34 65 35 66 36 67 62 68
REMARK SMILES IDX 63 69 71 70 64 71 70 72 72 73 69 74 65 75 66 76 67 77 68 78
REMARK SMILES IDX 47 79 48 80 56 81 49 82 55 83 57 84 54 85 50 86 51 87 52 88
REMARK SMILES IDX 53 89
REMARK H PARENT 14 5 7 9 7 10 18 23 77 42 45 53
REMARK Flexibility Score: inf
ROOT
ATOM      1  C   UNL A   1      31.436  30.664  25.939  1.00  0.00     0.118 C 
ENDROOT
BRANCH   1   2
ATOM      2  N   UNL A   1      31.485  29.693  27.013  1.00  0.00    -0.351 N 
ATOM      3  C   UNL A   1      31.852  28.384  27.054  1.00  0.00     0.281 C 
ATOM      4  O   UNL A   1      31.589  27.811  28.119  1.00  0.00    -0.268 OA
ATOM      5  H   UNL A   1      31.197  30.051  27.882  1.00  0.00     0.163 HD
BRANCH   3   6
ATOM      6  C   UNL A   1      32.543  27.666  25.840  1.00  0.00     0.172 C 
ATOM      7  C   UNL A   1      33.687  28.517  25.247  1.00  0.00     0.090 C 
BRANCH   6   8
ATOM      8  N   UNL A   1      33.123  26.354  26.266  1.00  0.00    -0.334 N 
ATOM      9  H   UNL A   1      34.102  26.508  26.508  1.00  0.00     0.347 HD
ATOM     10  H   UNL A   1      32.550  26.036  27.049  1.00  0.00     0.347 HD
BRANCH   8  11
ATOM     11  C   UNL A   1      33.067  25.282  25.268  1.00  0.00     0.264 C 
BRANCH  11  12
ATOM     12  C   UNL A   1      34.380  25.192  24.457  1.00  0.00     0.041 C 
ATOM     13  C   UNL A   1      34.042  24.745  23.029  1.00  0.00     0.013 C 
BRANCH  12  14
ATOM     14  C   UNL A   1      35.390  24.230  25.125  1.00  0.00     0.009 C 
BRANCH  14  15
ATOM     15  C   UNL A   1      35.440  22.813  24.550  1.00  0.00    -0.003 C 
ATOM     16  C   UNL A   1      36.834  22.394  24.109  1.00  0.00     0.004 C 
ENDBRANCH  14  15
ENDBRANCH  12  14
ENDBRANCH  11  12
ENDBRANCH   8  11
ENDBRANCH   6   8
BRANCH   6  17
ATOM     17  C   UNL A   1      31.498  27.343  24.738  1.00  0.00     0.075 C 
ATOM     18  C   UNL A   1      30.242  26.625  25.232  1.00  0.00     0.011 C 
ENDBRANCH   6  17
ENDBRANCH   3   6
ENDBRANCH   1   2
BRANCH   1  19
ATOM     19  C   UNL A   1      31.380  32.090  26.470  1.00  0.00     0.042 C 
BRANCH  19  20
ATOM     20  C   UNL A   1      32.645  32.513  27.203  1.00  0.00     0.118 C 
BRANCH  20  21
ATOM     21  N   UNL A   1      32.602  33.910  27.620  1.00  0.00    -0.352 N 
ATOM     22  C   UNL A   1      33.284  34.549  28.625  1.00  0.00     0.251 C 
ATOM     23  H   UNL A   1      31.992  34.482  27.101  1.00  0.00     0.163 HD
ATOM     24  O   UNL A   1      32.926  35.672  28.979  1.00  0.00    -0.269 OA
BRANCH  22  25
ATOM     25  C   UNL A   1      34.423  33.881  29.287  1.00  0.00     0.039 A 
ATOM     26  C   UNL A   1      34.175  32.935  30.284  1.00  0.00     0.014 A 
ATOM     27  C   UNL A   1      35.737  34.189  28.924  1.00  0.00     0.014 A 
ATOM     28  C   UNL A   1      35.244  32.246  30.862  1.00  0.00     0.010 A 
ATOM     29  C   UNL A   1      36.789  33.433  29.427  1.00  0.00     0.010 A 
ATOM     30  C   UNL A   1      36.557  32.458  30.407  1.00  0.00    -0.014 A 
BRANCH  30  31
ATOM     31  C   UNL A   1      37.705  31.691  30.956  1.00  0.00     0.031 A 
ATOM     32  C   UNL A   1      38.202  31.986  32.346  1.00  0.00     0.074 A 
ATOM     33  C   UNL A   1      38.334  30.779  30.188  1.00  0.00     0.049 A 
ATOM     34  N   UNL A   1      39.250  31.511  32.970  1.00  0.00    -0.248 NA
ATOM     35  C   UNL A   1      37.433  32.966  33.130  1.00  0.00     0.031 C 
ATOM     36  C   UNL A   1      37.960  30.422  28.817  1.00  0.00     0.029 A 
ATOM     37  N   UNL A   1      39.424  29.986  30.446  1.00  0.00    -0.354 N 
ATOM     38  C   UNL A   1      39.265  32.134  34.213  1.00  0.00     0.074 A 
ATOM     39  C   UNL A   1      38.169  33.078  34.224  1.00  0.00     0.031 C 
ATOM     40  C   UNL A   1      38.784  29.461  28.370  1.00  0.00     0.029 A 
ATOM     41  C   UNL A   1      39.782  29.173  29.395  1.00  0.00     0.049 A 
ATOM     42  H   UNL A   1      39.906  29.997  31.305  1.00  0.00     0.167 HD
ATOM     43  C   UNL A   1      40.094  31.913  35.263  1.00  0.00     0.034 A 
ATOM     44  C   UNL A   1      40.809  28.308  29.266  1.00  0.00     0.034 A 
ATOM     45  C   UNL A   1      41.179  30.966  35.241  1.00  0.00     0.049 A 
ATOM     46  C   UNL A   1      41.762  28.138  30.425  1.00  0.00     0.074 A 
ATOM     47  C   UNL A   1      42.072  30.654  36.251  1.00  0.00     0.029 A 
ATOM     48  N   UNL A   1      41.521  30.173  34.152  1.00  0.00    -0.354 N 
ATOM     49  N   UNL A   1      41.745  28.717  31.605  1.00  0.00    -0.248 NA
ATOM     50  C   UNL A   1      42.869  27.188  30.240  1.00  0.00     0.031 C 
ATOM     51  C   UNL A   1      42.991  29.724  35.754  1.00  0.00     0.029 A 
ATOM     52  C   UNL A   1      42.622  29.391  34.461  1.00  0.00     0.049 A 
ATOM     53  H   UNL A   1      41.049  30.168  33.288  1.00  0.00     0.167 HD
ATOM     54  C   UNL A   1      42.807  28.162  32.314  1.00  0.00     0.074 A 
ATOM     55  C   UNL A   1      43.435  27.196  31.437  1.00  0.00     0.031 C 
ATOM     56  C   UNL A   1      43.227  28.423  33.578  1.00  0.00     0.034 A 
BRANCH  43  57
ATOM     57  C   UNL A   1      39.858  32.719  36.516  1.00  0.00     0.023 A 
ATOM     58  C   UNL A   1      38.942  32.296  37.496  1.00  0.00     0.031 A 
ATOM     59  C   UNL A   1      40.545  33.925  36.737  1.00  0.00     0.131 A 
ATOM     60  C   UNL A   1      38.690  33.101  38.615  1.00  0.00     0.055 A 
ATOM     61  C   UNL A   1      40.350  34.682  37.894  1.00  0.00     0.041 A 
ATOM     62  F   UNL A   1      41.413  34.393  35.827  1.00  0.00    -0.206 F 
ATOM     63  C   UNL A   1      39.408  34.278  38.836  1.00  0.00     0.022 A 
BRANCH  60  64
ATOM     64  S   UNL A   1      37.314  32.654  39.709  1.00  0.00     0.124 S 
ATOM     65  O   UNL A   1      37.323  33.761  40.662  1.00  0.00    -0.237 OA
ATOM     66  O   UNL A   1      36.182  32.610  38.792  1.00  0.00    -0.237 OA
ATOM     67  O   UNL A   1      37.721  31.362  40.260  1.00  0.00    -0.744 OA
ENDBRANCH  60  64
ENDBRANCH  43  57
BRANCH  44  68
ATOM     68  C   UNL A   1      41.015  27.540  28.002  1.00  0.00     0.023 A 
ATOM     69  C   UNL A   1      40.695  26.174  27.933  1.00  0.00     0.031 A 
ATOM     70  C   UNL A   1      41.619  28.129  26.877  1.00  0.00     0.131 A 
ATOM     71  C   UNL A   1      41.054  25.426  26.801  1.00  0.00     0.055 A 
ATOM     72  C   UNL A   1      41.906  27.396  25.724  1.00  0.00     0.041 A 
ATOM     73  F   UNL A   1      41.948  29.431  26.884  1.00  0.00    -0.206 F 
ATOM     74  C   UNL A   1      41.643  26.031  25.690  1.00  0.00     0.022 A 
BRANCH  71  75
ATOM     75  S   UNL A   1      40.872  23.622  26.866  1.00  0.00     0.124 S 
ATOM     76  O   UNL A   1      41.826  23.193  25.851  1.00  0.00    -0.237 OA
ATOM     77  O   UNL A   1      41.232  23.331  28.250  1.00  0.00    -0.237 OA
ATOM     78  O   UNL A   1      39.465  23.412  26.531  1.00  0.00    -0.744 OA
ENDBRANCH  71  75
ENDBRANCH  44  68
BRANCH  56  79
ATOM     79  C   UNL A   1      44.375  27.599  34.109  1.00  0.00     0.023 A 
ATOM     80  C   UNL A   1      44.177  26.341  34.704  1.00  0.00     0.031 A 
ATOM     81  C   UNL A   1      45.691  28.089  34.021  1.00  0.00     0.131 A 
ATOM     82  C   UNL A   1      45.269  25.641  35.238  1.00  0.00     0.055 A 
ATOM     83  C   UNL A   1      46.782  27.358  34.493  1.00  0.00     0.041 A 
ATOM     84  F   UNL A   1      45.939  29.286  33.465  1.00  0.00    -0.206 F 
ATOM     85  C   UNL A   1      46.572  26.133  35.118  1.00  0.00     0.022 A 
BRANCH  82  86
ATOM     86  S   UNL A   1      44.955  24.121  36.176  1.00  0.00     0.124 S 
ATOM     87  O   UNL A   1      46.256  23.462  36.132  1.00  0.00    -0.237 OA
ATOM     88  O   UNL A   1      44.544  24.637  37.477  1.00  0.00    -0.237 OA
ATOM     89  O   UNL A   1      43.899  23.460  35.412  1.00  0.00    -0.744 OA
ENDBRANCH  82  86
ENDBRANCH  56  79
ENDBRANCH  30  31
ENDBRANCH  22  25
ENDBRANCH  20  21
ENDBRANCH  19  20
ENDBRANCH   1  19
TORSDOF 19
ENDMDL
MODEL 3
REMARK VINA RESULT:      -9.5      2.724      8.544
REMARK SMILES CCC[C@@H](C)C[NH2+][C@@](C)(CC)C(=O)NCCCNC(=O)c1ccc(-c2c3nc(c(-c4cc(S(=O)(=O)[O-])ccc4F)c4ccc([nH]4)c(-c4cc(S(=O)(=O)[O-])ccc4F)c4nc(c(-c5cc(S(=O)(=O)[O-])ccc5F)c5ccc2[nH]5)C=C4)C=C3)cc1
REMARK SMILES IDX 15 1 14 2 12 3 13 4 8 6 9 7 7 8 6 11 4 12 5 13 3 14 2 15
REMARK SMILES IDX 1 16 10 17 11 18 16 19 17 20 18 21 19 22 20 24 21 25 22 26
REMARK SMILES IDX 83 27 23 28 82 29 24 30 25 31 26 32 76 33 27 34 81 35 75 36
REMARK SMILES IDX 77 37 28 38 80 39 74 40 73 41 29 43 61 44 41 45 60 46 42 47
REMARK SMILES IDX 45 48 59 49 78 50 43 51 44 52 58 54 79 55 46 56 30 57 31 58
REMARK SMILES IDX 39 59 32 60 38 61 40 62 37 63 33 64 34 65 35 66 36 67 62 68
REMARK SMILES IDX 63 69 71 70 64 71 70 72 72 73 69 74 65 75 66 76 67 77 68 78
REMARK SMILES IDX 47 79 48 80 56 81 49 82 55 83 57 84 54 85 50 86 51 87 52 88
REMARK SMILES IDX 53 89
REMARK H PARENT 14 5 7 9 7 10 18 23 77 42 45 53
REMARK Flexibility Score: inf
ROOT
ATOM      1  C   UNL A   1      31.709  30.432  25.516  1.00  0.00     0.118 C 
ENDROOT
BRANCH   1   2
ATOM      2  N   UNL A   1      31.613  29.184  26.247  1.00  0.00    -0.351 N 
ATOM      3  C   UNL A   1      31.407  27.900  25.850  1.00  0.00     0.281 C 
ATOM      4  O   UNL A   1      31.198  27.105  26.776  1.00  0.00    -0.268 OA
ATOM      5  H   UNL A   1      31.717  29.287  27.219  1.00  0.00     0.163 HD
BRANCH   3   6
ATOM      6  C   UNL A   1      31.427  27.472  24.339  1.00  0.00     0.172 C 
ATOM      7  C   UNL A   1      30.458  26.301  24.063  1.00  0.00     0.090 C 
BRANCH   6   8
ATOM      8  N   UNL A   1      31.023  28.616  23.464  1.00  0.00    -0.334 N 
ATOM      9  H   UNL A   1      30.993  29.456  24.041  1.00  0.00     0.347 HD
ATOM     10  H   UNL A   1      31.716  28.653  22.716  1.00  0.00     0.347 HD
BRANCH   8  11
ATOM     11  C   UNL A   1      29.724  28.478  22.799  1.00  0.00     0.264 C 
BRANCH  11  12
ATOM     12  C   UNL A   1      28.633  29.315  23.505  1.00  0.00     0.041 C 
ATOM     13  C   UNL A   1      27.260  28.857  22.995  1.00  0.00     0.013 C 
BRANCH  12  14
ATOM     14  C   UNL A   1      28.845  30.829  23.273  1.00  0.00     0.009 C 
BRANCH  14  15
ATOM     15  C   UNL A   1      27.816  31.515  22.372  1.00  0.00    -0.003 C 
ATOM     16  C   UNL A   1      28.218  31.528  20.905  1.00  0.00     0.004 C 
ENDBRANCH  14  15
ENDBRANCH  12  14
ENDBRANCH  11  12
ENDBRANCH   8  11
ENDBRANCH   6   8
BRANCH   6  17
ATOM     17  C   UNL A   1      32.867  27.080  23.909  1.00  0.00     0.075 C 
ATOM     18  C   UNL A   1      33.718  28.235  23.381  1.00  0.00     0.011 C 
ENDBRANCH   6  17
ENDBRANCH   3   6
ENDBRANCH   1   2
BRANCH   1  19
ATOM     19  C   UNL A   1      31.450  31.633  26.415  1.00  0.00     0.042 C 
BRANCH  19  20
ATOM     20  C   UNL A   1      32.659  32.043  27.243  1.00  0.00     0.118 C 
BRANCH  20  21
ATOM     21  N   UNL A   1      32.702  33.481  27.486  1.00  0.00    -0.352 N 
ATOM     22  C   UNL A   1      33.476  34.201  28.361  1.00  0.00     0.251 C 
ATOM     23  H   UNL A   1      32.082  34.015  26.940  1.00  0.00     0.163 HD
ATOM     24  O   UNL A   1      33.189  35.374  28.595  1.00  0.00    -0.269 OA
BRANCH  22  25
ATOM     25  C   UNL A   1      34.629  33.562  29.029  1.00  0.00     0.039 A 
ATOM     26  C   UNL A   1      34.403  32.693  30.098  1.00  0.00     0.014 A 
ATOM     27  C   UNL A   1      35.933  33.823  28.600  1.00  0.00     0.014 A 
ATOM     28  C   UNL A   1      35.483  32.028  30.685  1.00  0.00     0.010 A 
ATOM     29  C   UNL A   1      36.991  33.086  29.118  1.00  0.00     0.010 A 
ATOM     30  C   UNL A   1      36.781  32.186  30.171  1.00  0.00    -0.014 A 
BRANCH  30  31
ATOM     31  C   UNL A   1      37.938  31.441  30.732  1.00  0.00     0.031 A 
ATOM     32  C   UNL A   1      38.445  31.778  32.109  1.00  0.00     0.074 A 
ATOM     33  C   UNL A   1      38.564  30.510  29.986  1.00  0.00     0.049 A 
ATOM     34  N   UNL A   1      39.500  31.327  32.737  1.00  0.00    -0.248 NA
ATOM     35  C   UNL A   1      37.678  32.778  32.870  1.00  0.00     0.031 C 
ATOM     36  C   UNL A   1      38.180  30.111  28.630  1.00  0.00     0.029 A 
ATOM     37  N   UNL A   1      39.660  29.729  30.258  1.00  0.00    -0.354 N 
ATOM     38  C   UNL A   1      39.522  31.986  33.962  1.00  0.00     0.074 A 
ATOM     39  C   UNL A   1      38.422  32.925  33.954  1.00  0.00     0.031 C 
ATOM     40  C   UNL A   1      39.005  29.141  28.204  1.00  0.00     0.029 A 
ATOM     41  C   UNL A   1      40.013  28.888  29.228  1.00  0.00     0.049 A 
ATOM     42  H   UNL A   1      40.149  29.768  31.112  1.00  0.00     0.167 HD
ATOM     43  C   UNL A   1      40.361  31.800  35.010  1.00  0.00     0.034 A 
ATOM     44  C   UNL A   1      41.043  28.024  29.115  1.00  0.00     0.034 A 
ATOM     45  C   UNL A   1      41.451  30.857  35.007  1.00  0.00     0.049 A 
ATOM     46  C   UNL A   1      42.007  27.892  30.271  1.00  0.00     0.074 A 
ATOM     47  C   UNL A   1      42.354  30.579  36.018  1.00  0.00     0.029 A 
ATOM     48  N   UNL A   1      41.787  30.034  33.939  1.00  0.00    -0.354 N 
ATOM     49  N   UNL A   1      41.997  28.505  31.433  1.00  0.00    -0.248 NA
ATOM     50  C   UNL A   1      43.116  26.942  30.105  1.00  0.00     0.031 C 
ATOM     51  C   UNL A   1      43.272  29.639  35.540  1.00  0.00     0.029 A 
ATOM     52  C   UNL A   1      42.894  29.267  34.261  1.00  0.00     0.049 A 
ATOM     53  H   UNL A   1      41.308  30.002  33.079  1.00  0.00     0.167 HD
ATOM     54  C   UNL A   1      43.067  27.976  32.150  1.00  0.00     0.074 A 
ATOM     55  C   UNL A   1      43.692  26.988  31.296  1.00  0.00     0.031 C 
ATOM     56  C   UNL A   1      43.497  28.276  33.401  1.00  0.00     0.034 A 
BRANCH  43  57
ATOM     57  C   UNL A   1      40.132  32.641  36.242  1.00  0.00     0.023 A 
ATOM     58  C   UNL A   1      39.198  32.262  37.223  1.00  0.00     0.031 A 
ATOM     59  C   UNL A   1      40.843  33.837  36.440  1.00  0.00     0.131 A 
ATOM     60  C   UNL A   1      38.954  33.100  38.320  1.00  0.00     0.055 A 
ATOM     61  C   UNL A   1      40.655  34.626  37.577  1.00  0.00     0.041 A 
ATOM     62  F   UNL A   1      41.730  34.263  35.527  1.00  0.00    -0.206 F 
ATOM     63  C   UNL A   1      39.696  34.265  38.519  1.00  0.00     0.022 A 
BRANCH  60  64
ATOM     64  S   UNL A   1      37.558  32.710  39.410  1.00  0.00     0.124 S 
ATOM     65  O   UNL A   1      37.920  31.376  39.886  1.00  0.00    -0.237 OA
ATOM     66  O   UNL A   1      37.619  33.779  40.398  1.00  0.00    -0.237 OA
ATOM     67  O   UNL A   1      36.403  32.752  38.515  1.00  0.00    -0.744 OA
ENDBRANCH  60  64
ENDBRANCH  43  57
BRANCH  44  68
ATOM     68  C   UNL A   1      41.242  27.220  27.873  1.00  0.00     0.023 A 
ATOM     69  C   UNL A   1      40.896  25.860  27.836  1.00  0.00     0.031 A 
ATOM     70  C   UNL A   1      41.865  27.769  26.738  1.00  0.00     0.131 A 
ATOM     71  C   UNL A   1      41.248  25.076  26.727  1.00  0.00     0.055 A 
ATOM     72  C   UNL A   1      42.145  27.001  25.605  1.00  0.00     0.041 A 
ATOM     73  F   UNL A   1      42.219  29.063  26.714  1.00  0.00    -0.206 F 
ATOM     74  C   UNL A   1      41.856  25.641  25.604  1.00  0.00     0.022 A 
BRANCH  71  75
ATOM     75  S   UNL A   1      41.029  23.278  26.836  1.00  0.00     0.124 S 
ATOM     76  O   UNL A   1      41.443  23.014  28.209  1.00  0.00    -0.237 OA
ATOM     77  O   UNL A   1      39.605  23.129  26.553  1.00  0.00    -0.237 OA
ATOM     78  O   UNL A   1      41.926  22.764  25.803  1.00  0.00    -0.744 OA
ENDBRANCH  71  75
ENDBRANCH  44  68
BRANCH  56  79
ATOM     79  C   UNL A   1      44.652  27.473  33.947  1.00  0.00     0.023 A 
ATOM     80  C   UNL A   1      44.462  26.252  34.617  1.00  0.00     0.031 A 
ATOM     81  C   UNL A   1      45.969  27.945  33.795  1.00  0.00     0.131 A 
ATOM     82  C   UNL A   1      45.564  25.574  35.160  1.00  0.00     0.055 A 
ATOM     83  C   UNL A   1      47.067  27.232  34.278  1.00  0.00     0.041 A 
ATOM     84  F   UNL A   1      46.210  29.107  33.165  1.00  0.00    -0.206 F 
ATOM     85  C   UNL A   1      46.866  26.047  34.977  1.00  0.00     0.022 A 
BRANCH  82  86
ATOM     86  S   UNL A   1      45.265  24.112  36.191  1.00  0.00     0.124 S 
ATOM     87  O   UNL A   1      46.287  23.188  35.712  1.00  0.00    -0.237 OA
ATOM     88  O   UNL A   1      45.459  24.636  37.538  1.00  0.00    -0.237 OA
ATOM     89  O   UNL A   1      43.889  23.739  35.865  1.00  0.00    -0.744 OA
ENDBRANCH  82  86
ENDBRANCH  56  79
ENDBRANCH  30  31
ENDBRANCH  22  25
ENDBRANCH  20  21
ENDBRANCH  19  20
ENDBRANCH   1  19
TORSDOF 19
ENDMDL
