MODEL 1
REMARK VINA RESULT:     -11.9      0.000      0.000
REMARK SMILES CC[NH2+][C@]1(C(=O)NCCCNC(=O)c2ccc(-c3c4nc(c(-c5cc(S(=O)(=O)[O-])ccc5F)c5ccc([nH]5)c(-c5cc(S(=O)(=O)[O-])ccc5F)c5nc(c(-c6cc(S(=O)(=O)[O-])ccc6F)c6ccc3[nH]6)C=C5)C=C4)cc2)CCC[C@@H]1CC[N@H+]1C[C@H](C)OC[C@@H]1C
REMARK SMILES IDX 9 1 8 2 7 3 5 4 6 5 4 7 77 8 80 9 78 10 79 11 3 12 2 15 1 16
REMARK SMILES IDX 81 17 82 18 83 19 84 20 89 21 85 23 88 24 90 25 87 26 86 27
REMARK SMILES IDX 10 28 11 29 12 30 13 32 14 33 15 34 76 35 16 36 75 37 17 38
REMARK SMILES IDX 18 39 19 40 69 41 20 42 74 43 68 44 70 45 21 46 73 47 67 48
REMARK SMILES IDX 66 49 22 51 54 52 34 53 53 54 35 55 38 56 52 57 71 58 36 59
REMARK SMILES IDX 37 60 51 62 72 63 39 64 23 65 24 66 32 67 25 68 31 69 33 70
REMARK SMILES IDX 30 71 26 72 27 73 28 74 29 75 55 76 56 77 64 78 57 79 63 80
REMARK SMILES IDX 65 81 62 82 58 83 59 84 60 85 61 86 40 87 41 88 49 89 42 90
REMARK SMILES IDX 48 91 50 92 47 93 43 94 44 95 45 96 46 97
REMARK H PARENT 7 6 3 13 3 14 83 22 11 31 70 50 38 61
REMARK Flexibility Score: inf
ROOT
ATOM      1  C   UNL A   1      32.540  31.408  26.854  1.00  0.00     0.042 C 
ENDROOT
BRANCH   1   2
ATOM      2  C   UNL A   1      33.115  30.030  26.595  1.00  0.00     0.118 C 
BRANCH   2   3
ATOM      3  N   UNL A   1      32.569  29.038  27.494  1.00  0.00    -0.351 N 
ATOM      4  C   UNL A   1      31.818  27.937  27.239  1.00  0.00     0.281 C 
ATOM      5  O   UNL A   1      31.001  27.689  28.132  1.00  0.00    -0.268 OA
ATOM      6  H   UNL A   1      32.776  29.185  28.445  1.00  0.00     0.163 HD
BRANCH   4   7
ATOM      7  C   UNL A   1      31.949  27.098  25.904  1.00  0.00     0.178 C 
ATOM      8  C   UNL A   1      31.390  25.691  26.253  1.00  0.00     0.079 C 
ATOM      9  C   UNL A   1      31.056  27.611  24.711  1.00  0.00     0.066 C 
ATOM     10  C   UNL A   1      30.418  25.270  25.167  1.00  0.00     0.008 C 
ATOM     11  C   UNL A   1      29.998  26.524  24.433  1.00  0.00     0.011 C 
BRANCH   7  12
ATOM     12  N   UNL A   1      33.378  26.913  25.537  1.00  0.00    -0.334 N 
ATOM     13  H   UNL A   1      33.670  27.731  25.003  1.00  0.00     0.347 HD
ATOM     14  H   UNL A   1      33.870  26.788  26.422  1.00  0.00     0.347 HD
BRANCH  12  15
ATOM     15  C   UNL A   1      33.697  25.727  24.744  1.00  0.00     0.257 C 
ATOM     16  C   UNL A   1      34.752  24.848  25.403  1.00  0.00     0.071 C 
ENDBRANCH  12  15
ENDBRANCH   7  12
BRANCH   9  17
ATOM     17  C   UNL A   1      31.622  28.257  23.411  1.00  0.00     0.072 C 
BRANCH  17  18
ATOM     18  C   UNL A   1      30.808  29.174  22.471  1.00  0.00     0.263 C 
BRANCH  18  19
ATOM     19  N   UNL A   1      29.549  29.675  23.009  1.00  0.00    -0.329 N 
ATOM     20  C   UNL A   1      29.597  31.098  23.381  1.00  0.00     0.294 C 
ATOM     21  C   UNL A   1      28.355  29.363  22.187  1.00  0.00     0.207 C 
ATOM     22  H   UNL A   1      29.432  29.142  23.871  1.00  0.00     0.348 HD
ATOM     23  C   UNL A   1      29.048  32.142  22.395  1.00  0.00     0.170 C 
ATOM     24  C   UNL A   1      27.926  30.480  21.211  1.00  0.00     0.225 C 
ATOM     25  C   UNL A   1      27.203  29.007  23.140  1.00  0.00     0.078 C 
ATOM     26  O   UNL A   1      27.784  31.741  21.868  1.00  0.00    -0.366 OA
ATOM     27  C   UNL A   1      28.874  33.469  23.128  1.00  0.00     0.045 C 
ENDBRANCH  18  19
ENDBRANCH  17  18
ENDBRANCH   9  17
ENDBRANCH   4   7
ENDBRANCH   2   3
ENDBRANCH   1   2
BRANCH   1  28
ATOM     28  C   UNL A   1      33.542  32.362  27.474  1.00  0.00     0.118 C 
BRANCH  28  29
ATOM     29  N   UNL A   1      32.993  33.702  27.662  1.00  0.00    -0.352 N 
ATOM     30  C   UNL A   1      33.277  34.612  28.652  1.00  0.00     0.251 C 
ATOM     31  H   UNL A   1      32.332  33.991  26.992  1.00  0.00     0.163 HD
ATOM     32  O   UNL A   1      32.593  35.620  28.795  1.00  0.00    -0.269 OA
BRANCH  30  33
ATOM     33  C   UNL A   1      34.402  34.312  29.553  1.00  0.00     0.039 A 
ATOM     34  C   UNL A   1      34.167  33.620  30.741  1.00  0.00     0.014 A 
ATOM     35  C   UNL A   1      35.701  34.596  29.128  1.00  0.00     0.014 A 
ATOM     36  C   UNL A   1      35.255  33.130  31.465  1.00  0.00     0.010 A 
ATOM     37  C   UNL A   1      36.767  34.000  29.779  1.00  0.00     0.010 A 
ATOM     38  C   UNL A   1      36.558  33.270  30.960  1.00  0.00    -0.014 A 
BRANCH  38  39
ATOM     39  C   UNL A   1      37.746  32.713  31.655  1.00  0.00     0.031 A 
ATOM     40  C   UNL A   1      38.493  31.581  31.003  1.00  0.00     0.074 A 
ATOM     41  C   UNL A   1      38.075  33.132  32.892  1.00  0.00     0.049 A 
ATOM     42  N   UNL A   1      39.405  30.791  31.503  1.00  0.00    -0.248 NA
ATOM     43  C   UNL A   1      38.110  31.259  29.618  1.00  0.00     0.031 C 
ATOM     44  C   UNL A   1      37.396  34.192  33.642  1.00  0.00     0.029 A 
ATOM     45  N   UNL A   1      39.055  32.699  33.749  1.00  0.00    -0.354 N 
ATOM     46  C   UNL A   1      39.666  29.849  30.513  1.00  0.00     0.074 A 
ATOM     47  C   UNL A   1      38.763  30.127  29.417  1.00  0.00     0.031 C 
ATOM     48  C   UNL A   1      37.996  34.341  34.835  1.00  0.00     0.029 A 
ATOM     49  C   UNL A   1      39.063  33.354  34.959  1.00  0.00     0.049 A 
ATOM     50  H   UNL A   1      39.695  31.987  33.518  1.00  0.00     0.167 HD
ATOM     51  C   UNL A   1      40.592  28.861  30.507  1.00  0.00     0.034 A 
ATOM     52  C   UNL A   1      39.834  33.165  36.048  1.00  0.00     0.034 A 
ATOM     53  C   UNL A   1      41.515  28.638  31.590  1.00  0.00     0.049 A 
ATOM     54  C   UNL A   1      40.880  32.079  36.012  1.00  0.00     0.074 A 
ATOM     55  C   UNL A   1      42.540  27.714  31.676  1.00  0.00     0.029 A 
ATOM     56  N   UNL A   1      41.531  29.362  32.776  1.00  0.00    -0.354 N 
ATOM     57  N   UNL A   1      41.137  31.211  35.059  1.00  0.00    -0.248 NA
ATOM     58  C   UNL A   1      41.746  31.950  37.191  1.00  0.00     0.031 C 
ATOM     59  C   UNL A   1      43.143  27.846  32.931  1.00  0.00     0.029 A 
ATOM     60  C   UNL A   1      42.540  28.898  33.602  1.00  0.00     0.049 A 
ATOM     61  H   UNL A   1      40.914  30.098  32.997  1.00  0.00     0.167 HD
ATOM     62  C   UNL A   1      42.220  30.462  35.510  1.00  0.00     0.074 A 
ATOM     63  C   UNL A   1      42.568  30.980  36.816  1.00  0.00     0.031 C 
ATOM     64  C   UNL A   1      42.875  29.443  34.897  1.00  0.00     0.034 A 
BRANCH  51  65
ATOM     65  C   UNL A   1      40.630  27.952  29.301  1.00  0.00     0.023 A 
ATOM     66  C   UNL A   1      41.561  28.141  28.265  1.00  0.00     0.031 A 
ATOM     67  C   UNL A   1      39.687  26.920  29.156  1.00  0.00     0.131 A 
ATOM     68  C   UNL A   1      41.469  27.379  27.091  1.00  0.00     0.055 A 
ATOM     69  C   UNL A   1      39.661  26.101  28.025  1.00  0.00     0.041 A 
ATOM     70  F   UNL A   1      38.759  26.703  30.102  1.00  0.00    -0.206 F 
ATOM     71  C   UNL A   1      40.542  26.341  26.975  1.00  0.00     0.022 A 
BRANCH  68  72
ATOM     72  S   UNL A   1      42.468  27.874  25.660  1.00  0.00     0.124 S 
ATOM     73  O   UNL A   1      43.764  28.132  26.283  1.00  0.00    -0.237 OA
ATOM     74  O   UNL A   1      42.395  26.696  24.802  1.00  0.00    -0.237 OA
ATOM     75  O   UNL A   1      41.778  29.059  25.155  1.00  0.00    -0.744 OA
ENDBRANCH  68  72
ENDBRANCH  51  65
BRANCH  52  76
ATOM     76  C   UNL A   1      39.656  34.011  37.262  1.00  0.00     0.023 A 
ATOM     77  C   UNL A   1      38.987  33.515  38.393  1.00  0.00     0.031 A 
ATOM     78  C   UNL A   1      40.120  35.338  37.299  1.00  0.00     0.131 A 
ATOM     79  C   UNL A   1      38.758  34.354  39.495  1.00  0.00     0.055 A 
ATOM     80  C   UNL A   1      39.933  36.154  38.418  1.00  0.00     0.041 A 
ATOM     81  F   UNL A   1      40.775  35.858  36.250  1.00  0.00    -0.206 F 
ATOM     82  C   UNL A   1      39.236  35.666  39.520  1.00  0.00     0.022 A 
BRANCH  79  83
ATOM     83  S   UNL A   1      37.753  33.727  40.869  1.00  0.00     0.124 S 
ATOM     84  O   UNL A   1      37.380  34.960  41.552  1.00  0.00    -0.237 OA
ATOM     85  O   UNL A   1      36.679  33.033  40.165  1.00  0.00    -0.237 OA
ATOM     86  O   UNL A   1      38.677  32.862  41.599  1.00  0.00    -0.744 OA
ENDBRANCH  79  83
ENDBRANCH  52  76
BRANCH  64  87
ATOM     87  C   UNL A   1      44.079  28.877  35.602  1.00  0.00     0.023 A 
ATOM     88  C   UNL A   1      43.976  27.812  36.512  1.00  0.00     0.031 A 
ATOM     89  C   UNL A   1      45.354  29.408  35.337  1.00  0.00     0.131 A 
ATOM     90  C   UNL A   1      45.128  27.336  37.157  1.00  0.00     0.055 A 
ATOM     91  C   UNL A   1      46.501  28.896  35.942  1.00  0.00     0.041 A 
ATOM     92  F   UNL A   1      45.504  30.425  34.474  1.00  0.00    -0.206 F 
ATOM     93  C   UNL A   1      46.391  27.861  36.865  1.00  0.00     0.022 A 
BRANCH  90  94
ATOM     94  S   UNL A   1      44.948  26.061  38.433  1.00  0.00     0.124 S 
ATOM     95  O   UNL A   1      44.481  26.838  39.576  1.00  0.00    -0.237 OA
ATOM     96  O   UNL A   1      43.971  25.156  37.836  1.00  0.00    -0.237 OA
ATOM     97  O   UNL A   1      46.297  25.514  38.565  1.00  0.00    -0.744 OA
ENDBRANCH  90  94
ENDBRANCH  64  87
ENDBRANCH  38  39
ENDBRANCH  30  33
ENDBRANCH  28  29
ENDBRANCH   1  28
TORSDOF 18
ENDMDL
MODEL 2
REMARK VINA RESULT:     -11.8      1.519      1.900
REMARK SMILES CC[NH2+][C@]1(C(=O)NCCCNC(=O)c2ccc(-c3c4nc(c(-c5cc(S(=O)(=O)[O-])ccc5F)c5ccc([nH]5)c(-c5cc(S(=O)(=O)[O-])ccc5F)c5nc(c(-c6cc(S(=O)(=O)[O-])ccc6F)c6ccc3[nH]6)C=C5)C=C4)cc2)CCC[C@@H]1CC[N@H+]1C[C@H](C)OC[C@@H]1C
REMARK SMILES IDX 9 1 8 2 7 3 5 4 6 5 4 7 77 8 80 9 78 10 79 11 3 12 2 15 1 16
REMARK SMILES IDX 81 17 82 18 83 19 84 20 89 21 85 23 88 24 90 25 87 26 86 27
REMARK SMILES IDX 10 28 11 29 12 30 13 32 14 33 15 34 76 35 16 36 75 37 17 38
REMARK SMILES IDX 18 39 19 40 69 41 20 42 74 43 68 44 70 45 21 46 73 47 67 48
REMARK SMILES IDX 66 49 22 51 54 52 34 53 53 54 35 55 38 56 52 57 71 58 36 59
REMARK SMILES IDX 37 60 51 62 72 63 39 64 23 65 24 66 32 67 25 68 31 69 33 70
REMARK SMILES IDX 30 71 26 72 27 73 28 74 29 75 55 76 56 77 64 78 57 79 63 80
REMARK SMILES IDX 65 81 62 82 58 83 59 84 60 85 61 86 40 87 41 88 49 89 42 90
REMARK SMILES IDX 48 91 50 92 47 93 43 94 44 95 45 96 46 97
REMARK H PARENT 7 6 3 13 3 14 83 22 11 31 70 50 38 61
REMARK Flexibility Score: inf
ROOT
ATOM      1  C   UNL A   1      31.498  31.829  26.531  1.00  0.00     0.042 C 
ENDROOT
BRANCH   1   2
ATOM      2  C   UNL A   1      31.767  30.424  26.031  1.00  0.00     0.118 C 
BRANCH   2   3
ATOM      3  N   UNL A   1      31.921  29.483  27.117  1.00  0.00    -0.351 N 
ATOM      4  C   UNL A   1      31.677  28.150  27.168  1.00  0.00     0.281 C 
ATOM      5  O   UNL A   1      31.274  27.771  28.274  1.00  0.00    -0.268 OA
ATOM      6  H   UNL A   1      32.259  29.872  27.956  1.00  0.00     0.163 HD
BRANCH   4   7
ATOM      7  C   UNL A   1      31.842  27.197  25.916  1.00  0.00     0.178 C 
ATOM      8  C   UNL A   1      31.344  25.806  26.396  1.00  0.00     0.079 C 
ATOM      9  C   UNL A   1      30.927  27.559  24.685  1.00  0.00     0.066 C 
ATOM     10  C   UNL A   1      30.390  25.244  25.358  1.00  0.00     0.008 C 
ATOM     11  C   UNL A   1      29.916  26.407  24.514  1.00  0.00     0.011 C 
BRANCH   7  12
ATOM     12  N   UNL A   1      33.278  27.040  25.561  1.00  0.00    -0.334 N 
ATOM     13  H   UNL A   1      33.409  27.420  24.624  1.00  0.00     0.347 HD
ATOM     14  H   UNL A   1      33.793  27.529  26.293  1.00  0.00     0.347 HD
BRANCH  12  15
ATOM     15  C   UNL A   1      33.802  25.675  25.564  1.00  0.00     0.257 C 
ATOM     16  C   UNL A   1      34.152  25.179  24.168  1.00  0.00     0.071 C 
ENDBRANCH  12  15
ENDBRANCH   7  12
BRANCH   9  17
ATOM     17  C   UNL A   1      31.463  28.105  23.328  1.00  0.00     0.072 C 
BRANCH  17  18
ATOM     18  C   UNL A   1      30.840  29.294  22.562  1.00  0.00     0.263 C 
BRANCH  18  19
ATOM     19  N   UNL A   1      29.550  29.759  23.057  1.00  0.00    -0.329 N 
ATOM     20  C   UNL A   1      29.542  31.187  23.413  1.00  0.00     0.294 C 
ATOM     21  C   UNL A   1      28.392  29.400  22.204  1.00  0.00     0.207 C 
ATOM     22  H   UNL A   1      29.425  29.233  23.922  1.00  0.00     0.348 HD
ATOM     23  C   UNL A   1      28.989  32.202  22.399  1.00  0.00     0.170 C 
ATOM     24  C   UNL A   1      27.956  30.492  21.203  1.00  0.00     0.225 C 
ATOM     25  C   UNL A   1      27.224  29.018  23.128  1.00  0.00     0.078 C 
ATOM     26  O   UNL A   1      27.755  31.755  21.840  1.00  0.00    -0.366 OA
ATOM     27  C   UNL A   1      28.752  33.530  23.110  1.00  0.00     0.045 C 
ENDBRANCH  18  19
ENDBRANCH  17  18
ENDBRANCH   9  17
ENDBRANCH   4   7
ENDBRANCH   2   3
ENDBRANCH   1   2
BRANCH   1  28
ATOM     28  C   UNL A   1      32.764  32.608  26.823  1.00  0.00     0.118 C 
BRANCH  28  29
ATOM     29  N   UNL A   1      32.509  33.814  27.607  1.00  0.00    -0.352 N 
ATOM     30  C   UNL A   1      33.187  34.278  28.709  1.00  0.00     0.251 C 
ATOM     31  H   UNL A   1      31.752  34.366  27.307  1.00  0.00     0.163 HD
ATOM     32  O   UNL A   1      32.737  35.199  29.381  1.00  0.00    -0.269 OA
BRANCH  30  33
ATOM     33  C   UNL A   1      34.444  33.604  29.072  1.00  0.00     0.039 A 
ATOM     34  C   UNL A   1      35.662  34.237  28.823  1.00  0.00     0.014 A 
ATOM     35  C   UNL A   1      34.385  32.409  29.791  1.00  0.00     0.014 A 
ATOM     36  C   UNL A   1      36.825  33.708  29.384  1.00  0.00     0.010 A 
ATOM     37  C   UNL A   1      35.519  31.963  30.448  1.00  0.00     0.010 A 
ATOM     38  C   UNL A   1      36.754  32.600  30.243  1.00  0.00    -0.014 A 
BRANCH  38  39
ATOM     39  C   UNL A   1      37.950  32.035  30.917  1.00  0.00     0.031 A 
ATOM     40  C   UNL A   1      38.769  31.008  30.184  1.00  0.00     0.074 A 
ATOM     41  C   UNL A   1      38.224  32.346  32.199  1.00  0.00     0.049 A 
ATOM     42  N   UNL A   1      39.706  30.217  30.634  1.00  0.00    -0.248 NA
ATOM     43  C   UNL A   1      38.440  30.805  28.763  1.00  0.00     0.031 C 
ATOM     44  C   UNL A   1      37.472  33.294  33.026  1.00  0.00     0.029 A 
ATOM     45  N   UNL A   1      39.202  31.879  33.040  1.00  0.00    -0.354 N 
ATOM     46  C   UNL A   1      40.040  29.390  29.566  1.00  0.00     0.074 A 
ATOM     47  C   UNL A   1      39.154  29.730  28.474  1.00  0.00     0.031 C 
ATOM     48  C   UNL A   1      38.033  33.355  34.246  1.00  0.00     0.029 A 
ATOM     49  C   UNL A   1      39.145  32.413  34.307  1.00  0.00     0.049 A 
ATOM     50  H   UNL A   1      39.882  31.223  32.763  1.00  0.00     0.167 HD
ATOM     51  C   UNL A   1      41.014  28.452  29.495  1.00  0.00     0.034 A 
ATOM     52  C   UNL A   1      39.895  32.154  35.397  1.00  0.00     0.034 A 
ATOM     53  C   UNL A   1      41.918  28.169  30.580  1.00  0.00     0.049 A 
ATOM     54  C   UNL A   1      40.994  31.128  35.289  1.00  0.00     0.074 A 
ATOM     55  C   UNL A   1      42.985  27.290  30.609  1.00  0.00     0.029 A 
ATOM     56  N   UNL A   1      41.866  28.773  31.830  1.00  0.00    -0.354 N 
ATOM     57  N   UNL A   1      41.320  30.370  34.266  1.00  0.00    -0.248 NA
ATOM     58  C   UNL A   1      41.834  30.926  36.477  1.00  0.00     0.031 C 
ATOM     59  C   UNL A   1      43.548  27.327  31.889  1.00  0.00     0.029 A 
ATOM     60  C   UNL A   1      42.874  28.279  32.639  1.00  0.00     0.049 A 
ATOM     61  H   UNL A   1      41.208  29.454  32.100  1.00  0.00     0.167 HD
ATOM     62  C   UNL A   1      42.427  29.633  34.676  1.00  0.00     0.074 A 
ATOM     63  C   UNL A   1      42.714  30.036  36.037  1.00  0.00     0.031 C 
ATOM     64  C   UNL A   1      43.147  28.710  33.989  1.00  0.00     0.034 A 
BRANCH  51  65
ATOM     65  C   UNL A   1      41.130  27.668  28.209  1.00  0.00     0.023 A 
ATOM     66  C   UNL A   1      40.735  26.321  28.129  1.00  0.00     0.031 A 
ATOM     67  C   UNL A   1      41.696  28.255  27.064  1.00  0.00     0.131 A 
ATOM     68  C   UNL A   1      41.000  25.581  26.967  1.00  0.00     0.055 A 
ATOM     69  C   UNL A   1      41.869  27.538  25.879  1.00  0.00     0.041 A 
ATOM     70  F   UNL A   1      42.112  29.532  27.084  1.00  0.00    -0.206 F 
ATOM     71  C   UNL A   1      41.539  26.187  25.831  1.00  0.00     0.022 A 
BRANCH  68  72
ATOM     72  S   UNL A   1      40.780  23.781  27.023  1.00  0.00     0.124 S 
ATOM     73  O   UNL A   1      41.257  23.469  28.368  1.00  0.00    -0.237 OA
ATOM     74  O   UNL A   1      39.345  23.632  26.805  1.00  0.00    -0.237 OA
ATOM     75  O   UNL A   1      41.631  23.298  25.938  1.00  0.00    -0.744 OA
ENDBRANCH  68  72
ENDBRANCH  51  65
BRANCH  52  76
ATOM     76  C   UNL A   1      39.642  32.869  36.680  1.00  0.00     0.023 A 
ATOM     77  C   UNL A   1      38.701  32.382  37.602  1.00  0.00     0.031 A 
ATOM     78  C   UNL A   1      40.310  34.067  36.991  1.00  0.00     0.131 A 
ATOM     79  C   UNL A   1      38.418  33.111  38.768  1.00  0.00     0.055 A 
ATOM     80  C   UNL A   1      40.061  34.764  38.176  1.00  0.00     0.041 A 
ATOM     81  F   UNL A   1      41.227  34.571  36.151  1.00  0.00    -0.206 F 
ATOM     82  C   UNL A   1      39.100  34.294  39.066  1.00  0.00     0.022 A 
BRANCH  79  83
ATOM     83  S   UNL A   1      37.085  32.532  39.852  1.00  0.00     0.124 S 
ATOM     84  O   UNL A   1      37.547  31.194  40.203  1.00  0.00    -0.237 OA
ATOM     85  O   UNL A   1      37.114  33.523  40.923  1.00  0.00    -0.237 OA
ATOM     86  O   UNL A   1      35.903  32.580  38.994  1.00  0.00    -0.744 OA
ENDBRANCH  79  83
ENDBRANCH  52  76
BRANCH  64  87
ATOM     87  C   UNL A   1      44.359  28.136  34.674  1.00  0.00     0.023 A 
ATOM     88  C   UNL A   1      44.284  26.989  35.481  1.00  0.00     0.031 A 
ATOM     89  C   UNL A   1      45.614  28.745  34.494  1.00  0.00     0.131 A 
ATOM     90  C   UNL A   1      45.441  26.507  36.112  1.00  0.00     0.055 A 
ATOM     91  C   UNL A   1      46.769  28.231  35.083  1.00  0.00     0.041 A 
ATOM     92  F   UNL A   1      45.737  29.843  33.732  1.00  0.00    -0.206 F 
ATOM     93  C   UNL A   1      46.685  27.111  35.905  1.00  0.00     0.022 A 
BRANCH  90  94
ATOM     94  S   UNL A   1      45.289  25.114  37.262  1.00  0.00     0.124 S 
ATOM     95  O   UNL A   1      44.094  24.438  36.766  1.00  0.00    -0.237 OA
ATOM     96  O   UNL A   1      46.550  24.406  37.065  1.00  0.00    -0.237 OA
ATOM     97  O   UNL A   1      45.140  25.759  38.566  1.00  0.00    -0.744 OA
ENDBRANCH  90  94
ENDBRANCH  64  87
ENDBRANCH  38  39
ENDBRANCH  30  33
ENDBRANCH  28  29
ENDBRANCH   1  28
TORSDOF 18
ENDMDL
MODEL 3
REMARK VINA RESULT:     -11.5      2.070      3.962
REMARK SMILES CC[NH2+][C@]1(C(=O)NCCCNC(=O)c2ccc(-c3c4nc(c(-c5cc(S(=O)(=O)[O-])ccc5F)c5ccc([nH]5)c(-c5cc(S(=O)(=O)[O-])ccc5F)c5nc(c(-c6cc(S(=O)(=O)[O-])ccc6F)c6ccc3[nH]6)C=C5)C=C4)cc2)CCC[C@@H]1CC[N@H+]1C[C@H](C)OC[C@@H]1C
REMARK SMILES IDX 9 1 8 2 7 3 5 4 6 5 4 7 77 8 80 9 78 10 79 11 3 12 2 15 1 16
REMARK SMILES IDX 81 17 82 18 83 19 84 20 89 21 85 23 88 24 90 25 87 26 86 27
REMARK SMILES IDX 10 28 11 29 12 30 13 32 14 33 15 34 76 35 16 36 75 37 17 38
REMARK SMILES IDX 18 39 19 40 69 41 20 42 74 43 68 44 70 45 21 46 73 47 67 48
REMARK SMILES IDX 66 49 22 51 54 52 34 53 53 54 35 55 38 56 52 57 71 58 36 59
REMARK SMILES IDX 37 60 51 62 72 63 39 64 23 65 24 66 32 67 25 68 31 69 33 70
REMARK SMILES IDX 30 71 26 72 27 73 28 74 29 75 55 76 56 77 64 78 57 79 63 80
REMARK SMILES IDX 65 81 62 82 58 83 59 84 60 85 61 86 40 87 41 88 49 89 42 90
REMARK SMILES IDX 48 91 50 92 47 93 43 94 44 95 45 96 46 97
REMARK H PARENT 7 6 3 13 3 14 83 22 11 31 70 50 38 61
REMARK Flexibility Score: inf
ROOT
ATOM      1  C   UNL A   1      31.506  32.086  26.576  1.00  0.00     0.042 C 
ENDROOT
BRANCH   1   2
ATOM      2  C   UNL A   1      31.665  30.682  26.029  1.00  0.00     0.118 C 
BRANCH   2   3
ATOM      3  N   UNL A   1      31.813  29.704  27.084  1.00  0.00    -0.351 N 
ATOM      4  C   UNL A   1      31.638  28.359  27.068  1.00  0.00     0.281 C 
ATOM      5  O   UNL A   1      31.199  27.913  28.134  1.00  0.00    -0.268 OA
ATOM      6  H   UNL A   1      32.086  30.074  27.954  1.00  0.00     0.163 HD
BRANCH   4   7
ATOM      7  C   UNL A   1      31.918  27.470  25.789  1.00  0.00     0.178 C 
ATOM      8  C   UNL A   1      31.381  28.302  24.592  1.00  0.00     0.079 C 
ATOM      9  C   UNL A   1      33.443  27.232  25.472  1.00  0.00     0.066 C 
ATOM     10  C   UNL A   1      32.433  28.320  23.499  1.00  0.00     0.008 C 
ATOM     11  C   UNL A   1      33.752  27.953  24.144  1.00  0.00     0.011 C 
BRANCH   7  12
ATOM     12  N   UNL A   1      31.120  26.217  25.834  1.00  0.00    -0.334 N 
ATOM     13  H   UNL A   1      31.749  25.440  25.634  1.00  0.00     0.347 HD
ATOM     14  H   UNL A   1      30.702  26.195  26.764  1.00  0.00     0.347 HD
BRANCH  12  15
ATOM     15  C   UNL A   1      29.997  26.129  24.902  1.00  0.00     0.257 C 
ATOM     16  C   UNL A   1      30.179  25.026  23.868  1.00  0.00     0.071 C 
ENDBRANCH  12  15
ENDBRANCH   7  12
BRANCH   9  17
ATOM     17  C   UNL A   1      34.157  25.852  25.596  1.00  0.00     0.072 C 
BRANCH  17  18
ATOM     18  C   UNL A   1      33.769  24.598  24.781  1.00  0.00     0.263 C 
BRANCH  18  19
ATOM     19  N   UNL A   1      33.410  23.421  25.562  1.00  0.00    -0.329 N 
ATOM     20  C   UNL A   1      32.671  22.410  24.790  1.00  0.00     0.294 C 
ATOM     21  C   UNL A   1      34.530  22.818  26.325  1.00  0.00     0.207 C 
ATOM     22  H   UNL A   1      32.770  23.791  26.266  1.00  0.00     0.348 HD
ATOM     23  C   UNL A   1      33.437  21.211  24.212  1.00  0.00     0.170 C 
ATOM     24  C   UNL A   1      35.241  21.644  25.620  1.00  0.00     0.225 C 
ATOM     25  C   UNL A   1      33.986  22.376  27.693  1.00  0.00     0.078 C 
ATOM     26  O   UNL A   1      34.320  20.644  25.180  1.00  0.00    -0.366 OA
ATOM     27  C   UNL A   1      32.435  20.144  23.781  1.00  0.00     0.045 C 
ENDBRANCH  18  19
ENDBRANCH  17  18
ENDBRANCH   9  17
ENDBRANCH   4   7
ENDBRANCH   2   3
ENDBRANCH   1   2
BRANCH   1  28
ATOM     28  C   UNL A   1      32.784  32.638  27.174  1.00  0.00     0.118 C 
BRANCH  28  29
ATOM     29  N   UNL A   1      32.587  33.938  27.811  1.00  0.00    -0.352 N 
ATOM     30  C   UNL A   1      33.281  34.492  28.859  1.00  0.00     0.251 C 
ATOM     31  H   UNL A   1      31.859  34.489  27.441  1.00  0.00     0.163 HD
ATOM     32  O   UNL A   1      32.875  35.507  29.415  1.00  0.00    -0.269 OA
BRANCH  30  33
ATOM     33  C   UNL A   1      34.502  33.803  29.310  1.00  0.00     0.039 A 
ATOM     34  C   UNL A   1      35.751  34.315  28.960  1.00  0.00     0.014 A 
ATOM     35  C   UNL A   1      34.383  32.736  30.201  1.00  0.00     0.014 A 
ATOM     36  C   UNL A   1      36.889  33.806  29.586  1.00  0.00     0.010 A 
ATOM     37  C   UNL A   1      35.498  32.324  30.909  1.00  0.00     0.010 A 
ATOM     38  C   UNL A   1      36.765  32.846  30.602  1.00  0.00    -0.014 A 
BRANCH  38  39
ATOM     39  C   UNL A   1      37.936  32.315  31.345  1.00  0.00     0.031 A 
ATOM     40  C   UNL A   1      38.752  31.220  30.712  1.00  0.00     0.074 A 
ATOM     41  C   UNL A   1      38.189  32.720  32.605  1.00  0.00     0.049 A 
ATOM     42  N   UNL A   1      39.664  30.451  31.243  1.00  0.00    -0.248 NA
ATOM     43  C   UNL A   1      38.449  30.912  29.304  1.00  0.00     0.031 C 
ATOM     44  C   UNL A   1      37.438  33.743  33.339  1.00  0.00     0.029 A 
ATOM     45  N   UNL A   1      39.140  32.304  33.502  1.00  0.00    -0.354 N 
ATOM     46  C   UNL A   1      40.005  29.537  30.251  1.00  0.00     0.074 A 
ATOM     47  C   UNL A   1      39.149  29.806  29.117  1.00  0.00     0.031 C 
ATOM     48  C   UNL A   1      37.973  33.889  34.562  1.00  0.00     0.029 A 
ATOM     49  C   UNL A   1      39.065  32.936  34.722  1.00  0.00     0.049 A 
ATOM     50  H   UNL A   1      39.813  31.617  33.292  1.00  0.00     0.167 HD
ATOM     51  C   UNL A   1      40.963  28.580  30.275  1.00  0.00     0.034 A 
ATOM     52  C   UNL A   1      39.787  32.750  35.845  1.00  0.00     0.034 A 
ATOM     53  C   UNL A   1      41.839  28.368  31.399  1.00  0.00     0.049 A 
ATOM     54  C   UNL A   1      40.870  31.700  35.842  1.00  0.00     0.074 A 
ATOM     55  C   UNL A   1      42.888  27.476  31.520  1.00  0.00     0.029 A 
ATOM     56  N   UNL A   1      41.772  29.069  32.597  1.00  0.00    -0.354 N 
ATOM     57  N   UNL A   1      41.203  30.860  34.889  1.00  0.00    -0.248 NA
ATOM     58  C   UNL A   1      41.680  31.578  37.061  1.00  0.00     0.031 C 
ATOM     59  C   UNL A   1      43.424  27.603  32.806  1.00  0.00     0.029 A 
ATOM     60  C   UNL A   1      42.753  28.622  33.464  1.00  0.00     0.049 A 
ATOM     61  H   UNL A   1      41.120  29.779  32.799  1.00  0.00     0.167 HD
ATOM     62  C   UNL A   1      42.287  30.138  35.380  1.00  0.00     0.074 A 
ATOM     63  C   UNL A   1      42.552  30.642  36.711  1.00  0.00     0.031 C 
ATOM     64  C   UNL A   1      43.005  29.153  34.783  1.00  0.00     0.034 A 
BRANCH  51  65
ATOM     65  C   UNL A   1      41.092  27.697  29.057  1.00  0.00     0.023 A 
ATOM     66  C   UNL A   1      42.117  27.886  28.114  1.00  0.00     0.031 A 
ATOM     67  C   UNL A   1      40.144  26.690  28.803  1.00  0.00     0.131 A 
ATOM     68  C   UNL A   1      42.116  27.151  26.920  1.00  0.00     0.055 A 
ATOM     69  C   UNL A   1      40.203  25.896  27.656  1.00  0.00     0.041 A 
ATOM     70  F   UNL A   1      39.129  26.475  29.655  1.00  0.00    -0.206 F 
ATOM     71  C   UNL A   1      41.182  26.137  26.696  1.00  0.00     0.022 A 
BRANCH  68  72
ATOM     72  S   UNL A   1      43.251  27.652  25.597  1.00  0.00     0.124 S 
ATOM     73  O   UNL A   1      43.930  26.393  25.300  1.00  0.00    -0.237 OA
ATOM     74  O   UNL A   1      42.340  28.144  24.568  1.00  0.00    -0.237 OA
ATOM     75  O   UNL A   1      44.087  28.670  26.230  1.00  0.00    -0.744 OA
ENDBRANCH  68  72
ENDBRANCH  51  65
BRANCH  52  76
ATOM     76  C   UNL A   1      39.520  33.568  37.063  1.00  0.00     0.023 A 
ATOM     77  C   UNL A   1      40.272  34.723  37.333  1.00  0.00     0.031 A 
ATOM     78  C   UNL A   1      38.534  33.190  37.992  1.00  0.00     0.131 A 
ATOM     79  C   UNL A   1      40.060  35.434  38.525  1.00  0.00     0.055 A 
ATOM     80  C   UNL A   1      38.294  33.929  39.153  1.00  0.00     0.041 A 
ATOM     81  F   UNL A   1      37.780  32.101  37.777  1.00  0.00    -0.206 F 
ATOM     82  C   UNL A   1      39.068  35.051  39.431  1.00  0.00     0.022 A 
BRANCH  79  83
ATOM     83  S   UNL A   1      41.157  36.825  38.912  1.00  0.00     0.124 S 
ATOM     84  O   UNL A   1      41.898  36.976  37.664  1.00  0.00    -0.237 OA
ATOM     85  O   UNL A   1      40.204  37.884  39.224  1.00  0.00    -0.237 OA
ATOM     86  O   UNL A   1      41.937  36.337  40.047  1.00  0.00    -0.744 OA
ENDBRANCH  79  83
ENDBRANCH  52  76
BRANCH  64  87
ATOM     87  C   UNL A   1      44.191  28.613  35.538  1.00  0.00     0.023 A 
ATOM     88  C   UNL A   1      44.065  27.582  36.482  1.00  0.00     0.031 A 
ATOM     89  C   UNL A   1      45.472  29.136  35.286  1.00  0.00     0.131 A 
ATOM     90  C   UNL A   1      45.201  27.130  37.172  1.00  0.00     0.055 A 
ATOM     91  C   UNL A   1      46.604  28.647  35.938  1.00  0.00     0.041 A 
ATOM     92  F   UNL A   1      45.644  30.122  34.392  1.00  0.00    -0.206 F 
ATOM     93  C   UNL A   1      46.470  27.645  36.893  1.00  0.00     0.022 A 
BRANCH  90  94
ATOM     94  S   UNL A   1      44.988  25.901  38.488  1.00  0.00     0.124 S 
ATOM     95  O   UNL A   1      44.294  24.824  37.789  1.00  0.00    -0.237 OA
ATOM     96  O   UNL A   1      46.365  25.621  38.881  1.00  0.00    -0.237 OA
ATOM     97  O   UNL A   1      44.190  26.605  39.490  1.00  0.00    -0.744 OA
ENDBRANCH  90  94
ENDBRANCH  64  87
ENDBRANCH  38  39
ENDBRANCH  30  33
ENDBRANCH  28  29
ENDBRANCH   1  28
TORSDOF 18
ENDMDL
