MODEL 1
REMARK VINA RESULT:     -12.1      0.000      0.000
REMARK SMILES NS(=O)(=O)c1ccc(N2N=C(C(=O)NCCCNC(=O)c3ccc(-c4c5nc(c(-c6cc(S(=O)(=O)[O-])ccc6F)c6ccc([nH]6)c(-c6cc(S(=O)(=O)[O-])ccc6F)c6nc(c(-c7cc(S(=O)(=O)[O-])ccc7F)c7ccc4[nH]7)C=C6)C=C5)cc3)C[C@H]2c2cccs2)cc1
REMARK SMILES IDX 16 1 15 2 14 3 12 4 13 5 11 7 9 8 10 9 85 10 84 11 8 12 5 13
REMARK SMILES IDX 6 14 92 15 7 16 91 17 2 18 3 19 4 20 1 21 86 24 87 25 90 26
REMARK SMILES IDX 88 27 89 28 17 29 18 30 19 31 20 33 21 34 22 35 83 36 23 37
REMARK SMILES IDX 82 38 24 39 25 40 26 41 76 42 27 43 81 44 75 45 77 46 28 47
REMARK SMILES IDX 80 48 74 49 73 50 29 52 61 53 41 54 60 55 42 56 45 57 59 58
REMARK SMILES IDX 78 59 43 60 44 61 58 63 79 64 46 65 30 66 31 67 39 68 32 69
REMARK SMILES IDX 38 70 40 71 37 72 33 73 34 74 35 75 36 76 62 77 63 78 71 79
REMARK SMILES IDX 64 80 70 81 72 82 69 83 65 84 66 85 67 86 68 87 47 88 48 89
REMARK SMILES IDX 56 90 49 91 55 92 57 93 54 94 50 95 51 96 52 97 53 98
REMARK H PARENT 14 6 1 22 1 23 18 32 77 51 45 62
REMARK Flexibility Score: inf
ROOT
ATOM      1  C   UNL A   1      36.619  23.017  24.044  1.00  0.00     0.042 C 
ENDROOT
BRANCH   1   2
ATOM      2  C   UNL A   1      35.353  23.726  23.588  1.00  0.00     0.118 C 
BRANCH   2   3
ATOM      3  N   UNL A   1      34.162  22.982  23.955  1.00  0.00    -0.351 N 
ATOM      4  C   UNL A   1      32.953  23.300  24.520  1.00  0.00     0.267 C 
ATOM      5  O   UNL A   1      32.187  22.374  24.774  1.00  0.00    -0.268 OA
ATOM      6  H   UNL A   1      34.240  22.022  23.750  1.00  0.00     0.163 HD
BRANCH   4   7
ATOM      7  C   UNL A   1      32.486  24.720  24.798  1.00  0.00     0.128 C 
ATOM      8  N   UNL A   1      31.864  26.724  24.370  1.00  0.00    -0.256 N 
ATOM      9  N   UNL A   1      32.097  25.494  23.830  1.00  0.00    -0.171 NA
ATOM     10  C   UNL A   1      31.988  26.752  25.834  1.00  0.00     0.154 C 
ATOM     11  C   UNL A   1      32.414  25.318  26.160  1.00  0.00     0.097 C 
BRANCH   8  12
ATOM     12  C   UNL A   1      30.987  27.604  23.733  1.00  0.00     0.060 A 
ATOM     13  C   UNL A   1      29.255  29.473  22.550  1.00  0.00     0.082 A 
ATOM     14  C   UNL A   1      28.736  28.296  23.097  1.00  0.00     0.024 A 
ATOM     15  C   UNL A   1      30.628  29.712  22.562  1.00  0.00     0.024 A 
ATOM     16  C   UNL A   1      29.606  27.363  23.674  1.00  0.00     0.029 A 
ATOM     17  C   UNL A   1      31.481  28.777  23.147  1.00  0.00     0.029 A 
BRANCH  13  18
ATOM     18  S   UNL A   1      28.174  30.664  21.825  1.00  0.00     0.238 S 
ATOM     19  O   UNL A   1      27.139  31.011  22.781  1.00  0.00    -0.207 OA
ATOM     20  O   UNL A   1      27.874  30.264  20.477  1.00  0.00    -0.207 OA
BRANCH  18  21
ATOM     21  N   UNL A   1      29.135  32.035  21.716  1.00  0.00    -0.225 NA
ATOM     22  H   UNL A   1      28.660  32.740  21.151  1.00  0.00     0.137 HD
ATOM     23  H   UNL A   1      30.024  31.793  21.278  1.00  0.00     0.137 HD
ENDBRANCH  18  21
ENDBRANCH  13  18
ENDBRANCH   8  12
BRANCH  10  24
ATOM     24  C   UNL A   1      32.902  27.826  26.420  1.00  0.00     0.030 A 
ATOM     25  C   UNL A   1      34.288  27.806  26.452  1.00  0.00     0.017 A 
ATOM     26  S   UNL A   1      32.315  29.256  27.175  1.00  0.00    -0.147 S 
ATOM     27  C   UNL A   1      34.851  28.969  27.050  1.00  0.00     0.012 A 
ATOM     28  C   UNL A   1      33.883  29.869  27.429  1.00  0.00     0.065 A 
ENDBRANCH  10  24
ENDBRANCH   4   7
ENDBRANCH   2   3
ENDBRANCH   1   2
BRANCH   1  29
ATOM     29  C   UNL A   1      36.887  23.197  25.532  1.00  0.00     0.118 C 
BRANCH  29  30
ATOM     30  N   UNL A   1      37.958  22.325  26.001  1.00  0.00    -0.352 N 
ATOM     31  C   UNL A   1      39.199  22.634  26.499  1.00  0.00     0.251 C 
ATOM     32  H   UNL A   1      37.760  21.362  25.951  1.00  0.00     0.163 HD
ATOM     33  O   UNL A   1      40.048  21.750  26.581  1.00  0.00    -0.269 OA
BRANCH  31  34
ATOM     34  C   UNL A   1      39.511  24.016  26.917  1.00  0.00     0.039 A 
ATOM     35  C   UNL A   1      39.263  24.404  28.236  1.00  0.00     0.014 A 
ATOM     36  C   UNL A   1      40.030  24.938  26.004  1.00  0.00     0.014 A 
ATOM     37  C   UNL A   1      39.600  25.694  28.652  1.00  0.00     0.010 A 
ATOM     38  C   UNL A   1      40.459  26.184  26.444  1.00  0.00     0.010 A 
ATOM     39  C   UNL A   1      40.238  26.581  27.770  1.00  0.00    -0.014 A 
BRANCH  39  40
ATOM     40  C   UNL A   1      40.666  27.936  28.202  1.00  0.00     0.031 A 
ATOM     41  C   UNL A   1      42.126  28.301  28.189  1.00  0.00     0.074 A 
ATOM     42  C   UNL A   1      39.749  28.807  28.670  1.00  0.00     0.049 A 
ATOM     43  N   UNL A   1      42.712  29.389  28.620  1.00  0.00    -0.248 NA
ATOM     44  C   UNL A   1      43.053  27.293  27.653  1.00  0.00     0.031 C 
ATOM     45  C   UNL A   1      38.310  28.550  28.767  1.00  0.00     0.029 A 
ATOM     46  N   UNL A   1      39.891  30.080  29.162  1.00  0.00    -0.354 N 
ATOM     47  C   UNL A   1      44.075  29.188  28.423  1.00  0.00     0.074 A 
ATOM     48  C   UNL A   1      44.229  27.849  27.900  1.00  0.00     0.031 C 
ATOM     49  C   UNL A   1      37.701  29.641  29.258  1.00  0.00     0.029 A 
ATOM     50  C   UNL A   1      38.706  30.653  29.563  1.00  0.00     0.049 A 
ATOM     51  H   UNL A   1      40.759  30.540  29.223  1.00  0.00     0.167 HD
ATOM     52  C   UNL A   1      45.097  30.052  28.633  1.00  0.00     0.034 A 
ATOM     53  C   UNL A   1      38.459  31.852  30.128  1.00  0.00     0.034 A 
ATOM     54  C   UNL A   1      44.920  31.390  29.142  1.00  0.00     0.049 A 
ATOM     55  C   UNL A   1      39.617  32.785  30.380  1.00  0.00     0.074 A 
ATOM     56  C   UNL A   1      45.877  32.369  29.345  1.00  0.00     0.029 A 
ATOM     57  N   UNL A   1      43.704  31.937  29.537  1.00  0.00    -0.354 N 
ATOM     58  N   UNL A   1      40.896  32.599  30.143  1.00  0.00    -0.248 NA
ATOM     59  C   UNL A   1      39.298  34.093  30.967  1.00  0.00     0.031 C 
ATOM     60  C   UNL A   1      45.254  33.476  29.929  1.00  0.00     0.029 A 
ATOM     61  C   UNL A   1      43.893  33.225  30.012  1.00  0.00     0.049 A 
ATOM     62  H   UNL A   1      42.836  31.475  29.485  1.00  0.00     0.167 HD
ATOM     63  C   UNL A   1      41.527  33.782  30.519  1.00  0.00     0.074 A 
ATOM     64  C   UNL A   1      40.486  34.676  30.985  1.00  0.00     0.031 C 
ATOM     65  C   UNL A   1      42.846  34.102  30.481  1.00  0.00     0.034 A 
BRANCH  52  66
ATOM     66  C   UNL A   1      46.496  29.561  28.336  1.00  0.00     0.023 A 
ATOM     67  C   UNL A   1      47.283  28.932  29.318  1.00  0.00     0.031 A 
ATOM     68  C   UNL A   1      47.063  29.748  27.063  1.00  0.00     0.131 A 
ATOM     69  C   UNL A   1      48.613  28.588  29.037  1.00  0.00     0.055 A 
ATOM     70  C   UNL A   1      48.359  29.322  26.763  1.00  0.00     0.041 A 
ATOM     71  F   UNL A   1      46.372  30.363  26.090  1.00  0.00    -0.206 F 
ATOM     72  C   UNL A   1      49.149  28.753  27.758  1.00  0.00     0.022 A 
BRANCH  69  73
ATOM     73  S   UNL A   1      49.679  28.067  30.409  1.00  0.00     0.124 S 
ATOM     74  O   UNL A   1      49.249  26.685  30.606  1.00  0.00    -0.237 OA
ATOM     75  O   UNL A   1      51.017  28.247  29.855  1.00  0.00    -0.237 OA
ATOM     76  O   UNL A   1      49.322  28.982  31.489  1.00  0.00    -0.744 OA
ENDBRANCH  69  73
ENDBRANCH  52  66
BRANCH  53  77
ATOM     77  C   UNL A   1      37.070  32.241  30.502  1.00  0.00     0.023 A 
ATOM     78  C   UNL A   1      36.212  32.845  29.569  1.00  0.00     0.031 A 
ATOM     79  C   UNL A   1      36.590  32.057  31.811  1.00  0.00     0.131 A 
ATOM     80  C   UNL A   1      34.942  33.288  29.968  1.00  0.00     0.055 A 
ATOM     81  C   UNL A   1      35.304  32.447  32.189  1.00  0.00     0.041 A 
ATOM     82  F   UNL A   1      37.366  31.480  32.743  1.00  0.00    -0.206 F 
ATOM     83  C   UNL A   1      34.477  33.081  31.269  1.00  0.00     0.022 A 
BRANCH  80  84
ATOM     84  S   UNL A   1      33.940  34.230  28.786  1.00  0.00     0.124 S 
ATOM     85  O   UNL A   1      33.587  33.203  27.811  1.00  0.00    -0.237 OA
ATOM     86  O   UNL A   1      32.853  34.714  29.630  1.00  0.00    -0.237 OA
ATOM     87  O   UNL A   1      34.859  35.259  28.305  1.00  0.00    -0.744 OA
ENDBRANCH  80  84
ENDBRANCH  53  77
BRANCH  65  88
ATOM     88  C   UNL A   1      43.226  35.500  30.905  1.00  0.00     0.023 A 
ATOM     89  C   UNL A   1      43.311  35.868  32.259  1.00  0.00     0.031 A 
ATOM     90  C   UNL A   1      43.500  36.482  29.935  1.00  0.00     0.131 A 
ATOM     91  C   UNL A   1      43.604  37.196  32.605  1.00  0.00     0.055 A 
ATOM     92  C   UNL A   1      43.857  37.784  30.287  1.00  0.00     0.041 A 
ATOM     93  F   UNL A   1      43.429  36.189  28.627  1.00  0.00    -0.206 F 
ATOM     94  C   UNL A   1      43.897  38.150  31.629  1.00  0.00     0.022 A 
BRANCH  91  95
ATOM     95  S   UNL A   1      43.501  37.684  34.349  1.00  0.00     0.124 S 
ATOM     96  O   UNL A   1      43.459  39.140  34.255  1.00  0.00    -0.237 OA
ATOM     97  O   UNL A   1      42.266  37.038  34.782  1.00  0.00    -0.237 OA
ATOM     98  O   UNL A   1      44.724  37.135  34.932  1.00  0.00    -0.744 OA
ENDBRANCH  91  95
ENDBRANCH  65  88
ENDBRANCH  39  40
ENDBRANCH  31  34
ENDBRANCH  29  30
ENDBRANCH   1  29
TORSDOF 17
ENDMDL
MODEL 2
REMARK VINA RESULT:     -11.9      3.512      8.334
REMARK SMILES NS(=O)(=O)c1ccc(N2N=C(C(=O)NCCCNC(=O)c3ccc(-c4c5nc(c(-c6cc(S(=O)(=O)[O-])ccc6F)c6ccc([nH]6)c(-c6cc(S(=O)(=O)[O-])ccc6F)c6nc(c(-c7cc(S(=O)(=O)[O-])ccc7F)c7ccc4[nH]7)C=C6)C=C5)cc3)C[C@H]2c2cccs2)cc1
REMARK SMILES IDX 16 1 15 2 14 3 12 4 13 5 11 7 9 8 10 9 85 10 84 11 8 12 5 13
REMARK SMILES IDX 6 14 92 15 7 16 91 17 2 18 3 19 4 20 1 21 86 24 87 25 90 26
REMARK SMILES IDX 88 27 89 28 17 29 18 30 19 31 20 33 21 34 22 35 83 36 23 37
REMARK SMILES IDX 82 38 24 39 25 40 26 41 76 42 27 43 81 44 75 45 77 46 28 47
REMARK SMILES IDX 80 48 74 49 73 50 29 52 61 53 41 54 60 55 42 56 45 57 59 58
REMARK SMILES IDX 78 59 43 60 44 61 58 63 79 64 46 65 30 66 31 67 39 68 32 69
REMARK SMILES IDX 38 70 40 71 37 72 33 73 34 74 35 75 36 76 62 77 63 78 71 79
REMARK SMILES IDX 64 80 70 81 72 82 69 83 65 84 66 85 67 86 68 87 47 88 48 89
REMARK SMILES IDX 56 90 49 91 55 92 57 93 54 94 50 95 51 96 52 97 53 98
REMARK H PARENT 14 6 1 22 1 23 18 32 77 51 45 62
REMARK Flexibility Score: inf
ROOT
ATOM      1  C   UNL A   1      34.445  22.582  25.895  1.00  0.00     0.042 C 
ENDROOT
BRANCH   1   2
ATOM      2  C   UNL A   1      33.730  22.672  27.235  1.00  0.00     0.118 C 
BRANCH   2   3
ATOM      3  N   UNL A   1      32.293  22.523  27.085  1.00  0.00    -0.351 N 
ATOM      4  C   UNL A   1      31.269  23.341  26.684  1.00  0.00     0.267 C 
ATOM      5  O   UNL A   1      30.126  22.897  26.764  1.00  0.00    -0.268 OA
ATOM      6  H   UNL A   1      31.981  21.622  27.331  1.00  0.00     0.163 HD
BRANCH   4   7
ATOM      7  C   UNL A   1      31.463  24.732  26.100  1.00  0.00     0.128 C 
ATOM      8  N   UNL A   1      31.732  26.856  26.083  1.00  0.00    -0.256 N 
ATOM      9  N   UNL A   1      31.743  25.742  26.868  1.00  0.00    -0.171 NA
ATOM     10  C   UNL A   1      31.549  26.563  24.654  1.00  0.00     0.154 C 
ATOM     11  C   UNL A   1      31.375  25.042  24.647  1.00  0.00     0.097 C 
BRANCH   8  12
ATOM     12  C   UNL A   1      32.460  27.983  26.470  1.00  0.00     0.060 A 
ATOM     13  C   UNL A   1      33.968  30.177  27.366  1.00  0.00     0.082 A 
ATOM     14  C   UNL A   1      32.580  30.291  27.250  1.00  0.00     0.024 A 
ATOM     15  C   UNL A   1      34.612  28.992  27.014  1.00  0.00     0.024 A 
ATOM     16  C   UNL A   1      31.835  29.197  26.791  1.00  0.00     0.029 A 
ATOM     17  C   UNL A   1      33.857  27.909  26.566  1.00  0.00     0.029 A 
BRANCH  13  18
ATOM     18  S   UNL A   1      34.922  31.542  27.950  1.00  0.00     0.238 S 
ATOM     19  O   UNL A   1      34.244  32.778  27.607  1.00  0.00    -0.207 OA
ATOM     20  O   UNL A   1      36.307  31.311  27.639  1.00  0.00    -0.207 OA
BRANCH  18  21
ATOM     21  N   UNL A   1      34.778  31.422  29.618  1.00  0.00    -0.225 NA
ATOM     22  H   UNL A   1      34.031  30.767  29.849  1.00  0.00     0.137 HD
ATOM     23  H   UNL A   1      34.558  32.339  30.007  1.00  0.00     0.137 HD
ENDBRANCH  18  21
ENDBRANCH  13  18
ENDBRANCH   8  12
BRANCH  10  24
ATOM     24  C   UNL A   1      30.437  27.325  23.939  1.00  0.00     0.030 A 
ATOM     25  C   UNL A   1      29.100  26.962  23.864  1.00  0.00     0.017 A 
ATOM     26  S   UNL A   1      30.701  28.786  23.069  1.00  0.00    -0.147 S 
ATOM     27  C   UNL A   1      28.306  27.896  23.139  1.00  0.00     0.012 A 
ATOM     28  C   UNL A   1      29.047  28.970  22.707  1.00  0.00     0.065 A 
ENDBRANCH  10  24
ENDBRANCH   4   7
ENDBRANCH   2   3
ENDBRANCH   1   2
BRANCH   1  29
ATOM     29  C   UNL A   1      35.914  22.969  25.990  1.00  0.00     0.118 C 
BRANCH  29  30
ATOM     30  N   UNL A   1      36.791  21.812  25.845  1.00  0.00    -0.352 N 
ATOM     31  C   UNL A   1      38.160  21.728  25.878  1.00  0.00     0.251 C 
ATOM     32  H   UNL A   1      36.327  20.956  25.701  1.00  0.00     0.163 HD
ATOM     33  O   UNL A   1      38.708  20.709  25.465  1.00  0.00    -0.269 OA
BRANCH  31  34
ATOM     34  C   UNL A   1      38.965  22.858  26.389  1.00  0.00     0.039 A 
ATOM     35  C   UNL A   1      40.070  22.596  27.202  1.00  0.00     0.014 A 
ATOM     36  C   UNL A   1      38.618  24.176  26.085  1.00  0.00     0.014 A 
ATOM     37  C   UNL A   1      40.864  23.655  27.650  1.00  0.00     0.010 A 
ATOM     38  C   UNL A   1      39.464  25.217  26.444  1.00  0.00     0.010 A 
ATOM     39  C   UNL A   1      40.590  24.970  27.241  1.00  0.00    -0.014 A 
BRANCH  39  40
ATOM     40  C   UNL A   1      41.454  26.108  27.649  1.00  0.00     0.031 A 
ATOM     41  C   UNL A   1      40.914  27.163  28.577  1.00  0.00     0.074 A 
ATOM     42  C   UNL A   1      42.692  26.226  27.130  1.00  0.00     0.049 A 
ATOM     43  N   UNL A   1      41.467  28.282  28.970  1.00  0.00    -0.248 NA
ATOM     44  C   UNL A   1      39.557  26.948  29.101  1.00  0.00     0.031 C 
ATOM     45  C   UNL A   1      43.309  25.286  26.191  1.00  0.00     0.029 A 
ATOM     46  N   UNL A   1      43.652  27.190  27.309  1.00  0.00    -0.354 N 
ATOM     47  C   UNL A   1      40.520  28.909  29.774  1.00  0.00     0.074 A 
ATOM     48  C   UNL A   1      39.335  28.079  29.752  1.00  0.00     0.031 C 
ATOM     49  C   UNL A   1      44.551  25.704  25.901  1.00  0.00     0.029 A 
ATOM     50  C   UNL A   1      44.802  26.968  26.586  1.00  0.00     0.049 A 
ATOM     51  H   UNL A   1      43.530  27.968  27.900  1.00  0.00     0.167 HD
ATOM     52  C   UNL A   1      40.639  30.057  30.485  1.00  0.00     0.034 A 
ATOM     53  C   UNL A   1      45.924  27.706  26.475  1.00  0.00     0.034 A 
ATOM     54  C   UNL A   1      41.835  30.863  30.506  1.00  0.00     0.049 A 
ATOM     55  C   UNL A   1      46.022  28.995  27.252  1.00  0.00     0.074 A 
ATOM     56  C   UNL A   1      42.086  32.015  31.230  1.00  0.00     0.029 A 
ATOM     57  N   UNL A   1      42.980  30.606  29.761  1.00  0.00    -0.354 N 
ATOM     58  N   UNL A   1      45.135  29.550  28.047  1.00  0.00    -0.248 NA
ATOM     59  C   UNL A   1      47.274  29.750  27.126  1.00  0.00     0.031 C 
ATOM     60  C   UNL A   1      43.350  32.493  30.869  1.00  0.00     0.029 A 
ATOM     61  C   UNL A   1      43.926  31.595  29.984  1.00  0.00     0.049 A 
ATOM     62  H   UNL A   1      43.102  29.833  29.162  1.00  0.00     0.167 HD
ATOM     63  C   UNL A   1      45.741  30.703  28.542  1.00  0.00     0.074 A 
ATOM     64  C   UNL A   1      47.069  30.752  27.967  1.00  0.00     0.031 C 
ATOM     65  C   UNL A   1      45.245  31.634  29.397  1.00  0.00     0.034 A 
BRANCH  52  66
ATOM     66  C   UNL A   1      39.434  30.516  31.275  1.00  0.00     0.023 A 
ATOM     67  C   UNL A   1      38.653  31.611  30.863  1.00  0.00     0.031 A 
ATOM     68  C   UNL A   1      39.075  29.868  32.470  1.00  0.00     0.131 A 
ATOM     69  C   UNL A   1      37.609  32.073  31.677  1.00  0.00     0.055 A 
ATOM     70  C   UNL A   1      37.979  30.279  33.231  1.00  0.00     0.041 A 
ATOM     71  F   UNL A   1      39.794  28.831  32.929  1.00  0.00    -0.206 F 
ATOM     72  C   UNL A   1      37.247  31.399  32.845  1.00  0.00     0.022 A 
BRANCH  69  73
ATOM     73  S   UNL A   1      36.832  33.661  31.267  1.00  0.00     0.124 S 
ATOM     74  O   UNL A   1      37.652  34.596  32.033  1.00  0.00    -0.237 OA
ATOM     75  O   UNL A   1      36.980  33.720  29.817  1.00  0.00    -0.237 OA
ATOM     76  O   UNL A   1      35.462  33.507  31.749  1.00  0.00    -0.744 OA
ENDBRANCH  69  73
ENDBRANCH  52  66
BRANCH  53  77
ATOM     77  C   UNL A   1      47.040  27.259  25.594  1.00  0.00     0.023 A 
ATOM     78  C   UNL A   1      47.217  27.809  24.315  1.00  0.00     0.031 A 
ATOM     79  C   UNL A   1      47.923  26.241  25.999  1.00  0.00     0.131 A 
ATOM     80  C   UNL A   1      48.216  27.306  23.467  1.00  0.00     0.055 A 
ATOM     81  C   UNL A   1      48.952  25.784  25.174  1.00  0.00     0.041 A 
ATOM     82  F   UNL A   1      47.803  25.682  27.214  1.00  0.00    -0.206 F 
ATOM     83  C   UNL A   1      49.093  26.306  23.893  1.00  0.00     0.022 A 
BRANCH  80  84
ATOM     84  S   UNL A   1      48.290  27.911  21.759  1.00  0.00     0.124 S 
ATOM     85  O   UNL A   1      47.093  28.742  21.686  1.00  0.00    -0.237 OA
ATOM     86  O   UNL A   1      49.565  28.620  21.746  1.00  0.00    -0.237 OA
ATOM     87  O   UNL A   1      48.250  26.687  20.962  1.00  0.00    -0.744 OA
ENDBRANCH  80  84
ENDBRANCH  53  77
BRANCH  65  88
ATOM     88  C   UNL A   1      46.170  32.756  29.802  1.00  0.00     0.023 A 
ATOM     89  C   UNL A   1      46.228  33.966  29.088  1.00  0.00     0.031 A 
ATOM     90  C   UNL A   1      47.013  32.608  30.918  1.00  0.00     0.131 A 
ATOM     91  C   UNL A   1      47.150  34.955  29.462  1.00  0.00     0.055 A 
ATOM     92  C   UNL A   1      47.880  33.622  31.326  1.00  0.00     0.041 A 
ATOM     93  F   UNL A   1      47.004  31.472  31.635  1.00  0.00    -0.206 F 
ATOM     94  C   UNL A   1      47.961  34.798  30.588  1.00  0.00     0.022 A 
BRANCH  91  95
ATOM     95  S   UNL A   1      47.345  36.411  28.398  1.00  0.00     0.124 S 
ATOM     96  O   UNL A   1      46.336  36.172  27.370  1.00  0.00    -0.237 OA
ATOM     97  O   UNL A   1      47.069  37.509  29.318  1.00  0.00    -0.237 OA
ATOM     98  O   UNL A   1      48.731  36.319  27.941  1.00  0.00    -0.744 OA
ENDBRANCH  91  95
ENDBRANCH  65  88
ENDBRANCH  39  40
ENDBRANCH  31  34
ENDBRANCH  29  30
ENDBRANCH   1  29
TORSDOF 17
ENDMDL
MODEL 3
REMARK VINA RESULT:     -11.9      4.574      7.787
REMARK SMILES NS(=O)(=O)c1ccc(N2N=C(C(=O)NCCCNC(=O)c3ccc(-c4c5nc(c(-c6cc(S(=O)(=O)[O-])ccc6F)c6ccc([nH]6)c(-c6cc(S(=O)(=O)[O-])ccc6F)c6nc(c(-c7cc(S(=O)(=O)[O-])ccc7F)c7ccc4[nH]7)C=C6)C=C5)cc3)C[C@H]2c2cccs2)cc1
REMARK SMILES IDX 16 1 15 2 14 3 12 4 13 5 11 7 9 8 10 9 85 10 84 11 8 12 5 13
REMARK SMILES IDX 6 14 92 15 7 16 91 17 2 18 3 19 4 20 1 21 86 24 87 25 90 26
REMARK SMILES IDX 88 27 89 28 17 29 18 30 19 31 20 33 21 34 22 35 83 36 23 37
REMARK SMILES IDX 82 38 24 39 25 40 26 41 76 42 27 43 81 44 75 45 77 46 28 47
REMARK SMILES IDX 80 48 74 49 73 50 29 52 61 53 41 54 60 55 42 56 45 57 59 58
REMARK SMILES IDX 78 59 43 60 44 61 58 63 79 64 46 65 30 66 31 67 39 68 32 69
REMARK SMILES IDX 38 70 40 71 37 72 33 73 34 74 35 75 36 76 62 77 63 78 71 79
REMARK SMILES IDX 64 80 70 81 72 82 69 83 65 84 66 85 67 86 68 87 47 88 48 89
REMARK SMILES IDX 56 90 49 91 55 92 57 93 54 94 50 95 51 96 52 97 53 98
REMARK H PARENT 14 6 1 22 1 23 18 32 77 51 45 62
REMARK Flexibility Score: inf
ROOT
ATOM      1  C   UNL A   1      33.808  28.189  23.738  1.00  0.00     0.042 C 
ENDROOT
BRANCH   1   2
ATOM      2  C   UNL A   1      32.458  27.594  23.370  1.00  0.00     0.118 C 
BRANCH   2   3
ATOM      3  N   UNL A   1      32.531  26.819  22.145  1.00  0.00    -0.351 N 
ATOM      4  C   UNL A   1      33.009  25.578  21.807  1.00  0.00     0.267 C 
ATOM      5  O   UNL A   1      32.986  25.267  20.619  1.00  0.00    -0.268 OA
ATOM      6  H   UNL A   1      32.149  27.297  21.374  1.00  0.00     0.163 HD
BRANCH   4   7
ATOM      7  C   UNL A   1      33.512  24.553  22.812  1.00  0.00     0.128 C 
ATOM      8  N   UNL A   1      34.903  23.254  23.793  1.00  0.00    -0.256 N 
ATOM      9  N   UNL A   1      34.780  24.286  22.911  1.00  0.00    -0.171 NA
ATOM     10  C   UNL A   1      33.634  22.873  24.429  1.00  0.00     0.154 C 
ATOM     11  C   UNL A   1      32.628  23.809  23.751  1.00  0.00     0.097 C 
BRANCH   8  12
ATOM     12  C   UNL A   1      36.104  23.072  24.482  1.00  0.00     0.060 A 
ATOM     13  C   UNL A   1      38.460  22.595  25.934  1.00  0.00     0.082 A 
ATOM     14  C   UNL A   1      37.753  23.784  26.132  1.00  0.00     0.024 A 
ATOM     15  C   UNL A   1      38.020  21.657  25.002  1.00  0.00     0.024 A 
ATOM     16  C   UNL A   1      36.585  24.021  25.396  1.00  0.00     0.029 A 
ATOM     17  C   UNL A   1      36.852  21.904  24.282  1.00  0.00     0.029 A 
BRANCH  13  18
ATOM     18  S   UNL A   1      39.929  22.274  26.859  1.00  0.00     0.238 S 
ATOM     19  O   UNL A   1      40.021  20.852  27.128  1.00  0.00    -0.207 OA
ATOM     20  O   UNL A   1      40.054  23.264  27.895  1.00  0.00    -0.207 OA
BRANCH  18  21
ATOM     21  N   UNL A   1      41.151  22.582  25.751  1.00  0.00    -0.225 NA
ATOM     22  H   UNL A   1      41.033  23.519  25.364  1.00  0.00     0.137 HD
ATOM     23  H   UNL A   1      41.108  21.896  24.998  1.00  0.00     0.137 HD
ENDBRANCH  18  21
ENDBRANCH  13  18
ENDBRANCH   8  12
BRANCH  10  24
ATOM     24  C   UNL A   1      33.255  21.395  24.365  1.00  0.00     0.030 A 
ATOM     25  C   UNL A   1      33.610  20.410  25.274  1.00  0.00     0.017 A 
ATOM     26  S   UNL A   1      32.320  20.714  23.091  1.00  0.00    -0.147 S 
ATOM     27  C   UNL A   1      33.082  19.129  24.945  1.00  0.00     0.012 A 
ATOM     28  C   UNL A   1      32.306  19.171  23.811  1.00  0.00     0.065 A 
ENDBRANCH  10  24
ENDBRANCH   4   7
ENDBRANCH   2   3
ENDBRANCH   1   2
BRANCH   1  29
ATOM     29  C   UNL A   1      33.913  28.528  25.219  1.00  0.00     0.118 C 
BRANCH  29  30
ATOM     30  N   UNL A   1      33.182  29.746  25.550  1.00  0.00    -0.352 N 
ATOM     31  C   UNL A   1      33.328  30.606  26.610  1.00  0.00     0.251 C 
ATOM     32  H   UNL A   1      32.471  29.989  24.914  1.00  0.00     0.163 HD
ATOM     33  O   UNL A   1      32.438  31.418  26.848  1.00  0.00    -0.269 OA
BRANCH  31  34
ATOM     34  C   UNL A   1      34.535  30.545  27.460  1.00  0.00     0.039 A 
ATOM     35  C   UNL A   1      34.849  29.352  28.115  1.00  0.00     0.014 A 
ATOM     36  C   UNL A   1      35.347  31.669  27.629  1.00  0.00     0.014 A 
ATOM     37  C   UNL A   1      36.013  29.271  28.882  1.00  0.00     0.010 A 
ATOM     38  C   UNL A   1      36.554  31.558  28.307  1.00  0.00     0.010 A 
ATOM     39  C   UNL A   1      36.896  30.360  28.951  1.00  0.00    -0.014 A 
BRANCH  39  40
ATOM     40  C   UNL A   1      38.172  30.282  29.706  1.00  0.00     0.031 A 
ATOM     41  C   UNL A   1      39.341  29.528  29.129  1.00  0.00     0.074 A 
ATOM     42  C   UNL A   1      38.254  30.828  30.937  1.00  0.00     0.049 A 
ATOM     43  N   UNL A   1      40.500  29.257  29.671  1.00  0.00    -0.248 NA
ATOM     44  C   UNL A   1      39.165  28.974  27.779  1.00  0.00     0.031 C 
ATOM     45  C   UNL A   1      37.174  31.549  31.615  1.00  0.00     0.029 A 
ATOM     46  N   UNL A   1      39.286  30.853  31.840  1.00  0.00    -0.354 N 
ATOM     47  C   UNL A   1      41.184  28.488  28.734  1.00  0.00     0.074 A 
ATOM     48  C   UNL A   1      40.281  28.280  27.624  1.00  0.00     0.031 C 
ATOM     49  C   UNL A   1      37.611  31.970  32.813  1.00  0.00     0.029 A 
ATOM     50  C   UNL A   1      38.979  31.503  33.014  1.00  0.00     0.049 A 
ATOM     51  H   UNL A   1      40.164  30.443  31.666  1.00  0.00     0.167 HD
ATOM     52  C   UNL A   1      42.457  28.024  28.785  1.00  0.00     0.034 A 
ATOM     53  C   UNL A   1      39.711  31.689  34.130  1.00  0.00     0.034 A 
ATOM     54  C   UNL A   1      43.347  28.256  29.896  1.00  0.00     0.049 A 
ATOM     55  C   UNL A   1      41.114  31.137  34.176  1.00  0.00     0.074 A 
ATOM     56  C   UNL A   1      44.671  27.879  30.034  1.00  0.00     0.029 A 
ATOM     57  N   UNL A   1      43.001  28.920  31.068  1.00  0.00    -0.354 N 
ATOM     58  N   UNL A   1      41.763  30.454  33.261  1.00  0.00    -0.248 NA
ATOM     59  C   UNL A   1      41.885  31.390  35.400  1.00  0.00     0.031 C 
ATOM     60  C   UNL A   1      45.102  28.248  31.312  1.00  0.00     0.029 A 
ATOM     61  C   UNL A   1      44.076  28.934  31.943  1.00  0.00     0.049 A 
ATOM     62  H   UNL A   1      42.120  29.323  31.248  1.00  0.00     0.167 HD
ATOM     63  C   UNL A   1      43.033  30.228  33.789  1.00  0.00     0.074 A 
ATOM     64  C   UNL A   1      43.058  30.859  35.092  1.00  0.00     0.031 C 
ATOM     65  C   UNL A   1      44.083  29.562  33.244  1.00  0.00     0.034 A 
BRANCH  52  66
ATOM     66  C   UNL A   1      42.945  27.199  27.616  1.00  0.00     0.023 A 
ATOM     67  C   UNL A   1      43.169  25.815  27.731  1.00  0.00     0.031 A 
ATOM     68  C   UNL A   1      43.217  27.806  26.378  1.00  0.00     0.131 A 
ATOM     69  C   UNL A   1      43.724  25.104  26.657  1.00  0.00     0.055 A 
ATOM     70  C   UNL A   1      43.686  27.075  25.285  1.00  0.00     0.041 A 
ATOM     71  F   UNL A   1      43.046  29.128  26.212  1.00  0.00    -0.206 F 
ATOM     72  C   UNL A   1      43.958  25.717  25.425  1.00  0.00     0.022 A 
BRANCH  69  73
ATOM     73  S   UNL A   1      44.281  23.401  26.945  1.00  0.00     0.124 S 
ATOM     74  O   UNL A   1      43.348  22.957  27.978  1.00  0.00    -0.237 OA
ATOM     75  O   UNL A   1      44.117  22.789  25.631  1.00  0.00    -0.237 OA
ATOM     76  O   UNL A   1      45.662  23.561  27.391  1.00  0.00    -0.744 OA
ENDBRANCH  69  73
ENDBRANCH  52  66
BRANCH  53  77
ATOM     77  C   UNL A   1      39.138  32.418  35.298  1.00  0.00     0.023 A 
ATOM     78  C   UNL A   1      38.601  31.722  36.392  1.00  0.00     0.031 A 
ATOM     79  C   UNL A   1      39.078  33.823  35.320  1.00  0.00     0.131 A 
ATOM     80  C   UNL A   1      37.982  32.427  37.436  1.00  0.00     0.055 A 
ATOM     81  C   UNL A   1      38.514  34.522  36.387  1.00  0.00     0.041 A 
ATOM     82  F   UNL A   1      39.582  34.540  34.302  1.00  0.00    -0.206 F 
ATOM     83  C   UNL A   1      37.947  33.823  37.447  1.00  0.00     0.022 A 
BRANCH  80  84
ATOM     84  S   UNL A   1      37.134  31.487  38.735  1.00  0.00     0.124 S 
ATOM     85  O   UNL A   1      35.889  32.233  38.877  1.00  0.00    -0.237 OA
ATOM     86  O   UNL A   1      37.025  30.165  38.128  1.00  0.00    -0.237 OA
ATOM     87  O   UNL A   1      38.049  31.576  39.871  1.00  0.00    -0.744 OA
ENDBRANCH  80  84
ENDBRANCH  53  77
BRANCH  65  88
ATOM     88  C   UNL A   1      45.366  29.533  34.039  1.00  0.00     0.023 A 
ATOM     89  C   UNL A   1      45.650  28.504  34.953  1.00  0.00     0.031 A 
ATOM     90  C   UNL A   1      46.315  30.559  33.884  1.00  0.00     0.131 A 
ATOM     91  C   UNL A   1      46.825  28.553  35.719  1.00  0.00     0.055 A 
ATOM     92  C   UNL A   1      47.513  30.567  34.599  1.00  0.00     0.041 A 
ATOM     93  F   UNL A   1      46.095  31.571  33.029  1.00  0.00    -0.206 F 
ATOM     94  C   UNL A   1      47.767  29.568  35.533  1.00  0.00     0.022 A 
BRANCH  91  95
ATOM     95  S   UNL A   1      47.060  27.326  37.033  1.00  0.00     0.124 S 
ATOM     96  O   UNL A   1      47.105  26.077  36.277  1.00  0.00    -0.237 OA
ATOM     97  O   UNL A   1      48.319  27.751  37.636  1.00  0.00    -0.237 OA
ATOM     98  O   UNL A   1      45.879  27.498  37.878  1.00  0.00    -0.744 OA
ENDBRANCH  91  95
ENDBRANCH  65  88
ENDBRANCH  39  40
ENDBRANCH  31  34
ENDBRANCH  29  30
ENDBRANCH   1  29
TORSDOF 17
ENDMDL
