MODEL 1
REMARK VINA RESULT:     -13.3      0.000      0.000
REMARK SMILES O=C(CN1C(=O)/C(=C2\SC(N3CCN(c4ccccc4F)CC3)=[NH+]C2=O)c2ccccc21)NCCCNC(=O)c1ccc(-c2c3nc(c(-c4cc(S(=O)(=O)[O-])ccc4F)c4ccc([nH]4)c(-c4cc(S(=O)(=O)[O-])ccc4F)c4nc(c(-c5cc(S(=O)(=O)[O-])ccc5F)c5ccc2[nH]5)C=C4)C=C3)cc1
REMARK SMILES IDX 35 1 34 2 33 3 1 4 2 5 3 7 4 8 5 9 32 10 6 11 7 12 27 13
REMARK SMILES IDX 31 14 8 15 28 16 30 17 9 18 25 19 29 20 10 21 24 22 26 23
REMARK SMILES IDX 11 24 12 26 23 27 13 28 22 29 14 30 15 31 16 32 20 33 17 34
REMARK SMILES IDX 19 35 21 36 18 37 36 38 37 39 38 40 39 42 40 43 41 44 102 45
REMARK SMILES IDX 42 46 101 47 43 48 44 49 45 50 95 51 46 52 100 53 94 54
REMARK SMILES IDX 96 55 47 56 99 57 93 58 92 59 48 61 80 62 60 63 79 64 61 65
REMARK SMILES IDX 64 66 78 67 97 68 62 69 63 70 77 72 98 73 65 74 49 75 50 76
REMARK SMILES IDX 58 77 51 78 57 79 59 80 56 81 52 82 53 83 54 84 55 85 81 86
REMARK SMILES IDX 82 87 90 88 83 89 89 90 91 91 88 92 84 93 85 94 86 95 87 96
REMARK SMILES IDX 66 97 67 98 75 99 68 100 74 101 76 102 73 103 69 104 70 105
REMARK SMILES IDX 71 106 72 107
REMARK H PARENT 33 6 24 25 37 41 96 60 64 71
REMARK Flexibility Score: inf
ROOT
ATOM      1  C   UNL A   1      38.037  20.351  25.416  1.00  0.00     0.042 C 
ENDROOT
BRANCH   1   2
ATOM      2  C   UNL A   1      37.568  21.477  24.505  1.00  0.00     0.117 C 
BRANCH   2   3
ATOM      3  N   UNL A   1      36.144  21.717  24.623  1.00  0.00    -0.354 N 
ATOM      4  O   UNL A   1      35.997  23.384  23.040  1.00  0.00    -0.273 OA
ATOM      5  C   UNL A   1      35.468  22.664  23.883  1.00  0.00     0.240 C 
ATOM      6  H   UNL A   1      35.632  21.174  25.265  1.00  0.00     0.163 HD
BRANCH   5   7
ATOM      7  C   UNL A   1      33.990  22.793  24.244  1.00  0.00     0.225 C 
BRANCH   7   8
ATOM      8  N   UNL A   1      33.467  24.080  23.836  1.00  0.00    -0.298 N 
ATOM      9  C   UNL A   1      33.181  25.096  24.731  1.00  0.00     0.260 C 
ATOM     10  C   UNL A   1      33.139  24.446  22.527  1.00  0.00     0.053 A 
ATOM     11  O   UNL A   1      33.248  24.998  25.944  1.00  0.00    -0.269 OA
ATOM     12  C   UNL A   1      32.668  26.253  23.894  1.00  0.00     0.071 C 
ATOM     13  C   UNL A   1      32.648  25.764  22.498  1.00  0.00     0.012 A 
ATOM     14  C   UNL A   1      33.290  23.679  21.381  1.00  0.00     0.027 A 
ATOM     15  C   UNL A   1      32.346  27.437  24.448  1.00  0.00     0.122 C 
ATOM     16  C   UNL A   1      32.359  26.341  21.271  1.00  0.00     0.011 A 
ATOM     17  C   UNL A   1      32.974  24.262  20.157  1.00  0.00     0.002 A 
ATOM     18  S   UNL A   1      32.764  27.927  26.057  1.00  0.00     0.007 SA
ATOM     19  C   UNL A   1      31.639  28.597  23.813  1.00  0.00     0.347 C 
ATOM     20  C   UNL A   1      32.518  25.585  20.102  1.00  0.00     0.001 A 
ATOM     21  C   UNL A   1      32.264  29.564  25.725  1.00  0.00     0.319 C 
ATOM     22  N   UNL A   1      31.690  29.739  24.583  1.00  0.00    -0.200 N 
ATOM     23  O   UNL A   1      31.033  28.538  22.755  1.00  0.00    -0.240 OA
ATOM     24  N   UNL A   1      32.484  30.538  26.658  1.00  0.00    -0.252 N 
ATOM     25  H   UNL A   1      31.323  30.604  24.290  1.00  0.00     0.316 HD
ATOM     26  C   UNL A   1      33.668  30.581  27.535  1.00  0.00     0.258 C 
ATOM     27  C   UNL A   1      31.450  31.542  26.963  1.00  0.00     0.258 C 
ATOM     28  C   UNL A   1      34.269  32.005  27.574  1.00  0.00     0.162 C 
ATOM     29  C   UNL A   1      32.034  32.963  27.083  1.00  0.00     0.162 C 
ATOM     30  N   UNL A   1      33.218  32.954  27.951  1.00  0.00    -0.361 N 
BRANCH  30  31
ATOM     31  C   UNL A   1      33.480  34.005  28.805  1.00  0.00     0.073 A 
ATOM     32  C   UNL A   1      33.121  35.305  28.420  1.00  0.00     0.029 A 
ATOM     33  C   UNL A   1      34.043  33.848  30.082  1.00  0.00     0.146 A 
ATOM     34  C   UNL A   1      33.296  36.396  29.277  1.00  0.00     0.002 A 
ATOM     35  C   UNL A   1      34.243  34.933  30.937  1.00  0.00     0.041 A 
ATOM     36  F   UNL A   1      34.425  32.631  30.506  1.00  0.00    -0.205 F 
ATOM     37  C   UNL A   1      33.860  36.211  30.537  1.00  0.00     0.003 A 
ENDBRANCH  30  31
ENDBRANCH   7   8
ENDBRANCH   5   7
ENDBRANCH   2   3
ENDBRANCH   1   2
BRANCH   1  38
ATOM     38  C   UNL A   1      39.380  20.603  26.093  1.00  0.00     0.118 C 
BRANCH  38  39
ATOM     39  N   UNL A   1      40.299  19.473  26.021  1.00  0.00    -0.352 N 
ATOM     40  C   UNL A   1      41.672  19.446  26.136  1.00  0.00     0.251 C 
ATOM     41  H   UNL A   1      39.875  18.598  25.868  1.00  0.00     0.163 HD
ATOM     42  O   UNL A   1      42.281  18.398  25.940  1.00  0.00    -0.269 OA
BRANCH  40  43
ATOM     43  C   UNL A   1      42.410  20.692  26.446  1.00  0.00     0.039 A 
ATOM     44  C   UNL A   1      42.590  21.104  27.766  1.00  0.00     0.014 A 
ATOM     45  C   UNL A   1      42.886  21.485  25.396  1.00  0.00     0.014 A 
ATOM     46  C   UNL A   1      43.041  22.393  28.028  1.00  0.00     0.010 A 
ATOM     47  C   UNL A   1      43.439  22.740  25.670  1.00  0.00     0.010 A 
ATOM     48  C   UNL A   1      43.460  23.235  26.983  1.00  0.00    -0.014 A 
BRANCH  48  49
ATOM     49  C   UNL A   1      43.898  24.625  27.293  1.00  0.00     0.031 A 
ATOM     50  C   UNL A   1      45.318  25.063  27.044  1.00  0.00     0.074 A 
ATOM     51  C   UNL A   1      42.993  25.515  27.748  1.00  0.00     0.049 A 
ATOM     52  N   UNL A   1      45.859  26.243  27.224  1.00  0.00    -0.248 NA
ATOM     53  C   UNL A   1      46.258  24.053  26.531  1.00  0.00     0.031 C 
ATOM     54  C   UNL A   1      41.589  25.208  28.021  1.00  0.00     0.029 A 
ATOM     55  N   UNL A   1      43.103  26.852  28.039  1.00  0.00    -0.354 N 
ATOM     56  C   UNL A   1      47.197  26.112  26.866  1.00  0.00     0.074 A 
ATOM     57  C   UNL A   1      47.398  24.730  26.496  1.00  0.00     0.031 C 
ATOM     58  C   UNL A   1      40.957  26.331  28.383  1.00  0.00     0.029 A 
ATOM     59  C   UNL A   1      41.923  27.424  28.452  1.00  0.00     0.049 A 
ATOM     60  H   UNL A   1      43.947  27.353  27.961  1.00  0.00     0.167 HD
ATOM     61  C   UNL A   1      48.161  27.064  26.830  1.00  0.00     0.034 A 
ATOM     62  C   UNL A   1      41.642  28.681  28.859  1.00  0.00     0.034 A 
ATOM     63  C   UNL A   1      47.937  28.446  27.178  1.00  0.00     0.049 A 
ATOM     64  C   UNL A   1      42.741  29.711  28.846  1.00  0.00     0.074 A 
ATOM     65  C   UNL A   1      48.843  29.491  27.135  1.00  0.00     0.029 A 
ATOM     66  N   UNL A   1      46.736  28.978  27.625  1.00  0.00    -0.354 N 
ATOM     67  N   UNL A   1      43.985  29.583  28.451  1.00  0.00    -0.248 NA
ATOM     68  C   UNL A   1      42.403  31.057  29.327  1.00  0.00     0.031 C 
ATOM     69  C   UNL A   1      48.217  30.633  27.632  1.00  0.00     0.029 A 
ATOM     70  C   UNL A   1      46.890  30.329  27.896  1.00  0.00     0.049 A 
ATOM     71  H   UNL A   1      45.898  28.473  27.734  1.00  0.00     0.167 HD
ATOM     72  C   UNL A   1      44.573  30.834  28.615  1.00  0.00     0.074 A 
ATOM     73  C   UNL A   1      43.538  31.713  29.116  1.00  0.00     0.031 C 
ATOM     74  C   UNL A   1      45.854  31.213  28.378  1.00  0.00     0.034 A 
BRANCH  61  75
ATOM     75  C   UNL A   1      49.556  26.680  26.391  1.00  0.00     0.023 A 
ATOM     76  C   UNL A   1      50.598  26.621  27.338  1.00  0.00     0.031 A 
ATOM     77  C   UNL A   1      49.887  26.529  25.034  1.00  0.00     0.131 A 
ATOM     78  C   UNL A   1      51.923  26.468  26.911  1.00  0.00     0.055 A 
ATOM     79  C   UNL A   1      51.203  26.326  24.616  1.00  0.00     0.041 A 
ATOM     80  F   UNL A   1      48.934  26.581  24.089  1.00  0.00    -0.206 F 
ATOM     81  C   UNL A   1      52.230  26.311  25.556  1.00  0.00     0.022 A 
BRANCH  78  82
ATOM     82  S   UNL A   1      53.304  26.556  28.083  1.00  0.00     0.124 S 
ATOM     83  O   UNL A   1      53.753  27.936  27.916  1.00  0.00    -0.237 OA
ATOM     84  O   UNL A   1      52.645  26.263  29.353  1.00  0.00    -0.237 OA
ATOM     85  O   UNL A   1      54.236  25.540  27.605  1.00  0.00    -0.744 OA
ENDBRANCH  78  82
ENDBRANCH  61  75
BRANCH  62  86
ATOM     86  C   UNL A   1      40.246  29.013  29.271  1.00  0.00     0.023 A 
ATOM     87  C   UNL A   1      39.870  28.988  30.627  1.00  0.00     0.031 A 
ATOM     88  C   UNL A   1      39.243  29.241  28.314  1.00  0.00     0.131 A 
ATOM     89  C   UNL A   1      38.519  29.097  30.980  1.00  0.00     0.055 A 
ATOM     90  C   UNL A   1      37.908  29.436  28.677  1.00  0.00     0.041 A 
ATOM     91  F   UNL A   1      39.547  29.262  27.006  1.00  0.00    -0.206 F 
ATOM     92  C   UNL A   1      37.538  29.343  30.015  1.00  0.00     0.022 A 
BRANCH  89  93
ATOM     93  S   UNL A   1      37.974  28.770  32.680  1.00  0.00     0.124 S 
ATOM     94  O   UNL A   1      36.626  29.327  32.682  1.00  0.00    -0.237 OA
ATOM     95  O   UNL A   1      38.056  27.312  32.742  1.00  0.00    -0.237 OA
ATOM     96  O   UNL A   1      38.953  29.479  33.497  1.00  0.00    -0.744 OA
ENDBRANCH  89  93
ENDBRANCH  62  86
BRANCH  74  97
ATOM     97  C   UNL A   1      46.250  32.648  28.637  1.00  0.00     0.023 A 
ATOM     98  C   UNL A   1      46.134  33.605  27.610  1.00  0.00     0.031 A 
ATOM     99  C   UNL A   1      46.896  33.029  29.827  1.00  0.00     0.131 A 
ATOM    100  C   UNL A   1      46.704  34.874  27.768  1.00  0.00     0.055 A 
ATOM    101  C   UNL A   1      47.410  34.315  30.003  1.00  0.00     0.041 A 
ATOM    102  F   UNL A   1      47.044  32.151  30.833  1.00  0.00    -0.206 F 
ATOM    103  C   UNL A   1      47.332  35.237  28.964  1.00  0.00     0.022 A 
BRANCH 100 104
ATOM    104  S   UNL A   1      46.747  36.060  26.396  1.00  0.00     0.124 S 
ATOM    105  O   UNL A   1      48.174  36.356  26.296  1.00  0.00    -0.237 OA
ATOM    106  O   UNL A   1      46.194  35.275  25.294  1.00  0.00    -0.237 OA
ATOM    107  O   UNL A   1      45.915  37.165  26.859  1.00  0.00    -0.744 OA
ENDBRANCH 100 104
ENDBRANCH  74  97
ENDBRANCH  48  49
ENDBRANCH  40  43
ENDBRANCH  38  39
ENDBRANCH   1  38
TORSDOF 15
ENDMDL
MODEL 2
REMARK VINA RESULT:     -12.7      5.110     11.017
REMARK SMILES O=C(CN1C(=O)/C(=C2\SC(N3CCN(c4ccccc4F)CC3)=[NH+]C2=O)c2ccccc21)NCCCNC(=O)c1ccc(-c2c3nc(c(-c4cc(S(=O)(=O)[O-])ccc4F)c4ccc([nH]4)c(-c4cc(S(=O)(=O)[O-])ccc4F)c4nc(c(-c5cc(S(=O)(=O)[O-])ccc5F)c5ccc2[nH]5)C=C4)C=C3)cc1
REMARK SMILES IDX 35 1 34 2 33 3 1 4 2 5 3 7 4 8 5 9 32 10 6 11 7 12 27 13
REMARK SMILES IDX 31 14 8 15 28 16 30 17 9 18 25 19 29 20 10 21 24 22 26 23
REMARK SMILES IDX 11 24 12 26 23 27 13 28 22 29 14 30 15 31 16 32 20 33 17 34
REMARK SMILES IDX 19 35 21 36 18 37 36 38 37 39 38 40 39 42 40 43 41 44 102 45
REMARK SMILES IDX 42 46 101 47 43 48 44 49 45 50 95 51 46 52 100 53 94 54
REMARK SMILES IDX 96 55 47 56 99 57 93 58 92 59 48 61 80 62 60 63 79 64 61 65
REMARK SMILES IDX 64 66 78 67 97 68 62 69 63 70 77 72 98 73 65 74 49 75 50 76
REMARK SMILES IDX 58 77 51 78 57 79 59 80 56 81 52 82 53 83 54 84 55 85 81 86
REMARK SMILES IDX 82 87 90 88 83 89 89 90 91 91 88 92 84 93 85 94 86 95 87 96
REMARK SMILES IDX 66 97 67 98 75 99 68 100 74 101 76 102 73 103 69 104 70 105
REMARK SMILES IDX 71 106 72 107
REMARK H PARENT 33 6 24 25 37 41 96 60 64 71
REMARK Flexibility Score: inf
ROOT
ATOM      1  C   UNL A   1      37.417  29.089  32.563  1.00  0.00     0.042 C 
ENDROOT
BRANCH   1   2
ATOM      2  C   UNL A   1      38.356  30.051  33.278  1.00  0.00     0.117 C 
BRANCH   2   3
ATOM      3  N   UNL A   1      38.224  31.407  32.785  1.00  0.00    -0.354 N 
ATOM      4  O   UNL A   1      36.714  32.145  34.361  1.00  0.00    -0.273 OA
ATOM      5  C   UNL A   1      37.401  32.350  33.364  1.00  0.00     0.240 C 
ATOM      6  H   UNL A   1      38.750  31.669  31.995  1.00  0.00     0.163 HD
BRANCH   5   7
ATOM      7  C   UNL A   1      37.363  33.682  32.616  1.00  0.00     0.225 C 
BRANCH   7   8
ATOM      8  N   UNL A   1      36.229  33.741  31.719  1.00  0.00    -0.298 N 
ATOM      9  C   UNL A   1      36.085  32.900  30.629  1.00  0.00     0.260 C 
ATOM     10  C   UNL A   1      35.179  34.661  31.795  1.00  0.00     0.053 A 
ATOM     11  O   UNL A   1      36.919  32.094  30.254  1.00  0.00    -0.269 OA
ATOM     12  C   UNL A   1      34.774  33.291  29.974  1.00  0.00     0.071 C 
ATOM     13  C   UNL A   1      34.256  34.436  30.757  1.00  0.00     0.012 A 
ATOM     14  C   UNL A   1      35.000  35.648  32.753  1.00  0.00     0.027 A 
ATOM     15  C   UNL A   1      34.294  32.630  28.904  1.00  0.00     0.122 C 
ATOM     16  C   UNL A   1      33.094  35.189  30.723  1.00  0.00     0.011 A 
ATOM     17  C   UNL A   1      33.839  36.414  32.694  1.00  0.00     0.002 A 
ATOM     18  S   UNL A   1      34.876  31.098  28.341  1.00  0.00     0.007 SA
ATOM     19  C   UNL A   1      33.143  33.006  28.020  1.00  0.00     0.347 C 
ATOM     20  C   UNL A   1      32.890  36.182  31.690  1.00  0.00     0.001 A 
ATOM     21  C   UNL A   1      33.522  30.946  27.252  1.00  0.00     0.319 C 
ATOM     22  N   UNL A   1      32.765  31.988  27.172  1.00  0.00    -0.200 N 
ATOM     23  O   UNL A   1      32.621  34.110  28.002  1.00  0.00    -0.240 OA
ATOM     24  N   UNL A   1      33.346  29.784  26.556  1.00  0.00    -0.252 N 
ATOM     25  H   UNL A   1      31.994  32.049  26.565  1.00  0.00     0.316 HD
ATOM     26  C   UNL A   1      33.662  28.449  27.094  1.00  0.00     0.258 C 
ATOM     27  C   UNL A   1      32.967  29.803  25.132  1.00  0.00     0.258 C 
ATOM     28  C   UNL A   1      32.512  27.455  26.809  1.00  0.00     0.162 C 
ATOM     29  C   UNL A   1      31.873  28.769  24.804  1.00  0.00     0.162 C 
ATOM     30  N   UNL A   1      32.224  27.462  25.373  1.00  0.00    -0.361 N 
BRANCH  30  31
ATOM     31  C   UNL A   1      31.931  26.294  24.700  1.00  0.00     0.073 A 
ATOM     32  C   UNL A   1      30.592  25.981  24.423  1.00  0.00     0.029 A 
ATOM     33  C   UNL A   1      32.908  25.409  24.217  1.00  0.00     0.146 A 
ATOM     34  C   UNL A   1      30.245  24.849  23.680  1.00  0.00     0.002 A 
ATOM     35  C   UNL A   1      32.572  24.263  23.493  1.00  0.00     0.041 A 
ATOM     36  F   UNL A   1      34.209  25.641  24.462  1.00  0.00    -0.205 F 
ATOM     37  C   UNL A   1      31.235  23.986  23.216  1.00  0.00     0.003 A 
ENDBRANCH  30  31
ENDBRANCH   7   8
ENDBRANCH   5   7
ENDBRANCH   2   3
ENDBRANCH   1   2
BRANCH   1  38
ATOM     38  C   UNL A   1      38.052  28.334  31.399  1.00  0.00     0.118 C 
BRANCH  38  39
ATOM     39  N   UNL A   1      37.818  28.950  30.098  1.00  0.00    -0.352 N 
ATOM     40  C   UNL A   1      38.708  29.228  29.082  1.00  0.00     0.251 C 
ATOM     41  H   UNL A   1      36.884  29.207  29.917  1.00  0.00     0.163 HD
ATOM     42  O   UNL A   1      38.331  29.851  28.094  1.00  0.00    -0.269 OA
BRANCH  40  43
ATOM     43  C   UNL A   1      40.124  28.815  29.210  1.00  0.00     0.039 A 
ATOM     44  C   UNL A   1      40.498  27.486  29.018  1.00  0.00     0.014 A 
ATOM     45  C   UNL A   1      41.083  29.765  29.577  1.00  0.00     0.014 A 
ATOM     46  C   UNL A   1      41.768  27.068  29.401  1.00  0.00     0.010 A 
ATOM     47  C   UNL A   1      42.391  29.357  29.858  1.00  0.00     0.010 A 
ATOM     48  C   UNL A   1      42.730  27.995  29.839  1.00  0.00    -0.014 A 
BRANCH  48  49
ATOM     49  C   UNL A   1      44.067  27.511  30.282  1.00  0.00     0.031 A 
ATOM     50  C   UNL A   1      44.335  27.195  31.731  1.00  0.00     0.074 A 
ATOM     51  C   UNL A   1      45.030  27.302  29.362  1.00  0.00     0.049 A 
ATOM     52  N   UNL A   1      45.429  26.733  32.284  1.00  0.00    -0.248 NA
ATOM     53  C   UNL A   1      43.241  27.429  32.688  1.00  0.00     0.031 C 
ATOM     54  C   UNL A   1      44.884  27.565  27.930  1.00  0.00     0.029 A 
ATOM     55  N   UNL A   1      46.303  26.801  29.479  1.00  0.00    -0.354 N 
ATOM     56  C   UNL A   1      45.163  26.638  33.646  1.00  0.00     0.074 A 
ATOM     57  C   UNL A   1      43.819  27.129  33.844  1.00  0.00     0.031 C 
ATOM     58  C   UNL A   1      45.997  27.173  27.296  1.00  0.00     0.029 A 
ATOM     59  C   UNL A   1      46.971  26.708  28.280  1.00  0.00     0.049 A 
ATOM     60  H   UNL A   1      46.700  26.536  30.340  1.00  0.00     0.167 HD
ATOM     61  C   UNL A   1      45.962  26.167  34.634  1.00  0.00     0.034 A 
ATOM     62  C   UNL A   1      48.229  26.312  27.996  1.00  0.00     0.034 A 
ATOM     63  C   UNL A   1      47.292  25.656  34.415  1.00  0.00     0.049 A 
ATOM     64  C   UNL A   1      49.110  25.826  29.118  1.00  0.00     0.074 A 
ATOM     65  C   UNL A   1      48.162  25.121  35.348  1.00  0.00     0.029 A 
ATOM     66  N   UNL A   1      47.946  25.611  33.191  1.00  0.00    -0.354 N 
ATOM     67  N   UNL A   1      48.821  25.692  30.391  1.00  0.00    -0.248 NA
ATOM     68  C   UNL A   1      50.482  25.434  28.772  1.00  0.00     0.031 C 
ATOM     69  C   UNL A   1      49.366  24.830  34.708  1.00  0.00     0.029 A 
ATOM     70  C   UNL A   1      49.220  25.091  33.355  1.00  0.00     0.049 A 
ATOM     71  H   UNL A   1      47.561  25.905  32.334  1.00  0.00     0.167 HD
ATOM     72  C   UNL A   1      49.967  25.180  30.993  1.00  0.00     0.074 A 
ATOM     73  C   UNL A   1      50.942  25.000  29.939  1.00  0.00     0.031 C 
ATOM     74  C   UNL A   1      50.189  24.893  32.301  1.00  0.00     0.034 A 
BRANCH  61  75
ATOM     75  C   UNL A   1      45.442  26.153  36.054  1.00  0.00     0.023 A 
ATOM     76  C   UNL A   1      45.746  27.221  36.922  1.00  0.00     0.031 A 
ATOM     77  C   UNL A   1      44.791  25.029  36.590  1.00  0.00     0.131 A 
ATOM     78  C   UNL A   1      45.445  27.119  38.286  1.00  0.00     0.055 A 
ATOM     79  C   UNL A   1      44.446  24.954  37.941  1.00  0.00     0.041 A 
ATOM     80  F   UNL A   1      44.482  23.981  35.809  1.00  0.00    -0.206 F 
ATOM     81  C   UNL A   1      44.789  25.996  38.799  1.00  0.00     0.022 A 
BRANCH  78  82
ATOM     82  S   UNL A   1      45.969  28.398  39.461  1.00  0.00     0.124 S 
ATOM     83  O   UNL A   1      46.065  27.639  40.706  1.00  0.00    -0.237 OA
ATOM     84  O   UNL A   1      47.243  28.829  38.894  1.00  0.00    -0.237 OA
ATOM     85  O   UNL A   1      44.891  29.380  39.416  1.00  0.00    -0.744 OA
ENDBRANCH  78  82
ENDBRANCH  61  75
BRANCH  62  86
ATOM     86  C   UNL A   1      48.691  26.331  26.576  1.00  0.00     0.023 A 
ATOM     87  C   UNL A   1      49.741  27.177  26.172  1.00  0.00     0.031 A 
ATOM     88  C   UNL A   1      48.015  25.601  25.584  1.00  0.00     0.131 A 
ATOM     89  C   UNL A   1      50.024  27.338  24.810  1.00  0.00     0.055 A 
ATOM     90  C   UNL A   1      48.358  25.700  24.234  1.00  0.00     0.041 A 
ATOM     91  F   UNL A   1      46.998  24.790  25.915  1.00  0.00    -0.206 F 
ATOM     92  C   UNL A   1      49.354  26.589  23.839  1.00  0.00     0.022 A 
BRANCH  89  93
ATOM     93  S   UNL A   1      51.160  28.636  24.246  1.00  0.00     0.124 S 
ATOM     94  O   UNL A   1      50.657  28.923  22.907  1.00  0.00    -0.237 OA
ATOM     95  O   UNL A   1      50.935  29.681  25.243  1.00  0.00    -0.237 OA
ATOM     96  O   UNL A   1      52.470  27.997  24.306  1.00  0.00    -0.744 OA
ENDBRANCH  89  93
ENDBRANCH  62  86
BRANCH  74  97
ATOM     97  C   UNL A   1      51.534  24.339  32.709  1.00  0.00     0.023 A 
ATOM     98  C   UNL A   1      51.761  22.950  32.672  1.00  0.00     0.031 A 
ATOM     99  C   UNL A   1      52.519  25.156  33.291  1.00  0.00     0.131 A 
ATOM    100  C   UNL A   1      52.915  22.414  33.256  1.00  0.00     0.055 A 
ATOM    101  C   UNL A   1      53.697  24.622  33.819  1.00  0.00     0.041 A 
ATOM    102  F   UNL A   1      52.347  26.486  33.363  1.00  0.00    -0.206 F 
ATOM    103  C   UNL A   1      53.890  23.244  33.819  1.00  0.00     0.022 A 
BRANCH 100 104
ATOM    104  S   UNL A   1      53.145  20.620  33.402  1.00  0.00     0.124 S 
ATOM    105  O   UNL A   1      51.779  20.157  33.634  1.00  0.00    -0.237 OA
ATOM    106  O   UNL A   1      53.706  20.275  32.097  1.00  0.00    -0.237 OA
ATOM    107  O   UNL A   1      54.052  20.472  34.535  1.00  0.00    -0.744 OA
ENDBRANCH 100 104
ENDBRANCH  74  97
ENDBRANCH  48  49
ENDBRANCH  40  43
ENDBRANCH  38  39
ENDBRANCH   1  38
TORSDOF 15
ENDMDL
MODEL 3
REMARK VINA RESULT:     -12.7      5.256      9.839
REMARK SMILES O=C(CN1C(=O)/C(=C2\SC(N3CCN(c4ccccc4F)CC3)=[NH+]C2=O)c2ccccc21)NCCCNC(=O)c1ccc(-c2c3nc(c(-c4cc(S(=O)(=O)[O-])ccc4F)c4ccc([nH]4)c(-c4cc(S(=O)(=O)[O-])ccc4F)c4nc(c(-c5cc(S(=O)(=O)[O-])ccc5F)c5ccc2[nH]5)C=C4)C=C3)cc1
REMARK SMILES IDX 35 1 34 2 33 3 1 4 2 5 3 7 4 8 5 9 32 10 6 11 7 12 27 13
REMARK SMILES IDX 31 14 8 15 28 16 30 17 9 18 25 19 29 20 10 21 24 22 26 23
REMARK SMILES IDX 11 24 12 26 23 27 13 28 22 29 14 30 15 31 16 32 20 33 17 34
REMARK SMILES IDX 19 35 21 36 18 37 36 38 37 39 38 40 39 42 40 43 41 44 102 45
REMARK SMILES IDX 42 46 101 47 43 48 44 49 45 50 95 51 46 52 100 53 94 54
REMARK SMILES IDX 96 55 47 56 99 57 93 58 92 59 48 61 80 62 60 63 79 64 61 65
REMARK SMILES IDX 64 66 78 67 97 68 62 69 63 70 77 72 98 73 65 74 49 75 50 76
REMARK SMILES IDX 58 77 51 78 57 79 59 80 56 81 52 82 53 83 54 84 55 85 81 86
REMARK SMILES IDX 82 87 90 88 83 89 89 90 91 91 88 92 84 93 85 94 86 95 87 96
REMARK SMILES IDX 66 97 67 98 75 99 68 100 74 101 76 102 73 103 69 104 70 105
REMARK SMILES IDX 71 106 72 107
REMARK H PARENT 33 6 24 25 37 41 96 60 64 71
REMARK Flexibility Score: inf
ROOT
ATOM      1  C   UNL A   1      38.328  24.141  26.436  1.00  0.00     0.042 C 
ENDROOT
BRANCH   1   2
ATOM      2  C   UNL A   1      38.464  22.627  26.359  1.00  0.00     0.117 C 
BRANCH   2   3
ATOM      3  N   UNL A   1      39.714  22.162  26.925  1.00  0.00    -0.354 N 
ATOM      4  O   UNL A   1      39.818  20.157  25.795  1.00  0.00    -0.273 OA
ATOM      5  C   UNL A   1      40.291  20.951  26.603  1.00  0.00     0.240 C 
ATOM      6  H   UNL A   1      40.176  22.741  27.573  1.00  0.00     0.163 HD
BRANCH   5   7
ATOM      7  C   UNL A   1      41.562  20.642  27.392  1.00  0.00     0.225 C 
BRANCH   7   8
ATOM      8  N   UNL A   1      42.728  21.188  26.731  1.00  0.00    -0.298 N 
ATOM      9  C   UNL A   1      43.174  22.483  26.935  1.00  0.00     0.260 C 
ATOM     10  C   UNL A   1      43.514  20.522  25.786  1.00  0.00     0.053 A 
ATOM     11  O   UNL A   1      42.598  23.322  27.606  1.00  0.00    -0.269 OA
ATOM     12  C   UNL A   1      44.408  22.638  26.067  1.00  0.00     0.071 C 
ATOM     13  C   UNL A   1      44.558  21.355  25.345  1.00  0.00     0.012 A 
ATOM     14  C   UNL A   1      43.358  19.218  25.339  1.00  0.00     0.027 A 
ATOM     15  C   UNL A   1      45.133  23.772  26.066  1.00  0.00     0.122 C 
ATOM     16  C   UNL A   1      45.503  20.836  24.474  1.00  0.00     0.011 A 
ATOM     17  C   UNL A   1      44.301  18.715  24.446  1.00  0.00     0.002 A 
ATOM     18  S   UNL A   1      44.993  25.041  27.239  1.00  0.00     0.007 SA
ATOM     19  C   UNL A   1      46.238  24.167  25.133  1.00  0.00     0.347 C 
ATOM     20  C   UNL A   1      45.369  19.516  24.022  1.00  0.00     0.001 A 
ATOM     21  C   UNL A   1      46.440  25.804  26.636  1.00  0.00     0.319 C 
ATOM     22  N   UNL A   1      46.928  25.280  25.562  1.00  0.00    -0.200 N 
ATOM     23  O   UNL A   1      46.478  23.607  24.075  1.00  0.00    -0.240 OA
ATOM     24  N   UNL A   1      46.957  26.884  27.295  1.00  0.00    -0.252 N 
ATOM     25  H   UNL A   1      47.716  25.639  25.096  1.00  0.00     0.316 HD
ATOM     26  C   UNL A   1      46.921  27.044  28.760  1.00  0.00     0.258 C 
ATOM     27  C   UNL A   1      47.453  28.057  26.555  1.00  0.00     0.258 C 
ATOM     28  C   UNL A   1      48.298  27.500  29.295  1.00  0.00     0.162 C 
ATOM     29  C   UNL A   1      48.789  28.579  27.116  1.00  0.00     0.162 C 
ATOM     30  N   UNL A   1      48.712  28.708  28.576  1.00  0.00    -0.361 N 
BRANCH  30  31
ATOM     31  C   UNL A   1      49.340  29.746  29.232  1.00  0.00     0.073 A 
ATOM     32  C   UNL A   1      50.741  29.780  29.277  1.00  0.00     0.029 A 
ATOM     33  C   UNL A   1      48.655  30.822  29.820  1.00  0.00     0.146 A 
ATOM     34  C   UNL A   1      51.428  30.847  29.862  1.00  0.00     0.002 A 
ATOM     35  C   UNL A   1      49.330  31.881  30.428  1.00  0.00     0.041 A 
ATOM     36  F   UNL A   1      47.311  30.843  29.828  1.00  0.00    -0.205 F 
ATOM     37  C   UNL A   1      50.723  31.899  30.441  1.00  0.00     0.003 A 
ENDBRANCH  30  31
ENDBRANCH   7   8
ENDBRANCH   5   7
ENDBRANCH   2   3
ENDBRANCH   1   2
BRANCH   1  38
ATOM     38  C   UNL A   1      39.585  24.866  26.907  1.00  0.00     0.118 C 
BRANCH  38  39
ATOM     39  N   UNL A   1      40.634  24.947  25.896  1.00  0.00    -0.352 N 
ATOM     40  C   UNL A   1      41.598  25.913  25.704  1.00  0.00     0.251 C 
ATOM     41  H   UNL A   1      40.657  24.201  25.255  1.00  0.00     0.163 HD
ATOM     42  O   UNL A   1      42.334  25.855  24.723  1.00  0.00    -0.269 OA
BRANCH  40  43
ATOM     43  C   UNL A   1      41.709  27.043  26.655  1.00  0.00     0.039 A 
ATOM     44  C   UNL A   1      41.035  28.241  26.420  1.00  0.00     0.014 A 
ATOM     45  C   UNL A   1      42.541  26.918  27.772  1.00  0.00     0.014 A 
ATOM     46  C   UNL A   1      41.357  29.368  27.167  1.00  0.00     0.010 A 
ATOM     47  C   UNL A   1      42.780  28.028  28.587  1.00  0.00     0.010 A 
ATOM     48  C   UNL A   1      42.245  29.282  28.254  1.00  0.00    -0.014 A 
BRANCH  48  49
ATOM     49  C   UNL A   1      42.603  30.516  29.008  1.00  0.00     0.031 A 
ATOM     50  C   UNL A   1      43.707  31.423  28.529  1.00  0.00     0.074 A 
ATOM     51  C   UNL A   1      41.889  30.850  30.102  1.00  0.00     0.049 A 
ATOM     52  N   UNL A   1      44.126  32.552  29.045  1.00  0.00    -0.248 NA
ATOM     53  C   UNL A   1      44.441  31.015  27.320  1.00  0.00     0.031 C 
ATOM     54  C   UNL A   1      40.794  30.054  30.655  1.00  0.00     0.029 A 
ATOM     55  N   UNL A   1      41.953  31.945  30.927  1.00  0.00    -0.354 N 
ATOM     56  C   UNL A   1      45.177  32.978  28.239  1.00  0.00     0.074 A 
ATOM     57  C   UNL A   1      45.361  31.967  27.223  1.00  0.00     0.031 C 
ATOM     58  C   UNL A   1      40.253  30.710  31.690  1.00  0.00     0.029 A 
ATOM     59  C   UNL A   1      41.013  31.934  31.931  1.00  0.00     0.049 A 
ATOM     60  H   UNL A   1      42.611  32.669  30.812  1.00  0.00     0.167 HD
ATOM     61  C   UNL A   1      45.906  34.117  28.329  1.00  0.00     0.034 A 
ATOM     62  C   UNL A   1      40.790  32.797  32.945  1.00  0.00     0.034 A 
ATOM     63  C   UNL A   1      45.692  35.128  29.334  1.00  0.00     0.049 A 
ATOM     64  C   UNL A   1      41.639  34.037  33.045  1.00  0.00     0.074 A 
ATOM     65  C   UNL A   1      46.355  36.334  29.482  1.00  0.00     0.029 A 
ATOM     66  N   UNL A   1      44.753  35.063  30.354  1.00  0.00    -0.354 N 
ATOM     67  N   UNL A   1      42.591  34.449  32.242  1.00  0.00    -0.248 NA
ATOM     68  C   UNL A   1      41.386  34.933  34.180  1.00  0.00     0.031 C 
ATOM     69  C   UNL A   1      45.877  36.958  30.633  1.00  0.00     0.029 A 
ATOM     70  C   UNL A   1      44.847  36.192  31.155  1.00  0.00     0.049 A 
ATOM     71  H   UNL A   1      44.115  34.326  30.490  1.00  0.00     0.167 HD
ATOM     72  C   UNL A   1      43.035  35.662  32.761  1.00  0.00     0.074 A 
ATOM     73  C   UNL A   1      42.226  35.930  33.931  1.00  0.00     0.031 C 
ATOM     74  C   UNL A   1      44.027  36.471  32.312  1.00  0.00     0.034 A 
BRANCH  61  75
ATOM     75  C   UNL A   1      47.003  34.367  27.320  1.00  0.00     0.023 A 
ATOM     76  C   UNL A   1      48.346  34.119  27.667  1.00  0.00     0.031 A 
ATOM     77  C   UNL A   1      46.743  34.993  26.088  1.00  0.00     0.131 A 
ATOM     78  C   UNL A   1      49.377  34.539  26.817  1.00  0.00     0.055 A 
ATOM     79  C   UNL A   1      47.772  35.363  25.220  1.00  0.00     0.041 A 
ATOM     80  F   UNL A   1      45.482  35.257  25.709  1.00  0.00    -0.206 F 
ATOM     81  C   UNL A   1      49.097  35.151  25.592  1.00  0.00     0.022 A 
BRANCH  78  82
ATOM     82  S   UNL A   1      51.117  34.388  27.305  1.00  0.00     0.124 S 
ATOM     83  O   UNL A   1      51.080  34.845  28.693  1.00  0.00    -0.237 OA
ATOM     84  O   UNL A   1      51.361  32.960  27.125  1.00  0.00    -0.237 OA
ATOM     85  O   UNL A   1      51.820  35.271  26.381  1.00  0.00    -0.744 OA
ENDBRANCH  78  82
ENDBRANCH  61  75
BRANCH  62  86
ATOM     86  C   UNL A   1      39.686  32.511  33.909  1.00  0.00     0.023 A 
ATOM     87  C   UNL A   1      38.405  33.066  33.721  1.00  0.00     0.031 A 
ATOM     88  C   UNL A   1      39.921  31.784  35.088  1.00  0.00     0.131 A 
ATOM     89  C   UNL A   1      37.443  32.961  34.733  1.00  0.00     0.055 A 
ATOM     90  C   UNL A   1      38.930  31.609  36.056  1.00  0.00     0.041 A 
ATOM     91  F   UNL A   1      41.129  31.246  35.321  1.00  0.00    -0.206 F 
ATOM     92  C   UNL A   1      37.690  32.218  35.891  1.00  0.00     0.022 A 
BRANCH  89  93
ATOM     93  S   UNL A   1      35.900  33.913  34.649  1.00  0.00     0.124 S 
ATOM     94  O   UNL A   1      35.572  34.090  36.059  1.00  0.00    -0.237 OA
ATOM     95  O   UNL A   1      36.334  35.119  33.945  1.00  0.00    -0.237 OA
ATOM     96  O   UNL A   1      35.002  33.047  33.894  1.00  0.00    -0.744 OA
ENDBRANCH  89  93
ENDBRANCH  62  86
BRANCH  74  97
ATOM     97  C   UNL A   1      44.322  37.750  33.060  1.00  0.00     0.023 A 
ATOM     98  C   UNL A   1      43.606  38.924  32.752  1.00  0.00     0.031 A 
ATOM     99  C   UNL A   1      45.411  37.851  33.943  1.00  0.00     0.131 A 
ATOM    100  C   UNL A   1      44.022  40.154  33.275  1.00  0.00     0.055 A 
ATOM    101  C   UNL A   1      45.785  39.072  34.509  1.00  0.00     0.041 A 
ATOM    102  F   UNL A   1      46.135  36.766  34.260  1.00  0.00    -0.206 F 
ATOM    103  C   UNL A   1      45.101  40.232  34.161  1.00  0.00     0.022 A 
BRANCH 100 104
ATOM    104  S   UNL A   1      43.248  41.708  32.745  1.00  0.00     0.124 S 
ATOM    105  O   UNL A   1      42.065  41.763  33.600  1.00  0.00    -0.237 OA
ATOM    106  O   UNL A   1      44.287  42.688  33.054  1.00  0.00    -0.237 OA
ATOM    107  O   UNL A   1      42.981  41.502  31.326  1.00  0.00    -0.744 OA
ENDBRANCH 100 104
ENDBRANCH  74  97
ENDBRANCH  48  49
ENDBRANCH  40  43
ENDBRANCH  38  39
ENDBRANCH   1  38
TORSDOF 15
ENDMDL
