MODEL 1
REMARK VINA RESULT:     -11.8      0.000      0.000
REMARK SMILES COc1ccc(-c2sc(C(=O)NCCCNC(=O)c3ccc(-c4c5nc(c(-c6cc(S(=O)(=O)[O-])ccc6F)c6ccc([nH]6)c(-c6cc(S(=O)(=O)[O-])ccc6F)c6nc(c(-c7cc(S(=O)(=O)[O-])ccc7F)c7ccc4[nH]7)C=C6)C=C5)cc3)cc2C)c(OC)c1
REMARK SMILES IDX 14 1 13 2 12 3 10 4 11 5 9 7 7 8 8 9 83 10 82 11 84 12 6 13
REMARK SMILES IDX 3 14 4 15 88 16 5 17 85 18 2 19 1 20 86 21 87 22 15 23 16 24
REMARK SMILES IDX 17 25 18 27 19 28 20 29 81 30 21 31 80 32 22 33 23 34 24 35
REMARK SMILES IDX 74 36 25 37 79 38 73 39 75 40 26 41 78 42 72 43 71 44 27 46
REMARK SMILES IDX 59 47 39 48 58 49 40 50 43 51 57 52 76 53 41 54 42 55 56 57
REMARK SMILES IDX 77 58 44 59 28 60 29 61 37 62 30 63 36 64 38 65 35 66 31 67
REMARK SMILES IDX 32 68 33 69 34 70 60 71 61 72 69 73 62 74 68 75 70 76 67 77
REMARK SMILES IDX 63 78 64 79 65 80 66 81 45 82 46 83 54 84 47 85 53 86 55 87
REMARK SMILES IDX 52 88 48 89 49 90 50 91 51 92
REMARK H PARENT 12 6 16 26 75 45 43 56
REMARK Flexibility Score: inf
ROOT
ATOM      1  C   UNL A   1      31.751  29.223  24.736  1.00  0.00     0.042 C 
ENDROOT
BRANCH   1   2
ATOM      2  C   UNL A   1      31.762  27.720  24.464  1.00  0.00     0.118 C 
BRANCH   2   3
ATOM      3  N   UNL A   1      31.514  27.421  23.065  1.00  0.00    -0.351 N 
ATOM      4  C   UNL A   1      31.729  26.307  22.290  1.00  0.00     0.261 C 
ATOM      5  O   UNL A   1      31.286  26.390  21.138  1.00  0.00    -0.268 OA
ATOM      6  H   UNL A   1      31.111  28.169  22.571  1.00  0.00     0.163 HD
BRANCH   4   7
ATOM      7  C   UNL A   1      32.365  25.084  22.765  1.00  0.00     0.093 A 
ATOM      8  C   UNL A   1      32.988  22.811  23.549  1.00  0.00     0.042 A 
ATOM      9  S   UNL A   1      31.563  23.757  23.465  1.00  0.00    -0.130 S 
ATOM     10  C   UNL A   1      34.113  23.561  23.244  1.00  0.00    -0.031 A 
ATOM     11  C   UNL A   1      33.734  24.871  22.799  1.00  0.00     0.029 A 
ATOM     12  C   UNL A   1      35.531  23.106  23.322  1.00  0.00     0.046 C 
BRANCH   8  13
ATOM     13  C   UNL A   1      32.858  21.394  23.926  1.00  0.00     0.034 A 
ATOM     14  C   UNL A   1      32.529  18.673  24.527  1.00  0.00     0.122 A 
ATOM     15  C   UNL A   1      32.377  19.114  23.217  1.00  0.00     0.047 A 
ATOM     16  C   UNL A   1      32.891  19.574  25.534  1.00  0.00     0.093 A 
ATOM     17  C   UNL A   1      32.531  20.466  22.920  1.00  0.00     0.017 A 
ATOM     18  C   UNL A   1      33.061  20.937  25.243  1.00  0.00     0.131 A 
BRANCH  14  19
ATOM     19  O   UNL A   1      32.360  17.329  24.727  1.00  0.00    -0.497 OA
ATOM     20  C   UNL A   1      33.203  16.783  25.739  1.00  0.00     0.278 C 
ENDBRANCH  14  19
BRANCH  18  21
ATOM     21  O   UNL A   1      33.411  21.884  26.172  1.00  0.00    -0.496 OA
ATOM     22  C   UNL A   1      34.128  21.453  27.319  1.00  0.00     0.278 C 
ENDBRANCH  18  21
ENDBRANCH   8  13
ENDBRANCH   4   7
ENDBRANCH   2   3
ENDBRANCH   1   2
BRANCH   1  23
ATOM     23  C   UNL A   1      32.797  29.666  25.763  1.00  0.00     0.118 C 
BRANCH  23  24
ATOM     24  N   UNL A   1      32.588  31.040  26.191  1.00  0.00    -0.352 N 
ATOM     25  C   UNL A   1      33.214  31.785  27.156  1.00  0.00     0.251 C 
ATOM     26  H   UNL A   1      31.876  31.517  25.705  1.00  0.00     0.163 HD
ATOM     27  O   UNL A   1      32.695  32.847  27.499  1.00  0.00    -0.269 OA
BRANCH  25  28
ATOM     28  C   UNL A   1      34.484  31.348  27.783  1.00  0.00     0.039 A 
ATOM     29  C   UNL A   1      34.568  30.035  28.258  1.00  0.00     0.014 A 
ATOM     30  C   UNL A   1      35.545  32.230  28.002  1.00  0.00     0.014 A 
ATOM     31  C   UNL A   1      35.713  29.604  28.935  1.00  0.00     0.010 A 
ATOM     32  C   UNL A   1      36.715  31.781  28.620  1.00  0.00     0.010 A 
ATOM     33  C   UNL A   1      36.800  30.472  29.116  1.00  0.00    -0.014 A 
BRANCH  33  34
ATOM     34  C   UNL A   1      38.004  30.030  29.871  1.00  0.00     0.031 A 
ATOM     35  C   UNL A   1      38.235  30.522  31.276  1.00  0.00     0.074 A 
ATOM     36  C   UNL A   1      38.896  29.208  29.285  1.00  0.00     0.049 A 
ATOM     37  N   UNL A   1      39.227  30.266  32.091  1.00  0.00    -0.248 NA
ATOM     38  C   UNL A   1      37.231  31.444  31.827  1.00  0.00     0.031 C 
ATOM     39  C   UNL A   1      38.801  28.696  27.915  1.00  0.00     0.029 A 
ATOM     40  N   UNL A   1      40.057  28.657  29.764  1.00  0.00    -0.354 N 
ATOM     41  C   UNL A   1      38.980  31.013  33.239  1.00  0.00     0.074 A 
ATOM     42  C   UNL A   1      37.769  31.767  32.994  1.00  0.00     0.031 C 
ATOM     43  C   UNL A   1      39.844  27.884  27.677  1.00  0.00     0.029 A 
ATOM     44  C   UNL A   1      40.697  27.841  28.860  1.00  0.00     0.049 A 
ATOM     45  H   UNL A   1      40.401  28.829  30.671  1.00  0.00     0.167 HD
ATOM     46  C   UNL A   1      39.685  31.050  34.398  1.00  0.00     0.034 A 
ATOM     47  C   UNL A   1      41.842  27.139  28.974  1.00  0.00     0.034 A 
ATOM     48  C   UNL A   1      40.870  30.265  34.642  1.00  0.00     0.049 A 
ATOM     49  C   UNL A   1      42.598  27.185  30.278  1.00  0.00     0.074 A 
ATOM     50  C   UNL A   1      41.616  30.166  35.803  1.00  0.00     0.029 A 
ATOM     51  N   UNL A   1      41.485  29.443  33.706  1.00  0.00    -0.354 N 
ATOM     52  N   UNL A   1      42.314  27.847  31.377  1.00  0.00    -0.248 NA
ATOM     53  C   UNL A   1      43.819  26.375  30.361  1.00  0.00     0.031 C 
ATOM     54  C   UNL A   1      42.713  29.331  35.553  1.00  0.00     0.029 A 
ATOM     55  C   UNL A   1      42.616  28.857  34.255  1.00  0.00     0.049 A 
ATOM     56  H   UNL A   1      41.164  29.298  32.786  1.00  0.00     0.167 HD
ATOM     57  C   UNL A   1      43.308  27.507  32.290  1.00  0.00     0.074 A 
ATOM     58  C   UNL A   1      44.183  26.568  31.620  1.00  0.00     0.031 C 
ATOM     59  C   UNL A   1      43.484  27.931  33.568  1.00  0.00     0.034 A 
BRANCH  46  60
ATOM     60  C   UNL A   1      39.203  31.992  35.477  1.00  0.00     0.023 A 
ATOM     61  C   UNL A   1      39.671  33.315  35.571  1.00  0.00     0.031 A 
ATOM     62  C   UNL A   1      38.277  31.552  36.439  1.00  0.00     0.131 A 
ATOM     63  C   UNL A   1      39.272  34.124  36.646  1.00  0.00     0.055 A 
ATOM     64  C   UNL A   1      37.823  32.388  37.462  1.00  0.00     0.041 A 
ATOM     65  F   UNL A   1      37.807  30.294  36.411  1.00  0.00    -0.206 F 
ATOM     66  C   UNL A   1      38.332  33.678  37.578  1.00  0.00     0.022 A 
BRANCH  63  67
ATOM     67  S   UNL A   1      40.097  35.722  36.880  1.00  0.00     0.124 S 
ATOM     68  O   UNL A   1      39.652  36.458  35.699  1.00  0.00    -0.237 OA
ATOM     69  O   UNL A   1      39.555  36.174  38.156  1.00  0.00    -0.237 OA
ATOM     70  O   UNL A   1      41.517  35.376  36.892  1.00  0.00    -0.744 OA
ENDBRANCH  63  67
ENDBRANCH  46  60
BRANCH  47  71
ATOM     71  C   UNL A   1      42.352  26.324  27.835  1.00  0.00     0.023 A 
ATOM     72  C   UNL A   1      41.900  25.011  27.630  1.00  0.00     0.031 A 
ATOM     73  C   UNL A   1      43.342  26.824  26.971  1.00  0.00     0.131 A 
ATOM     74  C   UNL A   1      42.477  24.222  26.623  1.00  0.00     0.055 A 
ATOM     75  C   UNL A   1      43.877  26.052  25.939  1.00  0.00     0.041 A 
ATOM     76  F   UNL A   1      43.804  28.077  27.120  1.00  0.00    -0.206 F 
ATOM     77  C   UNL A   1      43.455  24.736  25.770  1.00  0.00     0.022 A 
BRANCH  74  78
ATOM     78  S   UNL A   1      41.994  22.477  26.507  1.00  0.00     0.124 S 
ATOM     79  O   UNL A   1      42.597  22.084  25.238  1.00  0.00    -0.237 OA
ATOM     80  O   UNL A   1      42.603  21.915  27.707  1.00  0.00    -0.237 OA
ATOM     81  O   UNL A   1      40.533  22.528  26.516  1.00  0.00    -0.744 OA
ENDBRANCH  74  78
ENDBRANCH  47  71
BRANCH  59  82
ATOM     82  C   UNL A   1      44.650  27.342  34.322  1.00  0.00     0.023 A 
ATOM     83  C   UNL A   1      44.515  26.166  35.083  1.00  0.00     0.031 A 
ATOM     84  C   UNL A   1      45.899  27.986  34.313  1.00  0.00     0.131 A 
ATOM     85  C   UNL A   1      45.591  25.708  35.856  1.00  0.00     0.055 A 
ATOM     86  C   UNL A   1      46.984  27.491  35.038  1.00  0.00     0.041 A 
ATOM     87  F   UNL A   1      46.083  29.112  33.605  1.00  0.00    -0.206 F 
ATOM     88  C   UNL A   1      46.830  26.356  35.828  1.00  0.00     0.022 A 
BRANCH  85  89
ATOM     89  S   UNL A   1      45.318  24.315  36.986  1.00  0.00     0.124 S 
ATOM     90  O   UNL A   1      44.285  24.840  37.872  1.00  0.00    -0.237 OA
ATOM     91  O   UNL A   1      44.901  23.254  36.077  1.00  0.00    -0.237 OA
ATOM     92  O   UNL A   1      46.627  24.118  37.609  1.00  0.00    -0.744 OA
ENDBRANCH  85  89
ENDBRANCH  59  82
ENDBRANCH  33  34
ENDBRANCH  25  28
ENDBRANCH  23  24
ENDBRANCH   1  23
TORSDOF 16
ENDMDL
MODEL 2
REMARK VINA RESULT:     -11.8      1.826      2.195
REMARK SMILES COc1ccc(-c2sc(C(=O)NCCCNC(=O)c3ccc(-c4c5nc(c(-c6cc(S(=O)(=O)[O-])ccc6F)c6ccc([nH]6)c(-c6cc(S(=O)(=O)[O-])ccc6F)c6nc(c(-c7cc(S(=O)(=O)[O-])ccc7F)c7ccc4[nH]7)C=C6)C=C5)cc3)cc2C)c(OC)c1
REMARK SMILES IDX 14 1 13 2 12 3 10 4 11 5 9 7 7 8 8 9 83 10 82 11 84 12 6 13
REMARK SMILES IDX 3 14 4 15 88 16 5 17 85 18 2 19 1 20 86 21 87 22 15 23 16 24
REMARK SMILES IDX 17 25 18 27 19 28 20 29 81 30 21 31 80 32 22 33 23 34 24 35
REMARK SMILES IDX 74 36 25 37 79 38 73 39 75 40 26 41 78 42 72 43 71 44 27 46
REMARK SMILES IDX 59 47 39 48 58 49 40 50 43 51 57 52 76 53 41 54 42 55 56 57
REMARK SMILES IDX 77 58 44 59 28 60 29 61 37 62 30 63 36 64 38 65 35 66 31 67
REMARK SMILES IDX 32 68 33 69 34 70 60 71 61 72 69 73 62 74 68 75 70 76 67 77
REMARK SMILES IDX 63 78 64 79 65 80 66 81 45 82 46 83 54 84 47 85 53 86 55 87
REMARK SMILES IDX 52 88 48 89 49 90 50 91 51 92
REMARK H PARENT 12 6 16 26 75 45 43 56
REMARK Flexibility Score: inf
ROOT
ATOM      1  C   UNL A   1      32.054  28.697  25.760  1.00  0.00     0.042 C 
ENDROOT
BRANCH   1   2
ATOM      2  C   UNL A   1      32.247  27.330  26.415  1.00  0.00     0.118 C 
BRANCH   2   3
ATOM      3  N   UNL A   1      30.989  26.622  26.572  1.00  0.00    -0.351 N 
ATOM      4  C   UNL A   1      30.569  25.362  26.221  1.00  0.00     0.261 C 
ATOM      5  O   UNL A   1      29.435  25.069  26.619  1.00  0.00    -0.268 OA
ATOM      6  H   UNL A   1      30.294  27.155  27.020  1.00  0.00     0.163 HD
BRANCH   4   7
ATOM      7  C   UNL A   1      31.385  24.395  25.497  1.00  0.00     0.093 A 
ATOM      8  C   UNL A   1      32.672  22.447  24.648  1.00  0.00     0.042 A 
ATOM      9  S   UNL A   1      32.085  22.994  26.162  1.00  0.00    -0.130 S 
ATOM     10  C   UNL A   1      32.526  23.416  23.668  1.00  0.00    -0.031 A 
ATOM     11  C   UNL A   1      31.786  24.534  24.177  1.00  0.00     0.029 A 
ATOM     12  C   UNL A   1      33.022  23.341  22.263  1.00  0.00     0.046 C 
BRANCH   8  13
ATOM     13  C   UNL A   1      33.242  21.092  24.574  1.00  0.00     0.034 A 
ATOM     14  C   UNL A   1      34.195  18.456  24.447  1.00  0.00     0.122 A 
ATOM     15  C   UNL A   1      32.873  18.730  24.114  1.00  0.00     0.047 A 
ATOM     16  C   UNL A   1      35.061  19.498  24.798  1.00  0.00     0.093 A 
ATOM     17  C   UNL A   1      32.397  20.036  24.185  1.00  0.00     0.017 A 
ATOM     18  C   UNL A   1      34.594  20.820  24.862  1.00  0.00     0.131 A 
BRANCH  14  19
ATOM     19  O   UNL A   1      34.577  17.145  24.347  1.00  0.00    -0.497 OA
ATOM     20  C   UNL A   1      33.508  16.253  24.040  1.00  0.00     0.278 C 
ENDBRANCH  14  19
BRANCH  18  21
ATOM     21  O   UNL A   1      35.376  21.897  25.201  1.00  0.00    -0.496 OA
ATOM     22  C   UNL A   1      36.172  22.483  24.182  1.00  0.00     0.278 C 
ENDBRANCH  18  21
ENDBRANCH   8  13
ENDBRANCH   4   7
ENDBRANCH   2   3
ENDBRANCH   1   2
BRANCH   1  23
ATOM     23  C   UNL A   1      33.329  29.543  25.725  1.00  0.00     0.118 C 
BRANCH  23  24
ATOM     24  N   UNL A   1      33.119  30.863  26.298  1.00  0.00    -0.352 N 
ATOM     25  C   UNL A   1      33.775  31.520  27.307  1.00  0.00     0.251 C 
ATOM     26  H   UNL A   1      32.380  31.372  25.892  1.00  0.00     0.163 HD
ATOM     27  O   UNL A   1      33.254  32.533  27.775  1.00  0.00    -0.269 OA
BRANCH  25  28
ATOM     28  C   UNL A   1      35.076  31.047  27.834  1.00  0.00     0.039 A 
ATOM     29  C   UNL A   1      35.162  29.728  28.293  1.00  0.00     0.014 A 
ATOM     30  C   UNL A   1      36.173  31.900  27.978  1.00  0.00     0.014 A 
ATOM     31  C   UNL A   1      36.343  29.264  28.879  1.00  0.00     0.010 A 
ATOM     32  C   UNL A   1      37.374  31.418  28.504  1.00  0.00     0.010 A 
ATOM     33  C   UNL A   1      37.463  30.103  28.983  1.00  0.00    -0.014 A 
BRANCH  33  34
ATOM     34  C   UNL A   1      38.708  29.625  29.643  1.00  0.00     0.031 A 
ATOM     35  C   UNL A   1      39.086  30.143  31.007  1.00  0.00     0.074 A 
ATOM     36  C   UNL A   1      39.507  28.746  29.007  1.00  0.00     0.049 A 
ATOM     37  N   UNL A   1      40.134  29.863  31.739  1.00  0.00    -0.248 NA
ATOM     38  C   UNL A   1      38.177  31.126  31.615  1.00  0.00     0.031 C 
ATOM     39  C   UNL A   1      39.268  28.202  27.668  1.00  0.00     0.029 A 
ATOM     40  N   UNL A   1      40.680  28.154  29.399  1.00  0.00    -0.354 N 
ATOM     41  C   UNL A   1      40.023  30.651  32.881  1.00  0.00     0.074 A 
ATOM     42  C   UNL A   1      38.831  31.455  32.719  1.00  0.00     0.031 C 
ATOM     43  C   UNL A   1      40.247  27.335  27.364  1.00  0.00     0.029 A 
ATOM     44  C   UNL A   1      41.200  27.285  28.469  1.00  0.00     0.049 A 
ATOM     45  H   UNL A   1      41.111  28.334  30.266  1.00  0.00     0.167 HD
ATOM     46  C   UNL A   1      40.830  30.686  33.971  1.00  0.00     0.034 A 
ATOM     47  C   UNL A   1      42.318  26.532  28.503  1.00  0.00     0.034 A 
ATOM     48  C   UNL A   1      41.996  29.853  34.135  1.00  0.00     0.049 A 
ATOM     49  C   UNL A   1      43.188  26.578  29.734  1.00  0.00     0.074 A 
ATOM     50  C   UNL A   1      42.837  29.750  35.228  1.00  0.00     0.029 A 
ATOM     51  N   UNL A   1      42.487  28.978  33.174  1.00  0.00    -0.354 N 
ATOM     52  N   UNL A   1      43.033  27.282  30.832  1.00  0.00    -0.248 NA
ATOM     53  C   UNL A   1      44.375  25.713  29.735  1.00  0.00     0.031 C 
ATOM     54  C   UNL A   1      43.869  28.858  34.909  1.00  0.00     0.029 A 
ATOM     55  C   UNL A   1      43.636  28.354  33.639  1.00  0.00     0.049 A 
ATOM     56  H   UNL A   1      42.080  28.824  32.291  1.00  0.00     0.167 HD
ATOM     57  C   UNL A   1      44.089  26.920  31.664  1.00  0.00     0.074 A 
ATOM     58  C   UNL A   1      44.858  25.923  30.950  1.00  0.00     0.031 C 
ATOM     59  C   UNL A   1      44.397  27.370  32.908  1.00  0.00     0.034 A 
BRANCH  46  60
ATOM     60  C   UNL A   1      40.489  31.679  35.058  1.00  0.00     0.023 A 
ATOM     61  C   UNL A   1      39.528  31.398  36.046  1.00  0.00     0.031 A 
ATOM     62  C   UNL A   1      41.118  32.936  35.092  1.00  0.00     0.131 A 
ATOM     63  C   UNL A   1      39.171  32.385  36.978  1.00  0.00     0.055 A 
ATOM     64  C   UNL A   1      40.815  33.886  36.070  1.00  0.00     0.041 A 
ATOM     65  F   UNL A   1      42.030  33.269  34.165  1.00  0.00    -0.206 F 
ATOM     66  C   UNL A   1      39.826  33.618  37.012  1.00  0.00     0.022 A 
BRANCH  63  67
ATOM     67  S   UNL A   1      37.750  32.080  38.062  1.00  0.00     0.124 S 
ATOM     68  O   UNL A   1      38.335  32.303  39.383  1.00  0.00    -0.237 OA
ATOM     69  O   UNL A   1      36.788  33.079  37.612  1.00  0.00    -0.237 OA
ATOM     70  O   UNL A   1      37.390  30.693  37.774  1.00  0.00    -0.744 OA
ENDBRANCH  63  67
ENDBRANCH  46  60
BRANCH  47  71
ATOM     71  C   UNL A   1      42.687  25.664  27.350  1.00  0.00     0.023 A 
ATOM     72  C   UNL A   1      42.225  24.341  27.267  1.00  0.00     0.031 A 
ATOM     73  C   UNL A   1      43.556  26.123  26.345  1.00  0.00     0.131 A 
ATOM     74  C   UNL A   1      42.677  23.504  26.235  1.00  0.00     0.055 A 
ATOM     75  C   UNL A   1      43.963  25.302  25.292  1.00  0.00     0.041 A 
ATOM     76  F   UNL A   1      44.022  27.383  26.373  1.00  0.00    -0.206 F 
ATOM     77  C   UNL A   1      43.535  23.979  25.241  1.00  0.00     0.022 A 
BRANCH  74  78
ATOM     78  S   UNL A   1      42.199  21.755  26.266  1.00  0.00     0.124 S 
ATOM     79  O   UNL A   1      40.786  21.825  25.906  1.00  0.00    -0.237 OA
ATOM     80  O   UNL A   1      43.088  21.181  25.262  1.00  0.00    -0.237 OA
ATOM     81  O   UNL A   1      42.474  21.352  27.643  1.00  0.00    -0.744 OA
ENDBRANCH  74  78
ENDBRANCH  47  71
BRANCH  59  82
ATOM     82  C   UNL A   1      45.598  26.747  33.575  1.00  0.00     0.023 A 
ATOM     83  C   UNL A   1      45.483  25.584  34.357  1.00  0.00     0.031 A 
ATOM     84  C   UNL A   1      46.863  27.347  33.461  1.00  0.00     0.131 A 
ATOM     85  C   UNL A   1      46.601  25.094  35.049  1.00  0.00     0.055 A 
ATOM     86  C   UNL A   1      47.985  26.821  34.103  1.00  0.00     0.041 A 
ATOM     87  F   UNL A   1      47.029  28.460  32.728  1.00  0.00    -0.206 F 
ATOM     88  C   UNL A   1      47.855  25.699  34.916  1.00  0.00     0.022 A 
BRANCH  85  89
ATOM     89  S   UNL A   1      46.371  23.722  36.212  1.00  0.00     0.124 S 
ATOM     90  O   UNL A   1      45.891  22.657  35.337  1.00  0.00    -0.237 OA
ATOM     91  O   UNL A   1      47.713  23.546  36.755  1.00  0.00    -0.237 OA
ATOM     92  O   UNL A   1      45.382  24.238  37.159  1.00  0.00    -0.744 OA
ENDBRANCH  85  89
ENDBRANCH  59  82
ENDBRANCH  33  34
ENDBRANCH  25  28
ENDBRANCH  23  24
ENDBRANCH   1  23
TORSDOF 16
ENDMDL
MODEL 3
REMARK VINA RESULT:     -11.8      2.770      8.156
REMARK SMILES COc1ccc(-c2sc(C(=O)NCCCNC(=O)c3ccc(-c4c5nc(c(-c6cc(S(=O)(=O)[O-])ccc6F)c6ccc([nH]6)c(-c6cc(S(=O)(=O)[O-])ccc6F)c6nc(c(-c7cc(S(=O)(=O)[O-])ccc7F)c7ccc4[nH]7)C=C6)C=C5)cc3)cc2C)c(OC)c1
REMARK SMILES IDX 14 1 13 2 12 3 10 4 11 5 9 7 7 8 8 9 83 10 82 11 84 12 6 13
REMARK SMILES IDX 3 14 4 15 88 16 5 17 85 18 2 19 1 20 86 21 87 22 15 23 16 24
REMARK SMILES IDX 17 25 18 27 19 28 20 29 81 30 21 31 80 32 22 33 23 34 24 35
REMARK SMILES IDX 74 36 25 37 79 38 73 39 75 40 26 41 78 42 72 43 71 44 27 46
REMARK SMILES IDX 59 47 39 48 58 49 40 50 43 51 57 52 76 53 41 54 42 55 56 57
REMARK SMILES IDX 77 58 44 59 28 60 29 61 37 62 30 63 36 64 38 65 35 66 31 67
REMARK SMILES IDX 32 68 33 69 34 70 60 71 61 72 69 73 62 74 68 75 70 76 67 77
REMARK SMILES IDX 63 78 64 79 65 80 66 81 45 82 46 83 54 84 47 85 53 86 55 87
REMARK SMILES IDX 52 88 48 89 49 90 50 91 51 92
REMARK H PARENT 12 6 16 26 75 45 43 56
REMARK Flexibility Score: inf
ROOT
ATOM      1  C   UNL A   1      31.462  31.931  26.469  1.00  0.00     0.042 C 
ENDROOT
BRANCH   1   2
ATOM      2  C   UNL A   1      31.593  30.483  26.000  1.00  0.00     0.118 C 
BRANCH   2   3
ATOM      3  N   UNL A   1      30.965  30.274  24.707  1.00  0.00    -0.351 N 
ATOM      4  C   UNL A   1      30.784  29.163  23.919  1.00  0.00     0.261 C 
ATOM      5  O   UNL A   1      30.097  29.357  22.908  1.00  0.00    -0.268 OA
ATOM      6  H   UNL A   1      30.592  31.096  24.316  1.00  0.00     0.163 HD
BRANCH   4   7
ATOM      7  C   UNL A   1      31.288  27.835  24.241  1.00  0.00     0.093 A 
ATOM      8  C   UNL A   1      32.552  25.716  24.540  1.00  0.00     0.042 A 
ATOM      9  S   UNL A   1      32.583  27.050  23.464  1.00  0.00    -0.130 S 
ATOM     10  C   UNL A   1      31.436  25.753  25.360  1.00  0.00    -0.031 A 
ATOM     11  C   UNL A   1      30.717  26.980  25.171  1.00  0.00     0.029 A 
ATOM     12  C   UNL A   1      31.019  24.707  26.338  1.00  0.00     0.046 C 
BRANCH   8  13
ATOM     13  C   UNL A   1      33.649  24.737  24.460  1.00  0.00     0.034 A 
ATOM     14  C   UNL A   1      35.829  22.976  24.347  1.00  0.00     0.122 A 
ATOM     15  C   UNL A   1      35.911  24.127  25.122  1.00  0.00     0.047 A 
ATOM     16  C   UNL A   1      34.647  22.672  23.664  1.00  0.00     0.093 A 
ATOM     17  C   UNL A   1      34.832  25.006  25.171  1.00  0.00     0.017 A 
ATOM     18  C   UNL A   1      33.550  23.545  23.716  1.00  0.00     0.131 A 
BRANCH  14  19
ATOM     19  O   UNL A   1      36.935  22.170  24.358  1.00  0.00    -0.497 OA
ATOM     20  C   UNL A   1      37.506  21.986  25.652  1.00  0.00     0.278 C 
ENDBRANCH  14  19
BRANCH  18  21
ATOM     21  O   UNL A   1      32.357  23.323  23.073  1.00  0.00    -0.496 OA
ATOM     22  C   UNL A   1      32.092  22.008  22.607  1.00  0.00     0.278 C 
ENDBRANCH  18  21
ENDBRANCH   8  13
ENDBRANCH   4   7
ENDBRANCH   2   3
ENDBRANCH   1   2
BRANCH   1  23
ATOM     23  C   UNL A   1      32.680  32.434  27.247  1.00  0.00     0.118 C 
BRANCH  23  24
ATOM     24  N   UNL A   1      32.575  33.849  27.563  1.00  0.00    -0.352 N 
ATOM     25  C   UNL A   1      33.151  34.592  28.561  1.00  0.00     0.251 C 
ATOM     26  H   UNL A   1      31.991  34.362  26.959  1.00  0.00     0.163 HD
ATOM     27  O   UNL A   1      32.715  35.725  28.768  1.00  0.00    -0.269 OA
BRANCH  25  28
ATOM     28  C   UNL A   1      34.272  34.071  29.380  1.00  0.00     0.039 A 
ATOM     29  C   UNL A   1      35.577  34.293  28.929  1.00  0.00     0.014 A 
ATOM     30  C   UNL A   1      34.058  33.288  30.517  1.00  0.00     0.014 A 
ATOM     31  C   UNL A   1      36.662  33.746  29.620  1.00  0.00     0.010 A 
ATOM     32  C   UNL A   1      35.145  32.796  31.244  1.00  0.00     0.010 A 
ATOM     33  C   UNL A   1      36.456  32.998  30.789  1.00  0.00    -0.014 A 
BRANCH  33  34
ATOM     34  C   UNL A   1      37.604  32.380  31.505  1.00  0.00     0.031 A 
ATOM     35  C   UNL A   1      38.383  31.263  30.860  1.00  0.00     0.074 A 
ATOM     36  C   UNL A   1      37.931  32.809  32.740  1.00  0.00     0.049 A 
ATOM     37  N   UNL A   1      39.402  30.586  31.326  1.00  0.00    -0.248 NA
ATOM     38  C   UNL A   1      37.938  30.832  29.526  1.00  0.00     0.031 C 
ATOM     39  C   UNL A   1      37.229  33.857  33.484  1.00  0.00     0.029 A 
ATOM     40  N   UNL A   1      38.936  32.418  33.588  1.00  0.00    -0.354 N 
ATOM     41  C   UNL A   1      39.704  29.636  30.354  1.00  0.00     0.074 A 
ATOM     42  C   UNL A   1      38.728  29.794  29.297  1.00  0.00     0.031 C 
ATOM     43  C   UNL A   1      37.843  34.045  34.664  1.00  0.00     0.029 A 
ATOM     44  C   UNL A   1      38.960  33.112  34.775  1.00  0.00     0.049 A 
ATOM     45  H   UNL A   1      39.581  31.708  33.368  1.00  0.00     0.167 HD
ATOM     46  C   UNL A   1      40.714  28.730  30.337  1.00  0.00     0.034 A 
ATOM     47  C   UNL A   1      39.789  33.008  35.833  1.00  0.00     0.034 A 
ATOM     48  C   UNL A   1      41.701  28.607  31.381  1.00  0.00     0.049 A 
ATOM     49  C   UNL A   1      40.912  32.003  35.781  1.00  0.00     0.074 A 
ATOM     50  C   UNL A   1      42.809  27.779  31.429  1.00  0.00     0.029 A 
ATOM     51  N   UNL A   1      41.698  29.332  32.566  1.00  0.00    -0.354 N 
ATOM     52  N   UNL A   1      41.222  31.157  34.825  1.00  0.00    -0.248 NA
ATOM     53  C   UNL A   1      41.807  31.954  36.944  1.00  0.00     0.031 C 
ATOM     54  C   UNL A   1      43.443  27.963  32.665  1.00  0.00     0.029 A 
ATOM     55  C   UNL A   1      42.768  28.951  33.362  1.00  0.00     0.049 A 
ATOM     56  H   UNL A   1      41.033  30.018  32.805  1.00  0.00     0.167 HD
ATOM     57  C   UNL A   1      42.367  30.496  35.263  1.00  0.00     0.074 A 
ATOM     58  C   UNL A   1      42.702  31.058  36.555  1.00  0.00     0.031 C 
ATOM     59  C   UNL A   1      43.079  29.514  34.654  1.00  0.00     0.034 A 
BRANCH  46  60
ATOM     60  C   UNL A   1      40.780  27.784  29.160  1.00  0.00     0.023 A 
ATOM     61  C   UNL A   1      41.700  27.966  28.112  1.00  0.00     0.031 A 
ATOM     62  C   UNL A   1      39.893  26.696  29.075  1.00  0.00     0.131 A 
ATOM     63  C   UNL A   1      41.662  27.122  26.991  1.00  0.00     0.055 A 
ATOM     64  C   UNL A   1      39.913  25.812  27.994  1.00  0.00     0.041 A 
ATOM     65  F   UNL A   1      38.981  26.481  30.036  1.00  0.00    -0.206 F 
ATOM     66  C   UNL A   1      40.791  26.030  26.937  1.00  0.00     0.022 A 
BRANCH  63  67
ATOM     67  S   UNL A   1      42.677  27.546  25.551  1.00  0.00     0.124 S 
ATOM     68  O   UNL A   1      42.497  26.368  24.706  1.00  0.00    -0.237 OA
ATOM     69  O   UNL A   1      42.054  28.776  25.075  1.00  0.00    -0.237 OA
ATOM     70  O   UNL A   1      44.019  27.702  26.111  1.00  0.00    -0.744 OA
ENDBRANCH  63  67
ENDBRANCH  46  60
BRANCH  47  71
ATOM     71  C   UNL A   1      39.606  33.873  37.032  1.00  0.00     0.023 A 
ATOM     72  C   UNL A   1      38.984  33.378  38.190  1.00  0.00     0.031 A 
ATOM     73  C   UNL A   1      39.994  35.224  37.018  1.00  0.00     0.131 A 
ATOM     74  C   UNL A   1      38.717  34.239  39.264  1.00  0.00     0.055 A 
ATOM     75  C   UNL A   1      39.771  36.065  38.110  1.00  0.00     0.041 A 
ATOM     76  F   UNL A   1      40.598  35.746  35.939  1.00  0.00    -0.206 F 
ATOM     77  C   UNL A   1      39.115  35.578  39.236  1.00  0.00     0.022 A 
BRANCH  74  78
ATOM     78  S   UNL A   1      37.754  33.606  40.665  1.00  0.00     0.124 S 
ATOM     79  O   UNL A   1      38.736  32.771  41.349  1.00  0.00    -0.237 OA
ATOM     80  O   UNL A   1      37.370  34.836  41.348  1.00  0.00    -0.237 OA
ATOM     81  O   UNL A   1      36.658  32.883  40.023  1.00  0.00    -0.744 OA
ENDBRANCH  74  78
ENDBRANCH  47  71
BRANCH  59  82
ATOM     82  C   UNL A   1      44.311  29.024  35.375  1.00  0.00     0.023 A 
ATOM     83  C   UNL A   1      44.249  27.971  36.304  1.00  0.00     0.031 A 
ATOM     84  C   UNL A   1      45.552  29.646  35.159  1.00  0.00     0.131 A 
ATOM     85  C   UNL A   1      45.393  27.614  37.033  1.00  0.00     0.055 A 
ATOM     86  C   UNL A   1      46.701  29.247  35.844  1.00  0.00     0.041 A 
ATOM     87  F   UNL A   1      45.668  30.658  34.284  1.00  0.00    -0.206 F 
ATOM     88  C   UNL A   1      46.623  28.238  36.799  1.00  0.00     0.022 A 
BRANCH  85  89
ATOM     89  S   UNL A   1      45.228  26.400  38.370  1.00  0.00     0.124 S 
ATOM     90  O   UNL A   1      46.281  26.816  39.291  1.00  0.00    -0.237 OA
ATOM     91  O   UNL A   1      43.860  26.621  38.824  1.00  0.00    -0.237 OA
ATOM     92  O   UNL A   1      45.460  25.120  37.701  1.00  0.00    -0.744 OA
ENDBRANCH  85  89
ENDBRANCH  59  82
ENDBRANCH  33  34
ENDBRANCH  25  28
ENDBRANCH  23  24
ENDBRANCH   1  23
TORSDOF 16
ENDMDL
