MODEL 1
REMARK VINA RESULT:     -13.7      0.000      0.000
REMARK SMILES O=C(C[C@H](NC(=O)[C@]12C[C@H]3C[C@H](C[C@H](C3)C1)C2)c1cccc([N+](=O)[O-])c1)NCCCNC(=O)c1ccc(-c2c3nc(c(-c4cc(S(=O)(=O)[O-])ccc4F)c4ccc([nH]4)c(-c4cc(S(=O)(=O)[O-])ccc4F)c4nc(c(-c5cc(S(=O)(=O)[O-])ccc5F)c5ccc2[nH]5)C=C4)C=C3)cc1
REMARK SMILES IDX 29 1 28 2 27 3 1 4 2 5 3 7 4 8 18 9 19 10 26 11 20 12 22 13
REMARK SMILES IDX 21 14 23 15 24 16 25 17 5 18 6 19 7 21 8 22 9 23 16 24 17 25
REMARK SMILES IDX 10 26 14 27 12 28 11 29 15 30 13 31 30 32 31 33 32 34 33 36
REMARK SMILES IDX 34 37 35 38 96 39 36 40 95 41 37 42 38 43 39 44 89 45 40 46
REMARK SMILES IDX 94 47 88 48 90 49 41 50 93 51 87 52 86 53 42 55 74 56 54 57
REMARK SMILES IDX 73 58 55 59 58 60 72 61 91 62 56 63 57 64 71 66 92 67 59 68
REMARK SMILES IDX 43 69 44 70 52 71 45 72 51 73 53 74 50 75 46 76 47 77 48 78
REMARK SMILES IDX 49 79 75 80 76 81 84 82 77 83 83 84 85 85 82 86 78 87 79 88
REMARK SMILES IDX 80 89 81 90 60 91 61 92 69 93 62 94 68 95 70 96 67 97 63 98
REMARK SMILES IDX 64 99 65 100 66 101
REMARK H PARENT 27 6 5 20 31 35 90 54 58 65
REMARK Flexibility Score: inf
ROOT
ATOM      1  C   UNL A   1      31.758  31.978  26.913  1.00  0.00     0.042 C 
ENDROOT
BRANCH   1   2
ATOM      2  C   UNL A   1      32.035  30.492  26.797  1.00  0.00     0.117 C 
BRANCH   2   3
ATOM      3  N   UNL A   1      32.042  30.055  25.417  1.00  0.00    -0.356 N 
ATOM      4  O   UNL A   1      34.036  28.941  25.544  1.00  0.00    -0.275 OA
ATOM      5  C   UNL A   1      33.017  29.232  24.924  1.00  0.00     0.222 C 
ATOM      6  H   UNL A   1      31.325  30.359  24.816  1.00  0.00     0.163 HD
BRANCH   5   7
ATOM      7  C   UNL A   1      32.754  28.664  23.549  1.00  0.00     0.129 C 
BRANCH   7   8
ATOM      8  C   UNL A   1      31.923  27.354  23.460  1.00  0.00     0.122 C 
BRANCH   8   9
ATOM      9  C   UNL A   1      30.408  27.553  23.548  1.00  0.00    -0.018 A 
ATOM     10  C   UNL A   1      29.531  26.571  24.040  1.00  0.00     0.006 A 
ATOM     11  C   UNL A   1      29.845  28.744  23.043  1.00  0.00     0.091 A 
ATOM     12  C   UNL A   1      28.143  26.717  23.921  1.00  0.00     0.007 A 
ATOM     13  C   UNL A   1      28.458  28.867  22.886  1.00  0.00     0.269 A 
ATOM     14  C   UNL A   1      27.603  27.851  23.316  1.00  0.00     0.085 A 
BRANCH  13  15
ATOM     15  N   UNL A   1      27.908  30.050  22.212  1.00  0.00     0.062 N 
ATOM     16  O   UNL A   1      27.308  30.882  22.908  1.00  0.00    -0.258 OA
ATOM     17  O   UNL A   1      28.086  30.152  20.990  1.00  0.00    -0.258 OA
ENDBRANCH  13  15
ENDBRANCH   8   9
BRANCH   8  18
ATOM     18  N   UNL A   1      32.347  26.594  22.277  1.00  0.00    -0.348 N 
ATOM     19  C   UNL A   1      33.074  25.447  22.136  1.00  0.00     0.226 C 
ATOM     20  H   UNL A   1      32.051  26.985  21.423  1.00  0.00     0.164 HD
ATOM     21  O   UNL A   1      33.371  25.147  20.976  1.00  0.00    -0.274 OA
BRANCH  19  22
ATOM     22  C   UNL A   1      33.458  24.535  23.320  1.00  0.00     0.050 C 
ATOM     23  C   UNL A   1      34.341  23.349  22.814  1.00  0.00     0.020 C 
ATOM     24  C   UNL A   1      32.187  23.904  23.936  1.00  0.00     0.020 C 
ATOM     25  C   UNL A   1      34.294  25.262  24.395  1.00  0.00     0.020 C 
ATOM     26  C   UNL A   1      34.714  22.399  23.972  1.00  0.00    -0.010 C 
ATOM     27  C   UNL A   1      32.553  22.991  25.117  1.00  0.00    -0.010 C 
ATOM     28  C   UNL A   1      34.642  24.333  25.562  1.00  0.00    -0.010 C 
ATOM     29  C   UNL A   1      35.497  23.175  25.040  1.00  0.00     0.007 C 
ATOM     30  C   UNL A   1      33.432  21.839  24.609  1.00  0.00     0.007 C 
ATOM     31  C   UNL A   1      33.332  23.801  26.167  1.00  0.00     0.007 C 
ENDBRANCH  19  22
ENDBRANCH   8  18
ENDBRANCH   7   8
ENDBRANCH   5   7
ENDBRANCH   2   3
ENDBRANCH   1   2
BRANCH   1  32
ATOM     32  C   UNL A   1      32.960  32.780  27.391  1.00  0.00     0.118 C 
BRANCH  32  33
ATOM     33  N   UNL A   1      32.626  34.161  27.724  1.00  0.00    -0.352 N 
ATOM     34  C   UNL A   1      33.143  34.966  28.710  1.00  0.00     0.251 C 
ATOM     35  H   UNL A   1      31.932  34.573  27.162  1.00  0.00     0.163 HD
ATOM     36  O   UNL A   1      32.614  36.049  28.945  1.00  0.00    -0.269 OA
BRANCH  34  37
ATOM     37  C   UNL A   1      34.302  34.503  29.500  1.00  0.00     0.039 A 
ATOM     38  C   UNL A   1      34.082  33.930  30.753  1.00  0.00     0.014 A 
ATOM     39  C   UNL A   1      35.599  34.602  28.988  1.00  0.00     0.014 A 
ATOM     40  C   UNL A   1      35.156  33.387  31.459  1.00  0.00     0.010 A 
ATOM     41  C   UNL A   1      36.652  33.981  29.652  1.00  0.00     0.010 A 
ATOM     42  C   UNL A   1      36.444  33.368  30.897  1.00  0.00    -0.014 A 
BRANCH  42  43
ATOM     43  C   UNL A   1      37.582  32.716  31.595  1.00  0.00     0.031 A 
ATOM     44  C   UNL A   1      38.299  31.560  30.949  1.00  0.00     0.074 A 
ATOM     45  C   UNL A   1      37.933  33.127  32.830  1.00  0.00     0.049 A 
ATOM     46  N   UNL A   1      39.266  30.817  31.422  1.00  0.00    -0.248 NA
ATOM     47  C   UNL A   1      37.843  31.169  29.606  1.00  0.00     0.031 C 
ATOM     48  C   UNL A   1      37.286  34.208  33.576  1.00  0.00     0.029 A 
ATOM     49  N   UNL A   1      38.914  32.681  33.680  1.00  0.00    -0.354 N 
ATOM     50  C   UNL A   1      39.527  29.865  30.442  1.00  0.00     0.074 A 
ATOM     51  C   UNL A   1      38.569  30.085  29.380  1.00  0.00     0.031 C 
ATOM     52  C   UNL A   1      37.907  34.360  34.758  1.00  0.00     0.029 A 
ATOM     53  C   UNL A   1      38.960  33.358  34.877  1.00  0.00     0.049 A 
ATOM     54  H   UNL A   1      39.527  31.944  33.454  1.00  0.00     0.167 HD
ATOM     55  C   UNL A   1      40.494  28.915  30.418  1.00  0.00     0.034 A 
ATOM     56  C   UNL A   1      39.752  33.184  35.954  1.00  0.00     0.034 A 
ATOM     57  C   UNL A   1      41.448  28.717  31.482  1.00  0.00     0.049 A 
ATOM     58  C   UNL A   1      40.800  32.099  35.917  1.00  0.00     0.074 A 
ATOM     59  C   UNL A   1      42.501  27.820  31.539  1.00  0.00     0.029 A 
ATOM     60  N   UNL A   1      41.462  29.420  32.681  1.00  0.00    -0.354 N 
ATOM     61  N   UNL A   1      41.069  31.241  34.960  1.00  0.00    -0.248 NA
ATOM     62  C   UNL A   1      41.657  31.967  37.101  1.00  0.00     0.031 C 
ATOM     63  C   UNL A   1      43.102  27.928  32.798  1.00  0.00     0.029 A 
ATOM     64  C   UNL A   1      42.482  28.952  33.496  1.00  0.00     0.049 A 
ATOM     65  H   UNL A   1      40.838  30.143  32.917  1.00  0.00     0.167 HD
ATOM     66  C   UNL A   1      42.150  30.491  35.415  1.00  0.00     0.074 A 
ATOM     67  C   UNL A   1      42.491  31.009  36.724  1.00  0.00     0.031 C 
ATOM     68  C   UNL A   1      42.805  29.470  34.806  1.00  0.00     0.034 A 
BRANCH  55  69
ATOM     69  C   UNL A   1      40.545  28.005  29.213  1.00  0.00     0.023 A 
ATOM     70  C   UNL A   1      41.498  28.182  28.194  1.00  0.00     0.031 A 
ATOM     71  C   UNL A   1      39.613  26.963  29.064  1.00  0.00     0.131 A 
ATOM     72  C   UNL A   1      41.448  27.384  27.041  1.00  0.00     0.055 A 
ATOM     73  C   UNL A   1      39.624  26.116  27.955  1.00  0.00     0.041 A 
ATOM     74  F   UNL A   1      38.664  26.758  29.992  1.00  0.00    -0.206 F 
ATOM     75  C   UNL A   1      40.535  26.334  26.926  1.00  0.00     0.022 A 
BRANCH  72  76
ATOM     76  S   UNL A   1      42.495  27.837  25.631  1.00  0.00     0.124 S 
ATOM     77  O   UNL A   1      42.495  26.598  24.853  1.00  0.00    -0.237 OA
ATOM     78  O   UNL A   1      41.771  28.958  25.045  1.00  0.00    -0.237 OA
ATOM     79  O   UNL A   1      43.777  28.174  26.249  1.00  0.00    -0.744 OA
ENDBRANCH  72  76
ENDBRANCH  55  69
BRANCH  56  80
ATOM     80  C   UNL A   1      39.588  34.042  37.163  1.00  0.00     0.023 A 
ATOM     81  C   UNL A   1      38.987  33.542  38.329  1.00  0.00     0.031 A 
ATOM     82  C   UNL A   1      39.989  35.391  37.155  1.00  0.00     0.131 A 
ATOM     83  C   UNL A   1      38.755  34.397  39.419  1.00  0.00     0.055 A 
ATOM     84  C   UNL A   1      39.810  36.220  38.264  1.00  0.00     0.041 A 
ATOM     85  F   UNL A   1      40.573  35.919  36.068  1.00  0.00    -0.206 F 
ATOM     86  C   UNL A   1      39.176  35.728  39.399  1.00  0.00     0.022 A 
BRANCH  83  87
ATOM     87  S   UNL A   1      37.808  33.764  40.831  1.00  0.00     0.124 S 
ATOM     88  O   UNL A   1      36.715  33.065  40.166  1.00  0.00    -0.237 OA
ATOM     89  O   UNL A   1      38.793  32.924  41.504  1.00  0.00    -0.237 OA
ATOM     90  O   UNL A   1      37.427  34.976  41.554  1.00  0.00    -0.744 OA
ENDBRANCH  83  87
ENDBRANCH  56  80
BRANCH  68  91
ATOM     91  C   UNL A   1      43.990  28.882  35.534  1.00  0.00     0.023 A 
ATOM     92  C   UNL A   1      43.862  27.771  36.387  1.00  0.00     0.031 A 
ATOM     93  C   UNL A   1      45.267  29.451  35.378  1.00  0.00     0.131 A 
ATOM     94  C   UNL A   1      44.978  27.303  37.096  1.00  0.00     0.055 A 
ATOM     95  C   UNL A   1      46.386  28.939  36.036  1.00  0.00     0.041 A 
ATOM     96  F   UNL A   1      45.449  30.514  34.579  1.00  0.00    -0.206 F 
ATOM     97  C   UNL A   1      46.243  27.868  36.912  1.00  0.00     0.022 A 
BRANCH  94  98
ATOM     98  S   UNL A   1      44.736  26.007  38.343  1.00  0.00     0.124 S 
ATOM     99  O   UNL A   1      44.190  26.764  39.464  1.00  0.00    -0.237 OA
ATOM    100  O   UNL A   1      43.810  25.100  37.674  1.00  0.00    -0.237 OA
ATOM    101  O   UNL A   1      46.082  25.475  38.550  1.00  0.00    -0.744 OA
ENDBRANCH  94  98
ENDBRANCH  68  91
ENDBRANCH  42  43
ENDBRANCH  34  37
ENDBRANCH  32  33
ENDBRANCH   1  32
TORSDOF 18
ENDMDL
MODEL 2
REMARK VINA RESULT:     -13.4      1.350      1.814
REMARK SMILES O=C(C[C@H](NC(=O)[C@]12C[C@H]3C[C@H](C[C@H](C3)C1)C2)c1cccc([N+](=O)[O-])c1)NCCCNC(=O)c1ccc(-c2c3nc(c(-c4cc(S(=O)(=O)[O-])ccc4F)c4ccc([nH]4)c(-c4cc(S(=O)(=O)[O-])ccc4F)c4nc(c(-c5cc(S(=O)(=O)[O-])ccc5F)c5ccc2[nH]5)C=C4)C=C3)cc1
REMARK SMILES IDX 29 1 28 2 27 3 1 4 2 5 3 7 4 8 18 9 19 10 26 11 20 12 22 13
REMARK SMILES IDX 21 14 23 15 24 16 25 17 5 18 6 19 7 21 8 22 9 23 16 24 17 25
REMARK SMILES IDX 10 26 14 27 12 28 11 29 15 30 13 31 30 32 31 33 32 34 33 36
REMARK SMILES IDX 34 37 35 38 96 39 36 40 95 41 37 42 38 43 39 44 89 45 40 46
REMARK SMILES IDX 94 47 88 48 90 49 41 50 93 51 87 52 86 53 42 55 74 56 54 57
REMARK SMILES IDX 73 58 55 59 58 60 72 61 91 62 56 63 57 64 71 66 92 67 59 68
REMARK SMILES IDX 43 69 44 70 52 71 45 72 51 73 53 74 50 75 46 76 47 77 48 78
REMARK SMILES IDX 49 79 75 80 76 81 84 82 77 83 83 84 85 85 82 86 78 87 79 88
REMARK SMILES IDX 80 89 81 90 60 91 61 92 69 93 62 94 68 95 70 96 67 97 63 98
REMARK SMILES IDX 64 99 65 100 66 101
REMARK H PARENT 27 6 5 20 31 35 90 54 58 65
REMARK Flexibility Score: inf
ROOT
ATOM      1  C   UNL A   1      31.833  31.790  26.857  1.00  0.00     0.042 C 
ENDROOT
BRANCH   1   2
ATOM      2  C   UNL A   1      32.133  30.329  26.582  1.00  0.00     0.117 C 
BRANCH   2   3
ATOM      3  N   UNL A   1      32.184  30.051  25.163  1.00  0.00    -0.356 N 
ATOM      4  O   UNL A   1      33.993  28.657  25.271  1.00  0.00    -0.275 OA
ATOM      5  C   UNL A   1      33.073  29.157  24.632  1.00  0.00     0.222 C 
ATOM      6  H   UNL A   1      31.561  30.520  24.562  1.00  0.00     0.163 HD
BRANCH   5   7
ATOM      7  C   UNL A   1      32.838  28.789  23.186  1.00  0.00     0.129 C 
BRANCH   7   8
ATOM      8  C   UNL A   1      31.752  27.718  22.884  1.00  0.00     0.122 C 
BRANCH   8   9
ATOM      9  C   UNL A   1      30.314  28.243  22.916  1.00  0.00    -0.018 A 
ATOM     10  C   UNL A   1      29.239  27.504  23.440  1.00  0.00     0.006 A 
ATOM     11  C   UNL A   1      30.029  29.493  22.328  1.00  0.00     0.091 A 
ATOM     12  C   UNL A   1      27.917  27.936  23.272  1.00  0.00     0.007 A 
ATOM     13  C   UNL A   1      28.704  29.900  22.125  1.00  0.00     0.269 A 
ATOM     14  C   UNL A   1      27.643  29.120  22.588  1.00  0.00     0.085 A 
BRANCH  13  15
ATOM     15  N   UNL A   1      28.433  31.129  21.368  1.00  0.00     0.062 N 
ATOM     16  O   UNL A   1      27.675  31.047  20.390  1.00  0.00    -0.258 OA
ATOM     17  O   UNL A   1      28.969  32.176  21.756  1.00  0.00    -0.258 OA
ENDBRANCH  13  15
ENDBRANCH   8   9
BRANCH   8  18
ATOM     18  N   UNL A   1      32.094  27.023  21.636  1.00  0.00    -0.348 N 
ATOM     19  C   UNL A   1      32.602  25.780  21.389  1.00  0.00     0.226 C 
ATOM     20  H   UNL A   1      31.926  27.553  20.824  1.00  0.00     0.164 HD
ATOM     21  O   UNL A   1      32.904  25.556  20.214  1.00  0.00    -0.274 OA
BRANCH  19  22
ATOM     22  C   UNL A   1      32.740  24.690  22.472  1.00  0.00     0.050 C 
ATOM     23  C   UNL A   1      33.792  25.132  23.541  1.00  0.00     0.020 C 
ATOM     24  C   UNL A   1      33.279  23.384  21.842  1.00  0.00     0.020 C 
ATOM     25  C   UNL A   1      31.427  24.435  23.243  1.00  0.00     0.020 C 
ATOM     26  C   UNL A   1      33.977  24.046  24.622  1.00  0.00    -0.010 C 
ATOM     27  C   UNL A   1      33.424  22.286  22.909  1.00  0.00    -0.010 C 
ATOM     28  C   UNL A   1      31.597  23.336  24.297  1.00  0.00    -0.010 C 
ATOM     29  C   UNL A   1      32.637  23.788  25.326  1.00  0.00     0.007 C 
ATOM     30  C   UNL A   1      34.447  22.740  23.961  1.00  0.00     0.007 C 
ATOM     31  C   UNL A   1      32.065  22.053  23.590  1.00  0.00     0.007 C 
ENDBRANCH  19  22
ENDBRANCH   8  18
ENDBRANCH   7   8
ENDBRANCH   5   7
ENDBRANCH   2   3
ENDBRANCH   1   2
BRANCH   1  32
ATOM     32  C   UNL A   1      33.019  32.551  27.434  1.00  0.00     0.118 C 
BRANCH  32  33
ATOM     33  N   UNL A   1      32.704  33.940  27.750  1.00  0.00    -0.352 N 
ATOM     34  C   UNL A   1      33.225  34.747  28.732  1.00  0.00     0.251 C 
ATOM     35  H   UNL A   1      32.021  34.357  27.178  1.00  0.00     0.163 HD
ATOM     36  O   UNL A   1      32.712  35.840  28.951  1.00  0.00    -0.269 OA
BRANCH  34  37
ATOM     37  C   UNL A   1      34.371  34.274  29.536  1.00  0.00     0.039 A 
ATOM     38  C   UNL A   1      34.125  33.567  30.714  1.00  0.00     0.014 A 
ATOM     39  C   UNL A   1      35.682  34.497  29.109  1.00  0.00     0.014 A 
ATOM     40  C   UNL A   1      35.194  33.018  31.423  1.00  0.00     0.010 A 
ATOM     41  C   UNL A   1      36.737  33.873  29.767  1.00  0.00     0.010 A 
ATOM     42  C   UNL A   1      36.507  33.128  30.933  1.00  0.00    -0.014 A 
BRANCH  42  43
ATOM     43  C   UNL A   1      37.648  32.476  31.627  1.00  0.00     0.031 A 
ATOM     44  C   UNL A   1      38.396  31.356  30.954  1.00  0.00     0.074 A 
ATOM     45  C   UNL A   1      37.971  32.851  32.880  1.00  0.00     0.049 A 
ATOM     46  N   UNL A   1      39.371  30.617  31.417  1.00  0.00    -0.248 NA
ATOM     47  C   UNL A   1      37.969  31.001  29.592  1.00  0.00     0.031 C 
ATOM     48  C   UNL A   1      37.292  33.894  33.652  1.00  0.00     0.029 A 
ATOM     49  N   UNL A   1      38.948  32.396  33.730  1.00  0.00    -0.354 N 
ATOM     50  C   UNL A   1      39.666  29.704  30.410  1.00  0.00     0.074 A 
ATOM     51  C   UNL A   1      38.720  29.940  29.342  1.00  0.00     0.031 C 
ATOM     52  C   UNL A   1      37.892  34.019  34.847  1.00  0.00     0.029 A 
ATOM     53  C   UNL A   1      38.963  33.033  34.950  1.00  0.00     0.049 A 
ATOM     54  H   UNL A   1      39.579  31.680  33.490  1.00  0.00     0.167 HD
ATOM     55  C   UNL A   1      40.651  28.773  30.370  1.00  0.00     0.034 A 
ATOM     56  C   UNL A   1      39.742  32.839  36.033  1.00  0.00     0.034 A 
ATOM     57  C   UNL A   1      41.594  28.558  31.442  1.00  0.00     0.049 A 
ATOM     58  C   UNL A   1      40.812  31.777  35.976  1.00  0.00     0.074 A 
ATOM     59  C   UNL A   1      42.663  27.681  31.485  1.00  0.00     0.029 A 
ATOM     60  N   UNL A   1      41.575  29.221  32.663  1.00  0.00    -0.354 N 
ATOM     61  N   UNL A   1      41.113  30.957  34.995  1.00  0.00    -0.248 NA
ATOM     62  C   UNL A   1      41.654  31.622  37.168  1.00  0.00     0.031 C 
ATOM     63  C   UNL A   1      43.243  27.759  32.756  1.00  0.00     0.029 A 
ATOM     64  C   UNL A   1      42.592  28.746  33.478  1.00  0.00     0.049 A 
ATOM     65  H   UNL A   1      40.933  29.923  32.914  1.00  0.00     0.167 HD
ATOM     66  C   UNL A   1      42.201  30.213  35.442  1.00  0.00     0.074 A 
ATOM     67  C   UNL A   1      42.512  30.693  36.772  1.00  0.00     0.031 C 
ATOM     68  C   UNL A   1      42.886  29.226  34.809  1.00  0.00     0.034 A 
BRANCH  55  69
ATOM     69  C   UNL A   1      40.739  27.906  29.136  1.00  0.00     0.023 A 
ATOM     70  C   UNL A   1      41.649  28.184  28.100  1.00  0.00     0.031 A 
ATOM     71  C   UNL A   1      39.884  26.801  28.977  1.00  0.00     0.131 A 
ATOM     72  C   UNL A   1      41.628  27.419  26.924  1.00  0.00     0.055 A 
ATOM     73  C   UNL A   1      39.929  25.990  27.842  1.00  0.00     0.041 A 
ATOM     74  F   UNL A   1      38.978  26.498  29.921  1.00  0.00    -0.206 F 
ATOM     75  C   UNL A   1      40.794  26.306  26.799  1.00  0.00     0.022 A 
BRANCH  72  76
ATOM     76  S   UNL A   1      42.601  27.991  25.504  1.00  0.00     0.124 S 
ATOM     77  O   UNL A   1      43.859  28.372  26.143  1.00  0.00    -0.237 OA
ATOM     78  O   UNL A   1      42.649  26.806  24.655  1.00  0.00    -0.237 OA
ATOM     79  O   UNL A   1      41.816  29.106  24.977  1.00  0.00    -0.744 OA
ENDBRANCH  72  76
ENDBRANCH  55  69
BRANCH  56  80
ATOM     80  C   UNL A   1      39.543  33.652  37.267  1.00  0.00     0.023 A 
ATOM     81  C   UNL A   1      40.303  34.809  37.502  1.00  0.00     0.031 A 
ATOM     82  C   UNL A   1      38.620  33.260  38.253  1.00  0.00     0.131 A 
ATOM     83  C   UNL A   1      40.166  35.503  38.715  1.00  0.00     0.055 A 
ATOM     84  C   UNL A   1      38.445  33.987  39.432  1.00  0.00     0.041 A 
ATOM     85  F   UNL A   1      37.864  32.164  38.078  1.00  0.00    -0.206 F 
ATOM     86  C   UNL A   1      39.232  35.108  39.675  1.00  0.00     0.022 A 
BRANCH  83  87
ATOM     87  S   UNL A   1      41.297  36.879  39.060  1.00  0.00     0.124 S 
ATOM     88  O   UNL A   1      42.257  36.754  37.970  1.00  0.00    -0.237 OA
ATOM     89  O   UNL A   1      40.402  38.029  39.001  1.00  0.00    -0.237 OA
ATOM     90  O   UNL A   1      41.818  36.564  40.389  1.00  0.00    -0.744 OA
ENDBRANCH  83  87
ENDBRANCH  56  80
BRANCH  68  91
ATOM     91  C   UNL A   1      44.071  28.636  35.535  1.00  0.00     0.023 A 
ATOM     92  C   UNL A   1      43.937  27.552  36.420  1.00  0.00     0.031 A 
ATOM     93  C   UNL A   1      45.355  29.179  35.346  1.00  0.00     0.131 A 
ATOM     94  C   UNL A   1      45.055  27.083  37.126  1.00  0.00     0.055 A 
ATOM     95  C   UNL A   1      46.475  28.665  36.001  1.00  0.00     0.041 A 
ATOM     96  F   UNL A   1      45.544  30.217  34.516  1.00  0.00    -0.206 F 
ATOM     97  C   UNL A   1      46.326  27.620  36.908  1.00  0.00     0.022 A 
BRANCH  94  98
ATOM     98  S   UNL A   1      44.810  25.826  38.410  1.00  0.00     0.124 S 
ATOM     99  O   UNL A   1      44.024  24.820  37.703  1.00  0.00    -0.237 OA
ATOM    100  O   UNL A   1      46.179  25.448  38.743  1.00  0.00    -0.237 OA
ATOM    101  O   UNL A   1      44.094  26.545  39.462  1.00  0.00    -0.744 OA
ENDBRANCH  94  98
ENDBRANCH  68  91
ENDBRANCH  42  43
ENDBRANCH  34  37
ENDBRANCH  32  33
ENDBRANCH   1  32
TORSDOF 18
ENDMDL
MODEL 3
REMARK VINA RESULT:     -13.2      6.204     12.039
REMARK SMILES O=C(C[C@H](NC(=O)[C@]12C[C@H]3C[C@H](C[C@H](C3)C1)C2)c1cccc([N+](=O)[O-])c1)NCCCNC(=O)c1ccc(-c2c3nc(c(-c4cc(S(=O)(=O)[O-])ccc4F)c4ccc([nH]4)c(-c4cc(S(=O)(=O)[O-])ccc4F)c4nc(c(-c5cc(S(=O)(=O)[O-])ccc5F)c5ccc2[nH]5)C=C4)C=C3)cc1
REMARK SMILES IDX 29 1 28 2 27 3 1 4 2 5 3 7 4 8 18 9 19 10 26 11 20 12 22 13
REMARK SMILES IDX 21 14 23 15 24 16 25 17 5 18 6 19 7 21 8 22 9 23 16 24 17 25
REMARK SMILES IDX 10 26 14 27 12 28 11 29 15 30 13 31 30 32 31 33 32 34 33 36
REMARK SMILES IDX 34 37 35 38 96 39 36 40 95 41 37 42 38 43 39 44 89 45 40 46
REMARK SMILES IDX 94 47 88 48 90 49 41 50 93 51 87 52 86 53 42 55 74 56 54 57
REMARK SMILES IDX 73 58 55 59 58 60 72 61 91 62 56 63 57 64 71 66 92 67 59 68
REMARK SMILES IDX 43 69 44 70 52 71 45 72 51 73 53 74 50 75 46 76 47 77 48 78
REMARK SMILES IDX 49 79 75 80 76 81 84 82 77 83 83 84 85 85 82 86 78 87 79 88
REMARK SMILES IDX 80 89 81 90 60 91 61 92 69 93 62 94 68 95 70 96 67 97 63 98
REMARK SMILES IDX 64 99 65 100 66 101
REMARK H PARENT 27 6 5 20 31 35 90 54 58 65
REMARK Flexibility Score: inf
ROOT
ATOM      1  C   UNL A   1      38.299  20.094  25.093  1.00  0.00     0.042 C 
ENDROOT
BRANCH   1   2
ATOM      2  C   UNL A   1      37.320  21.249  25.008  1.00  0.00     0.117 C 
BRANCH   2   3
ATOM      3  N   UNL A   1      36.059  20.929  25.644  1.00  0.00    -0.356 N 
ATOM      4  O   UNL A   1      35.637  23.052  26.384  1.00  0.00    -0.275 OA
ATOM      5  C   UNL A   1      35.272  21.892  26.214  1.00  0.00     0.222 C 
ATOM      6  H   UNL A   1      35.760  19.992  25.666  1.00  0.00     0.163 HD
BRANCH   5   7
ATOM      7  C   UNL A   1      33.884  21.446  26.608  1.00  0.00     0.129 C 
BRANCH   7   8
ATOM      8  C   UNL A   1      32.761  21.560  25.539  1.00  0.00     0.122 C 
BRANCH   8   9
ATOM      9  C   UNL A   1      32.729  20.414  24.525  1.00  0.00    -0.018 A 
ATOM     10  C   UNL A   1      32.340  20.586  23.185  1.00  0.00     0.006 A 
ATOM     11  C   UNL A   1      33.027  19.106  24.961  1.00  0.00     0.091 A 
ATOM     12  C   UNL A   1      32.136  19.482  22.346  1.00  0.00     0.007 A 
ATOM     13  C   UNL A   1      32.781  18.003  24.132  1.00  0.00     0.269 A 
ATOM     14  C   UNL A   1      32.327  18.187  22.825  1.00  0.00     0.085 A 
BRANCH  13  15
ATOM     15  N   UNL A   1      32.949  16.646  24.666  1.00  0.00     0.062 N 
ATOM     16  O   UNL A   1      32.406  16.383  25.748  1.00  0.00    -0.258 OA
ATOM     17  O   UNL A   1      33.613  15.841  23.997  1.00  0.00    -0.258 OA
ENDBRANCH  13  15
ENDBRANCH   8   9
BRANCH   8  18
ATOM     18  N   UNL A   1      31.475  21.783  26.213  1.00  0.00    -0.348 N 
ATOM     19  C   UNL A   1      30.763  22.918  26.475  1.00  0.00     0.226 C 
ATOM     20  H   UNL A   1      31.045  20.959  26.537  1.00  0.00     0.164 HD
ATOM     21  O   UNL A   1      29.769  22.765  27.191  1.00  0.00    -0.274 OA
BRANCH  19  22
ATOM     22  C   UNL A   1      31.114  24.297  25.880  1.00  0.00     0.050 C 
ATOM     23  C   UNL A   1      31.356  24.166  24.341  1.00  0.00     0.020 C 
ATOM     24  C   UNL A   1      32.439  24.814  26.489  1.00  0.00     0.020 C 
ATOM     25  C   UNL A   1      29.983  25.334  26.049  1.00  0.00     0.020 C 
ATOM     26  C   UNL A   1      31.743  25.526  23.721  1.00  0.00    -0.010 C 
ATOM     27  C   UNL A   1      32.805  26.188  25.904  1.00  0.00    -0.010 C 
ATOM     28  C   UNL A   1      30.373  26.694  25.462  1.00  0.00    -0.010 C 
ATOM     29  C   UNL A   1      30.613  26.538  23.958  1.00  0.00     0.007 C 
ATOM     30  C   UNL A   1      33.024  26.049  24.391  1.00  0.00     0.007 C 
ATOM     31  C   UNL A   1      31.654  27.176  26.163  1.00  0.00     0.007 C 
ENDBRANCH  19  22
ENDBRANCH   8  18
ENDBRANCH   7   8
ENDBRANCH   5   7
ENDBRANCH   2   3
ENDBRANCH   1   2
BRANCH   1  32
ATOM     32  C   UNL A   1      39.486  20.375  26.003  1.00  0.00     0.118 C 
BRANCH  32  33
ATOM     33  N   UNL A   1      40.444  19.276  26.045  1.00  0.00    -0.352 N 
ATOM     34  C   UNL A   1      41.812  19.318  26.163  1.00  0.00     0.251 C 
ATOM     35  H   UNL A   1      40.053  18.375  25.980  1.00  0.00     0.163 HD
ATOM     36  O   UNL A   1      42.464  18.289  26.010  1.00  0.00    -0.269 OA
BRANCH  34  37
ATOM     37  C   UNL A   1      42.482  20.606  26.434  1.00  0.00     0.039 A 
ATOM     38  C   UNL A   1      42.957  21.362  25.360  1.00  0.00     0.014 A 
ATOM     39  C   UNL A   1      42.609  21.083  27.741  1.00  0.00     0.014 A 
ATOM     40  C   UNL A   1      43.490  22.630  25.594  1.00  0.00     0.010 A 
ATOM     41  C   UNL A   1      43.057  22.381  27.962  1.00  0.00     0.010 A 
ATOM     42  C   UNL A   1      43.505  23.170  26.891  1.00  0.00    -0.014 A 
BRANCH  42  43
ATOM     43  C   UNL A   1      43.988  24.552  27.147  1.00  0.00     0.031 A 
ATOM     44  C   UNL A   1      43.034  25.600  27.655  1.00  0.00     0.074 A 
ATOM     45  C   UNL A   1      45.266  24.876  26.869  1.00  0.00     0.049 A 
ATOM     46  N   UNL A   1      43.243  26.873  27.874  1.00  0.00    -0.248 NA
ATOM     47  C   UNL A   1      41.654  25.164  27.920  1.00  0.00     0.031 C 
ATOM     48  C   UNL A   1      46.273  23.958  26.333  1.00  0.00     0.029 A 
ATOM     49  N   UNL A   1      45.938  26.067  26.991  1.00  0.00    -0.354 N 
ATOM     50  C   UNL A   1      42.021  27.391  28.291  1.00  0.00     0.074 A 
ATOM     51  C   UNL A   1      41.064  26.308  28.227  1.00  0.00     0.031 C 
ATOM     52  C   UNL A   1      47.440  24.611  26.201  1.00  0.00     0.029 A 
ATOM     53  C   UNL A   1      47.254  26.004  26.594  1.00  0.00     0.049 A 
ATOM     54  H   UNL A   1      45.517  26.889  27.330  1.00  0.00     0.167 HD
ATOM     55  C   UNL A   1      41.731  28.646  28.714  1.00  0.00     0.034 A 
ATOM     56  C   UNL A   1      48.201  26.962  26.539  1.00  0.00     0.034 A 
ATOM     57  C   UNL A   1      42.702  29.712  28.782  1.00  0.00     0.049 A 
ATOM     58  C   UNL A   1      47.847  28.359  26.986  1.00  0.00     0.074 A 
ATOM     59  C   UNL A   1      42.531  31.005  29.244  1.00  0.00     0.029 A 
ATOM     60  N   UNL A   1      44.025  29.612  28.368  1.00  0.00    -0.354 N 
ATOM     61  N   UNL A   1      46.700  28.821  27.428  1.00  0.00    -0.248 NA
ATOM     62  C   UNL A   1      48.919  29.361  26.936  1.00  0.00     0.031 C 
ATOM     63  C   UNL A   1      43.724  31.706  29.041  1.00  0.00     0.029 A 
ATOM     64  C   UNL A   1      44.669  30.829  28.532  1.00  0.00     0.049 A 
ATOM     65  H   UNL A   1      44.443  28.796  28.010  1.00  0.00     0.167 HD
ATOM     66  C   UNL A   1      46.924  30.159  27.741  1.00  0.00     0.074 A 
ATOM     67  C   UNL A   1      48.318  30.423  27.452  1.00  0.00     0.031 C 
ATOM     68  C   UNL A   1      46.058  31.084  28.228  1.00  0.00     0.034 A 
BRANCH  55  69
ATOM     69  C   UNL A   1      40.303  28.934  29.111  1.00  0.00     0.023 A 
ATOM     70  C   UNL A   1      39.896  28.941  30.457  1.00  0.00     0.031 A 
ATOM     71  C   UNL A   1      39.324  29.178  28.131  1.00  0.00     0.131 A 
ATOM     72  C   UNL A   1      38.541  29.108  30.781  1.00  0.00     0.055 A 
ATOM     73  C   UNL A   1      37.993  29.431  28.465  1.00  0.00     0.041 A 
ATOM     74  F   UNL A   1      39.645  29.162  26.827  1.00  0.00    -0.206 F 
ATOM     75  C   UNL A   1      37.590  29.381  29.795  1.00  0.00     0.022 A 
BRANCH  72  76
ATOM     76  S   UNL A   1      38.018  28.814  32.493  1.00  0.00     0.124 S 
ATOM     77  O   UNL A   1      38.144  27.361  32.593  1.00  0.00    -0.237 OA
ATOM     78  O   UNL A   1      38.984  29.592  33.258  1.00  0.00    -0.237 OA
ATOM     79  O   UNL A   1      36.645  29.316  32.523  1.00  0.00    -0.744 OA
ENDBRANCH  72  76
ENDBRANCH  55  69
BRANCH  56  80
ATOM     80  C   UNL A   1      49.570  26.648  26.037  1.00  0.00     0.023 A 
ATOM     81  C   UNL A   1      49.996  27.087  24.773  1.00  0.00     0.031 A 
ATOM     82  C   UNL A   1      50.459  25.864  26.795  1.00  0.00     0.131 A 
ATOM     83  C   UNL A   1      51.252  26.696  24.283  1.00  0.00     0.055 A 
ATOM     84  C   UNL A   1      51.730  25.527  26.327  1.00  0.00     0.041 A 
ATOM     85  F   UNL A   1      50.104  25.420  28.012  1.00  0.00    -0.206 F 
ATOM     86  C   UNL A   1      52.127  25.932  25.057  1.00  0.00     0.022 A 
BRANCH  83  87
ATOM     87  S   UNL A   1      51.688  27.125  22.575  1.00  0.00     0.124 S 
ATOM     88  O   UNL A   1      52.058  28.529  22.706  1.00  0.00    -0.237 OA
ATOM     89  O   UNL A   1      52.778  26.196  22.298  1.00  0.00    -0.237 OA
ATOM     90  O   UNL A   1      50.452  26.871  21.836  1.00  0.00    -0.744 OA
ENDBRANCH  83  87
ENDBRANCH  56  80
BRANCH  68  91
ATOM     91  C   UNL A   1      46.614  32.457  28.524  1.00  0.00     0.023 A 
ATOM     92  C   UNL A   1      46.667  33.464  27.545  1.00  0.00     0.031 A 
ATOM     93  C   UNL A   1      47.109  32.755  29.807  1.00  0.00     0.131 A 
ATOM     94  C   UNL A   1      47.256  34.701  27.847  1.00  0.00     0.055 A 
ATOM     95  C   UNL A   1      47.633  34.010  30.119  1.00  0.00     0.041 A 
ATOM     96  F   UNL A   1      47.087  31.832  30.781  1.00  0.00    -0.206 F 
ATOM     97  C   UNL A   1      47.723  34.987  29.132  1.00  0.00     0.022 A 
BRANCH  94  98
ATOM     98  S   UNL A   1      47.497  35.901  26.507  1.00  0.00     0.124 S 
ATOM     99  O   UNL A   1      47.609  35.032  25.340  1.00  0.00    -0.237 OA
ATOM    100  O   UNL A   1      46.284  36.707  26.588  1.00  0.00    -0.237 OA
ATOM    101  O   UNL A   1      48.728  36.594  26.884  1.00  0.00    -0.744 OA
ENDBRANCH  94  98
ENDBRANCH  68  91
ENDBRANCH  42  43
ENDBRANCH  34  37
ENDBRANCH  32  33
ENDBRANCH   1  32
TORSDOF 18
ENDMDL
