MODEL 1
REMARK VINA RESULT:     -12.7      0.000      0.000
REMARK SMILES O=C(NCCCNC(=O)c1ccc(-c2c3nc(c(-c4cc(S(=O)(=O)[O-])ccc4F)c4ccc([nH]4)c(-c4cc(S(=O)(=O)[O-])ccc4F)c4nc(c(-c5cc(S(=O)(=O)[O-])ccc5F)c5ccc2[nH]5)C=C4)C=C3)cc1)C1=Cc2ccc(Cl)c(Cl)c2O[C@@H]1C(F)(F)F
REMARK SMILES IDX 6 1 5 2 4 3 3 4 1 5 2 6 73 8 74 9 84 10 75 11 83 12 76 13
REMARK SMILES IDX 82 14 77 15 80 16 78 17 81 18 79 19 85 20 86 21 87 22 88 23
REMARK SMILES IDX 7 24 8 25 9 27 10 28 11 29 72 30 12 31 71 32 13 33 14 34
REMARK SMILES IDX 15 35 65 36 16 37 70 38 64 39 66 40 17 41 69 42 63 43 62 44
REMARK SMILES IDX 18 46 50 47 30 48 49 49 31 50 34 51 48 52 67 53 32 54 33 55
REMARK SMILES IDX 47 57 68 58 35 59 19 60 20 61 28 62 21 63 27 64 29 65 26 66
REMARK SMILES IDX 22 67 23 68 24 69 25 70 51 71 52 72 60 73 53 74 59 75 61 76
REMARK SMILES IDX 58 77 54 78 55 79 56 80 57 81 36 82 37 83 45 84 38 85 44 86
REMARK SMILES IDX 46 87 43 88 39 89 40 90 41 91 42 92
REMARK H PARENT 3 7 7 26 66 45 34 56
REMARK Flexibility Score: inf
ROOT
ATOM      1  C   UNL A   1      37.267  21.763  25.123  1.00  0.00     0.118 C 
ENDROOT
BRANCH   1   2
ATOM      2  C   UNL A   1      35.927  21.562  25.822  1.00  0.00     0.042 C 
BRANCH   2   3
ATOM      3  C   UNL A   1      34.805  21.218  24.849  1.00  0.00     0.118 C 
BRANCH   3   4
ATOM      4  N   UNL A   1      34.746  22.115  23.691  1.00  0.00    -0.352 N 
ATOM      5  O   UNL A   1      34.404  24.074  22.592  1.00  0.00    -0.270 OA
ATOM      6  C   UNL A   1      34.180  23.362  23.560  1.00  0.00     0.251 C 
ATOM      7  H   UNL A   1      35.181  21.771  22.878  1.00  0.00     0.163 HD
BRANCH   6   8
ATOM      8  C   UNL A   1      33.338  23.831  24.675  1.00  0.00     0.067 C 
ATOM      9  C   UNL A   1      33.847  24.789  25.456  1.00  0.00     0.025 C 
ATOM     10  C   UNL A   1      31.880  23.515  24.609  1.00  0.00     0.314 C 
ATOM     11  C   UNL A   1      32.919  25.904  25.678  1.00  0.00     0.019 A 
ATOM     12  O   UNL A   1      31.056  24.703  24.644  1.00  0.00    -0.474 OA
ATOM     13  C   UNL A   1      33.485  27.129  26.046  1.00  0.00     0.013 A 
ATOM     14  C   UNL A   1      31.624  25.866  25.118  1.00  0.00     0.148 A 
ATOM     15  C   UNL A   1      32.816  28.316  25.753  1.00  0.00     0.023 A 
ATOM     16  C   UNL A   1      30.945  27.066  24.843  1.00  0.00     0.102 A 
ATOM     17  C   UNL A   1      31.564  28.289  25.131  1.00  0.00     0.063 A 
ATOM     18  Cl  UNL A   1      29.427  27.006  24.002  1.00  0.00    -0.079 Cl
ATOM     19  Cl  UNL A   1      30.880  29.807  24.667  1.00  0.00    -0.083 Cl
BRANCH  10  20
ATOM     20  C   UNL A   1      31.469  22.539  25.721  1.00  0.00     0.429 C 
ATOM     21  F   UNL A   1      30.218  22.808  26.171  1.00  0.00    -0.167 F 
ATOM     22  F   UNL A   1      31.457  21.255  25.294  1.00  0.00    -0.167 F 
ATOM     23  F   UNL A   1      32.299  22.599  26.790  1.00  0.00    -0.167 F 
ENDBRANCH  10  20
ENDBRANCH   6   8
ENDBRANCH   3   4
ENDBRANCH   2   3
ENDBRANCH   1   2
BRANCH   1  24
ATOM     24  N   UNL A   1      38.294  20.807  25.519  1.00  0.00    -0.352 N 
ATOM     25  C   UNL A   1      39.482  20.994  26.202  1.00  0.00     0.251 C 
ATOM     26  H   UNL A   1      38.111  19.875  25.256  1.00  0.00     0.163 HD
ATOM     27  O   UNL A   1      40.229  20.047  26.370  1.00  0.00    -0.269 OA
BRANCH  25  28
ATOM     28  C   UNL A   1      39.865  22.346  26.683  1.00  0.00     0.039 A 
ATOM     29  C   UNL A   1      40.856  22.463  27.663  1.00  0.00     0.014 A 
ATOM     30  C   UNL A   1      39.274  23.495  26.160  1.00  0.00     0.014 A 
ATOM     31  C   UNL A   1      41.314  23.730  28.041  1.00  0.00     0.010 A 
ATOM     32  C   UNL A   1      39.818  24.742  26.439  1.00  0.00     0.010 A 
ATOM     33  C   UNL A   1      40.838  24.880  27.393  1.00  0.00    -0.014 A 
BRANCH  33  34
ATOM     34  C   UNL A   1      41.354  26.241  27.708  1.00  0.00     0.031 A 
ATOM     35  C   UNL A   1      42.751  26.623  27.284  1.00  0.00     0.074 A 
ATOM     36  C   UNL A   1      40.615  27.092  28.446  1.00  0.00     0.049 A 
ATOM     37  N   UNL A   1      43.450  27.687  27.586  1.00  0.00    -0.248 NA
ATOM     38  C   UNL A   1      43.478  25.645  26.460  1.00  0.00     0.031 C 
ATOM     39  C   UNL A   1      39.273  26.818  28.971  1.00  0.00     0.029 A 
ATOM     40  N   UNL A   1      40.886  28.360  28.896  1.00  0.00    -0.354 N 
ATOM     41  C   UNL A   1      44.708  27.485  27.023  1.00  0.00     0.074 A 
ATOM     42  C   UNL A   1      44.695  26.163  26.437  1.00  0.00     0.031 C 
ATOM     43  C   UNL A   1      38.828  27.897  29.633  1.00  0.00     0.029 A 
ATOM     44  C   UNL A   1      39.866  28.923  29.626  1.00  0.00     0.049 A 
ATOM     45  H   UNL A   1      41.735  28.825  28.712  1.00  0.00     0.167 HD
ATOM     46  C   UNL A   1      45.764  28.335  26.967  1.00  0.00     0.034 A 
ATOM     47  C   UNL A   1      39.778  30.126  30.227  1.00  0.00     0.034 A 
ATOM     48  C   UNL A   1      45.736  29.670  27.512  1.00  0.00     0.049 A 
ATOM     49  C   UNL A   1      40.947  31.072  30.120  1.00  0.00     0.074 A 
ATOM     50  C   UNL A   1      46.715  30.646  27.458  1.00  0.00     0.029 A 
ATOM     51  N   UNL A   1      44.664  30.221  28.204  1.00  0.00    -0.354 N 
ATOM     52  N   UNL A   1      42.114  30.882  29.547  1.00  0.00    -0.248 NA
ATOM     53  C   UNL A   1      40.782  32.398  30.727  1.00  0.00     0.031 C 
ATOM     54  C   UNL A   1      46.257  31.765  28.162  1.00  0.00     0.029 A 
ATOM     55  C   UNL A   1      44.965  31.517  28.595  1.00  0.00     0.049 A 
ATOM     56  H   UNL A   1      43.815  29.759  28.388  1.00  0.00     0.167 HD
ATOM     57  C   UNL A   1      42.810  32.079  29.699  1.00  0.00     0.074 A 
ATOM     58  C   UNL A   1      41.922  32.986  30.398  1.00  0.00     0.031 C 
ATOM     59  C   UNL A   1      44.066  32.402  29.298  1.00  0.00     0.034 A 
BRANCH  46  60
ATOM     60  C   UNL A   1      47.026  27.833  26.303  1.00  0.00     0.023 A 
ATOM     61  C   UNL A   1      47.299  28.089  24.947  1.00  0.00     0.031 A 
ATOM     62  C   UNL A   1      47.946  27.046  27.018  1.00  0.00     0.131 A 
ATOM     63  C   UNL A   1      48.400  27.481  24.325  1.00  0.00     0.055 A 
ATOM     64  C   UNL A   1      49.094  26.523  26.416  1.00  0.00     0.041 A 
ATOM     65  F   UNL A   1      47.734  26.749  28.310  1.00  0.00    -0.206 F 
ATOM     66  C   UNL A   1      49.316  26.723  25.057  1.00  0.00     0.022 A 
BRANCH  63  67
ATOM     67  S   UNL A   1      48.522  27.560  22.517  1.00  0.00     0.124 S 
ATOM     68  O   UNL A   1      49.752  28.329  22.340  1.00  0.00    -0.237 OA
ATOM     69  O   UNL A   1      48.590  26.151  22.143  1.00  0.00    -0.237 OA
ATOM     70  O   UNL A   1      47.299  28.254  22.121  1.00  0.00    -0.744 OA
ENDBRANCH  63  67
ENDBRANCH  46  60
BRANCH  47  71
ATOM     71  C   UNL A   1      38.545  30.519  30.969  1.00  0.00     0.023 A 
ATOM     72  C   UNL A   1      37.505  31.209  30.325  1.00  0.00     0.031 A 
ATOM     73  C   UNL A   1      38.402  30.245  32.340  1.00  0.00     0.131 A 
ATOM     74  C   UNL A   1      36.392  31.647  31.059  1.00  0.00     0.055 A 
ATOM     75  C   UNL A   1      37.268  30.638  33.057  1.00  0.00     0.041 A 
ATOM     76  F   UNL A   1      39.360  29.579  33.004  1.00  0.00    -0.206 F 
ATOM     77  C   UNL A   1      36.261  31.356  32.419  1.00  0.00     0.022 A 
BRANCH  74  78
ATOM     78  S   UNL A   1      35.153  32.678  30.227  1.00  0.00     0.124 S 
ATOM     79  O   UNL A   1      34.213  32.946  31.309  1.00  0.00    -0.237 OA
ATOM     80  O   UNL A   1      35.956  33.810  29.778  1.00  0.00    -0.237 OA
ATOM     81  O   UNL A   1      34.651  31.811  29.162  1.00  0.00    -0.744 OA
ENDBRANCH  74  78
ENDBRANCH  47  71
BRANCH  59  82
ATOM     82  C   UNL A   1      44.524  33.813  29.570  1.00  0.00     0.023 A 
ATOM     83  C   UNL A   1      44.276  34.858  28.664  1.00  0.00     0.031 A 
ATOM     84  C   UNL A   1      45.242  34.109  30.743  1.00  0.00     0.131 A 
ATOM     85  C   UNL A   1      44.798  36.136  28.911  1.00  0.00     0.055 A 
ATOM     86  C   UNL A   1      45.704  35.397  31.015  1.00  0.00     0.041 A 
ATOM     87  F   UNL A   1      45.507  33.148  31.643  1.00  0.00    -0.206 F 
ATOM     88  C   UNL A   1      45.496  36.416  30.089  1.00  0.00     0.022 A 
BRANCH  85  89
ATOM     89  S   UNL A   1      44.647  37.400  27.621  1.00  0.00     0.124 S 
ATOM     90  O   UNL A   1      44.605  38.631  28.405  1.00  0.00    -0.237 OA
ATOM     91  O   UNL A   1      45.857  37.189  26.834  1.00  0.00    -0.237 OA
ATOM     92  O   UNL A   1      43.399  37.053  26.944  1.00  0.00    -0.744 OA
ENDBRANCH  85  89
ENDBRANCH  59  82
ENDBRANCH  33  34
ENDBRANCH  25  28
ENDBRANCH   1  24
TORSDOF 14
ENDMDL
MODEL 2
REMARK VINA RESULT:     -12.7      5.095     10.072
REMARK SMILES O=C(NCCCNC(=O)c1ccc(-c2c3nc(c(-c4cc(S(=O)(=O)[O-])ccc4F)c4ccc([nH]4)c(-c4cc(S(=O)(=O)[O-])ccc4F)c4nc(c(-c5cc(S(=O)(=O)[O-])ccc5F)c5ccc2[nH]5)C=C4)C=C3)cc1)C1=Cc2ccc(Cl)c(Cl)c2O[C@@H]1C(F)(F)F
REMARK SMILES IDX 6 1 5 2 4 3 3 4 1 5 2 6 73 8 74 9 84 10 75 11 83 12 76 13
REMARK SMILES IDX 82 14 77 15 80 16 78 17 81 18 79 19 85 20 86 21 87 22 88 23
REMARK SMILES IDX 7 24 8 25 9 27 10 28 11 29 72 30 12 31 71 32 13 33 14 34
REMARK SMILES IDX 15 35 65 36 16 37 70 38 64 39 66 40 17 41 69 42 63 43 62 44
REMARK SMILES IDX 18 46 50 47 30 48 49 49 31 50 34 51 48 52 67 53 32 54 33 55
REMARK SMILES IDX 47 57 68 58 35 59 19 60 20 61 28 62 21 63 27 64 29 65 26 66
REMARK SMILES IDX 22 67 23 68 24 69 25 70 51 71 52 72 60 73 53 74 59 75 61 76
REMARK SMILES IDX 58 77 54 78 55 79 56 80 57 81 36 82 37 83 45 84 38 85 44 86
REMARK SMILES IDX 46 87 43 88 39 89 40 90 41 91 42 92
REMARK H PARENT 3 7 7 26 66 45 34 56
REMARK Flexibility Score: inf
ROOT
ATOM      1  C   UNL A   1      33.165  29.735  26.040  1.00  0.00     0.118 C 
ENDROOT
BRANCH   1   2
ATOM      2  C   UNL A   1      31.922  28.860  26.147  1.00  0.00     0.042 C 
BRANCH   2   3
ATOM      3  C   UNL A   1      32.189  27.549  26.878  1.00  0.00     0.118 C 
BRANCH   3   4
ATOM      4  N   UNL A   1      31.061  26.615  26.824  1.00  0.00    -0.352 N 
ATOM      5  O   UNL A   1      30.038  24.599  26.605  1.00  0.00    -0.270 OA
ATOM      6  C   UNL A   1      31.005  25.313  26.384  1.00  0.00     0.251 C 
ATOM      7  H   UNL A   1      30.207  26.977  27.154  1.00  0.00     0.163 HD
BRANCH   6   8
ATOM      8  C   UNL A   1      32.194  24.794  25.688  1.00  0.00     0.067 C 
ATOM      9  C   UNL A   1      32.957  23.923  26.358  1.00  0.00     0.025 C 
ATOM     10  C   UNL A   1      32.238  24.947  24.202  1.00  0.00     0.314 C 
ATOM     11  C   UNL A   1      33.280  22.722  25.580  1.00  0.00     0.019 A 
ATOM     12  O   UNL A   1      32.369  23.679  23.521  1.00  0.00    -0.474 OA
ATOM     13  C   UNL A   1      33.633  21.579  26.304  1.00  0.00     0.013 A 
ATOM     14  C   UNL A   1      32.825  22.601  24.249  1.00  0.00     0.148 A 
ATOM     15  C   UNL A   1      33.425  20.318  25.750  1.00  0.00     0.023 A 
ATOM     16  C   UNL A   1      32.636  21.326  23.688  1.00  0.00     0.102 A 
ATOM     17  C   UNL A   1      32.905  20.188  24.458  1.00  0.00     0.063 A 
ATOM     18  Cl  UNL A   1      31.919  21.192  22.112  1.00  0.00    -0.079 Cl
ATOM     19  Cl  UNL A   1      32.536  18.589  23.913  1.00  0.00    -0.083 Cl
BRANCH  10  20
ATOM     20  C   UNL A   1      33.354  25.911  23.773  1.00  0.00     0.429 C 
ATOM     21  F   UNL A   1      34.272  26.066  24.759  1.00  0.00    -0.167 F 
ATOM     22  F   UNL A   1      34.026  25.461  22.687  1.00  0.00    -0.167 F 
ATOM     23  F   UNL A   1      32.881  27.143  23.471  1.00  0.00    -0.167 F 
ENDBRANCH  10  20
ENDBRANCH   6   8
ENDBRANCH   3   4
ENDBRANCH   2   3
ENDBRANCH   1   2
BRANCH   1  24
ATOM     24  N   UNL A   1      33.016  31.057  26.638  1.00  0.00    -0.352 N 
ATOM     25  C   UNL A   1      33.833  31.744  27.518  1.00  0.00     0.251 C 
ATOM     26  H   UNL A   1      32.199  31.539  26.372  1.00  0.00     0.163 HD
ATOM     27  O   UNL A   1      33.475  32.827  27.943  1.00  0.00    -0.269 OA
BRANCH  25  28
ATOM     28  C   UNL A   1      35.112  31.143  27.977  1.00  0.00     0.039 A 
ATOM     29  C   UNL A   1      36.267  31.930  27.986  1.00  0.00     0.014 A 
ATOM     30  C   UNL A   1      35.174  29.822  28.418  1.00  0.00     0.014 A 
ATOM     31  C   UNL A   1      37.453  31.420  28.527  1.00  0.00     0.010 A 
ATOM     32  C   UNL A   1      36.312  29.364  29.071  1.00  0.00     0.010 A 
ATOM     33  C   UNL A   1      37.472  30.151  29.124  1.00  0.00    -0.014 A 
BRANCH  33  34
ATOM     34  C   UNL A   1      38.690  29.600  29.781  1.00  0.00     0.031 A 
ATOM     35  C   UNL A   1      39.093  30.106  31.145  1.00  0.00     0.074 A 
ATOM     36  C   UNL A   1      39.477  28.724  29.125  1.00  0.00     0.049 A 
ATOM     37  N   UNL A   1      40.187  29.879  31.826  1.00  0.00    -0.248 NA
ATOM     38  C   UNL A   1      38.163  31.038  31.800  1.00  0.00     0.031 C 
ATOM     39  C   UNL A   1      39.230  28.206  27.776  1.00  0.00     0.029 A 
ATOM     40  N   UNL A   1      40.652  28.121  29.495  1.00  0.00    -0.354 N 
ATOM     41  C   UNL A   1      40.093  30.674  32.966  1.00  0.00     0.074 A 
ATOM     42  C   UNL A   1      38.876  31.444  32.838  1.00  0.00     0.031 C 
ATOM     43  C   UNL A   1      40.200  27.335  27.452  1.00  0.00     0.029 A 
ATOM     44  C   UNL A   1      41.165  27.269  28.544  1.00  0.00     0.049 A 
ATOM     45  H   UNL A   1      41.089  28.283  30.363  1.00  0.00     0.167 HD
ATOM     46  C   UNL A   1      40.923  30.729  34.037  1.00  0.00     0.034 A 
ATOM     47  C   UNL A   1      42.287  26.523  28.550  1.00  0.00     0.034 A 
ATOM     48  C   UNL A   1      42.105  29.912  34.167  1.00  0.00     0.049 A 
ATOM     49  C   UNL A   1      43.177  26.569  29.767  1.00  0.00     0.074 A 
ATOM     50  C   UNL A   1      42.985  29.830  35.231  1.00  0.00     0.029 A 
ATOM     51  N   UNL A   1      42.564  29.025  33.202  1.00  0.00    -0.354 N 
ATOM     52  N   UNL A   1      43.051  27.293  30.856  1.00  0.00    -0.248 NA
ATOM     53  C   UNL A   1      44.350  25.687  29.761  1.00  0.00     0.031 C 
ATOM     54  C   UNL A   1      44.005  28.935  34.888  1.00  0.00     0.029 A 
ATOM     55  C   UNL A   1      43.724  28.403  33.639  1.00  0.00     0.049 A 
ATOM     56  H   UNL A   1      42.129  28.861  32.335  1.00  0.00     0.167 HD
ATOM     57  C   UNL A   1      44.115  26.928  31.677  1.00  0.00     0.074 A 
ATOM     58  C   UNL A   1      44.856  25.907  30.964  1.00  0.00     0.031 C 
ATOM     59  C   UNL A   1      44.450  27.392  32.908  1.00  0.00     0.034 A 
BRANCH  46  60
ATOM     60  C   UNL A   1      40.579  31.712  35.134  1.00  0.00     0.023 A 
ATOM     61  C   UNL A   1      39.619  31.413  36.118  1.00  0.00     0.031 A 
ATOM     62  C   UNL A   1      41.177  32.983  35.169  1.00  0.00     0.131 A 
ATOM     63  C   UNL A   1      39.214  32.401  37.027  1.00  0.00     0.055 A 
ATOM     64  C   UNL A   1      40.838  33.932  36.138  1.00  0.00     0.041 A 
ATOM     65  F   UNL A   1      42.085  33.339  34.246  1.00  0.00    -0.206 F 
ATOM     66  C   UNL A   1      39.837  33.651  37.063  1.00  0.00     0.022 A 
BRANCH  63  67
ATOM     67  S   UNL A   1      37.748  32.086  38.048  1.00  0.00     0.124 S 
ATOM     68  O   UNL A   1      38.281  32.288  39.394  1.00  0.00    -0.237 OA
ATOM     69  O   UNL A   1      36.809  33.097  37.574  1.00  0.00    -0.237 OA
ATOM     70  O   UNL A   1      37.397  30.705  37.726  1.00  0.00    -0.744 OA
ENDBRANCH  63  67
ENDBRANCH  46  60
BRANCH  47  71
ATOM     71  C   UNL A   1      42.633  25.658  27.385  1.00  0.00     0.023 A 
ATOM     72  C   UNL A   1      42.178  24.332  27.310  1.00  0.00     0.031 A 
ATOM     73  C   UNL A   1      43.455  26.131  26.346  1.00  0.00     0.131 A 
ATOM     74  C   UNL A   1      42.585  23.508  26.249  1.00  0.00     0.055 A 
ATOM     75  C   UNL A   1      43.817  25.323  25.266  1.00  0.00     0.041 A 
ATOM     76  F   UNL A   1      43.911  27.394  26.362  1.00  0.00    -0.206 F 
ATOM     77  C   UNL A   1      43.393  23.999  25.220  1.00  0.00     0.022 A 
BRANCH  74  78
ATOM     78  S   UNL A   1      42.111  21.757  26.277  1.00  0.00     0.124 S 
ATOM     79  O   UNL A   1      42.995  21.193  25.264  1.00  0.00    -0.237 OA
ATOM     80  O   UNL A   1      42.401  21.390  27.659  1.00  0.00    -0.237 OA
ATOM     81  O   UNL A   1      40.693  21.784  25.926  1.00  0.00    -0.744 OA
ENDBRANCH  74  78
ENDBRANCH  47  71
BRANCH  59  82
ATOM     82  C   UNL A   1      45.647  26.756  33.571  1.00  0.00     0.023 A 
ATOM     83  C   UNL A   1      45.534  25.572  34.320  1.00  0.00     0.031 A 
ATOM     84  C   UNL A   1      46.914  27.359  33.471  1.00  0.00     0.131 A 
ATOM     85  C   UNL A   1      46.653  25.064  34.995  1.00  0.00     0.055 A 
ATOM     86  C   UNL A   1      48.037  26.813  34.092  1.00  0.00     0.041 A 
ATOM     87  F   UNL A   1      47.077  28.492  32.768  1.00  0.00    -0.206 F 
ATOM     88  C   UNL A   1      47.907  25.668  34.873  1.00  0.00     0.022 A 
BRANCH  85  89
ATOM     89  S   UNL A   1      46.424  23.665  36.125  1.00  0.00     0.124 S 
ATOM     90  O   UNL A   1      47.205  22.617  35.474  1.00  0.00    -0.237 OA
ATOM     91  O   UNL A   1      46.969  24.181  37.376  1.00  0.00    -0.237 OA
ATOM     92  O   UNL A   1      44.977  23.453  36.120  1.00  0.00    -0.744 OA
ENDBRANCH  85  89
ENDBRANCH  59  82
ENDBRANCH  33  34
ENDBRANCH  25  28
ENDBRANCH   1  24
TORSDOF 14
ENDMDL
MODEL 3
REMARK VINA RESULT:     -12.7      5.180     10.103
REMARK SMILES O=C(NCCCNC(=O)c1ccc(-c2c3nc(c(-c4cc(S(=O)(=O)[O-])ccc4F)c4ccc([nH]4)c(-c4cc(S(=O)(=O)[O-])ccc4F)c4nc(c(-c5cc(S(=O)(=O)[O-])ccc5F)c5ccc2[nH]5)C=C4)C=C3)cc1)C1=Cc2ccc(Cl)c(Cl)c2O[C@@H]1C(F)(F)F
REMARK SMILES IDX 6 1 5 2 4 3 3 4 1 5 2 6 73 8 74 9 84 10 75 11 83 12 76 13
REMARK SMILES IDX 82 14 77 15 80 16 78 17 81 18 79 19 85 20 86 21 87 22 88 23
REMARK SMILES IDX 7 24 8 25 9 27 10 28 11 29 72 30 12 31 71 32 13 33 14 34
REMARK SMILES IDX 15 35 65 36 16 37 70 38 64 39 66 40 17 41 69 42 63 43 62 44
REMARK SMILES IDX 18 46 50 47 30 48 49 49 31 50 34 51 48 52 67 53 32 54 33 55
REMARK SMILES IDX 47 57 68 58 35 59 19 60 20 61 28 62 21 63 27 64 29 65 26 66
REMARK SMILES IDX 22 67 23 68 24 69 25 70 51 71 52 72 60 73 53 74 59 75 61 76
REMARK SMILES IDX 58 77 54 78 55 79 56 80 57 81 36 82 37 83 45 84 38 85 44 86
REMARK SMILES IDX 46 87 43 88 39 89 40 90 41 91 42 92
REMARK H PARENT 3 7 7 26 66 45 34 56
REMARK Flexibility Score: inf
ROOT
ATOM      1  C   UNL A   1      32.839  29.937  25.753  1.00  0.00     0.118 C 
ENDROOT
BRANCH   1   2
ATOM      2  C   UNL A   1      31.715  28.940  26.006  1.00  0.00     0.042 C 
BRANCH   2   3
ATOM      3  C   UNL A   1      32.187  27.704  26.765  1.00  0.00     0.118 C 
BRANCH   3   4
ATOM      4  N   UNL A   1      31.163  26.660  26.866  1.00  0.00    -0.352 N 
ATOM      5  O   UNL A   1      30.335  24.546  26.811  1.00  0.00    -0.270 OA
ATOM      6  C   UNL A   1      31.189  25.347  26.460  1.00  0.00     0.251 C 
ATOM      7  H   UNL A   1      30.323  26.944  27.293  1.00  0.00     0.163 HD
BRANCH   6   8
ATOM      8  C   UNL A   1      32.333  24.929  25.631  1.00  0.00     0.067 C 
ATOM      9  C   UNL A   1      33.262  24.167  26.220  1.00  0.00     0.025 C 
ATOM     10  C   UNL A   1      32.177  25.031  24.149  1.00  0.00     0.314 C 
ATOM     11  C   UNL A   1      33.615  22.979  25.435  1.00  0.00     0.019 A 
ATOM     12  O   UNL A   1      32.359  23.759  23.486  1.00  0.00    -0.474 OA
ATOM     13  C   UNL A   1      34.175  21.906  26.136  1.00  0.00     0.013 A 
ATOM     14  C   UNL A   1      33.015  22.762  24.176  1.00  0.00     0.148 A 
ATOM     15  C   UNL A   1      34.037  20.610  25.642  1.00  0.00     0.023 A 
ATOM     16  C   UNL A   1      32.898  21.455  23.673  1.00  0.00     0.102 A 
ATOM     17  C   UNL A   1      33.380  20.379  24.430  1.00  0.00     0.063 A 
ATOM     18  Cl  UNL A   1      32.010  21.189  22.204  1.00  0.00    -0.079 Cl
ATOM     19  Cl  UNL A   1      33.121  18.733  23.973  1.00  0.00    -0.083 Cl
BRANCH  10  20
ATOM     20  C   UNL A   1      33.122  26.089  23.560  1.00  0.00     0.429 C 
ATOM     21  F   UNL A   1      32.463  27.247  23.309  1.00  0.00    -0.167 F 
ATOM     22  F   UNL A   1      34.134  26.395  24.404  1.00  0.00    -0.167 F 
ATOM     23  F   UNL A   1      33.680  25.687  22.393  1.00  0.00    -0.167 F 
ENDBRANCH  10  20
ENDBRANCH   6   8
ENDBRANCH   3   4
ENDBRANCH   2   3
ENDBRANCH   1   2
BRANCH   1  24
ATOM     24  N   UNL A   1      32.595  31.263  26.308  1.00  0.00    -0.352 N 
ATOM     25  C   UNL A   1      33.318  32.001  27.227  1.00  0.00     0.251 C 
ATOM     26  H   UNL A   1      31.780  31.705  25.973  1.00  0.00     0.163 HD
ATOM     27  O   UNL A   1      32.888  33.077  27.601  1.00  0.00    -0.269 OA
BRANCH  25  28
ATOM     28  C   UNL A   1      34.584  31.463  27.790  1.00  0.00     0.039 A 
ATOM     29  C   UNL A   1      35.667  32.329  27.974  1.00  0.00     0.014 A 
ATOM     30  C   UNL A   1      34.702  30.124  28.156  1.00  0.00     0.014 A 
ATOM     31  C   UNL A   1      36.825  31.869  28.612  1.00  0.00     0.010 A 
ATOM     32  C   UNL A   1      35.796  29.705  28.903  1.00  0.00     0.010 A 
ATOM     33  C   UNL A   1      36.879  30.567  29.132  1.00  0.00    -0.014 A 
BRANCH  33  34
ATOM     34  C   UNL A   1      38.059  30.062  29.887  1.00  0.00     0.031 A 
ATOM     35  C   UNL A   1      38.284  30.517  31.308  1.00  0.00     0.074 A 
ATOM     36  C   UNL A   1      38.970  29.278  29.275  1.00  0.00     0.049 A 
ATOM     37  N   UNL A   1      39.316  30.326  32.089  1.00  0.00    -0.248 NA
ATOM     38  C   UNL A   1      37.228  31.349  31.906  1.00  0.00     0.031 C 
ATOM     39  C   UNL A   1      38.900  28.820  27.884  1.00  0.00     0.029 A 
ATOM     40  N   UNL A   1      40.141  28.733  29.739  1.00  0.00    -0.354 N 
ATOM     41  C   UNL A   1      39.049  31.048  33.250  1.00  0.00     0.074 A 
ATOM     42  C   UNL A   1      37.800  31.742  33.032  1.00  0.00     0.031 C 
ATOM     43  C   UNL A   1      39.957  28.034  27.623  1.00  0.00     0.029 A 
ATOM     44  C   UNL A   1      40.807  27.971  28.807  1.00  0.00     0.049 A 
ATOM     45  H   UNL A   1      40.474  28.875  30.655  1.00  0.00     0.167 HD
ATOM     46  C   UNL A   1      39.760  31.098  34.405  1.00  0.00     0.034 A 
ATOM     47  C   UNL A   1      41.972  27.300  28.896  1.00  0.00     0.034 A 
ATOM     48  C   UNL A   1      40.977  30.354  34.619  1.00  0.00     0.049 A 
ATOM     49  C   UNL A   1      42.728  27.337  30.201  1.00  0.00     0.074 A 
ATOM     50  C   UNL A   1      41.747  30.271  35.765  1.00  0.00     0.029 A 
ATOM     51  N   UNL A   1      41.594  29.553  33.666  1.00  0.00    -0.354 N 
ATOM     52  N   UNL A   1      42.441  27.990  31.304  1.00  0.00    -0.248 NA
ATOM     53  C   UNL A   1      43.956  26.536  30.276  1.00  0.00     0.031 C 
ATOM     54  C   UNL A   1      42.858  29.465  35.489  1.00  0.00     0.029 A 
ATOM     55  C   UNL A   1      42.744  28.986  34.194  1.00  0.00     0.049 A 
ATOM     56  H   UNL A   1      41.263  29.410  32.751  1.00  0.00     0.167 HD
ATOM     57  C   UNL A   1      43.438  27.651  32.215  1.00  0.00     0.074 A 
ATOM     58  C   UNL A   1      44.318  26.722  31.536  1.00  0.00     0.031 C 
ATOM     59  C   UNL A   1      43.612  28.067  33.496  1.00  0.00     0.034 A 
BRANCH  46  60
ATOM     60  C   UNL A   1      39.236  31.994  35.505  1.00  0.00     0.023 A 
ATOM     61  C   UNL A   1      39.605  33.349  35.591  1.00  0.00     0.031 A 
ATOM     62  C   UNL A   1      38.399  31.479  36.509  1.00  0.00     0.131 A 
ATOM     63  C   UNL A   1      39.224  34.111  36.706  1.00  0.00     0.055 A 
ATOM     64  C   UNL A   1      37.943  32.270  37.567  1.00  0.00     0.041 A 
ATOM     65  F   UNL A   1      38.027  30.189  36.496  1.00  0.00    -0.206 F 
ATOM     66  C   UNL A   1      38.373  33.590  37.681  1.00  0.00     0.022 A 
BRANCH  63  67
ATOM     67  S   UNL A   1      39.995  35.735  36.945  1.00  0.00     0.124 S 
ATOM     68  O   UNL A   1      41.408  35.376  37.046  1.00  0.00    -0.237 OA
ATOM     69  O   UNL A   1      39.604  36.452  35.736  1.00  0.00    -0.237 OA
ATOM     70  O   UNL A   1      39.393  36.222  38.184  1.00  0.00    -0.744 OA
ENDBRANCH  63  67
ENDBRANCH  46  60
BRANCH  47  71
ATOM     71  C   UNL A   1      42.497  26.527  27.733  1.00  0.00     0.023 A 
ATOM     72  C   UNL A   1      42.093  25.201  27.508  1.00  0.00     0.031 A 
ATOM     73  C   UNL A   1      43.438  27.086  26.851  1.00  0.00     0.131 A 
ATOM     74  C   UNL A   1      42.662  24.461  26.460  1.00  0.00     0.055 A 
ATOM     75  C   UNL A   1      43.965  26.363  25.778  1.00  0.00     0.041 A 
ATOM     76  F   UNL A   1      43.852  28.353  27.013  1.00  0.00    -0.206 F 
ATOM     77  C   UNL A   1      43.588  25.037  25.586  1.00  0.00     0.022 A 
BRANCH  74  78
ATOM     78  S   UNL A   1      42.238  22.704  26.306  1.00  0.00     0.124 S 
ATOM     79  O   UNL A   1      40.793  22.729  26.503  1.00  0.00    -0.237 OA
ATOM     80  O   UNL A   1      42.696  22.401  24.954  1.00  0.00    -0.237 OA
ATOM     81  O   UNL A   1      43.006  22.074  27.378  1.00  0.00    -0.744 OA
ENDBRANCH  74  78
ENDBRANCH  47  71
BRANCH  59  82
ATOM     82  C   UNL A   1      44.776  27.475  34.250  1.00  0.00     0.023 A 
ATOM     83  C   UNL A   1      44.659  26.269  34.963  1.00  0.00     0.031 A 
ATOM     84  C   UNL A   1      46.015  28.141  34.274  1.00  0.00     0.131 A 
ATOM     85  C   UNL A   1      45.739  25.801  35.726  1.00  0.00     0.055 A 
ATOM     86  C   UNL A   1      47.106  27.637  34.982  1.00  0.00     0.041 A 
ATOM     87  F   UNL A   1      46.182  29.297  33.609  1.00  0.00    -0.206 F 
ATOM     88  C   UNL A   1      46.966  26.469  35.726  1.00  0.00     0.022 A 
BRANCH  85  89
ATOM     89  S   UNL A   1      45.482  24.367  36.804  1.00  0.00     0.124 S 
ATOM     90  O   UNL A   1      46.826  23.803  36.884  1.00  0.00    -0.237 OA
ATOM     91  O   UNL A   1      44.976  24.982  38.026  1.00  0.00    -0.237 OA
ATOM     92  O   UNL A   1      44.512  23.555  36.071  1.00  0.00    -0.744 OA
ENDBRANCH  85  89
ENDBRANCH  59  82
ENDBRANCH  33  34
ENDBRANCH  25  28
ENDBRANCH   1  24
TORSDOF 14
ENDMDL
