MODEL 1
REMARK VINA RESULT:     -11.2      0.000      0.000
REMARK SMILES NC(=O)c1cc(Cl)ccc1N1CCO[C@@H](CC(=O)NCCCNC(=O)c2ccc(-c3c4nc(c(-c5cc(S(=O)(=O)[O-])ccc5F)c5ccc([nH]5)c(-c5cc(S(=O)(=O)[O-])ccc5F)c5nc(c(-c6cc(S(=O)(=O)[O-])ccc6F)c6ccc3[nH]6)C=C5)C=C4)cc2)C1
REMARK SMILES IDX 21 1 20 2 19 3 17 4 18 5 16 7 15 8 11 9 12 10 89 11 13 12
REMARK SMILES IDX 14 13 10 14 4 15 5 16 6 17 9 18 7 19 8 20 2 21 1 22 3 25
REMARK SMILES IDX 22 26 23 27 24 28 25 30 26 31 27 32 88 33 28 34 87 35 29 36
REMARK SMILES IDX 30 37 31 38 81 39 32 40 86 41 80 42 82 43 33 44 85 45 79 46
REMARK SMILES IDX 78 47 34 49 66 50 46 51 65 52 47 53 50 54 64 55 83 56 48 57
REMARK SMILES IDX 49 58 63 60 84 61 51 62 35 63 36 64 44 65 37 66 43 67 45 68
REMARK SMILES IDX 42 69 38 70 39 71 40 72 41 73 67 74 68 75 76 76 69 77 75 78
REMARK SMILES IDX 77 79 74 80 70 81 71 82 72 83 73 84 52 85 53 86 61 87 54 88
REMARK SMILES IDX 60 89 62 90 59 91 55 92 56 93 57 94 58 95
REMARK H PARENT 19 6 1 23 1 24 23 29 82 48 50 59
REMARK Flexibility Score: inf
ROOT
ATOM      1  C   UNL A   1      33.213  34.175  28.744  1.00  0.00     0.042 C 
ENDROOT
BRANCH   1   2
ATOM      2  C   UNL A   1      33.623  35.383  29.592  1.00  0.00     0.117 C 
BRANCH   2   3
ATOM      3  N   UNL A   1      32.569  35.833  30.496  1.00  0.00    -0.356 N 
ATOM      4  C   UNL A   1      32.587  36.149  31.825  1.00  0.00     0.222 C 
ATOM      5  O   UNL A   1      31.541  36.562  32.330  1.00  0.00    -0.275 OA
ATOM      6  H   UNL A   1      31.685  35.926  30.071  1.00  0.00     0.163 HD
BRANCH   4   7
ATOM      7  C   UNL A   1      33.836  35.975  32.666  1.00  0.00     0.133 C 
BRANCH   7   8
ATOM      8  C   UNL A   1      34.706  34.813  32.175  1.00  0.00     0.147 C 
ATOM      9  N   UNL A   1      36.919  33.743  32.536  1.00  0.00    -0.366 N 
ATOM     10  C   UNL A   1      36.287  32.455  32.783  1.00  0.00     0.145 C 
ATOM     11  C   UNL A   1      36.118  34.934  32.762  1.00  0.00     0.149 C 
ATOM     12  C   UNL A   1      34.886  32.451  32.145  1.00  0.00     0.182 C 
ATOM     13  O   UNL A   1      34.089  33.571  32.593  1.00  0.00    -0.374 OA
BRANCH   9  14
ATOM     14  C   UNL A   1      38.280  33.909  32.397  1.00  0.00     0.050 A 
ATOM     15  C   UNL A   1      38.896  33.963  31.134  1.00  0.00     0.064 A 
ATOM     16  C   UNL A   1      40.247  34.313  30.996  1.00  0.00     0.036 A 
ATOM     17  C   UNL A   1      40.997  34.606  32.129  1.00  0.00     0.041 A 
ATOM     18  C   UNL A   1      39.082  34.158  33.525  1.00  0.00     0.028 A 
ATOM     19  Cl  UNL A   1      42.621  35.135  31.953  1.00  0.00    -0.084 Cl
ATOM     20  C   UNL A   1      40.428  34.510  33.396  1.00  0.00     0.023 A 
BRANCH  15  21
ATOM     21  C   UNL A   1      38.110  33.737  29.900  1.00  0.00     0.250 C 
ATOM     22  N   UNL A   1      37.638  34.870  29.299  1.00  0.00    -0.366 N 
ATOM     23  H   UNL A   1      37.105  34.804  28.473  1.00  0.00     0.159 HD
ATOM     24  H   UNL A   1      37.829  35.752  29.692  1.00  0.00     0.159 HD
ATOM     25  O   UNL A   1      37.892  32.626  29.438  1.00  0.00    -0.269 OA
ENDBRANCH  15  21
ENDBRANCH   9  14
ENDBRANCH   7   8
ENDBRANCH   4   7
ENDBRANCH   2   3
ENDBRANCH   1   2
BRANCH   1  26
ATOM     26  C   UNL A   1      34.258  33.068  28.652  1.00  0.00     0.118 C 
BRANCH  26  27
ATOM     27  N   UNL A   1      33.765  31.940  27.883  1.00  0.00    -0.352 N 
ATOM     28  C   UNL A   1      34.379  30.770  27.504  1.00  0.00     0.251 C 
ATOM     29  H   UNL A   1      32.831  32.028  27.583  1.00  0.00     0.163 HD
ATOM     30  O   UNL A   1      33.852  30.114  26.606  1.00  0.00    -0.269 OA
BRANCH  28  31
ATOM     31  C   UNL A   1      35.644  30.281  28.120  1.00  0.00     0.039 A 
ATOM     32  C   UNL A   1      36.786  30.204  27.311  1.00  0.00     0.014 A 
ATOM     33  C   UNL A   1      35.714  29.792  29.428  1.00  0.00     0.014 A 
ATOM     34  C   UNL A   1      37.981  29.669  27.811  1.00  0.00     0.010 A 
ATOM     35  C   UNL A   1      36.930  29.330  29.950  1.00  0.00     0.010 A 
ATOM     36  C   UNL A   1      38.073  29.240  29.143  1.00  0.00    -0.014 A 
BRANCH  36  37
ATOM     37  C   UNL A   1      39.335  28.658  29.687  1.00  0.00     0.031 A 
ATOM     38  C   UNL A   1      40.025  29.301  30.866  1.00  0.00     0.074 A 
ATOM     39  C   UNL A   1      39.892  27.577  29.102  1.00  0.00     0.049 A 
ATOM     40  N   UNL A   1      41.169  28.997  31.429  1.00  0.00    -0.248 NA
ATOM     41  C   UNL A   1      39.345  30.450  31.481  1.00  0.00     0.031 C 
ATOM     42  C   UNL A   1      39.341  26.861  27.950  1.00  0.00     0.029 A 
ATOM     43  N   UNL A   1      41.057  26.906  29.382  1.00  0.00    -0.354 N 
ATOM     44  C   UNL A   1      41.350  29.920  32.453  1.00  0.00     0.074 A 
ATOM     45  C   UNL A   1      40.224  30.829  32.397  1.00  0.00     0.031 C 
ATOM     46  C   UNL A   1      40.174  25.864  27.613  1.00  0.00     0.029 A 
ATOM     47  C   UNL A   1      41.331  25.883  28.504  1.00  0.00     0.049 A 
ATOM     48  H   UNL A   1      41.642  27.136  30.140  1.00  0.00     0.167 HD
ATOM     49  C   UNL A   1      42.346  29.992  33.374  1.00  0.00     0.034 A 
ATOM     50  C   UNL A   1      42.396  25.063  28.410  1.00  0.00     0.034 A 
ATOM     51  C   UNL A   1      43.456  29.072  33.438  1.00  0.00     0.049 A 
ATOM     52  C   UNL A   1      43.511  25.183  29.417  1.00  0.00     0.074 A 
ATOM     53  C   UNL A   1      44.481  29.018  34.369  1.00  0.00     0.029 A 
ATOM     54  N   UNL A   1      43.695  28.047  32.530  1.00  0.00    -0.354 N 
ATOM     55  N   UNL A   1      43.640  26.032  30.409  1.00  0.00    -0.248 NA
ATOM     56  C   UNL A   1      44.614  24.219  29.302  1.00  0.00     0.031 C 
ATOM     57  C   UNL A   1      45.369  28.004  33.991  1.00  0.00     0.029 A 
ATOM     58  C   UNL A   1      44.864  27.378  32.863  1.00  0.00     0.049 A 
ATOM     59  H   UNL A   1      43.118  27.829  31.763  1.00  0.00     0.167 HD
ATOM     60  C   UNL A   1      44.822  25.682  31.055  1.00  0.00     0.074 A 
ATOM     61  C   UNL A   1      45.362  24.541  30.346  1.00  0.00     0.031 C 
ATOM     62  C   UNL A   1      45.403  26.249  32.144  1.00  0.00     0.034 A 
BRANCH  49  63
ATOM     63  C   UNL A   1      42.287  31.121  34.377  1.00  0.00     0.023 A 
ATOM     64  C   UNL A   1      41.304  31.165  35.381  1.00  0.00     0.031 A 
ATOM     65  C   UNL A   1      43.216  32.175  34.319  1.00  0.00     0.131 A 
ATOM     66  C   UNL A   1      41.226  32.274  36.239  1.00  0.00     0.055 A 
ATOM     67  C   UNL A   1      43.181  33.238  35.226  1.00  0.00     0.041 A 
ATOM     68  F   UNL A   1      44.167  32.196  33.374  1.00  0.00    -0.206 F 
ATOM     69  C   UNL A   1      42.173  33.299  36.184  1.00  0.00     0.022 A 
BRANCH  66  70
ATOM     70  S   UNL A   1      39.791  32.420  37.338  1.00  0.00     0.124 S 
ATOM     71  O   UNL A   1      39.258  33.725  36.955  1.00  0.00    -0.237 OA
ATOM     72  O   UNL A   1      38.985  31.264  36.961  1.00  0.00    -0.237 OA
ATOM     73  O   UNL A   1      40.377  32.362  38.676  1.00  0.00    -0.744 OA
ENDBRANCH  66  70
ENDBRANCH  49  63
BRANCH  50  74
ATOM     74  C   UNL A   1      42.473  24.056  27.314  1.00  0.00     0.023 A 
ATOM     75  C   UNL A   1      41.688  22.893  27.344  1.00  0.00     0.031 A 
ATOM     76  C   UNL A   1      43.363  24.226  26.239  1.00  0.00     0.131 A 
ATOM     77  C   UNL A   1      41.839  21.923  26.342  1.00  0.00     0.055 A 
ATOM     78  C   UNL A   1      43.476  23.280  25.221  1.00  0.00     0.041 A 
ATOM     79  F   UNL A   1      44.129  25.327  26.159  1.00  0.00    -0.206 F 
ATOM     80  C   UNL A   1      42.720  22.113  25.275  1.00  0.00     0.022 A 
BRANCH  77  81
ATOM     81  S   UNL A   1      40.917  20.368  26.491  1.00  0.00     0.124 S 
ATOM     82  O   UNL A   1      41.053  20.076  27.913  1.00  0.00    -0.237 OA
ATOM     83  O   UNL A   1      39.586  20.764  26.040  1.00  0.00    -0.237 OA
ATOM     84  O   UNL A   1      41.631  19.462  25.595  1.00  0.00    -0.744 OA
ENDBRANCH  77  81
ENDBRANCH  50  74
BRANCH  62  85
ATOM     85  C   UNL A   1      46.667  25.604  32.657  1.00  0.00     0.023 A 
ATOM     86  C   UNL A   1      46.643  24.632  33.672  1.00  0.00     0.031 A 
ATOM     87  C   UNL A   1      47.916  25.984  32.134  1.00  0.00     0.131 A 
ATOM     88  C   UNL A   1      47.847  24.113  34.171  1.00  0.00     0.055 A 
ATOM     89  C   UNL A   1      49.107  25.424  32.595  1.00  0.00     0.041 A 
ATOM     90  F   UNL A   1      47.997  26.910  31.164  1.00  0.00    -0.206 F 
ATOM     91  C   UNL A   1      49.079  24.492  33.629  1.00  0.00     0.022 A 
BRANCH  88  92
ATOM     92  S   UNL A   1      47.790  22.996  35.599  1.00  0.00     0.124 S 
ATOM     93  O   UNL A   1      48.941  22.132  35.355  1.00  0.00    -0.237 OA
ATOM     94  O   UNL A   1      47.915  23.919  36.723  1.00  0.00    -0.237 OA
ATOM     95  O   UNL A   1      46.488  22.344  35.475  1.00  0.00    -0.744 OA
ENDBRANCH  88  92
ENDBRANCH  62  85
ENDBRANCH  36  37
ENDBRANCH  28  31
ENDBRANCH  26  27
ENDBRANCH   1  26
TORSDOF 16
ENDMDL
MODEL 2
REMARK VINA RESULT:     -11.2      1.808      2.058
REMARK SMILES NC(=O)c1cc(Cl)ccc1N1CCO[C@@H](CC(=O)NCCCNC(=O)c2ccc(-c3c4nc(c(-c5cc(S(=O)(=O)[O-])ccc5F)c5ccc([nH]5)c(-c5cc(S(=O)(=O)[O-])ccc5F)c5nc(c(-c6cc(S(=O)(=O)[O-])ccc6F)c6ccc3[nH]6)C=C5)C=C4)cc2)C1
REMARK SMILES IDX 21 1 20 2 19 3 17 4 18 5 16 7 15 8 11 9 12 10 89 11 13 12
REMARK SMILES IDX 14 13 10 14 4 15 5 16 6 17 9 18 7 19 8 20 2 21 1 22 3 25
REMARK SMILES IDX 22 26 23 27 24 28 25 30 26 31 27 32 88 33 28 34 87 35 29 36
REMARK SMILES IDX 30 37 31 38 81 39 32 40 86 41 80 42 82 43 33 44 85 45 79 46
REMARK SMILES IDX 78 47 34 49 66 50 46 51 65 52 47 53 50 54 64 55 83 56 48 57
REMARK SMILES IDX 49 58 63 60 84 61 51 62 35 63 36 64 44 65 37 66 43 67 45 68
REMARK SMILES IDX 42 69 38 70 39 71 40 72 41 73 67 74 68 75 76 76 69 77 75 78
REMARK SMILES IDX 77 79 74 80 70 81 71 82 72 83 73 84 52 85 53 86 61 87 54 88
REMARK SMILES IDX 60 89 62 90 59 91 55 92 56 93 57 94 58 95
REMARK H PARENT 19 6 1 23 1 24 23 29 82 48 50 59
REMARK Flexibility Score: inf
ROOT
ATOM      1  C   UNL A   1      33.345  34.249  28.579  1.00  0.00     0.042 C 
ENDROOT
BRANCH   1   2
ATOM      2  C   UNL A   1      33.713  35.408  29.511  1.00  0.00     0.117 C 
BRANCH   2   3
ATOM      3  N   UNL A   1      32.616  35.813  30.384  1.00  0.00    -0.356 N 
ATOM      4  C   UNL A   1      32.573  36.083  31.722  1.00  0.00     0.222 C 
ATOM      5  O   UNL A   1      31.502  36.465  32.196  1.00  0.00    -0.275 OA
ATOM      6  H   UNL A   1      31.750  35.909  29.925  1.00  0.00     0.163 HD
BRANCH   4   7
ATOM      7  C   UNL A   1      33.788  35.895  32.609  1.00  0.00     0.133 C 
BRANCH   7   8
ATOM      8  C   UNL A   1      34.676  34.739  32.137  1.00  0.00     0.147 C 
ATOM      9  N   UNL A   1      36.885  33.679  32.549  1.00  0.00    -0.366 N 
ATOM     10  C   UNL A   1      36.254  32.388  32.777  1.00  0.00     0.145 C 
ATOM     11  C   UNL A   1      36.073  34.865  32.757  1.00  0.00     0.149 C 
ATOM     12  C   UNL A   1      34.869  32.378  32.106  1.00  0.00     0.182 C 
ATOM     13  O   UNL A   1      34.056  33.492  32.536  1.00  0.00    -0.374 OA
BRANCH   9  14
ATOM     14  C   UNL A   1      38.248  33.853  32.442  1.00  0.00     0.050 A 
ATOM     15  C   UNL A   1      38.893  33.922  31.195  1.00  0.00     0.064 A 
ATOM     16  C   UNL A   1      40.245  34.279  31.092  1.00  0.00     0.036 A 
ATOM     17  C   UNL A   1      40.968  34.564  32.244  1.00  0.00     0.041 A 
ATOM     18  C   UNL A   1      39.022  34.094  33.591  1.00  0.00     0.028 A 
ATOM     19  Cl  UNL A   1      42.593  35.102  32.111  1.00  0.00    -0.084 Cl
ATOM     20  C   UNL A   1      40.370  34.454  33.497  1.00  0.00     0.023 A 
BRANCH  15  21
ATOM     21  C   UNL A   1      38.137  33.704  29.940  1.00  0.00     0.250 C 
ATOM     22  N   UNL A   1      37.579  34.828  29.398  1.00  0.00    -0.366 N 
ATOM     23  H   UNL A   1      37.059  34.767  28.564  1.00  0.00     0.159 HD
ATOM     24  H   UNL A   1      37.696  35.700  29.843  1.00  0.00     0.159 HD
ATOM     25  O   UNL A   1      38.012  32.608  29.415  1.00  0.00    -0.269 OA
ENDBRANCH  15  21
ENDBRANCH   9  14
ENDBRANCH   7   8
ENDBRANCH   4   7
ENDBRANCH   2   3
ENDBRANCH   1   2
BRANCH   1  26
ATOM     26  C   UNL A   1      34.352  33.104  28.545  1.00  0.00     0.118 C 
BRANCH  26  27
ATOM     27  N   UNL A   1      33.811  31.946  27.858  1.00  0.00    -0.352 N 
ATOM     28  C   UNL A   1      34.384  30.738  27.538  1.00  0.00     0.251 C 
ATOM     29  H   UNL A   1      32.873  32.042  27.573  1.00  0.00     0.163 HD
ATOM     30  O   UNL A   1      33.819  30.044  26.693  1.00  0.00    -0.269 OA
BRANCH  28  31
ATOM     31  C   UNL A   1      35.649  30.252  28.156  1.00  0.00     0.039 A 
ATOM     32  C   UNL A   1      36.793  30.178  27.349  1.00  0.00     0.014 A 
ATOM     33  C   UNL A   1      35.718  29.761  29.463  1.00  0.00     0.014 A 
ATOM     34  C   UNL A   1      37.988  29.645  27.850  1.00  0.00     0.010 A 
ATOM     35  C   UNL A   1      36.934  29.302  29.987  1.00  0.00     0.010 A 
ATOM     36  C   UNL A   1      38.078  29.216  29.182  1.00  0.00    -0.014 A 
BRANCH  36  37
ATOM     37  C   UNL A   1      39.341  28.636  29.728  1.00  0.00     0.031 A 
ATOM     38  C   UNL A   1      39.996  29.245  30.945  1.00  0.00     0.074 A 
ATOM     39  C   UNL A   1      39.929  27.590  29.113  1.00  0.00     0.049 A 
ATOM     40  N   UNL A   1      41.134  28.940  31.517  1.00  0.00    -0.248 NA
ATOM     41  C   UNL A   1      39.282  30.356  31.590  1.00  0.00     0.031 C 
ATOM     42  C   UNL A   1      39.415  26.910  27.923  1.00  0.00     0.029 A 
ATOM     43  N   UNL A   1      41.102  26.930  29.389  1.00  0.00    -0.354 N 
ATOM     44  C   UNL A   1      41.278  29.825  32.581  1.00  0.00     0.074 A 
ATOM     45  C   UNL A   1      40.136  30.715  32.537  1.00  0.00     0.031 C 
ATOM     46  C   UNL A   1      40.273  25.942  27.563  1.00  0.00     0.029 A 
ATOM     47  C   UNL A   1      41.412  25.948  28.477  1.00  0.00     0.049 A 
ATOM     48  H   UNL A   1      41.668  27.140  30.167  1.00  0.00     0.167 HD
ATOM     49  C   UNL A   1      42.255  29.879  33.523  1.00  0.00     0.034 A 
ATOM     50  C   UNL A   1      42.494  25.152  28.372  1.00  0.00     0.034 A 
ATOM     51  C   UNL A   1      43.381  28.978  33.573  1.00  0.00     0.049 A 
ATOM     52  C   UNL A   1      43.587  25.253  29.405  1.00  0.00     0.074 A 
ATOM     53  C   UNL A   1      44.389  28.906  34.521  1.00  0.00     0.029 A 
ATOM     54  N   UNL A   1      43.657  27.995  32.631  1.00  0.00    -0.354 N 
ATOM     55  N   UNL A   1      43.682  26.065  30.432  1.00  0.00    -0.248 NA
ATOM     56  C   UNL A   1      44.711  24.315  29.274  1.00  0.00     0.031 C 
ATOM     57  C   UNL A   1      45.303  27.925  34.121  1.00  0.00     0.029 A 
ATOM     58  C   UNL A   1      44.832  27.335  32.960  1.00  0.00     0.049 A 
ATOM     59  H   UNL A   1      43.099  27.796  31.844  1.00  0.00     0.167 HD
ATOM     60  C   UNL A   1      44.857  25.711  31.087  1.00  0.00     0.074 A 
ATOM     61  C   UNL A   1      45.433  24.609  30.345  1.00  0.00     0.031 C 
ATOM     62  C   UNL A   1      45.407  26.246  32.208  1.00  0.00     0.034 A 
BRANCH  49  63
ATOM     63  C   UNL A   1      42.155  30.966  34.568  1.00  0.00     0.023 A 
ATOM     64  C   UNL A   1      42.954  32.121  34.510  1.00  0.00     0.031 A 
ATOM     65  C   UNL A   1      41.258  30.841  35.644  1.00  0.00     0.131 A 
ATOM     66  C   UNL A   1      42.896  33.067  35.546  1.00  0.00     0.055 A 
ATOM     67  C   UNL A   1      41.149  31.823  36.631  1.00  0.00     0.041 A 
ATOM     68  F   UNL A   1      40.479  29.754  35.761  1.00  0.00    -0.206 F 
ATOM     69  C   UNL A   1      41.982  32.938  36.594  1.00  0.00     0.022 A 
BRANCH  66  70
ATOM     70  S   UNL A   1      44.127  34.399  35.572  1.00  0.00     0.124 S 
ATOM     71  O   UNL A   1      43.288  35.580  35.385  1.00  0.00    -0.237 OA
ATOM     72  O   UNL A   1      44.730  34.246  36.892  1.00  0.00    -0.237 OA
ATOM     73  O   UNL A   1      45.002  34.080  34.446  1.00  0.00    -0.744 OA
ENDBRANCH  66  70
ENDBRANCH  49  63
BRANCH  50  74
ATOM     74  C   UNL A   1      42.612  24.191  27.240  1.00  0.00     0.023 A 
ATOM     75  C   UNL A   1      41.995  22.930  27.293  1.00  0.00     0.031 A 
ATOM     76  C   UNL A   1      43.377  24.505  26.102  1.00  0.00     0.131 A 
ATOM     77  C   UNL A   1      42.189  22.014  26.249  1.00  0.00     0.055 A 
ATOM     78  C   UNL A   1      43.528  23.607  25.046  1.00  0.00     0.041 A 
ATOM     79  F   UNL A   1      43.979  25.701  25.998  1.00  0.00    -0.206 F 
ATOM     80  C   UNL A   1      42.942  22.347  25.121  1.00  0.00     0.022 A 
BRANCH  77  81
ATOM     81  S   UNL A   1      41.498  20.345  26.419  1.00  0.00     0.124 S 
ATOM     82  O   UNL A   1      41.850  20.016  27.795  1.00  0.00    -0.237 OA
ATOM     83  O   UNL A   1      40.082  20.577  26.154  1.00  0.00    -0.237 OA
ATOM     84  O   UNL A   1      42.203  19.580  25.393  1.00  0.00    -0.744 OA
ENDBRANCH  77  81
ENDBRANCH  50  74
BRANCH  62  85
ATOM     85  C   UNL A   1      46.673  25.604  32.721  1.00  0.00     0.023 A 
ATOM     86  C   UNL A   1      47.928  25.884  32.152  1.00  0.00     0.031 A 
ATOM     87  C   UNL A   1      46.618  24.686  33.785  1.00  0.00     0.131 A 
ATOM     88  C   UNL A   1      49.069  25.209  32.612  1.00  0.00     0.055 A 
ATOM     89  C   UNL A   1      47.764  24.060  34.275  1.00  0.00     0.041 A 
ATOM     90  F   UNL A   1      45.445  24.381  34.364  1.00  0.00    -0.206 F 
ATOM     91  C   UNL A   1      48.997  24.310  33.680  1.00  0.00     0.022 A 
BRANCH  88  92
ATOM     92  S   UNL A   1      50.639  25.457  31.740  1.00  0.00     0.124 S 
ATOM     93  O   UNL A   1      50.490  24.574  30.588  1.00  0.00    -0.237 OA
ATOM     94  O   UNL A   1      50.616  26.888  31.453  1.00  0.00    -0.237 OA
ATOM     95  O   UNL A   1      51.645  25.039  32.716  1.00  0.00    -0.744 OA
ENDBRANCH  88  92
ENDBRANCH  62  85
ENDBRANCH  36  37
ENDBRANCH  28  31
ENDBRANCH  26  27
ENDBRANCH   1  26
TORSDOF 16
ENDMDL
MODEL 3
REMARK VINA RESULT:     -11.0      4.289     10.167
REMARK SMILES NC(=O)c1cc(Cl)ccc1N1CCO[C@@H](CC(=O)NCCCNC(=O)c2ccc(-c3c4nc(c(-c5cc(S(=O)(=O)[O-])ccc5F)c5ccc([nH]5)c(-c5cc(S(=O)(=O)[O-])ccc5F)c5nc(c(-c6cc(S(=O)(=O)[O-])ccc6F)c6ccc3[nH]6)C=C5)C=C4)cc2)C1
REMARK SMILES IDX 21 1 20 2 19 3 17 4 18 5 16 7 15 8 11 9 12 10 89 11 13 12
REMARK SMILES IDX 14 13 10 14 4 15 5 16 6 17 9 18 7 19 8 20 2 21 1 22 3 25
REMARK SMILES IDX 22 26 23 27 24 28 25 30 26 31 27 32 88 33 28 34 87 35 29 36
REMARK SMILES IDX 30 37 31 38 81 39 32 40 86 41 80 42 82 43 33 44 85 45 79 46
REMARK SMILES IDX 78 47 34 49 66 50 46 51 65 52 47 53 50 54 64 55 83 56 48 57
REMARK SMILES IDX 49 58 63 60 84 61 51 62 35 63 36 64 44 65 37 66 43 67 45 68
REMARK SMILES IDX 42 69 38 70 39 71 40 72 41 73 67 74 68 75 76 76 69 77 75 78
REMARK SMILES IDX 77 79 74 80 70 81 71 82 72 83 73 84 52 85 53 86 61 87 54 88
REMARK SMILES IDX 60 89 62 90 59 91 55 92 56 93 57 94 58 95
REMARK H PARENT 19 6 1 23 1 24 23 29 82 48 50 59
REMARK Flexibility Score: inf
ROOT
ATOM      1  C   UNL A   1      33.665  29.276  24.506  1.00  0.00     0.042 C 
ENDROOT
BRANCH   1   2
ATOM      2  C   UNL A   1      33.345  28.798  23.086  1.00  0.00     0.117 C 
BRANCH   2   3
ATOM      3  N   UNL A   1      31.921  28.848  22.771  1.00  0.00    -0.356 N 
ATOM      4  C   UNL A   1      31.045  27.878  22.374  1.00  0.00     0.222 C 
ATOM      5  O   UNL A   1      29.863  28.197  22.229  1.00  0.00    -0.275 OA
ATOM      6  H   UNL A   1      31.519  29.743  22.860  1.00  0.00     0.163 HD
BRANCH   4   7
ATOM      7  C   UNL A   1      31.503  26.461  22.093  1.00  0.00     0.133 C 
BRANCH   7   8
ATOM      8  C   UNL A   1      31.558  25.608  23.364  1.00  0.00     0.147 C 
ATOM      9  N   UNL A   1      33.162  24.615  24.982  1.00  0.00    -0.366 N 
ATOM     10  C   UNL A   1      32.481  25.261  26.095  1.00  0.00     0.145 C 
ATOM     11  C   UNL A   1      33.009  25.215  23.668  1.00  0.00     0.149 C 
ATOM     12  C   UNL A   1      31.039  25.600  25.676  1.00  0.00     0.182 C 
ATOM     13  O   UNL A   1      31.003  26.378  24.458  1.00  0.00    -0.374 OA
BRANCH   9  14
ATOM     14  C   UNL A   1      34.156  23.674  25.140  1.00  0.00     0.050 A 
ATOM     15  C   UNL A   1      33.908  22.299  24.984  1.00  0.00     0.064 A 
ATOM     16  C   UNL A   1      34.955  21.366  24.966  1.00  0.00     0.036 A 
ATOM     17  C   UNL A   1      36.265  21.806  25.113  1.00  0.00     0.041 A 
ATOM     18  C   UNL A   1      35.488  24.078  25.340  1.00  0.00     0.028 A 
ATOM     19  Cl  UNL A   1      37.554  20.678  24.987  1.00  0.00    -0.084 Cl
ATOM     20  C   UNL A   1      36.538  23.155  25.321  1.00  0.00     0.023 A 
BRANCH  15  21
ATOM     21  C   UNL A   1      32.534  21.801  24.745  1.00  0.00     0.250 C 
ATOM     22  N   UNL A   1      31.838  21.461  25.871  1.00  0.00    -0.366 N 
ATOM     23  H   UNL A   1      30.917  21.121  25.797  1.00  0.00     0.159 HD
ATOM     24  H   UNL A   1      32.258  21.554  26.757  1.00  0.00     0.159 HD
ATOM     25  O   UNL A   1      32.042  21.699  23.631  1.00  0.00    -0.269 OA
ENDBRANCH  15  21
ENDBRANCH   9  14
ENDBRANCH   7   8
ENDBRANCH   4   7
ENDBRANCH   2   3
ENDBRANCH   1   2
BRANCH   1  26
ATOM     26  C   UNL A   1      32.461  29.389  25.434  1.00  0.00     0.118 C 
BRANCH  26  27
ATOM     27  N   UNL A   1      32.179  30.773  25.767  1.00  0.00    -0.352 N 
ATOM     28  C   UNL A   1      32.627  31.562  26.801  1.00  0.00     0.251 C 
ATOM     29  H   UNL A   1      31.562  31.225  25.146  1.00  0.00     0.163 HD
ATOM     30  O   UNL A   1      32.010  32.600  27.035  1.00  0.00    -0.269 OA
BRANCH  28  31
ATOM     31  C   UNL A   1      33.803  31.205  27.642  1.00  0.00     0.039 A 
ATOM     32  C   UNL A   1      34.668  32.234  28.040  1.00  0.00     0.014 A 
ATOM     33  C   UNL A   1      34.142  29.885  27.955  1.00  0.00     0.014 A 
ATOM     34  C   UNL A   1      35.838  31.947  28.757  1.00  0.00     0.010 A 
ATOM     35  C   UNL A   1      35.270  29.608  28.739  1.00  0.00     0.010 A 
ATOM     36  C   UNL A   1      36.145  30.631  29.130  1.00  0.00    -0.014 A 
BRANCH  36  37
ATOM     37  C   UNL A   1      37.392  30.308  29.884  1.00  0.00     0.031 A 
ATOM     38  C   UNL A   1      38.427  29.384  29.285  1.00  0.00     0.074 A 
ATOM     39  C   UNL A   1      37.586  30.804  31.123  1.00  0.00     0.049 A 
ATOM     40  N   UNL A   1      39.530  28.917  29.814  1.00  0.00    -0.248 NA
ATOM     41  C   UNL A   1      38.174  28.912  27.916  1.00  0.00     0.031 C 
ATOM     42  C   UNL A   1      36.666  31.698  31.828  1.00  0.00     0.029 A 
ATOM     43  N   UNL A   1      38.608  30.608  32.019  1.00  0.00    -0.354 N 
ATOM     44  C   UNL A   1      40.097  28.088  28.850  1.00  0.00     0.074 A 
ATOM     45  C   UNL A   1      39.184  28.075  27.726  1.00  0.00     0.031 C 
ATOM     46  C   UNL A   1      37.157  31.959  33.050  1.00  0.00     0.029 A 
ATOM     47  C   UNL A   1      38.411  31.233  33.228  1.00  0.00     0.049 A 
ATOM     48  H   UNL A   1      39.407  30.071  31.814  1.00  0.00     0.167 HD
ATOM     49  C   UNL A   1      41.279  27.420  28.884  1.00  0.00     0.034 A 
ATOM     50  C   UNL A   1      39.141  31.213  34.360  1.00  0.00     0.034 A 
ATOM     51  C   UNL A   1      42.194  27.452  30.000  1.00  0.00     0.049 A 
ATOM     52  C   UNL A   1      40.431  30.434  34.392  1.00  0.00     0.074 A 
ATOM     53  C   UNL A   1      43.445  26.865  30.108  1.00  0.00     0.029 A 
ATOM     54  N   UNL A   1      41.958  28.099  31.206  1.00  0.00    -0.354 N 
ATOM     55  N   UNL A   1      40.975  29.696  33.453  1.00  0.00    -0.248 NA
ATOM     56  C   UNL A   1      41.216  30.503  35.633  1.00  0.00     0.031 C 
ATOM     57  C   UNL A   1      43.935  27.105  31.398  1.00  0.00     0.029 A 
ATOM     58  C   UNL A   1      43.023  27.900  32.072  1.00  0.00     0.049 A 
ATOM     59  H   UNL A   1      41.151  28.623  31.416  1.00  0.00     0.167 HD
ATOM     60  C   UNL A   1      42.180  29.241  33.979  1.00  0.00     0.074 A 
ATOM     61  C   UNL A   1      42.288  29.794  35.313  1.00  0.00     0.031 C 
ATOM     62  C   UNL A   1      43.118  28.444  33.405  1.00  0.00     0.034 A 
BRANCH  49  63
ATOM     63  C   UNL A   1      41.638  26.581  27.681  1.00  0.00     0.023 A 
ATOM     64  C   UNL A   1      41.320  25.213  27.613  1.00  0.00     0.031 A 
ATOM     65  C   UNL A   1      42.321  27.151  26.591  1.00  0.00     0.131 A 
ATOM     66  C   UNL A   1      41.748  24.446  26.518  1.00  0.00     0.055 A 
ATOM     67  C   UNL A   1      42.676  26.399  25.469  1.00  0.00     0.041 A 
ATOM     68  F   UNL A   1      42.666  28.448  26.604  1.00  0.00    -0.206 F 
ATOM     69  C   UNL A   1      42.404  25.034  25.434  1.00  0.00     0.022 A 
BRANCH  66  70
ATOM     70  S   UNL A   1      41.554  22.644  26.594  1.00  0.00     0.124 S 
ATOM     71  O   UNL A   1      40.100  22.506  26.633  1.00  0.00    -0.237 OA
ATOM     72  O   UNL A   1      42.205  22.205  25.364  1.00  0.00    -0.237 OA
ATOM     73  O   UNL A   1      42.242  22.276  27.829  1.00  0.00    -0.744 OA
ENDBRANCH  66  70
ENDBRANCH  49  63
BRANCH  50  74
ATOM     74  C   UNL A   1      38.671  31.945  35.570  1.00  0.00     0.023 A 
ATOM     75  C   UNL A   1      38.120  31.258  36.663  1.00  0.00     0.031 A 
ATOM     76  C   UNL A   1      38.731  33.349  35.632  1.00  0.00     0.131 A 
ATOM     77  C   UNL A   1      37.610  31.977  37.754  1.00  0.00     0.055 A 
ATOM     78  C   UNL A   1      38.265  34.056  36.740  1.00  0.00     0.041 A 
ATOM     79  F   UNL A   1      39.259  34.052  34.617  1.00  0.00    -0.206 F 
ATOM     80  C   UNL A   1      37.689  33.371  37.806  1.00  0.00     0.022 A 
BRANCH  77  81
ATOM     81  S   UNL A   1      36.775  31.066  39.081  1.00  0.00     0.124 S 
ATOM     82  O   UNL A   1      36.657  29.734  38.500  1.00  0.00    -0.237 OA
ATOM     83  O   UNL A   1      37.721  31.205  40.184  1.00  0.00    -0.237 OA
ATOM     84  O   UNL A   1      35.516  31.789  39.249  1.00  0.00    -0.744 OA
ENDBRANCH  77  81
ENDBRANCH  50  74
BRANCH  62  85
ATOM     85  C   UNL A   1      44.365  28.168  34.209  1.00  0.00     0.023 A 
ATOM     86  C   UNL A   1      44.465  27.056  35.063  1.00  0.00     0.031 A 
ATOM     87  C   UNL A   1      45.463  29.044  34.131  1.00  0.00     0.131 A 
ATOM     88  C   UNL A   1      45.614  26.878  35.848  1.00  0.00     0.055 A 
ATOM     89  C   UNL A   1      46.626  28.831  34.873  1.00  0.00     0.041 A 
ATOM     90  F   UNL A   1      45.421  30.123  33.333  1.00  0.00    -0.206 F 
ATOM     91  C   UNL A   1      46.701  27.751  35.747  1.00  0.00     0.022 A 
BRANCH  88  92
ATOM     92  S   UNL A   1      45.639  25.537  37.068  1.00  0.00     0.124 S 
ATOM     93  O   UNL A   1      47.068  25.273  37.201  1.00  0.00    -0.237 OA
ATOM     94  O   UNL A   1      44.995  26.154  38.224  1.00  0.00    -0.237 OA
ATOM     95  O   UNL A   1      44.868  24.473  36.427  1.00  0.00    -0.744 OA
ENDBRANCH  88  92
ENDBRANCH  62  85
ENDBRANCH  36  37
ENDBRANCH  28  31
ENDBRANCH  26  27
ENDBRANCH   1  26
TORSDOF 16
ENDMDL
