MODEL 1
REMARK VINA RESULT:     -13.1      0.000      0.000
REMARK SMILES O=C(NCCCNC(=O)[C@H]1Cc2[nH]cnc2CN1C(=O)C[C@]12C[C@H]3C[C@H](C[C@H](C3)C1)C2)c1ccc(-c2c3nc(c(-c4cc(S(=O)(=O)[O-])ccc4F)c4ccc([nH]4)c(-c4cc(S(=O)(=O)[O-])ccc4F)c4nc(c(-c5cc(S(=O)(=O)[O-])ccc5F)c5ccc2[nH]5)C=C4)C=C3)cc1
REMARK SMILES IDX 5 1 4 2 3 3 1 4 2 5 32 7 33 8 94 9 34 10 93 11 35 12 36 13
REMARK SMILES IDX 37 14 87 15 38 16 92 17 86 18 88 19 39 20 91 21 85 22 84 23
REMARK SMILES IDX 40 25 72 26 52 27 71 28 53 29 56 30 70 31 89 32 54 33 55 34
REMARK SMILES IDX 69 36 90 37 57 38 41 39 42 40 50 41 43 42 49 43 51 44 48 45
REMARK SMILES IDX 44 46 45 47 46 48 47 49 73 50 74 51 82 52 75 53 81 54 83 55
REMARK SMILES IDX 80 56 76 57 77 58 78 59 79 60 58 61 59 62 67 63 60 64 66 65
REMARK SMILES IDX 68 66 65 67 61 68 62 69 63 70 64 71 6 72 7 73 8 74 9 76
REMARK SMILES IDX 10 77 11 78 18 79 12 80 17 81 13 82 16 83 14 84 15 86 19 87
REMARK SMILES IDX 20 88 21 89 22 90 23 91 30 92 31 93 24 94 28 95 26 96 25 97
REMARK SMILES IDX 29 98 27 99
REMARK H PARENT 3 6 88 24 56 35 7 75 13 85
REMARK Flexibility Score: inf
ROOT
ATOM      1  C   UNL A   1      38.026  20.767  24.781  1.00  0.00     0.042 C 
ENDROOT
BRANCH   1   2
ATOM      2  C   UNL A   1      38.365  19.479  25.539  1.00  0.00     0.118 C 
BRANCH   2   3
ATOM      3  N   UNL A   1      39.729  19.006  25.419  1.00  0.00    -0.352 N 
ATOM      4  O   UNL A   1      41.880  18.654  25.776  1.00  0.00    -0.269 OA
ATOM      5  C   UNL A   1      40.935  19.439  25.899  1.00  0.00     0.251 C 
ATOM      6  H   UNL A   1      39.805  18.192  24.870  1.00  0.00     0.163 HD
BRANCH   5   7
ATOM      7  C   UNL A   1      41.186  20.794  26.452  1.00  0.00     0.039 A 
ATOM      8  C   UNL A   1      41.782  21.855  25.770  1.00  0.00     0.014 A 
ATOM      9  C   UNL A   1      40.825  20.978  27.800  1.00  0.00     0.014 A 
ATOM     10  C   UNL A   1      42.151  23.011  26.454  1.00  0.00     0.010 A 
ATOM     11  C   UNL A   1      41.160  22.141  28.480  1.00  0.00     0.010 A 
ATOM     12  C   UNL A   1      41.873  23.137  27.819  1.00  0.00    -0.014 A 
BRANCH  12  13
ATOM     13  C   UNL A   1      42.144  24.416  28.473  1.00  0.00     0.031 A 
ATOM     14  C   UNL A   1      41.123  25.458  28.175  1.00  0.00     0.074 A 
ATOM     15  C   UNL A   1      43.118  24.609  29.390  1.00  0.00     0.049 A 
ATOM     16  N   UNL A   1      41.278  26.567  27.531  1.00  0.00    -0.248 NA
ATOM     17  C   UNL A   1      39.715  25.147  28.482  1.00  0.00     0.031 C 
ATOM     18  C   UNL A   1      44.014  23.608  29.971  1.00  0.00     0.029 A 
ATOM     19  N   UNL A   1      43.446  25.741  30.079  1.00  0.00    -0.354 N 
ATOM     20  C   UNL A   1      40.041  27.209  27.566  1.00  0.00     0.074 A 
ATOM     21  C   UNL A   1      39.094  26.209  27.970  1.00  0.00     0.031 C 
ATOM     22  C   UNL A   1      44.609  24.122  31.073  1.00  0.00     0.029 A 
ATOM     23  C   UNL A   1      44.238  25.523  31.208  1.00  0.00     0.049 A 
ATOM     24  H   UNL A   1      43.148  26.638  29.803  1.00  0.00     0.167 HD
ATOM     25  C   UNL A   1      39.950  28.567  27.500  1.00  0.00     0.034 A 
ATOM     26  C   UNL A   1      44.520  26.406  32.210  1.00  0.00     0.034 A 
ATOM     27  C   UNL A   1      41.169  29.137  26.965  1.00  0.00     0.049 A 
ATOM     28  C   UNL A   1      44.289  27.765  31.661  1.00  0.00     0.074 A 
ATOM     29  C   UNL A   1      41.872  28.988  25.785  1.00  0.00     0.029 A 
ATOM     30  N   UNL A   1      42.052  29.731  27.842  1.00  0.00    -0.354 N 
ATOM     31  N   UNL A   1      45.012  28.280  30.706  1.00  0.00    -0.248 NA
ATOM     32  C   UNL A   1      42.963  28.346  31.817  1.00  0.00     0.031 C 
ATOM     33  C   UNL A   1      43.245  29.006  26.172  1.00  0.00     0.029 A 
ATOM     34  C   UNL A   1      43.303  29.253  27.544  1.00  0.00     0.049 A 
ATOM     35  H   UNL A   1      41.827  30.377  28.548  1.00  0.00     0.167 HD
ATOM     36  C   UNL A   1      44.102  28.912  29.872  1.00  0.00     0.074 A 
ATOM     37  C   UNL A   1      42.868  28.996  30.653  1.00  0.00     0.031 C 
ATOM     38  C   UNL A   1      44.343  29.050  28.534  1.00  0.00     0.034 A 
BRANCH  25  39
ATOM     39  C   UNL A   1      38.962  29.401  28.301  1.00  0.00     0.023 A 
ATOM     40  C   UNL A   1      39.159  29.431  29.696  1.00  0.00     0.031 A 
ATOM     41  C   UNL A   1      37.704  29.867  27.859  1.00  0.00     0.131 A 
ATOM     42  C   UNL A   1      38.099  29.713  30.573  1.00  0.00     0.055 A 
ATOM     43  C   UNL A   1      36.672  30.218  28.735  1.00  0.00     0.041 A 
ATOM     44  F   UNL A   1      37.364  29.943  26.569  1.00  0.00    -0.206 F 
ATOM     45  C   UNL A   1      36.849  30.096  30.101  1.00  0.00     0.022 A 
BRANCH  42  46
ATOM     46  S   UNL A   1      38.335  29.338  32.328  1.00  0.00     0.124 S 
ATOM     47  O   UNL A   1      39.609  28.633  32.298  1.00  0.00    -0.237 OA
ATOM     48  O   UNL A   1      38.343  30.669  32.918  1.00  0.00    -0.237 OA
ATOM     49  O   UNL A   1      37.169  28.514  32.654  1.00  0.00    -0.744 OA
ENDBRANCH  42  46
ENDBRANCH  25  39
BRANCH  26  50
ATOM     50  C   UNL A   1      44.629  26.123  33.678  1.00  0.00     0.023 A 
ATOM     51  C   UNL A   1      43.581  26.348  34.604  1.00  0.00     0.031 A 
ATOM     52  C   UNL A   1      45.730  25.374  34.151  1.00  0.00     0.131 A 
ATOM     53  C   UNL A   1      43.670  25.840  35.927  1.00  0.00     0.055 A 
ATOM     54  C   UNL A   1      45.810  24.874  35.453  1.00  0.00     0.041 A 
ATOM     55  F   UNL A   1      46.735  25.024  33.333  1.00  0.00    -0.206 F 
ATOM     56  C   UNL A   1      44.777  25.097  36.345  1.00  0.00     0.022 A 
BRANCH  53  57
ATOM     57  S   UNL A   1      42.308  26.065  37.125  1.00  0.00     0.124 S 
ATOM     58  O   UNL A   1      43.025  26.316  38.369  1.00  0.00    -0.237 OA
ATOM     59  O   UNL A   1      41.572  27.191  36.560  1.00  0.00    -0.237 OA
ATOM     60  O   UNL A   1      41.595  24.787  37.078  1.00  0.00    -0.744 OA
ENDBRANCH  53  57
ENDBRANCH  26  50
BRANCH  38  61
ATOM     61  C   UNL A   1      45.738  28.781  28.013  1.00  0.00     0.023 A 
ATOM     62  C   UNL A   1      46.227  27.517  27.606  1.00  0.00     0.031 A 
ATOM     63  C   UNL A   1      46.566  29.898  27.804  1.00  0.00     0.131 A 
ATOM     64  C   UNL A   1      47.506  27.413  27.021  1.00  0.00     0.055 A 
ATOM     65  C   UNL A   1      47.820  29.794  27.207  1.00  0.00     0.041 A 
ATOM     66  F   UNL A   1      46.146  31.129  28.143  1.00  0.00    -0.206 F 
ATOM     67  C   UNL A   1      48.297  28.549  26.818  1.00  0.00     0.022 A 
BRANCH  64  68
ATOM     68  S   UNL A   1      48.174  25.793  26.519  1.00  0.00     0.124 S 
ATOM     69  O   UNL A   1      49.616  25.955  26.669  1.00  0.00    -0.237 OA
ATOM     70  O   UNL A   1      47.533  24.878  27.460  1.00  0.00    -0.237 OA
ATOM     71  O   UNL A   1      47.719  25.650  25.135  1.00  0.00    -0.744 OA
ENDBRANCH  64  68
ENDBRANCH  38  61
ENDBRANCH  12  13
ENDBRANCH   5   7
ENDBRANCH   2   3
ENDBRANCH   1   2
BRANCH   1  72
ATOM     72  C   UNL A   1      37.725  21.985  25.658  1.00  0.00     0.117 C 
BRANCH  72  73
ATOM     73  N   UNL A   1      37.349  23.137  24.858  1.00  0.00    -0.354 N 
ATOM     74  C   UNL A   1      36.388  23.043  23.885  1.00  0.00     0.243 C 
ATOM     75  H   UNL A   1      37.793  24.001  25.017  1.00  0.00     0.163 HD
ATOM     76  O   UNL A   1      36.792  23.156  22.733  1.00  0.00    -0.273 OA
BRANCH  74  77
ATOM     77  C   UNL A   1      34.934  22.703  24.299  1.00  0.00     0.180 C 
ATOM     78  C   UNL A   1      34.643  23.122  25.799  1.00  0.00     0.091 C 
ATOM     79  N   UNL A   1      33.747  22.961  23.363  1.00  0.00    -0.324 N 
ATOM     80  C   UNL A   1      33.199  22.978  26.095  1.00  0.00     0.042 A 
ATOM     81  C   UNL A   1      32.533  22.201  23.781  1.00  0.00     0.178 C 
ATOM     82  N   UNL A   1      32.543  23.239  27.260  1.00  0.00    -0.348 N 
ATOM     83  C   UNL A   1      32.237  22.571  25.200  1.00  0.00     0.081 A 
ATOM     84  C   UNL A   1      31.220  22.956  27.036  1.00  0.00     0.197 A 
ATOM     85  H   UNL A   1      32.940  23.566  28.100  1.00  0.00     0.167 HD
ATOM     86  N   UNL A   1      31.005  22.559  25.799  1.00  0.00    -0.240 NA
BRANCH  79  87
ATOM     87  C   UNL A   1      33.504  23.924  22.383  1.00  0.00     0.224 C 
ATOM     88  O   UNL A   1      33.230  23.575  21.222  1.00  0.00    -0.275 OA
BRANCH  87  89
ATOM     89  C   UNL A   1      33.595  25.437  22.590  1.00  0.00     0.107 C 
BRANCH  89  90
ATOM     90  C   UNL A   1      32.423  26.143  23.315  1.00  0.00    -0.020 C 
ATOM     91  C   UNL A   1      31.108  25.376  23.147  1.00  0.00     0.011 C 
ATOM     92  C   UNL A   1      32.214  27.583  22.782  1.00  0.00     0.011 C 
ATOM     93  C   UNL A   1      32.715  26.256  24.839  1.00  0.00     0.011 C 
ATOM     94  C   UNL A   1      29.930  26.043  23.848  1.00  0.00    -0.010 C 
ATOM     95  C   UNL A   1      31.035  28.268  23.506  1.00  0.00    -0.010 C 
ATOM     96  C   UNL A   1      31.531  26.916  25.575  1.00  0.00    -0.010 C 
ATOM     97  C   UNL A   1      30.249  26.098  25.348  1.00  0.00     0.007 C 
ATOM     98  C   UNL A   1      29.755  27.451  23.274  1.00  0.00     0.007 C 
ATOM     99  C   UNL A   1      31.319  28.331  25.017  1.00  0.00     0.007 C 
ENDBRANCH  89  90
ENDBRANCH  87  89
ENDBRANCH  79  87
ENDBRANCH  74  77
ENDBRANCH  72  73
ENDBRANCH   1  72
TORSDOF 16
ENDMDL
MODEL 2
REMARK VINA RESULT:     -13.0      3.290      7.844
REMARK SMILES O=C(NCCCNC(=O)[C@H]1Cc2[nH]cnc2CN1C(=O)C[C@]12C[C@H]3C[C@H](C[C@H](C3)C1)C2)c1ccc(-c2c3nc(c(-c4cc(S(=O)(=O)[O-])ccc4F)c4ccc([nH]4)c(-c4cc(S(=O)(=O)[O-])ccc4F)c4nc(c(-c5cc(S(=O)(=O)[O-])ccc5F)c5ccc2[nH]5)C=C4)C=C3)cc1
REMARK SMILES IDX 5 1 4 2 3 3 1 4 2 5 32 7 33 8 94 9 34 10 93 11 35 12 36 13
REMARK SMILES IDX 37 14 87 15 38 16 92 17 86 18 88 19 39 20 91 21 85 22 84 23
REMARK SMILES IDX 40 25 72 26 52 27 71 28 53 29 56 30 70 31 89 32 54 33 55 34
REMARK SMILES IDX 69 36 90 37 57 38 41 39 42 40 50 41 43 42 49 43 51 44 48 45
REMARK SMILES IDX 44 46 45 47 46 48 47 49 73 50 74 51 82 52 75 53 81 54 83 55
REMARK SMILES IDX 80 56 76 57 77 58 78 59 79 60 58 61 59 62 67 63 60 64 66 65
REMARK SMILES IDX 68 66 65 67 61 68 62 69 63 70 64 71 6 72 7 73 8 74 9 76
REMARK SMILES IDX 10 77 11 78 18 79 12 80 17 81 13 82 16 83 14 84 15 86 19 87
REMARK SMILES IDX 20 88 21 89 22 90 23 91 30 92 31 93 24 94 28 95 26 96 25 97
REMARK SMILES IDX 29 98 27 99
REMARK H PARENT 3 6 88 24 56 35 7 75 13 85
REMARK Flexibility Score: inf
ROOT
ATOM      1  C   UNL A   1      34.926  29.655  27.558  1.00  0.00     0.042 C 
ENDROOT
BRANCH   1   2
ATOM      2  C   UNL A   1      34.784  31.178  27.658  1.00  0.00     0.118 C 
BRANCH   2   3
ATOM      3  N   UNL A   1      34.654  31.722  28.995  1.00  0.00    -0.352 N 
ATOM      4  O   UNL A   1      35.113  32.586  30.974  1.00  0.00    -0.269 OA
ATOM      5  C   UNL A   1      35.511  31.870  30.052  1.00  0.00     0.251 C 
ATOM      6  H   UNL A   1      33.750  32.060  29.185  1.00  0.00     0.163 HD
BRANCH   5   7
ATOM      7  C   UNL A   1      36.809  31.161  30.192  1.00  0.00     0.039 A 
ATOM      8  C   UNL A   1      38.071  31.731  30.023  1.00  0.00     0.014 A 
ATOM      9  C   UNL A   1      36.723  29.784  30.470  1.00  0.00     0.014 A 
ATOM     10  C   UNL A   1      39.205  30.924  29.977  1.00  0.00     0.010 A 
ATOM     11  C   UNL A   1      37.854  28.979  30.458  1.00  0.00     0.010 A 
ATOM     12  C   UNL A   1      39.090  29.542  30.157  1.00  0.00    -0.014 A 
BRANCH  12  13
ATOM     13  C   UNL A   1      40.312  28.744  30.244  1.00  0.00     0.031 A 
ATOM     14  C   UNL A   1      40.754  28.494  31.645  1.00  0.00     0.074 A 
ATOM     15  C   UNL A   1      40.903  28.141  29.189  1.00  0.00     0.049 A 
ATOM     16  N   UNL A   1      41.831  28.906  32.227  1.00  0.00    -0.248 NA
ATOM     17  C   UNL A   1      39.795  27.853  32.563  1.00  0.00     0.031 C 
ATOM     18  C   UNL A   1      40.425  28.081  27.808  1.00  0.00     0.029 A 
ATOM     19  N   UNL A   1      42.022  27.359  29.154  1.00  0.00    -0.354 N 
ATOM     20  C   UNL A   1      41.803  28.367  33.513  1.00  0.00     0.074 A 
ATOM     21  C   UNL A   1      40.455  27.919  33.719  1.00  0.00     0.031 C 
ATOM     22  C   UNL A   1      41.109  27.125  27.136  1.00  0.00     0.029 A 
ATOM     23  C   UNL A   1      42.156  26.591  27.995  1.00  0.00     0.049 A 
ATOM     24  H   UNL A   1      42.680  27.336  29.886  1.00  0.00     0.167 HD
ATOM     25  C   UNL A   1      42.954  28.113  34.196  1.00  0.00     0.034 A 
ATOM     26  C   UNL A   1      43.018  25.557  27.776  1.00  0.00     0.034 A 
ATOM     27  C   UNL A   1      44.061  28.854  33.628  1.00  0.00     0.049 A 
ATOM     28  C   UNL A   1      44.127  25.710  28.752  1.00  0.00     0.074 A 
ATOM     29  C   UNL A   1      44.321  30.195  33.412  1.00  0.00     0.029 A 
ATOM     30  N   UNL A   1      44.963  28.178  32.834  1.00  0.00    -0.354 N 
ATOM     31  N   UNL A   1      44.968  26.707  28.723  1.00  0.00    -0.248 NA
ATOM     32  C   UNL A   1      43.997  25.045  30.040  1.00  0.00     0.031 C 
ATOM     33  C   UNL A   1      44.973  30.242  32.144  1.00  0.00     0.029 A 
ATOM     34  C   UNL A   1      45.154  28.930  31.703  1.00  0.00     0.049 A 
ATOM     35  H   UNL A   1      45.390  27.316  33.041  1.00  0.00     0.167 HD
ATOM     36  C   UNL A   1      45.127  27.076  30.049  1.00  0.00     0.074 A 
ATOM     37  C   UNL A   1      44.576  25.963  30.821  1.00  0.00     0.031 C 
ATOM     38  C   UNL A   1      45.425  28.363  30.397  1.00  0.00     0.034 A 
BRANCH  25  39
ATOM     39  C   UNL A   1      43.178  26.895  35.079  1.00  0.00     0.023 A 
ATOM     40  C   UNL A   1      43.961  25.861  34.529  1.00  0.00     0.031 A 
ATOM     41  C   UNL A   1      42.436  26.544  36.229  1.00  0.00     0.131 A 
ATOM     42  C   UNL A   1      43.838  24.538  34.983  1.00  0.00     0.055 A 
ATOM     43  C   UNL A   1      42.374  25.238  36.724  1.00  0.00     0.041 A 
ATOM     44  F   UNL A   1      41.672  27.411  36.900  1.00  0.00    -0.206 F 
ATOM     45  C   UNL A   1      43.038  24.215  36.072  1.00  0.00     0.022 A 
BRANCH  42  46
ATOM     46  S   UNL A   1      44.566  23.228  33.966  1.00  0.00     0.124 S 
ATOM     47  O   UNL A   1      45.814  23.852  33.551  1.00  0.00    -0.237 OA
ATOM     48  O   UNL A   1      44.673  22.135  34.923  1.00  0.00    -0.237 OA
ATOM     49  O   UNL A   1      43.574  23.038  32.906  1.00  0.00    -0.744 OA
ENDBRANCH  42  46
ENDBRANCH  25  39
BRANCH  26  50
ATOM     50  C   UNL A   1      42.754  24.284  27.032  1.00  0.00     0.023 A 
ATOM     51  C   UNL A   1      43.684  23.675  26.155  1.00  0.00     0.031 A 
ATOM     52  C   UNL A   1      41.629  23.505  27.386  1.00  0.00     0.131 A 
ATOM     53  C   UNL A   1      43.462  22.358  25.672  1.00  0.00     0.055 A 
ATOM     54  C   UNL A   1      41.417  22.209  26.910  1.00  0.00     0.041 A 
ATOM     55  F   UNL A   1      40.732  23.947  28.282  1.00  0.00    -0.206 F 
ATOM     56  C   UNL A   1      42.337  21.625  26.058  1.00  0.00     0.022 A 
BRANCH  53  57
ATOM     57  S   UNL A   1      44.674  21.527  24.585  1.00  0.00     0.124 S 
ATOM     58  O   UNL A   1      44.168  20.161  24.541  1.00  0.00    -0.237 OA
ATOM     59  O   UNL A   1      44.574  22.298  23.351  1.00  0.00    -0.237 OA
ATOM     60  O   UNL A   1      45.942  21.686  25.301  1.00  0.00    -0.744 OA
ENDBRANCH  53  57
ENDBRANCH  26  50
BRANCH  38  61
ATOM     61  C   UNL A   1      45.878  29.323  29.317  1.00  0.00     0.023 A 
ATOM     62  C   UNL A   1      45.020  30.069  28.476  1.00  0.00     0.031 A 
ATOM     63  C   UNL A   1      47.258  29.581  29.234  1.00  0.00     0.131 A 
ATOM     64  C   UNL A   1      45.559  31.025  27.590  1.00  0.00     0.055 A 
ATOM     65  C   UNL A   1      47.785  30.541  28.372  1.00  0.00     0.041 A 
ATOM     66  F   UNL A   1      48.122  28.926  30.027  1.00  0.00    -0.206 F 
ATOM     67  C   UNL A   1      46.937  31.263  27.543  1.00  0.00     0.022 A 
BRANCH  64  68
ATOM     68  S   UNL A   1      44.478  31.975  26.471  1.00  0.00     0.124 S 
ATOM     69  O   UNL A   1      45.379  32.404  25.407  1.00  0.00    -0.237 OA
ATOM     70  O   UNL A   1      43.467  30.991  26.093  1.00  0.00    -0.237 OA
ATOM     71  O   UNL A   1      43.978  33.059  27.318  1.00  0.00    -0.744 OA
ENDBRANCH  64  68
ENDBRANCH  38  61
ENDBRANCH  12  13
ENDBRANCH   5   7
ENDBRANCH   2   3
ENDBRANCH   1   2
BRANCH   1  72
ATOM     72  C   UNL A   1      34.000  28.974  26.547  1.00  0.00     0.117 C 
BRANCH  72  73
ATOM     73  N   UNL A   1      32.610  29.323  26.780  1.00  0.00    -0.354 N 
ATOM     74  C   UNL A   1      31.791  29.701  25.747  1.00  0.00     0.243 C 
ATOM     75  H   UNL A   1      32.249  29.288  27.695  1.00  0.00     0.163 HD
ATOM     76  O   UNL A   1      31.440  30.876  25.756  1.00  0.00    -0.273 OA
BRANCH  74  77
ATOM     77  C   UNL A   1      31.475  28.678  24.628  1.00  0.00     0.180 C 
ATOM     78  C   UNL A   1      32.637  28.615  23.552  1.00  0.00     0.091 C 
ATOM     79  N   UNL A   1      30.870  27.303  24.938  1.00  0.00    -0.324 N 
ATOM     80  C   UNL A   1      32.404  27.488  22.620  1.00  0.00     0.042 A 
ATOM     81  C   UNL A   1      30.281  26.667  23.724  1.00  0.00     0.178 C 
ATOM     82  N   UNL A   1      33.167  27.091  21.563  1.00  0.00    -0.348 N 
ATOM     83  C   UNL A   1      31.355  26.601  22.685  1.00  0.00     0.081 A 
ATOM     84  C   UNL A   1      32.541  26.001  21.016  1.00  0.00     0.197 A 
ATOM     85  H   UNL A   1      34.005  27.505  21.253  1.00  0.00     0.167 HD
ATOM     86  N   UNL A   1      31.449  25.677  21.677  1.00  0.00    -0.240 NA
BRANCH  79  87
ATOM     87  C   UNL A   1      30.979  26.444  26.032  1.00  0.00     0.224 C 
ATOM     88  O   UNL A   1      31.111  26.907  27.177  1.00  0.00    -0.275 OA
BRANCH  87  89
ATOM     89  C   UNL A   1      31.005  24.916  25.955  1.00  0.00     0.107 C 
BRANCH  89  90
ATOM     90  C   UNL A   1      32.342  24.231  25.579  1.00  0.00    -0.020 C 
ATOM     91  C   UNL A   1      33.460  25.253  25.355  1.00  0.00     0.011 C 
ATOM     92  C   UNL A   1      32.198  23.381  24.291  1.00  0.00     0.011 C 
ATOM     93  C   UNL A   1      32.799  23.269  26.714  1.00  0.00     0.011 C 
ATOM     94  C   UNL A   1      34.792  24.614  24.981  1.00  0.00    -0.010 C 
ATOM     95  C   UNL A   1      33.541  22.716  23.923  1.00  0.00    -0.010 C 
ATOM     96  C   UNL A   1      34.153  22.618  26.366  1.00  0.00    -0.010 C 
ATOM     97  C   UNL A   1      35.217  23.706  26.143  1.00  0.00     0.007 C 
ATOM     98  C   UNL A   1      34.601  23.805  23.696  1.00  0.00     0.007 C 
ATOM     99  C   UNL A   1      34.003  21.803  25.073  1.00  0.00     0.007 C 
ENDBRANCH  89  90
ENDBRANCH  87  89
ENDBRANCH  79  87
ENDBRANCH  74  77
ENDBRANCH  72  73
ENDBRANCH   1  72
TORSDOF 16
ENDMDL
MODEL 3
REMARK VINA RESULT:     -12.8      3.363      7.807
REMARK SMILES O=C(NCCCNC(=O)[C@H]1Cc2[nH]cnc2CN1C(=O)C[C@]12C[C@H]3C[C@H](C[C@H](C3)C1)C2)c1ccc(-c2c3nc(c(-c4cc(S(=O)(=O)[O-])ccc4F)c4ccc([nH]4)c(-c4cc(S(=O)(=O)[O-])ccc4F)c4nc(c(-c5cc(S(=O)(=O)[O-])ccc5F)c5ccc2[nH]5)C=C4)C=C3)cc1
REMARK SMILES IDX 5 1 4 2 3 3 1 4 2 5 32 7 33 8 94 9 34 10 93 11 35 12 36 13
REMARK SMILES IDX 37 14 87 15 38 16 92 17 86 18 88 19 39 20 91 21 85 22 84 23
REMARK SMILES IDX 40 25 72 26 52 27 71 28 53 29 56 30 70 31 89 32 54 33 55 34
REMARK SMILES IDX 69 36 90 37 57 38 41 39 42 40 50 41 43 42 49 43 51 44 48 45
REMARK SMILES IDX 44 46 45 47 46 48 47 49 73 50 74 51 82 52 75 53 81 54 83 55
REMARK SMILES IDX 80 56 76 57 77 58 78 59 79 60 58 61 59 62 67 63 60 64 66 65
REMARK SMILES IDX 68 66 65 67 61 68 62 69 63 70 64 71 6 72 7 73 8 74 9 76
REMARK SMILES IDX 10 77 11 78 18 79 12 80 17 81 13 82 16 83 14 84 15 86 19 87
REMARK SMILES IDX 20 88 21 89 22 90 23 91 30 92 31 93 24 94 28 95 26 96 25 97
REMARK SMILES IDX 29 98 27 99
REMARK H PARENT 3 6 88 24 56 35 7 75 13 85
REMARK Flexibility Score: inf
ROOT
ATOM      1  C   UNL A   1      34.245  29.384  27.309  1.00  0.00     0.042 C 
ENDROOT
BRANCH   1   2
ATOM      2  C   UNL A   1      34.377  30.911  27.263  1.00  0.00     0.118 C 
BRANCH   2   3
ATOM      3  N   UNL A   1      34.466  31.584  28.543  1.00  0.00    -0.352 N 
ATOM      4  O   UNL A   1      35.246  32.547  30.371  1.00  0.00    -0.269 OA
ATOM      5  C   UNL A   1      35.444  31.704  29.492  1.00  0.00     0.251 C 
ATOM      6  H   UNL A   1      33.639  32.060  28.784  1.00  0.00     0.163 HD
BRANCH   5   7
ATOM      7  C   UNL A   1      36.647  30.836  29.579  1.00  0.00     0.039 A 
ATOM      8  C   UNL A   1      36.645  29.461  29.807  1.00  0.00     0.014 A 
ATOM      9  C   UNL A   1      37.884  31.499  29.467  1.00  0.00     0.014 A 
ATOM     10  C   UNL A   1      37.837  28.791  30.072  1.00  0.00     0.010 A 
ATOM     11  C   UNL A   1      39.079  30.830  29.697  1.00  0.00     0.010 A 
ATOM     12  C   UNL A   1      39.051  29.486  30.054  1.00  0.00    -0.014 A 
BRANCH  12  13
ATOM     13  C   UNL A   1      40.293  28.728  30.196  1.00  0.00     0.031 A 
ATOM     14  C   UNL A   1      40.664  28.466  31.615  1.00  0.00     0.074 A 
ATOM     15  C   UNL A   1      40.963  28.167  29.165  1.00  0.00     0.049 A 
ATOM     16  N   UNL A   1      41.692  28.902  32.264  1.00  0.00    -0.248 NA
ATOM     17  C   UNL A   1      39.678  27.775  32.465  1.00  0.00     0.031 C 
ATOM     18  C   UNL A   1      40.565  28.117  27.758  1.00  0.00     0.029 A 
ATOM     19  N   UNL A   1      42.108  27.423  29.179  1.00  0.00    -0.354 N 
ATOM     20  C   UNL A   1      41.611  28.338  33.536  1.00  0.00     0.074 A 
ATOM     21  C   UNL A   1      40.270  27.840  33.658  1.00  0.00     0.031 C 
ATOM     22  C   UNL A   1      41.318  27.198  27.109  1.00  0.00     0.029 A 
ATOM     23  C   UNL A   1      42.333  26.683  28.017  1.00  0.00     0.049 A 
ATOM     24  H   UNL A   1      42.725  27.408  29.947  1.00  0.00     0.167 HD
ATOM     25  C   UNL A   1      42.731  28.109  34.278  1.00  0.00     0.034 A 
ATOM     26  C   UNL A   1      43.242  25.683  27.829  1.00  0.00     0.034 A 
ATOM     27  C   UNL A   1      43.841  28.899  33.787  1.00  0.00     0.049 A 
ATOM     28  C   UNL A   1      44.289  25.855  28.868  1.00  0.00     0.074 A 
ATOM     29  C   UNL A   1      44.065  30.252  33.610  1.00  0.00     0.029 A 
ATOM     30  N   UNL A   1      44.809  28.269  33.034  1.00  0.00    -0.354 N 
ATOM     31  N   UNL A   1      45.094  26.880  28.904  1.00  0.00    -0.248 NA
ATOM     32  C   UNL A   1      44.111  25.161  30.135  1.00  0.00     0.031 C 
ATOM     33  C   UNL A   1      44.786  30.345  32.382  1.00  0.00     0.029 A 
ATOM     34  C   UNL A   1      45.036  29.049  31.929  1.00  0.00     0.049 A 
ATOM     35  H   UNL A   1      45.253  27.418  33.249  1.00  0.00     0.167 HD
ATOM     36  C   UNL A   1      45.167  27.228  30.244  1.00  0.00     0.074 A 
ATOM     37  C   UNL A   1      44.613  26.082  30.964  1.00  0.00     0.031 C 
ATOM     38  C   UNL A   1      45.400  28.518  30.631  1.00  0.00     0.034 A 
BRANCH  25  39
ATOM     39  C   UNL A   1      42.947  26.883  35.151  1.00  0.00     0.023 A 
ATOM     40  C   UNL A   1      43.785  25.881  34.623  1.00  0.00     0.031 A 
ATOM     41  C   UNL A   1      42.161  26.491  36.258  1.00  0.00     0.131 A 
ATOM     42  C   UNL A   1      43.679  24.547  35.048  1.00  0.00     0.055 A 
ATOM     43  C   UNL A   1      42.113  25.174  36.728  1.00  0.00     0.041 A 
ATOM     44  F   UNL A   1      41.341  27.324  36.905  1.00  0.00    -0.206 F 
ATOM     45  C   UNL A   1      42.837  24.183  36.092  1.00  0.00     0.022 A 
BRANCH  42  46
ATOM     46  S   UNL A   1      44.492  23.277  34.047  1.00  0.00     0.124 S 
ATOM     47  O   UNL A   1      43.479  23.024  33.031  1.00  0.00    -0.237 OA
ATOM     48  O   UNL A   1      45.695  23.971  33.605  1.00  0.00    -0.237 OA
ATOM     49  O   UNL A   1      44.711  22.188  35.001  1.00  0.00    -0.744 OA
ENDBRANCH  42  46
ENDBRANCH  25  39
BRANCH  26  50
ATOM     50  C   UNL A   1      43.065  24.417  27.048  1.00  0.00     0.023 A 
ATOM     51  C   UNL A   1      44.013  23.923  26.119  1.00  0.00     0.031 A 
ATOM     52  C   UNL A   1      42.026  23.529  27.411  1.00  0.00     0.131 A 
ATOM     53  C   UNL A   1      43.890  22.607  25.597  1.00  0.00     0.055 A 
ATOM     54  C   UNL A   1      41.912  22.236  26.896  1.00  0.00     0.041 A 
ATOM     55  F   UNL A   1      41.127  23.860  28.352  1.00  0.00    -0.206 F 
ATOM     56  C   UNL A   1      42.849  21.765  25.994  1.00  0.00     0.022 A 
BRANCH  53  57
ATOM     57  S   UNL A   1      45.131  21.924  24.442  1.00  0.00     0.124 S 
ATOM     58  O   UNL A   1      46.257  21.643  25.323  1.00  0.00    -0.237 OA
ATOM     59  O   UNL A   1      44.439  20.770  23.880  1.00  0.00    -0.237 OA
ATOM     60  O   UNL A   1      45.355  23.019  23.494  1.00  0.00    -0.744 OA
ENDBRANCH  53  57
ENDBRANCH  26  50
BRANCH  38  61
ATOM     61  C   UNL A   1      45.879  29.513  29.595  1.00  0.00     0.023 A 
ATOM     62  C   UNL A   1      45.055  30.167  28.650  1.00  0.00     0.031 A 
ATOM     63  C   UNL A   1      47.228  29.905  29.667  1.00  0.00     0.131 A 
ATOM     64  C   UNL A   1      45.596  31.168  27.817  1.00  0.00     0.055 A 
ATOM     65  C   UNL A   1      47.755  30.909  28.856  1.00  0.00     0.041 A 
ATOM     66  F   UNL A   1      48.054  29.342  30.563  1.00  0.00    -0.206 F 
ATOM     67  C   UNL A   1      46.941  31.541  27.924  1.00  0.00     0.022 A 
BRANCH  64  68
ATOM     68  S   UNL A   1      44.565  32.003  26.567  1.00  0.00     0.124 S 
ATOM     69  O   UNL A   1      45.457  32.140  25.422  1.00  0.00    -0.237 OA
ATOM     70  O   UNL A   1      43.451  31.073  26.401  1.00  0.00    -0.237 OA
ATOM     71  O   UNL A   1      44.204  33.267  27.212  1.00  0.00    -0.744 OA
ENDBRANCH  64  68
ENDBRANCH  38  61
ENDBRANCH  12  13
ENDBRANCH   5   7
ENDBRANCH   2   3
ENDBRANCH   1   2
BRANCH   1  72
ATOM     72  C   UNL A   1      34.025  28.704  25.955  1.00  0.00     0.117 C 
BRANCH  72  73
ATOM     73  N   UNL A   1      33.387  27.409  26.108  1.00  0.00    -0.354 N 
ATOM     74  C   UNL A   1      32.022  27.292  26.160  1.00  0.00     0.243 C 
ATOM     75  H   UNL A   1      33.945  26.600  26.176  1.00  0.00     0.163 HD
ATOM     76  O   UNL A   1      31.564  26.951  27.246  1.00  0.00    -0.273 OA
BRANCH  74  77
ATOM     77  C   UNL A   1      31.188  27.693  24.919  1.00  0.00     0.180 C 
ATOM     78  C   UNL A   1      30.849  29.241  24.922  1.00  0.00     0.091 C 
ATOM     79  N   UNL A   1      31.509  27.152  23.520  1.00  0.00    -0.324 N 
ATOM     80  C   UNL A   1      30.237  29.629  23.629  1.00  0.00     0.042 A 
ATOM     81  C   UNL A   1      30.366  27.332  22.578  1.00  0.00     0.178 C 
ATOM     82  N   UNL A   1      29.810  30.859  23.229  1.00  0.00    -0.348 N 
ATOM     83  C   UNL A   1      30.017  28.786  22.565  1.00  0.00     0.081 A 
ATOM     84  C   UNL A   1      29.327  30.711  21.955  1.00  0.00     0.197 A 
ATOM     85  H   UNL A   1      29.842  31.693  23.753  1.00  0.00     0.167 HD
ATOM     86  N   UNL A   1      29.447  29.472  21.525  1.00  0.00    -0.240 NA
BRANCH  79  87
ATOM     87  C   UNL A   1      32.699  26.770  22.901  1.00  0.00     0.224 C 
ATOM     88  O   UNL A   1      33.552  27.625  22.609  1.00  0.00    -0.275 OA
BRANCH  87  89
ATOM     89  C   UNL A   1      33.057  25.344  22.479  1.00  0.00     0.107 C 
BRANCH  89  90
ATOM     90  C   UNL A   1      33.425  24.328  23.588  1.00  0.00    -0.020 C 
ATOM     91  C   UNL A   1      32.250  24.072  24.536  1.00  0.00     0.011 C 
ATOM     92  C   UNL A   1      34.627  24.824  24.431  1.00  0.00     0.011 C 
ATOM     93  C   UNL A   1      33.836  22.964  22.962  1.00  0.00     0.011 C 
ATOM     94  C   UNL A   1      32.576  23.076  25.643  1.00  0.00    -0.010 C 
ATOM     95  C   UNL A   1      34.973  23.807  25.540  1.00  0.00    -0.010 C 
ATOM     96  C   UNL A   1      34.159  21.933  24.063  1.00  0.00    -0.010 C 
ATOM     97  C   UNL A   1      32.939  21.742  24.978  1.00  0.00     0.007 C 
ATOM     98  C   UNL A   1      33.754  23.621  26.455  1.00  0.00     0.007 C 
ATOM     99  C   UNL A   1      35.333  22.450  24.907  1.00  0.00     0.007 C 
ENDBRANCH  89  90
ENDBRANCH  87  89
ENDBRANCH  79  87
ENDBRANCH  74  77
ENDBRANCH  72  73
ENDBRANCH   1  72
TORSDOF 16
ENDMDL
