MODEL 1
REMARK VINA RESULT:     -12.8      0.000      0.000
REMARK SMILES O=C(CSc1ccc(Cl)cc1)Nc1cccc(C(=O)Nc2ccc(C(=O)NCCCNC(=O)c3ccc(-c4c5nc(c(-c6cc(S(=O)(=O)[O-])ccc6F)c6ccc([nH]6)c(-c6cc(S(=O)(=O)[O-])ccc6F)c6nc(c(-c7cc(S(=O)(=O)[O-])ccc7F)c7ccc4[nH]7)C=C6)C=C5)cc3)cc2)c1
REMARK SMILES IDX 25 1 26 2 27 3 24 5 21 6 22 7 98 8 23 9 97 10 20 11 18 12
REMARK SMILES IDX 19 13 17 15 13 16 14 17 99 18 15 19 16 20 12 21 1 22 2 23
REMARK SMILES IDX 3 25 4 26 5 27 6 28 11 29 7 30 10 31 8 32 9 33 28 34 29 35
REMARK SMILES IDX 30 36 31 37 32 38 33 40 34 41 35 42 96 43 36 44 95 45 37 46
REMARK SMILES IDX 38 47 39 48 89 49 40 50 94 51 88 52 90 53 41 54 93 55 87 56
REMARK SMILES IDX 86 57 42 59 74 60 54 61 73 62 55 63 58 64 72 65 91 66 56 67
REMARK SMILES IDX 57 68 71 70 92 71 59 72 43 73 44 74 52 75 45 76 51 77 53 78
REMARK SMILES IDX 50 79 46 80 47 81 48 82 49 83 75 84 76 85 84 86 77 87 83 88
REMARK SMILES IDX 85 89 82 90 78 91 79 92 80 93 81 94 60 95 61 96 69 97 62 98
REMARK SMILES IDX 68 99 70 100 67 101 63 102 64 103 65 104 66 105
REMARK H PARENT 27 4 20 14 12 24 31 39 90 58 58 69
REMARK Flexibility Score: inf
ROOT
ATOM      1  C   UNL A   1      30.709  29.242  24.044  1.00  0.00     0.251 C 
ATOM      2  O   UNL A   1      29.722  29.673  23.447  1.00  0.00    -0.269 OA
ATOM      3  N   UNL A   1      31.415  30.125  24.822  1.00  0.00    -0.352 N 
ATOM      4  H   UNL A   1      31.092  31.053  24.749  1.00  0.00     0.163 HD
ENDROOT
BRANCH   1   5
ATOM      5  C   UNL A   1      31.026  27.794  23.971  1.00  0.00     0.039 A 
ATOM      6  C   UNL A   1      31.501  25.113  23.367  1.00  0.00     0.041 A 
ATOM      7  C   UNL A   1      32.424  26.076  22.964  1.00  0.00     0.027 A 
ATOM      8  C   UNL A   1      30.455  25.461  24.225  1.00  0.00     0.027 A 
ATOM      9  C   UNL A   1      32.160  27.421  23.232  1.00  0.00     0.016 A 
ATOM     10  C   UNL A   1      30.248  26.801  24.565  1.00  0.00     0.016 A 
BRANCH   6  11
ATOM     11  N   UNL A   1      31.586  23.840  22.789  1.00  0.00    -0.322 N 
ATOM     12  C   UNL A   1      32.399  22.785  23.176  1.00  0.00     0.255 C 
ATOM     13  O   UNL A   1      32.515  21.803  22.443  1.00  0.00    -0.269 OA
ATOM     14  H   UNL A   1      31.000  23.674  22.017  1.00  0.00     0.170 HD
BRANCH  12  15
ATOM     15  C   UNL A   1      33.048  22.757  24.526  1.00  0.00     0.042 A 
ATOM     16  C   UNL A   1      35.024  22.945  25.950  1.00  0.00     0.041 A 
ATOM     17  C   UNL A   1      34.231  22.643  27.061  1.00  0.00     0.026 A 
ATOM     18  C   UNL A   1      34.408  23.059  24.705  1.00  0.00     0.040 A 
ATOM     19  C   UNL A   1      32.852  22.454  26.918  1.00  0.00     0.003 A 
ATOM     20  C   UNL A   1      32.262  22.497  25.652  1.00  0.00     0.014 A 
BRANCH  16  21
ATOM     21  N   UNL A   1      36.418  23.075  26.138  1.00  0.00    -0.325 N 
ATOM     22  O   UNL A   1      37.239  21.208  25.017  1.00  0.00    -0.274 OA
ATOM     23  C   UNL A   1      37.412  22.202  25.720  1.00  0.00     0.234 C 
ATOM     24  H   UNL A   1      36.718  23.878  26.620  1.00  0.00     0.169 HD
BRANCH  23  25
ATOM     25  C   UNL A   1      38.812  22.518  26.231  1.00  0.00     0.175 C 
BRANCH  25  26
ATOM     26  S   UNL A   1      39.925  21.076  26.224  1.00  0.00    -0.116 SA
BRANCH  26  27
ATOM     27  C   UNL A   1      41.381  21.904  26.824  1.00  0.00     0.008 A 
ATOM     28  C   UNL A   1      42.429  22.163  25.938  1.00  0.00     0.016 A 
ATOM     29  C   UNL A   1      41.452  22.363  28.143  1.00  0.00     0.016 A 
ATOM     30  C   UNL A   1      43.530  22.912  26.361  1.00  0.00     0.021 A 
ATOM     31  C   UNL A   1      42.547  23.118  28.562  1.00  0.00     0.021 A 
ATOM     32  C   UNL A   1      43.578  23.394  27.667  1.00  0.00     0.041 A 
ATOM     33  Cl  UNL A   1      44.916  24.346  28.178  1.00  0.00    -0.084 Cl
ENDBRANCH  26  27
ENDBRANCH  25  26
ENDBRANCH  23  25
ENDBRANCH  16  21
ENDBRANCH  12  15
ENDBRANCH   6  11
ENDBRANCH   1   5
BRANCH   3  34
ATOM     34  C   UNL A   1      32.544  29.980  25.734  1.00  0.00     0.118 C 
BRANCH  34  35
ATOM     35  C   UNL A   1      32.287  30.702  27.049  1.00  0.00     0.042 C 
BRANCH  35  36
ATOM     36  C   UNL A   1      33.393  31.697  27.398  1.00  0.00     0.118 C 
BRANCH  36  37
ATOM     37  N   UNL A   1      32.901  33.066  27.537  1.00  0.00    -0.352 N 
ATOM     38  C   UNL A   1      33.281  34.052  28.422  1.00  0.00     0.251 C 
ATOM     39  H   UNL A   1      32.192  33.322  26.903  1.00  0.00     0.163 HD
ATOM     40  O   UNL A   1      32.631  35.082  28.506  1.00  0.00    -0.269 OA
BRANCH  38  41
ATOM     41  C   UNL A   1      34.456  33.828  29.291  1.00  0.00     0.039 A 
ATOM     42  C   UNL A   1      34.296  33.121  30.485  1.00  0.00     0.014 A 
ATOM     43  C   UNL A   1      35.723  34.262  28.892  1.00  0.00     0.014 A 
ATOM     44  C   UNL A   1      35.424  32.744  31.217  1.00  0.00     0.010 A 
ATOM     45  C   UNL A   1      36.848  33.815  29.577  1.00  0.00     0.010 A 
ATOM     46  C   UNL A   1      36.712  33.029  30.731  1.00  0.00    -0.014 A 
BRANCH  46  47
ATOM     47  C   UNL A   1      37.931  32.463  31.369  1.00  0.00     0.031 A 
ATOM     48  C   UNL A   1      38.678  31.338  30.706  1.00  0.00     0.074 A 
ATOM     49  C   UNL A   1      38.286  32.882  32.602  1.00  0.00     0.049 A 
ATOM     50  N   UNL A   1      39.662  30.615  31.170  1.00  0.00    -0.248 NA
ATOM     51  C   UNL A   1      38.232  30.952  29.357  1.00  0.00     0.031 C 
ATOM     52  C   UNL A   1      37.600  33.926  33.372  1.00  0.00     0.029 A 
ATOM     53  N   UNL A   1      39.289  32.465  33.443  1.00  0.00    -0.354 N 
ATOM     54  C   UNL A   1      39.937  29.670  30.187  1.00  0.00     0.074 A 
ATOM     55  C   UNL A   1      38.987  29.889  29.117  1.00  0.00     0.031 C 
ATOM     56  C   UNL A   1      38.204  34.068  34.561  1.00  0.00     0.029 A 
ATOM     57  C   UNL A   1      39.285  33.094  34.667  1.00  0.00     0.049 A 
ATOM     58  H   UNL A   1      39.950  31.779  33.192  1.00  0.00     0.167 HD
ATOM     59  C   UNL A   1      40.900  28.717  30.177  1.00  0.00     0.034 A 
ATOM     60  C   UNL A   1      40.042  32.890  35.764  1.00  0.00     0.034 A 
ATOM     61  C   UNL A   1      41.863  28.541  31.235  1.00  0.00     0.049 A 
ATOM     62  C   UNL A   1      41.105  31.820  35.724  1.00  0.00     0.074 A 
ATOM     63  C   UNL A   1      42.958  27.695  31.267  1.00  0.00     0.029 A 
ATOM     64  N   UNL A   1      41.841  29.209  32.451  1.00  0.00    -0.354 N 
ATOM     65  N   UNL A   1      41.411  31.002  34.744  1.00  0.00    -0.248 NA
ATOM     66  C   UNL A   1      41.923  31.648  36.932  1.00  0.00     0.031 C 
ATOM     67  C   UNL A   1      43.555  27.798  32.528  1.00  0.00     0.029 A 
ATOM     68  C   UNL A   1      42.873  28.757  33.259  1.00  0.00     0.049 A 
ATOM     69  H   UNL A   1      41.188  29.901  32.703  1.00  0.00     0.167 HD
ATOM     70  C   UNL A   1      42.469  30.229  35.215  1.00  0.00     0.074 A 
ATOM     71  C   UNL A   1      42.763  30.696  36.554  1.00  0.00     0.031 C 
ATOM     72  C   UNL A   1      43.138  29.223  34.598  1.00  0.00     0.034 A 
BRANCH  59  73
ATOM     73  C   UNL A   1      40.951  27.777  28.999  1.00  0.00     0.023 A 
ATOM     74  C   UNL A   1      41.933  27.889  28.002  1.00  0.00     0.031 A 
ATOM     75  C   UNL A   1      40.007  26.740  28.885  1.00  0.00     0.131 A 
ATOM     76  C   UNL A   1      41.920  27.012  26.907  1.00  0.00     0.055 A 
ATOM     77  C   UNL A   1      40.041  25.830  27.828  1.00  0.00     0.041 A 
ATOM     78  F   UNL A   1      39.036  26.598  29.800  1.00  0.00    -0.206 F 
ATOM     79  C   UNL A   1      40.996  25.968  26.825  1.00  0.00     0.022 A 
BRANCH  76  80
ATOM     80  S   UNL A   1      43.070  27.317  25.537  1.00  0.00     0.124 S 
ATOM     81  O   UNL A   1      42.275  28.189  24.675  1.00  0.00    -0.237 OA
ATOM     82  O   UNL A   1      44.202  27.943  26.209  1.00  0.00    -0.237 OA
ATOM     83  O   UNL A   1      43.324  25.982  24.999  1.00  0.00    -0.744 OA
ENDBRANCH  76  80
ENDBRANCH  59  73
BRANCH  60  84
ATOM     84  C   UNL A   1      39.804  33.673  37.013  1.00  0.00     0.023 A 
ATOM     85  C   UNL A   1      39.088  33.121  38.087  1.00  0.00     0.031 A 
ATOM     86  C   UNL A   1      40.233  35.008  37.125  1.00  0.00     0.131 A 
ATOM     87  C   UNL A   1      38.772  33.917  39.200  1.00  0.00     0.055 A 
ATOM     88  C   UNL A   1      39.966  35.777  38.259  1.00  0.00     0.041 A 
ATOM     89  F   UNL A   1      40.926  35.584  36.130  1.00  0.00    -0.206 F 
ATOM     90  C   UNL A   1      39.217  35.236  39.299  1.00  0.00     0.022 A 
BRANCH  87  91
ATOM     91  S   UNL A   1      37.678  33.230  40.473  1.00  0.00     0.124 S 
ATOM     92  O   UNL A   1      37.534  34.361  41.384  1.00  0.00    -0.237 OA
ATOM     93  O   UNL A   1      36.496  32.877  39.695  1.00  0.00    -0.237 OA
ATOM     94  O   UNL A   1      38.437  32.098  40.999  1.00  0.00    -0.744 OA
ENDBRANCH  87  91
ENDBRANCH  60  84
BRANCH  72  95
ATOM     95  C   UNL A   1      44.263  28.580  35.367  1.00  0.00     0.023 A 
ATOM     96  C   UNL A   1      44.030  27.514  36.251  1.00  0.00     0.031 A 
ATOM     97  C   UNL A   1      45.583  29.039  35.210  1.00  0.00     0.131 A 
ATOM     98  C   UNL A   1      45.095  26.969  36.982  1.00  0.00     0.055 A 
ATOM     99  C   UNL A   1      46.647  28.456  35.899  1.00  0.00     0.041 A 
ATOM    100  F   UNL A   1      45.859  30.057  34.379  1.00  0.00    -0.206 F 
ATOM    101  C   UNL A   1      46.405  27.422  36.799  1.00  0.00     0.022 A 
BRANCH  98 102
ATOM    102  S   UNL A   1      44.738  25.700  38.228  1.00  0.00     0.124 S 
ATOM    103  O   UNL A   1      44.102  26.483  39.283  1.00  0.00    -0.237 OA
ATOM    104  O   UNL A   1      43.867  24.783  37.500  1.00  0.00    -0.237 OA
ATOM    105  O   UNL A   1      46.058  25.166  38.561  1.00  0.00    -0.744 OA
ENDBRANCH  98 102
ENDBRANCH  72  95
ENDBRANCH  46  47
ENDBRANCH  38  41
ENDBRANCH  36  37
ENDBRANCH  35  36
ENDBRANCH  34  35
ENDBRANCH   3  34
TORSDOF 19
ENDMDL
MODEL 2
REMARK VINA RESULT:     -12.3      5.430     12.065
REMARK SMILES O=C(CSc1ccc(Cl)cc1)Nc1cccc(C(=O)Nc2ccc(C(=O)NCCCNC(=O)c3ccc(-c4c5nc(c(-c6cc(S(=O)(=O)[O-])ccc6F)c6ccc([nH]6)c(-c6cc(S(=O)(=O)[O-])ccc6F)c6nc(c(-c7cc(S(=O)(=O)[O-])ccc7F)c7ccc4[nH]7)C=C6)C=C5)cc3)cc2)c1
REMARK SMILES IDX 25 1 26 2 27 3 24 5 21 6 22 7 98 8 23 9 97 10 20 11 18 12
REMARK SMILES IDX 19 13 17 15 13 16 14 17 99 18 15 19 16 20 12 21 1 22 2 23
REMARK SMILES IDX 3 25 4 26 5 27 6 28 11 29 7 30 10 31 8 32 9 33 28 34 29 35
REMARK SMILES IDX 30 36 31 37 32 38 33 40 34 41 35 42 96 43 36 44 95 45 37 46
REMARK SMILES IDX 38 47 39 48 89 49 40 50 94 51 88 52 90 53 41 54 93 55 87 56
REMARK SMILES IDX 86 57 42 59 74 60 54 61 73 62 55 63 58 64 72 65 91 66 56 67
REMARK SMILES IDX 57 68 71 70 92 71 59 72 43 73 44 74 52 75 45 76 51 77 53 78
REMARK SMILES IDX 50 79 46 80 47 81 48 82 49 83 75 84 76 85 84 86 77 87 83 88
REMARK SMILES IDX 85 89 82 90 78 91 79 92 80 93 81 94 60 95 61 96 69 97 62 98
REMARK SMILES IDX 68 99 70 100 67 101 63 102 64 103 65 104 66 105
REMARK H PARENT 27 4 20 14 12 24 31 39 90 58 58 69
REMARK Flexibility Score: inf
ROOT
ATOM      1  C   UNL A   1      34.429  21.144  25.105  1.00  0.00     0.251 C 
ATOM      2  O   UNL A   1      33.613  20.231  24.971  1.00  0.00    -0.269 OA
ATOM      3  N   UNL A   1      35.698  20.808  25.502  1.00  0.00    -0.352 N 
ATOM      4  H   UNL A   1      35.797  19.853  25.721  1.00  0.00     0.163 HD
ENDROOT
BRANCH   1   5
ATOM      5  C   UNL A   1      34.033  22.529  24.745  1.00  0.00     0.039 A 
ATOM      6  C   UNL A   1      33.570  25.065  23.682  1.00  0.00     0.041 A 
ATOM      7  C   UNL A   1      32.939  23.962  23.111  1.00  0.00     0.027 A 
ATOM      8  C   UNL A   1      34.270  24.928  24.883  1.00  0.00     0.027 A 
ATOM      9  C   UNL A   1      33.207  22.690  23.621  1.00  0.00     0.016 A 
ATOM     10  C   UNL A   1      34.459  23.660  25.440  1.00  0.00     0.016 A 
BRANCH   6  11
ATOM     11  N   UNL A   1      33.585  26.263  22.954  1.00  0.00    -0.322 N 
ATOM     12  C   UNL A   1      33.062  27.490  23.331  1.00  0.00     0.255 C 
ATOM     13  O   UNL A   1      32.965  28.393  22.499  1.00  0.00    -0.269 OA
ATOM     14  H   UNL A   1      34.017  26.229  22.071  1.00  0.00     0.170 HD
BRANCH  12  15
ATOM     15  C   UNL A   1      32.723  27.787  24.760  1.00  0.00     0.042 A 
ATOM     16  C   UNL A   1      33.160  28.953  26.861  1.00  0.00     0.041 A 
ATOM     17  C   UNL A   1      32.088  28.271  27.443  1.00  0.00     0.026 A 
ATOM     18  C   UNL A   1      33.424  28.747  25.507  1.00  0.00     0.040 A 
ATOM     19  C   UNL A   1      31.305  27.397  26.680  1.00  0.00     0.003 A 
ATOM     20  C   UNL A   1      31.629  27.144  25.345  1.00  0.00     0.014 A 
BRANCH  16  21
ATOM     21  N   UNL A   1      33.952  29.784  27.684  1.00  0.00    -0.325 N 
ATOM     22  O   UNL A   1      32.955  31.864  27.384  1.00  0.00    -0.274 OA
ATOM     23  C   UNL A   1      33.843  31.156  27.855  1.00  0.00     0.234 C 
ATOM     24  H   UNL A   1      34.663  29.337  28.197  1.00  0.00     0.169 HD
BRANCH  23  25
ATOM     25  C   UNL A   1      34.958  31.802  28.668  1.00  0.00     0.175 C 
BRANCH  25  26
ATOM     26  S   UNL A   1      35.300  33.524  28.182  1.00  0.00    -0.116 SA
BRANCH  26  27
ATOM     27  C   UNL A   1      34.402  34.318  29.496  1.00  0.00     0.008 A 
ATOM     28  C   UNL A   1      34.760  34.056  30.820  1.00  0.00     0.016 A 
ATOM     29  C   UNL A   1      33.402  35.254  29.216  1.00  0.00     0.016 A 
ATOM     30  C   UNL A   1      34.145  34.755  31.861  1.00  0.00     0.021 A 
ATOM     31  C   UNL A   1      32.793  35.958  30.254  1.00  0.00     0.021 A 
ATOM     32  C   UNL A   1      33.172  35.710  31.572  1.00  0.00     0.041 A 
ATOM     33  Cl  UNL A   1      32.438  36.597  32.850  1.00  0.00    -0.084 Cl
ENDBRANCH  26  27
ENDBRANCH  25  26
ENDBRANCH  23  25
ENDBRANCH  16  21
ENDBRANCH  12  15
ENDBRANCH   6  11
ENDBRANCH   1   5
BRANCH   3  34
ATOM     34  C   UNL A   1      36.933  21.566  25.667  1.00  0.00     0.118 C 
BRANCH  34  35
ATOM     35  C   UNL A   1      38.133  20.787  25.148  1.00  0.00     0.042 C 
BRANCH  35  36
ATOM     36  C   UNL A   1      39.332  20.857  26.094  1.00  0.00     0.118 C 
BRANCH  36  37
ATOM     37  N   UNL A   1      40.152  19.648  26.060  1.00  0.00    -0.352 N 
ATOM     38  C   UNL A   1      41.521  19.512  26.142  1.00  0.00     0.251 C 
ATOM     39  H   UNL A   1      39.652  18.805  25.964  1.00  0.00     0.163 HD
ATOM     40  O   UNL A   1      42.043  18.431  25.915  1.00  0.00    -0.269 OA
BRANCH  38  41
ATOM     41  C   UNL A   1      42.347  20.695  26.466  1.00  0.00     0.039 A 
ATOM     42  C   UNL A   1      42.823  21.498  25.427  1.00  0.00     0.014 A 
ATOM     43  C   UNL A   1      42.593  21.041  27.796  1.00  0.00     0.014 A 
ATOM     44  C   UNL A   1      43.442  22.714  25.727  1.00  0.00     0.010 A 
ATOM     45  C   UNL A   1      43.134  22.288  28.091  1.00  0.00     0.010 A 
ATOM     46  C   UNL A   1      43.539  23.150  27.060  1.00  0.00    -0.014 A 
BRANCH  46  47
ATOM     47  C   UNL A   1      43.996  24.523  27.402  1.00  0.00     0.031 A 
ATOM     48  C   UNL A   1      43.014  25.540  27.915  1.00  0.00     0.074 A 
ATOM     49  C   UNL A   1      45.269  24.882  27.130  1.00  0.00     0.049 A 
ATOM     50  N   UNL A   1      43.183  26.819  28.123  1.00  0.00    -0.248 NA
ATOM     51  C   UNL A   1      41.651  25.061  28.196  1.00  0.00     0.031 C 
ATOM     52  C   UNL A   1      46.298  23.997  26.573  1.00  0.00     0.029 A 
ATOM     53  N   UNL A   1      45.911  26.090  27.253  1.00  0.00    -0.354 N 
ATOM     54  C   UNL A   1      41.946  27.306  28.529  1.00  0.00     0.074 A 
ATOM     55  C   UNL A   1      41.025  26.189  28.502  1.00  0.00     0.031 C 
ATOM     56  C   UNL A   1      47.435  24.689  26.410  1.00  0.00     0.029 A 
ATOM     57  C   UNL A   1      47.210  26.078  26.796  1.00  0.00     0.049 A 
ATOM     58  H   UNL A   1      45.481  26.891  27.633  1.00  0.00     0.167 HD
ATOM     59  C   UNL A   1      41.615  28.566  28.901  1.00  0.00     0.034 A 
ATOM     60  C   UNL A   1      48.109  27.075  26.671  1.00  0.00     0.034 A 
ATOM     61  C   UNL A   1      42.555  29.657  28.962  1.00  0.00     0.049 A 
ATOM     62  C   UNL A   1      47.710  28.468  27.091  1.00  0.00     0.074 A 
ATOM     63  C   UNL A   1      42.356  30.937  29.448  1.00  0.00     0.029 A 
ATOM     64  N   UNL A   1      43.866  29.603  28.510  1.00  0.00    -0.354 N 
ATOM     65  N   UNL A   1      46.560  28.887  27.566  1.00  0.00    -0.248 NA
ATOM     66  C   UNL A   1      48.727  29.520  26.961  1.00  0.00     0.031 C 
ATOM     67  C   UNL A   1      43.521  31.678  29.223  1.00  0.00     0.029 A 
ATOM     68  C   UNL A   1      44.471  30.841  28.659  1.00  0.00     0.049 A 
ATOM     69  H   UNL A   1      44.302  28.803  28.138  1.00  0.00     0.167 HD
ATOM     70  C   UNL A   1      46.723  30.248  27.806  1.00  0.00     0.074 A 
ATOM     71  C   UNL A   1      48.088  30.573  27.447  1.00  0.00     0.031 C 
ATOM     72  C   UNL A   1      45.827  31.150  28.279  1.00  0.00     0.034 A 
BRANCH  59  73
ATOM     73  C   UNL A   1      40.175  28.843  29.253  1.00  0.00     0.023 A 
ATOM     74  C   UNL A   1      39.741  28.941  30.585  1.00  0.00     0.031 A 
ATOM     75  C   UNL A   1      39.225  29.031  28.233  1.00  0.00     0.131 A 
ATOM     76  C   UNL A   1      38.385  29.166  30.864  1.00  0.00     0.055 A 
ATOM     77  C   UNL A   1      37.890  29.322  28.516  1.00  0.00     0.041 A 
ATOM     78  F   UNL A   1      39.580  28.931  26.943  1.00  0.00    -0.206 F 
ATOM     79  C   UNL A   1      37.461  29.382  29.839  1.00  0.00     0.022 A 
BRANCH  76  80
ATOM     80  S   UNL A   1      37.826  29.075  32.587  1.00  0.00     0.124 S 
ATOM     81  O   UNL A   1      36.529  29.742  32.511  1.00  0.00    -0.237 OA
ATOM     82  O   UNL A   1      37.792  27.638  32.833  1.00  0.00    -0.237 OA
ATOM     83  O   UNL A   1      38.855  29.810  33.320  1.00  0.00    -0.744 OA
ENDBRANCH  76  80
ENDBRANCH  59  73
BRANCH  60  84
ATOM     84  C   UNL A   1      49.457  26.819  26.083  1.00  0.00     0.023 A 
ATOM     85  C   UNL A   1      49.822  27.369  24.844  1.00  0.00     0.031 A 
ATOM     86  C   UNL A   1      50.375  25.967  26.721  1.00  0.00     0.131 A 
ATOM     87  C   UNL A   1      51.046  27.017  24.255  1.00  0.00     0.055 A 
ATOM     88  C   UNL A   1      51.617  25.664  26.157  1.00  0.00     0.041 A 
ATOM     89  F   UNL A   1      50.081  25.416  27.909  1.00  0.00    -0.206 F 
ATOM     90  C   UNL A   1      51.951  26.178  24.909  1.00  0.00     0.022 A 
BRANCH  87  91
ATOM     91  S   UNL A   1      51.393  27.588  22.569  1.00  0.00     0.124 S 
ATOM     92  O   UNL A   1      50.792  26.528  21.766  1.00  0.00    -0.237 OA
ATOM     93  O   UNL A   1      50.713  28.878  22.543  1.00  0.00    -0.237 OA
ATOM     94  O   UNL A   1      52.852  27.653  22.525  1.00  0.00    -0.744 OA
ENDBRANCH  87  91
ENDBRANCH  60  84
BRANCH  72  95
ATOM     95  C   UNL A   1      46.311  32.567  28.450  1.00  0.00     0.023 A 
ATOM     96  C   UNL A   1      46.426  33.439  27.354  1.00  0.00     0.031 A 
ATOM     97  C   UNL A   1      46.660  33.049  29.724  1.00  0.00     0.131 A 
ATOM     98  C   UNL A   1      46.921  34.736  27.545  1.00  0.00     0.055 A 
ATOM     99  C   UNL A   1      47.099  34.359  29.916  1.00  0.00     0.041 A 
ATOM    100  F   UNL A   1      46.570  32.256  30.804  1.00  0.00    -0.206 F 
ATOM    101  C   UNL A   1      47.242  35.207  28.821  1.00  0.00     0.022 A 
BRANCH  98 102
ATOM    102  S   UNL A   1      47.202  35.783  26.091  1.00  0.00     0.124 S 
ATOM    103  O   UNL A   1      46.673  34.954  25.014  1.00  0.00    -0.237 OA
ATOM    104  O   UNL A   1      46.431  36.980  26.413  1.00  0.00    -0.237 OA
ATOM    105  O   UNL A   1      48.653  35.968  26.078  1.00  0.00    -0.744 OA
ENDBRANCH  98 102
ENDBRANCH  72  95
ENDBRANCH  46  47
ENDBRANCH  38  41
ENDBRANCH  36  37
ENDBRANCH  35  36
ENDBRANCH  34  35
ENDBRANCH   3  34
TORSDOF 19
ENDMDL
MODEL 3
REMARK VINA RESULT:     -12.2      5.432     10.583
REMARK SMILES O=C(CSc1ccc(Cl)cc1)Nc1cccc(C(=O)Nc2ccc(C(=O)NCCCNC(=O)c3ccc(-c4c5nc(c(-c6cc(S(=O)(=O)[O-])ccc6F)c6ccc([nH]6)c(-c6cc(S(=O)(=O)[O-])ccc6F)c6nc(c(-c7cc(S(=O)(=O)[O-])ccc7F)c7ccc4[nH]7)C=C6)C=C5)cc3)cc2)c1
REMARK SMILES IDX 25 1 26 2 27 3 24 5 21 6 22 7 98 8 23 9 97 10 20 11 18 12
REMARK SMILES IDX 19 13 17 15 13 16 14 17 99 18 15 19 16 20 12 21 1 22 2 23
REMARK SMILES IDX 3 25 4 26 5 27 6 28 11 29 7 30 10 31 8 32 9 33 28 34 29 35
REMARK SMILES IDX 30 36 31 37 32 38 33 40 34 41 35 42 96 43 36 44 95 45 37 46
REMARK SMILES IDX 38 47 39 48 89 49 40 50 94 51 88 52 90 53 41 54 93 55 87 56
REMARK SMILES IDX 86 57 42 59 74 60 54 61 73 62 55 63 58 64 72 65 91 66 56 67
REMARK SMILES IDX 57 68 71 70 92 71 59 72 43 73 44 74 52 75 45 76 51 77 53 78
REMARK SMILES IDX 50 79 46 80 47 81 48 82 49 83 75 84 76 85 84 86 77 87 83 88
REMARK SMILES IDX 85 89 82 90 78 91 79 92 80 93 81 94 60 95 61 96 69 97 62 98
REMARK SMILES IDX 68 99 70 100 67 101 63 102 64 103 65 104 66 105
REMARK H PARENT 27 4 20 14 12 24 31 39 90 58 58 69
REMARK Flexibility Score: inf
ROOT
ATOM      1  C   UNL A   1      34.449  21.030  24.894  1.00  0.00     0.251 C 
ATOM      2  O   UNL A   1      33.592  20.176  24.663  1.00  0.00    -0.269 OA
ATOM      3  N   UNL A   1      35.690  20.594  25.283  1.00  0.00    -0.352 N 
ATOM      4  H   UNL A   1      35.736  19.620  25.418  1.00  0.00     0.163 HD
ENDROOT
BRANCH   1   5
ATOM      5  C   UNL A   1      34.131  22.459  24.652  1.00  0.00     0.039 A 
ATOM      6  C   UNL A   1      33.649  25.050  23.738  1.00  0.00     0.041 A 
ATOM      7  C   UNL A   1      32.721  24.047  23.464  1.00  0.00     0.027 A 
ATOM      8  C   UNL A   1      34.706  24.805  24.618  1.00  0.00     0.027 A 
ATOM      9  C   UNL A   1      32.988  22.744  23.888  1.00  0.00     0.016 A 
ATOM     10  C   UNL A   1      34.917  23.515  25.113  1.00  0.00     0.016 A 
BRANCH   6  11
ATOM     11  N   UNL A   1      33.557  26.245  23.013  1.00  0.00    -0.322 N 
ATOM     12  C   UNL A   1      32.946  27.428  23.401  1.00  0.00     0.255 C 
ATOM     13  O   UNL A   1      32.765  28.321  22.574  1.00  0.00    -0.269 OA
ATOM     14  H   UNL A   1      33.976  26.247  22.123  1.00  0.00     0.170 HD
BRANCH  12  15
ATOM     15  C   UNL A   1      32.608  27.695  24.836  1.00  0.00     0.042 A 
ATOM     16  C   UNL A   1      33.010  28.864  26.943  1.00  0.00     0.041 A 
ATOM     17  C   UNL A   1      31.980  28.125  27.531  1.00  0.00     0.026 A 
ATOM     18  C   UNL A   1      33.268  28.683  25.585  1.00  0.00     0.040 A 
ATOM     19  C   UNL A   1      31.233  27.219  26.769  1.00  0.00     0.003 A 
ATOM     20  C   UNL A   1      31.555  26.993  25.428  1.00  0.00     0.014 A 
BRANCH  16  21
ATOM     21  N   UNL A   1      33.768  29.727  27.765  1.00  0.00    -0.325 N 
ATOM     22  O   UNL A   1      32.936  31.819  27.179  1.00  0.00    -0.274 OA
ATOM     23  C   UNL A   1      33.728  31.113  27.800  1.00  0.00     0.234 C 
ATOM     24  H   UNL A   1      34.397  29.294  28.386  1.00  0.00     0.169 HD
BRANCH  23  25
ATOM     25  C   UNL A   1      34.797  31.774  28.661  1.00  0.00     0.175 C 
BRANCH  25  26
ATOM     26  S   UNL A   1      35.271  33.432  28.076  1.00  0.00    -0.116 SA
BRANCH  26  27
ATOM     27  C   UNL A   1      34.510  34.366  29.384  1.00  0.00     0.008 A 
ATOM     28  C   UNL A   1      33.574  35.351  29.062  1.00  0.00     0.016 A 
ATOM     29  C   UNL A   1      34.779  34.072  30.725  1.00  0.00     0.016 A 
ATOM     30  C   UNL A   1      32.882  36.015  30.077  1.00  0.00     0.021 A 
ATOM     31  C   UNL A   1      34.083  34.729  31.739  1.00  0.00     0.021 A 
ATOM     32  C   UNL A   1      33.132  35.693  31.410  1.00  0.00     0.041 A 
ATOM     33  Cl  UNL A   1      32.256  36.485  32.660  1.00  0.00    -0.084 Cl
ENDBRANCH  26  27
ENDBRANCH  25  26
ENDBRANCH  23  25
ENDBRANCH  16  21
ENDBRANCH  12  15
ENDBRANCH   6  11
ENDBRANCH   1   5
BRANCH   3  34
ATOM     34  C   UNL A   1      36.957  21.269  25.540  1.00  0.00     0.118 C 
BRANCH  34  35
ATOM     35  C   UNL A   1      38.138  20.400  25.134  1.00  0.00     0.042 C 
BRANCH  35  36
ATOM     36  C   UNL A   1      39.372  20.644  26.002  1.00  0.00     0.118 C 
BRANCH  36  37
ATOM     37  N   UNL A   1      40.273  19.495  26.043  1.00  0.00    -0.352 N 
ATOM     38  C   UNL A   1      41.650  19.458  26.099  1.00  0.00     0.251 C 
ATOM     39  H   UNL A   1      39.831  18.615  26.028  1.00  0.00     0.163 HD
ATOM     40  O   UNL A   1      42.240  18.400  25.945  1.00  0.00    -0.269 OA
BRANCH  38  41
ATOM     41  C   UNL A   1      42.398  20.716  26.306  1.00  0.00     0.039 A 
ATOM     42  C   UNL A   1      42.855  21.428  25.194  1.00  0.00     0.014 A 
ATOM     43  C   UNL A   1      42.590  21.220  27.595  1.00  0.00     0.014 A 
ATOM     44  C   UNL A   1      43.396  22.704  25.370  1.00  0.00     0.010 A 
ATOM     45  C   UNL A   1      43.051  22.522  27.760  1.00  0.00     0.010 A 
ATOM     46  C   UNL A   1      43.433  23.288  26.648  1.00  0.00    -0.014 A 
BRANCH  46  47
ATOM     47  C   UNL A   1      43.802  24.716  26.845  1.00  0.00     0.031 A 
ATOM     48  C   UNL A   1      45.237  25.150  26.715  1.00  0.00     0.074 A 
ATOM     49  C   UNL A   1      42.862  25.588  27.263  1.00  0.00     0.049 A 
ATOM     50  N   UNL A   1      45.777  26.306  26.995  1.00  0.00    -0.248 NA
ATOM     51  C   UNL A   1      46.194  24.137  26.242  1.00  0.00     0.031 C 
ATOM     52  C   UNL A   1      41.447  25.268  27.485  1.00  0.00     0.029 A 
ATOM     53  N   UNL A   1      42.952  26.914  27.609  1.00  0.00    -0.354 N 
ATOM     54  C   UNL A   1      47.140  26.155  26.763  1.00  0.00     0.074 A 
ATOM     55  C   UNL A   1      47.347  24.782  26.355  1.00  0.00     0.031 C 
ATOM     56  C   UNL A   1      40.808  26.364  27.920  1.00  0.00     0.029 A 
ATOM     57  C   UNL A   1      41.769  27.453  28.063  1.00  0.00     0.049 A 
ATOM     58  H   UNL A   1      43.787  27.433  27.537  1.00  0.00     0.167 HD
ATOM     59  C   UNL A   1      48.122  27.082  26.870  1.00  0.00     0.034 A 
ATOM     60  C   UNL A   1      41.493  28.672  28.569  1.00  0.00     0.034 A 
ATOM     61  C   UNL A   1      47.890  28.456  27.238  1.00  0.00     0.049 A 
ATOM     62  C   UNL A   1      42.608  29.681  28.678  1.00  0.00     0.074 A 
ATOM     63  C   UNL A   1      48.792  29.506  27.250  1.00  0.00     0.029 A 
ATOM     64  N   UNL A   1      46.677  28.969  27.673  1.00  0.00    -0.354 N 
ATOM     65  N   UNL A   1      43.875  29.547  28.359  1.00  0.00    -0.248 NA
ATOM     66  C   UNL A   1      42.258  31.005  29.212  1.00  0.00     0.031 C 
ATOM     67  C   UNL A   1      48.144  30.635  27.761  1.00  0.00     0.029 A 
ATOM     68  C   UNL A   1      46.820  30.308  28.004  1.00  0.00     0.049 A 
ATOM     69  H   UNL A   1      45.839  28.458  27.738  1.00  0.00     0.167 HD
ATOM     70  C   UNL A   1      44.467  30.774  28.640  1.00  0.00     0.074 A 
ATOM     71  C   UNL A   1      43.416  31.642  29.129  1.00  0.00     0.031 C 
ATOM     72  C   UNL A   1      45.763  31.151  28.507  1.00  0.00     0.034 A 
BRANCH  59  73
ATOM     73  C   UNL A   1      49.540  26.642  26.606  1.00  0.00     0.023 A 
ATOM     74  C   UNL A   1      50.223  27.000  25.433  1.00  0.00     0.031 A 
ATOM     75  C   UNL A   1      50.224  25.863  27.558  1.00  0.00     0.131 A 
ATOM     76  C   UNL A   1      51.530  26.538  25.216  1.00  0.00     0.055 A 
ATOM     77  C   UNL A   1      51.547  25.464  27.367  1.00  0.00     0.041 A 
ATOM     78  F   UNL A   1      49.614  25.478  28.689  1.00  0.00    -0.206 F 
ATOM     79  C   UNL A   1      52.205  25.793  26.185  1.00  0.00     0.022 A 
BRANCH  76  80
ATOM     80  S   UNL A   1      52.302  26.842  23.603  1.00  0.00     0.124 S 
ATOM     81  O   UNL A   1      52.899  28.160  23.807  1.00  0.00    -0.237 OA
ATOM     82  O   UNL A   1      53.236  25.729  23.484  1.00  0.00    -0.237 OA
ATOM     83  O   UNL A   1      51.175  26.813  22.673  1.00  0.00    -0.744 OA
ENDBRANCH  76  80
ENDBRANCH  59  73
BRANCH  60  84
ATOM     84  C   UNL A   1      40.121  29.003  29.058  1.00  0.00     0.023 A 
ATOM     85  C   UNL A   1      39.800  28.921  30.422  1.00  0.00     0.031 A 
ATOM     86  C   UNL A   1      39.095  29.344  28.159  1.00  0.00     0.131 A 
ATOM     87  C   UNL A   1      38.476  29.119  30.842  1.00  0.00     0.055 A 
ATOM     88  C   UNL A   1      37.790  29.596  28.589  1.00  0.00     0.041 A 
ATOM     89  F   UNL A   1      39.347  29.441  26.844  1.00  0.00    -0.206 F 
ATOM     90  C   UNL A   1      37.471  29.468  29.937  1.00  0.00     0.022 A 
BRANCH  87  91
ATOM     91  S   UNL A   1      38.063  28.808  32.581  1.00  0.00     0.124 S 
ATOM     92  O   UNL A   1      39.052  29.629  33.273  1.00  0.00    -0.237 OA
ATOM     93  O   UNL A   1      36.682  29.272  32.650  1.00  0.00    -0.237 OA
ATOM     94  O   UNL A   1      38.243  27.365  32.720  1.00  0.00    -0.744 OA
ENDBRANCH  87  91
ENDBRANCH  60  84
BRANCH  72  95
ATOM     95  C   UNL A   1      46.102  32.572  28.880  1.00  0.00     0.023 A 
ATOM     96  C   UNL A   1      46.079  33.604  27.927  1.00  0.00     0.031 A 
ATOM     97  C   UNL A   1      46.450  32.894  30.203  1.00  0.00     0.131 A 
ATOM     98  C   UNL A   1      46.443  34.906  28.301  1.00  0.00     0.055 A 
ATOM     99  C   UNL A   1      46.756  34.202  30.581  1.00  0.00     0.041 A 
ATOM    100  F   UNL A   1      46.488  31.945  31.151  1.00  0.00    -0.206 F 
ATOM    101  C   UNL A   1      46.764  35.214  29.626  1.00  0.00     0.022 A 
BRANCH  98 102
ATOM    102  S   UNL A   1      46.553  36.182  27.017  1.00  0.00     0.124 S 
ATOM    103  O   UNL A   1      45.814  37.284  27.623  1.00  0.00    -0.237 OA
ATOM    104  O   UNL A   1      47.994  36.374  26.889  1.00  0.00    -0.237 OA
ATOM    105  O   UNL A   1      45.907  35.562  25.861  1.00  0.00    -0.744 OA
ENDBRANCH  98 102
ENDBRANCH  72  95
ENDBRANCH  46  47
ENDBRANCH  38  41
ENDBRANCH  36  37
ENDBRANCH  35  36
ENDBRANCH  34  35
ENDBRANCH   3  34
TORSDOF 19
ENDMDL
