MODEL 1
REMARK VINA RESULT:     -11.8      0.000      0.000
REMARK SMILES CC(C)C[C@@H]([NH2+][C@H]1CCOC2(CCOCC2)C1)C(=O)NCCCNC(=O)c1ccc(-c2c3nc(c(-c4cc(S(=O)(=O)[O-])ccc4F)c4ccc([nH]4)c(-c4cc(S(=O)(=O)[O-])ccc4F)c4nc(c(-c5cc(S(=O)(=O)[O-])ccc5F)c5ccc2[nH]5)C=C4)C=C3)cc1
REMARK SMILES IDX 22 1 21 2 20 3 18 4 19 5 5 7 4 8 2 9 1 10 3 11 6 12 7 15
REMARK SMILES IDX 8 16 17 17 9 18 11 19 10 20 12 21 16 22 13 23 15 24 14 25
REMARK SMILES IDX 23 26 24 27 25 28 26 30 27 31 28 32 89 33 29 34 88 35 30 36
REMARK SMILES IDX 31 37 32 38 82 39 33 40 87 41 81 42 83 43 34 44 86 45 80 46
REMARK SMILES IDX 79 47 35 49 67 50 47 51 66 52 48 53 51 54 65 55 84 56 49 57
REMARK SMILES IDX 50 58 64 60 85 61 52 62 36 63 37 64 45 65 38 66 44 67 46 68
REMARK SMILES IDX 43 69 39 70 40 71 41 72 42 73 68 74 69 75 77 76 70 77 76 78
REMARK SMILES IDX 78 79 75 80 71 81 72 82 73 83 74 84 53 85 54 86 62 87 55 88
REMARK SMILES IDX 61 89 63 90 60 91 56 92 57 93 58 94 59 95
REMARK H PARENT 20 6 6 13 6 14 24 29 83 48 51 59
REMARK Flexibility Score: inf
ROOT
ATOM      1  C   UNL A   1      31.801  28.837  26.358  1.00  0.00     0.042 C 
ENDROOT
BRANCH   1   2
ATOM      2  C   UNL A   1      32.276  27.389  26.349  1.00  0.00     0.118 C 
BRANCH   2   3
ATOM      3  N   UNL A   1      31.212  26.485  26.753  1.00  0.00    -0.351 N 
ATOM      4  C   UNL A   1      30.307  25.808  25.991  1.00  0.00     0.278 C 
ATOM      5  O   UNL A   1      29.495  25.080  26.571  1.00  0.00    -0.268 OA
ATOM      6  H   UNL A   1      31.133  26.339  27.724  1.00  0.00     0.163 HD
BRANCH   4   7
ATOM      7  C   UNL A   1      30.326  25.887  24.445  1.00  0.00     0.273 C 
BRANCH   7   8
ATOM      8  C   UNL A   1      30.427  24.474  23.841  1.00  0.00     0.078 C 
BRANCH   8   9
ATOM      9  C   UNL A   1      31.737  24.140  23.105  1.00  0.00    -0.011 C 
ATOM     10  C   UNL A   1      32.858  25.124  23.434  1.00  0.00     0.007 C 
ATOM     11  C   UNL A   1      32.171  22.714  23.459  1.00  0.00     0.007 C 
ENDBRANCH   8   9
ENDBRANCH   7   8
BRANCH   7  12
ATOM     12  N   UNL A   1      29.179  26.680  23.924  1.00  0.00    -0.333 N 
ATOM     13  H   UNL A   1      28.468  26.736  24.653  1.00  0.00     0.347 HD
ATOM     14  H   UNL A   1      28.837  26.203  23.090  1.00  0.00     0.347 HD
BRANCH  12  15
ATOM     15  C   UNL A   1      29.548  28.048  23.523  1.00  0.00     0.188 C 
ATOM     16  C   UNL A   1      30.875  28.128  22.766  1.00  0.00     0.093 C 
ATOM     17  C   UNL A   1      28.439  28.661  22.653  1.00  0.00     0.100 C 
ATOM     18  C   UNL A   1      31.156  29.569  22.370  1.00  0.00     0.167 C 
ATOM     19  C   UNL A   1      28.794  30.113  22.263  1.00  0.00     0.078 C 
ATOM     20  O   UNL A   1      30.084  30.129  21.618  1.00  0.00    -0.374 OA
ATOM     21  C   UNL A   1      28.748  31.066  23.478  1.00  0.00     0.064 C 
ATOM     22  C   UNL A   1      27.792  30.634  21.215  1.00  0.00     0.064 C 
ATOM     23  C   UNL A   1      28.955  32.512  23.048  1.00  0.00     0.163 C 
ATOM     24  C   UNL A   1      28.052  32.106  20.905  1.00  0.00     0.163 C 
ATOM     25  O   UNL A   1      27.969  32.895  22.090  1.00  0.00    -0.381 OA
ENDBRANCH  12  15
ENDBRANCH   7  12
ENDBRANCH   4   7
ENDBRANCH   2   3
ENDBRANCH   1   2
BRANCH   1  26
ATOM     26  C   UNL A   1      32.818  29.812  25.779  1.00  0.00     0.118 C 
BRANCH  26  27
ATOM     27  N   UNL A   1      32.567  31.183  26.195  1.00  0.00    -0.352 N 
ATOM     28  C   UNL A   1      33.162  31.919  27.188  1.00  0.00     0.251 C 
ATOM     29  H   UNL A   1      31.865  31.654  25.688  1.00  0.00     0.163 HD
ATOM     30  O   UNL A   1      32.654  32.987  27.531  1.00  0.00    -0.269 OA
BRANCH  28  31
ATOM     31  C   UNL A   1      34.386  31.425  27.854  1.00  0.00     0.039 A 
ATOM     32  C   UNL A   1      35.470  32.292  28.007  1.00  0.00     0.014 A 
ATOM     33  C   UNL A   1      34.475  30.107  28.312  1.00  0.00     0.014 A 
ATOM     34  C   UNL A   1      36.620  31.853  28.666  1.00  0.00     0.010 A 
ATOM     35  C   UNL A   1      35.585  29.700  29.046  1.00  0.00     0.010 A 
ATOM     36  C   UNL A   1      36.676  30.564  29.220  1.00  0.00    -0.014 A 
BRANCH  36  37
ATOM     37  C   UNL A   1      37.878  30.093  29.959  1.00  0.00     0.031 A 
ATOM     38  C   UNL A   1      38.145  30.591  31.355  1.00  0.00     0.074 A 
ATOM     39  C   UNL A   1      38.750  29.260  29.357  1.00  0.00     0.049 A 
ATOM     40  N   UNL A   1      39.166  30.354  32.137  1.00  0.00    -0.248 NA
ATOM     41  C   UNL A   1      37.144  31.500  31.934  1.00  0.00     0.031 C 
ATOM     42  C   UNL A   1      38.617  28.738  27.995  1.00  0.00     0.029 A 
ATOM     43  N   UNL A   1      39.923  28.709  29.808  1.00  0.00    -0.354 N 
ATOM     44  C   UNL A   1      38.937  31.092  33.294  1.00  0.00     0.074 A 
ATOM     45  C   UNL A   1      37.716  31.838  33.079  1.00  0.00     0.031 C 
ATOM     46  C   UNL A   1      39.648  27.920  27.735  1.00  0.00     0.029 A 
ATOM     47  C   UNL A   1      40.544  27.898  28.887  1.00  0.00     0.049 A 
ATOM     48  H   UNL A   1      40.285  28.878  30.708  1.00  0.00     0.167 HD
ATOM     49  C   UNL A   1      39.664  31.124  34.439  1.00  0.00     0.034 A 
ATOM     50  C   UNL A   1      41.710  27.224  28.956  1.00  0.00     0.034 A 
ATOM     51  C   UNL A   1      40.874  30.365  34.640  1.00  0.00     0.049 A 
ATOM     52  C   UNL A   1      42.521  27.304  30.227  1.00  0.00     0.074 A 
ATOM     53  C   UNL A   1      41.661  30.283  35.774  1.00  0.00     0.029 A 
ATOM     54  N   UNL A   1      41.478  29.562  33.680  1.00  0.00    -0.354 N 
ATOM     55  N   UNL A   1      42.265  27.969  31.331  1.00  0.00    -0.248 NA
ATOM     56  C   UNL A   1      43.770  26.535  30.264  1.00  0.00     0.031 C 
ATOM     57  C   UNL A   1      42.779  29.496  35.477  1.00  0.00     0.029 A 
ATOM     58  C   UNL A   1      42.646  29.011  34.186  1.00  0.00     0.049 A 
ATOM     59  H   UNL A   1      41.128  29.406  32.773  1.00  0.00     0.167 HD
ATOM     60  C   UNL A   1      43.306  27.668  32.205  1.00  0.00     0.074 A 
ATOM     61  C   UNL A   1      44.182  26.751  31.505  1.00  0.00     0.031 C 
ATOM     62  C   UNL A   1      43.516  28.104  33.474  1.00  0.00     0.034 A 
BRANCH  49  63
ATOM     63  C   UNL A   1      39.178  32.029  35.547  1.00  0.00     0.023 A 
ATOM     64  C   UNL A   1      39.605  33.365  35.653  1.00  0.00     0.031 A 
ATOM     65  C   UNL A   1      38.297  31.543  36.530  1.00  0.00     0.131 A 
ATOM     66  C   UNL A   1      39.216  34.141  36.755  1.00  0.00     0.055 A 
ATOM     67  C   UNL A   1      37.843  32.349  37.577  1.00  0.00     0.041 A 
ATOM     68  F   UNL A   1      37.872  30.271  36.498  1.00  0.00    -0.206 F 
ATOM     69  C   UNL A   1      38.317  33.652  37.704  1.00  0.00     0.022 A 
BRANCH  66  70
ATOM     70  S   UNL A   1      40.028  35.742  37.015  1.00  0.00     0.124 S 
ATOM     71  O   UNL A   1      39.676  36.454  35.788  1.00  0.00    -0.237 OA
ATOM     72  O   UNL A   1      39.395  36.224  38.237  1.00  0.00    -0.237 OA
ATOM     73  O   UNL A   1      41.442  35.393  37.139  1.00  0.00    -0.744 OA
ENDBRANCH  66  70
ENDBRANCH  49  63
BRANCH  50  74
ATOM     74  C   UNL A   1      42.195  26.425  27.793  1.00  0.00     0.023 A 
ATOM     75  C   UNL A   1      41.821  25.081  27.633  1.00  0.00     0.031 A 
ATOM     76  C   UNL A   1      43.078  26.979  26.850  1.00  0.00     0.131 A 
ATOM     77  C   UNL A   1      42.370  24.322  26.586  1.00  0.00     0.055 A 
ATOM     78  C   UNL A   1      43.573  26.237  25.776  1.00  0.00     0.041 A 
ATOM     79  F   UNL A   1      43.466  28.260  26.953  1.00  0.00    -0.206 F 
ATOM     80  C   UNL A   1      43.231  24.895  25.649  1.00  0.00     0.022 A 
BRANCH  77  81
ATOM     81  S   UNL A   1      42.017  22.544  26.527  1.00  0.00     0.124 S 
ATOM     82  O   UNL A   1      42.639  22.077  27.761  1.00  0.00    -0.237 OA
ATOM     83  O   UNL A   1      40.558  22.526  26.494  1.00  0.00    -0.237 OA
ATOM     84  O   UNL A   1      42.672  22.109  25.295  1.00  0.00    -0.744 OA
ENDBRANCH  77  81
ENDBRANCH  50  74
BRANCH  62  85
ATOM     85  C   UNL A   1      44.718  27.550  34.202  1.00  0.00     0.023 A 
ATOM     86  C   UNL A   1      44.651  26.367  34.957  1.00  0.00     0.031 A 
ATOM     87  C   UNL A   1      45.951  28.225  34.143  1.00  0.00     0.131 A 
ATOM     88  C   UNL A   1      45.775  25.927  35.670  1.00  0.00     0.055 A 
ATOM     89  C   UNL A   1      47.085  27.745  34.798  1.00  0.00     0.041 A 
ATOM     90  F   UNL A   1      46.075  29.363  33.440  1.00  0.00    -0.206 F 
ATOM     91  C   UNL A   1      46.998  26.597  35.579  1.00  0.00     0.022 A 
BRANCH  88  92
ATOM     92  S   UNL A   1      45.595  24.519  36.801  1.00  0.00     0.124 S 
ATOM     93  O   UNL A   1      46.370  24.958  37.956  1.00  0.00    -0.237 OA
ATOM     94  O   UNL A   1      44.150  24.453  36.990  1.00  0.00    -0.237 OA
ATOM     95  O   UNL A   1      46.173  23.404  36.053  1.00  0.00    -0.744 OA
ENDBRANCH  88  92
ENDBRANCH  62  85
ENDBRANCH  36  37
ENDBRANCH  28  31
ENDBRANCH  26  27
ENDBRANCH   1  26
TORSDOF 17
ENDMDL
MODEL 2
REMARK VINA RESULT:     -11.6      2.564      3.196
REMARK SMILES CC(C)C[C@@H]([NH2+][C@H]1CCOC2(CCOCC2)C1)C(=O)NCCCNC(=O)c1ccc(-c2c3nc(c(-c4cc(S(=O)(=O)[O-])ccc4F)c4ccc([nH]4)c(-c4cc(S(=O)(=O)[O-])ccc4F)c4nc(c(-c5cc(S(=O)(=O)[O-])ccc5F)c5ccc2[nH]5)C=C4)C=C3)cc1
REMARK SMILES IDX 22 1 21 2 20 3 18 4 19 5 5 7 4 8 2 9 1 10 3 11 6 12 7 15
REMARK SMILES IDX 8 16 17 17 9 18 11 19 10 20 12 21 16 22 13 23 15 24 14 25
REMARK SMILES IDX 23 26 24 27 25 28 26 30 27 31 28 32 89 33 29 34 88 35 30 36
REMARK SMILES IDX 31 37 32 38 82 39 33 40 87 41 81 42 83 43 34 44 86 45 80 46
REMARK SMILES IDX 79 47 35 49 67 50 47 51 66 52 48 53 51 54 65 55 84 56 49 57
REMARK SMILES IDX 50 58 64 60 85 61 52 62 36 63 37 64 45 65 38 66 44 67 46 68
REMARK SMILES IDX 43 69 39 70 40 71 41 72 42 73 68 74 69 75 77 76 70 77 76 78
REMARK SMILES IDX 78 79 75 80 71 81 72 82 73 83 74 84 53 85 54 86 62 87 55 88
REMARK SMILES IDX 61 89 63 90 60 91 56 92 57 93 58 94 59 95
REMARK H PARENT 20 6 6 13 6 14 24 29 83 48 51 59
REMARK Flexibility Score: inf
ROOT
ATOM      1  C   UNL A   1      32.464  28.319  26.413  1.00  0.00     0.042 C 
ENDROOT
BRANCH   1   2
ATOM      2  C   UNL A   1      32.604  26.802  26.388  1.00  0.00     0.118 C 
BRANCH   2   3
ATOM      3  N   UNL A   1      31.364  26.154  26.779  1.00  0.00    -0.351 N 
ATOM      4  C   UNL A   1      30.346  25.679  26.006  1.00  0.00     0.278 C 
ATOM      5  O   UNL A   1      29.387  25.150  26.576  1.00  0.00    -0.268 OA
ATOM      6  H   UNL A   1      31.239  26.039  27.750  1.00  0.00     0.163 HD
BRANCH   4   7
ATOM      7  C   UNL A   1      30.408  25.735  24.460  1.00  0.00     0.273 C 
BRANCH   7   8
ATOM      8  C   UNL A   1      30.538  24.313  23.881  1.00  0.00     0.078 C 
BRANCH   8   9
ATOM      9  C   UNL A   1      31.888  23.608  24.106  1.00  0.00    -0.011 C 
ATOM     10  C   UNL A   1      31.812  22.533  25.188  1.00  0.00     0.007 C 
ATOM     11  C   UNL A   1      32.366  22.991  22.788  1.00  0.00     0.007 C 
ENDBRANCH   8   9
ENDBRANCH   7   8
BRANCH   7  12
ATOM     12  N   UNL A   1      29.268  26.507  23.895  1.00  0.00    -0.333 N 
ATOM     13  H   UNL A   1      28.526  26.547  24.594  1.00  0.00     0.347 HD
ATOM     14  H   UNL A   1      28.970  26.028  23.045  1.00  0.00     0.347 HD
BRANCH  12  15
ATOM     15  C   UNL A   1      29.627  27.885  23.515  1.00  0.00     0.188 C 
ATOM     16  C   UNL A   1      30.958  27.987  22.768  1.00  0.00     0.093 C 
ATOM     17  C   UNL A   1      28.518  28.499  22.647  1.00  0.00     0.100 C 
ATOM     18  C   UNL A   1      31.228  29.436  22.394  1.00  0.00     0.167 C 
ATOM     19  C   UNL A   1      28.862  29.960  22.279  1.00  0.00     0.078 C 
ATOM     20  O   UNL A   1      30.156  29.996  21.643  1.00  0.00    -0.374 OA
ATOM     21  C   UNL A   1      28.800  30.896  23.507  1.00  0.00     0.064 C 
ATOM     22  C   UNL A   1      27.862  30.486  21.232  1.00  0.00     0.064 C 
ATOM     23  C   UNL A   1      28.996  32.349  23.099  1.00  0.00     0.163 C 
ATOM     24  C   UNL A   1      28.111  31.965  20.944  1.00  0.00     0.163 C 
ATOM     25  O   UNL A   1      28.013  32.736  22.140  1.00  0.00    -0.381 OA
ENDBRANCH  12  15
ENDBRANCH   7  12
ENDBRANCH   4   7
ENDBRANCH   2   3
ENDBRANCH   1   2
BRANCH   1  26
ATOM     26  C   UNL A   1      33.788  29.052  26.241  1.00  0.00     0.118 C 
BRANCH  26  27
ATOM     27  N   UNL A   1      33.723  30.427  26.716  1.00  0.00    -0.352 N 
ATOM     28  C   UNL A   1      34.511  31.072  27.635  1.00  0.00     0.251 C 
ATOM     29  H   UNL A   1      33.007  30.974  26.319  1.00  0.00     0.163 HD
ATOM     30  O   UNL A   1      34.155  32.169  28.066  1.00  0.00    -0.269 OA
BRANCH  28  31
ATOM     31  C   UNL A   1      35.761  30.448  28.117  1.00  0.00     0.039 A 
ATOM     32  C   UNL A   1      36.922  30.581  27.352  1.00  0.00     0.014 A 
ATOM     33  C   UNL A   1      35.789  29.720  29.310  1.00  0.00     0.014 A 
ATOM     34  C   UNL A   1      38.121  30.030  27.812  1.00  0.00     0.010 A 
ATOM     35  C   UNL A   1      37.000  29.249  29.808  1.00  0.00     0.010 A 
ATOM     36  C   UNL A   1      38.178  29.387  29.059  1.00  0.00    -0.014 A 
BRANCH  36  37
ATOM     37  C   UNL A   1      39.453  28.828  29.581  1.00  0.00     0.031 A 
ATOM     38  C   UNL A   1      40.167  29.515  30.715  1.00  0.00     0.074 A 
ATOM     39  C   UNL A   1      39.991  27.735  29.004  1.00  0.00     0.049 A 
ATOM     40  N   UNL A   1      41.317  29.226  31.266  1.00  0.00    -0.248 NA
ATOM     41  C   UNL A   1      39.512  30.703  31.283  1.00  0.00     0.031 C 
ATOM     42  C   UNL A   1      39.410  27.003  27.876  1.00  0.00     0.029 A 
ATOM     43  N   UNL A   1      41.147  27.050  29.281  1.00  0.00    -0.354 N 
ATOM     44  C   UNL A   1      41.530  30.201  32.235  1.00  0.00     0.074 A 
ATOM     45  C   UNL A   1      40.422  31.127  32.146  1.00  0.00     0.031 C 
ATOM     46  C   UNL A   1      40.196  25.956  27.579  1.00  0.00     0.029 A 
ATOM     47  C   UNL A   1      41.362  25.969  28.457  1.00  0.00     0.049 A 
ATOM     48  H   UNL A   1      41.765  27.308  30.002  1.00  0.00     0.167 HD
ATOM     49  C   UNL A   1      42.541  30.299  33.134  1.00  0.00     0.034 A 
ATOM     50  C   UNL A   1      42.388  25.096  28.405  1.00  0.00     0.034 A 
ATOM     51  C   UNL A   1      43.632  29.359  33.215  1.00  0.00     0.049 A 
ATOM     52  C   UNL A   1      43.521  25.246  29.391  1.00  0.00     0.074 A 
ATOM     53  C   UNL A   1      44.682  29.333  34.117  1.00  0.00     0.029 A 
ATOM     54  N   UNL A   1      43.821  28.282  32.357  1.00  0.00    -0.354 N 
ATOM     55  N   UNL A   1      43.681  26.146  30.334  1.00  0.00    -0.248 NA
ATOM     56  C   UNL A   1      44.603  24.258  29.312  1.00  0.00     0.031 C 
ATOM     57  C   UNL A   1      45.543  28.292  33.757  1.00  0.00     0.029 A 
ATOM     58  C   UNL A   1      44.988  27.609  32.688  1.00  0.00     0.049 A 
ATOM     59  H   UNL A   1      43.215  28.033  31.623  1.00  0.00     0.167 HD
ATOM     60  C   UNL A   1      44.867  25.808  30.983  1.00  0.00     0.074 A 
ATOM     61  C   UNL A   1      45.369  24.615  30.332  1.00  0.00     0.031 C 
ATOM     62  C   UNL A   1      45.483  26.424  32.024  1.00  0.00     0.034 A 
BRANCH  49  63
ATOM     63  C   UNL A   1      42.521  31.477  34.079  1.00  0.00     0.023 A 
ATOM     64  C   UNL A   1      41.831  31.433  35.304  1.00  0.00     0.031 A 
ATOM     65  C   UNL A   1      43.177  32.675  33.740  1.00  0.00     0.131 A 
ATOM     66  C   UNL A   1      41.745  32.583  36.103  1.00  0.00     0.055 A 
ATOM     67  C   UNL A   1      43.162  33.788  34.583  1.00  0.00     0.041 A 
ATOM     68  F   UNL A   1      43.833  32.788  32.574  1.00  0.00    -0.206 F 
ATOM     69  C   UNL A   1      42.429  33.752  35.766  1.00  0.00     0.022 A 
BRANCH  66  70
ATOM     70  S   UNL A   1      40.599  32.575  37.509  1.00  0.00     0.124 S 
ATOM     71  O   UNL A   1      40.276  33.995  37.634  1.00  0.00    -0.237 OA
ATOM     72  O   UNL A   1      39.522  31.714  37.034  1.00  0.00    -0.237 OA
ATOM     73  O   UNL A   1      41.400  32.028  38.602  1.00  0.00    -0.744 OA
ENDBRANCH  66  70
ENDBRANCH  49  63
BRANCH  50  74
ATOM     74  C   UNL A   1      42.407  24.009  27.383  1.00  0.00     0.023 A 
ATOM     75  C   UNL A   1      41.794  22.770  27.632  1.00  0.00     0.031 A 
ATOM     76  C   UNL A   1      43.081  24.174  26.161  1.00  0.00     0.131 A 
ATOM     77  C   UNL A   1      41.912  21.730  26.697  1.00  0.00     0.055 A 
ATOM     78  C   UNL A   1      43.144  23.157  25.207  1.00  0.00     0.041 A 
ATOM     79  F   UNL A   1      43.684  25.338  25.869  1.00  0.00    -0.206 F 
ATOM     80  C   UNL A   1      42.570  21.919  25.480  1.00  0.00     0.022 A 
BRANCH  77  81
ATOM     81  S   UNL A   1      41.276  20.090  27.139  1.00  0.00     0.124 S 
ATOM     82  O   UNL A   1      40.751  20.327  28.479  1.00  0.00    -0.237 OA
ATOM     83  O   UNL A   1      40.286  19.857  26.092  1.00  0.00    -0.237 OA
ATOM     84  O   UNL A   1      42.462  19.237  27.074  1.00  0.00    -0.744 OA
ENDBRANCH  77  81
ENDBRANCH  50  74
BRANCH  62  85
ATOM     85  C   UNL A   1      46.742  25.783  32.556  1.00  0.00     0.023 A 
ATOM     86  C   UNL A   1      47.965  25.862  31.869  1.00  0.00     0.031 A 
ATOM     87  C   UNL A   1      46.714  25.075  33.772  1.00  0.00     0.131 A 
ATOM     88  C   UNL A   1      49.093  25.194  32.368  1.00  0.00     0.055 A 
ATOM     89  C   UNL A   1      47.855  24.471  34.299  1.00  0.00     0.041 A 
ATOM     90  F   UNL A   1      45.573  24.963  34.471  1.00  0.00    -0.206 F 
ATOM     91  C   UNL A   1      49.052  24.517  33.590  1.00  0.00     0.022 A 
BRANCH  88  92
ATOM     92  S   UNL A   1      50.594  25.138  31.351  1.00  0.00     0.124 S 
ATOM     93  O   UNL A   1      51.305  26.332  31.795  1.00  0.00    -0.237 OA
ATOM     94  O   UNL A   1      51.187  23.862  31.736  1.00  0.00    -0.237 OA
ATOM     95  O   UNL A   1      50.083  25.195  29.982  1.00  0.00    -0.744 OA
ENDBRANCH  88  92
ENDBRANCH  62  85
ENDBRANCH  36  37
ENDBRANCH  28  31
ENDBRANCH  26  27
ENDBRANCH   1  26
TORSDOF 17
ENDMDL
MODEL 3
REMARK VINA RESULT:     -11.5      2.348      8.570
REMARK SMILES CC(C)C[C@@H]([NH2+][C@H]1CCOC2(CCOCC2)C1)C(=O)NCCCNC(=O)c1ccc(-c2c3nc(c(-c4cc(S(=O)(=O)[O-])ccc4F)c4ccc([nH]4)c(-c4cc(S(=O)(=O)[O-])ccc4F)c4nc(c(-c5cc(S(=O)(=O)[O-])ccc5F)c5ccc2[nH]5)C=C4)C=C3)cc1
REMARK SMILES IDX 22 1 21 2 20 3 18 4 19 5 5 7 4 8 2 9 1 10 3 11 6 12 7 15
REMARK SMILES IDX 8 16 17 17 9 18 11 19 10 20 12 21 16 22 13 23 15 24 14 25
REMARK SMILES IDX 23 26 24 27 25 28 26 30 27 31 28 32 89 33 29 34 88 35 30 36
REMARK SMILES IDX 31 37 32 38 82 39 33 40 87 41 81 42 83 43 34 44 86 45 80 46
REMARK SMILES IDX 79 47 35 49 67 50 47 51 66 52 48 53 51 54 65 55 84 56 49 57
REMARK SMILES IDX 50 58 64 60 85 61 52 62 36 63 37 64 45 65 38 66 44 67 46 68
REMARK SMILES IDX 43 69 39 70 40 71 41 72 42 73 68 74 69 75 77 76 70 77 76 78
REMARK SMILES IDX 78 79 75 80 71 81 72 82 73 83 74 84 53 85 54 86 62 87 55 88
REMARK SMILES IDX 61 89 63 90 60 91 56 92 57 93 58 94 59 95
REMARK H PARENT 20 6 6 13 6 14 24 29 83 48 51 59
REMARK Flexibility Score: inf
ROOT
ATOM      1  C   UNL A   1      31.378  31.947  26.358  1.00  0.00     0.042 C 
ENDROOT
BRANCH   1   2
ATOM      2  C   UNL A   1      31.433  30.496  25.893  1.00  0.00     0.118 C 
BRANCH   2   3
ATOM      3  N   UNL A   1      30.795  30.335  24.598  1.00  0.00    -0.351 N 
ATOM      4  C   UNL A   1      30.817  29.275  23.740  1.00  0.00     0.278 C 
ATOM      5  O   UNL A   1      30.178  29.372  22.688  1.00  0.00    -0.268 OA
ATOM      6  H   UNL A   1      30.266  31.109  24.293  1.00  0.00     0.163 HD
BRANCH   4   7
ATOM      7  C   UNL A   1      31.560  27.963  24.091  1.00  0.00     0.273 C 
BRANCH   7   8
ATOM      8  C   UNL A   1      30.552  26.879  24.518  1.00  0.00     0.078 C 
BRANCH   8   9
ATOM      9  C   UNL A   1      30.548  26.505  26.012  1.00  0.00    -0.011 C 
ATOM     10  C   UNL A   1      30.199  25.037  26.245  1.00  0.00     0.007 C 
ATOM     11  C   UNL A   1      31.918  26.821  26.619  1.00  0.00     0.007 C 
ENDBRANCH   8   9
ENDBRANCH   7   8
BRANCH   7  12
ATOM     12  N   UNL A   1      32.465  27.536  22.989  1.00  0.00    -0.333 N 
ATOM     13  H   UNL A   1      33.373  27.978  23.127  1.00  0.00     0.347 HD
ATOM     14  H   UNL A   1      32.028  27.821  22.113  1.00  0.00     0.347 HD
BRANCH  12  15
ATOM     15  C   UNL A   1      32.659  26.077  22.925  1.00  0.00     0.188 C 
ATOM     16  C   UNL A   1      32.785  25.538  21.499  1.00  0.00     0.093 C 
ATOM     17  C   UNL A   1      33.909  25.675  23.723  1.00  0.00     0.100 C 
ATOM     18  C   UNL A   1      33.011  24.034  21.536  1.00  0.00     0.167 C 
ATOM     19  C   UNL A   1      34.098  24.141  23.702  1.00  0.00     0.078 C 
ATOM     20  O   UNL A   1      34.139  23.689  22.334  1.00  0.00    -0.374 OA
ATOM     21  C   UNL A   1      33.005  23.412  24.516  1.00  0.00     0.064 C 
ATOM     22  C   UNL A   1      35.464  23.774  24.309  1.00  0.00     0.064 C 
ATOM     23  C   UNL A   1      33.293  21.920  24.604  1.00  0.00     0.163 C 
ATOM     24  C   UNL A   1      35.621  22.258  24.407  1.00  0.00     0.163 C 
ATOM     25  O   UNL A   1      34.573  21.691  25.191  1.00  0.00    -0.381 OA
ENDBRANCH  12  15
ENDBRANCH   7  12
ENDBRANCH   4   7
ENDBRANCH   2   3
ENDBRANCH   1   2
BRANCH   1  26
ATOM     26  C   UNL A   1      32.560  32.349  27.229  1.00  0.00     0.118 C 
BRANCH  26  27
ATOM     27  N   UNL A   1      32.522  33.757  27.595  1.00  0.00    -0.352 N 
ATOM     28  C   UNL A   1      33.236  34.431  28.553  1.00  0.00     0.251 C 
ATOM     29  H   UNL A   1      31.890  34.308  27.078  1.00  0.00     0.163 HD
ATOM     30  O   UNL A   1      32.897  35.575  28.860  1.00  0.00    -0.269 OA
BRANCH  28  31
ATOM     31  C   UNL A   1      34.383  33.785  29.224  1.00  0.00     0.039 A 
ATOM     32  C   UNL A   1      35.675  34.233  28.937  1.00  0.00     0.014 A 
ATOM     33  C   UNL A   1      34.192  32.730  30.122  1.00  0.00     0.014 A 
ATOM     34  C   UNL A   1      36.768  33.658  29.589  1.00  0.00     0.010 A 
ATOM     35  C   UNL A   1      35.273  32.221  30.836  1.00  0.00     0.010 A 
ATOM     36  C   UNL A   1      36.575  32.671  30.568  1.00  0.00    -0.014 A 
BRANCH  36  37
ATOM     37  C   UNL A   1      37.724  32.075  31.300  1.00  0.00     0.031 A 
ATOM     38  C   UNL A   1      38.536  30.979  30.661  1.00  0.00     0.074 A 
ATOM     39  C   UNL A   1      38.006  32.486  32.553  1.00  0.00     0.049 A 
ATOM     40  N   UNL A   1      39.529  30.288  31.157  1.00  0.00    -0.248 NA
ATOM     41  C   UNL A   1      38.157  30.590  29.295  1.00  0.00     0.031 C 
ATOM     42  C   UNL A   1      37.270  33.515  33.290  1.00  0.00     0.029 A 
ATOM     43  N   UNL A   1      38.982  32.086  33.431  1.00  0.00    -0.354 N 
ATOM     44  C   UNL A   1      39.886  29.375  30.170  1.00  0.00     0.074 A 
ATOM     45  C   UNL A   1      38.956  29.557  29.076  1.00  0.00     0.031 C 
ATOM     46  C   UNL A   1      37.839  33.686  34.493  1.00  0.00     0.029 A 
ATOM     47  C   UNL A   1      38.946  32.746  34.637  1.00  0.00     0.049 A 
ATOM     48  H   UNL A   1      39.646  31.391  33.217  1.00  0.00     0.167 HD
ATOM     49  C   UNL A   1      40.911  28.487  30.165  1.00  0.00     0.034 A 
ATOM     50  C   UNL A   1      39.708  32.601  35.740  1.00  0.00     0.034 A 
ATOM     51  C   UNL A   1      41.836  28.327  31.260  1.00  0.00     0.049 A 
ATOM     52  C   UNL A   1      40.820  31.581  35.725  1.00  0.00     0.074 A 
ATOM     53  C   UNL A   1      42.938  27.495  31.343  1.00  0.00     0.029 A 
ATOM     54  N   UNL A   1      41.762  29.007  32.470  1.00  0.00    -0.354 N 
ATOM     55  N   UNL A   1      41.176  30.759  34.763  1.00  0.00    -0.248 NA
ATOM     56  C   UNL A   1      41.639  31.476  36.939  1.00  0.00     0.031 C 
ATOM     57  C   UNL A   1      43.483  27.614  32.625  1.00  0.00     0.029 A 
ATOM     58  C   UNL A   1      42.778  28.586  33.315  1.00  0.00     0.049 A 
ATOM     59  H   UNL A   1      41.087  29.687  32.694  1.00  0.00     0.167 HD
ATOM     60  C   UNL A   1      42.283  30.066  35.247  1.00  0.00     0.074 A 
ATOM     61  C   UNL A   1      42.543  30.577  36.577  1.00  0.00     0.031 C 
ATOM     62  C   UNL A   1      43.021  29.098  34.645  1.00  0.00     0.034 A 
BRANCH  49  63
ATOM     63  C   UNL A   1      41.064  27.607  28.946  1.00  0.00     0.023 A 
ATOM     64  C   UNL A   1      42.079  27.826  27.997  1.00  0.00     0.031 A 
ATOM     65  C   UNL A   1      40.166  26.550  28.712  1.00  0.00     0.131 A 
ATOM     66  C   UNL A   1      42.122  27.055  26.825  1.00  0.00     0.055 A 
ATOM     67  C   UNL A   1      40.269  25.729  27.587  1.00  0.00     0.041 A 
ATOM     68  F   UNL A   1      39.162  26.304  29.568  1.00  0.00    -0.206 F 
ATOM     69  C   UNL A   1      41.242  25.991  26.626  1.00  0.00     0.022 A 
BRANCH  66  70
ATOM     70  S   UNL A   1      43.245  27.567  25.495  1.00  0.00     0.124 S 
ATOM     71  O   UNL A   1      43.787  26.283  25.056  1.00  0.00    -0.237 OA
ATOM     72  O   UNL A   1      42.345  28.234  24.561  1.00  0.00    -0.237 OA
ATOM     73  O   UNL A   1      44.202  28.440  26.171  1.00  0.00    -0.744 OA
ENDBRANCH  66  70
ENDBRANCH  49  63
BRANCH  50  74
ATOM     74  C   UNL A   1      39.449  33.427  36.955  1.00  0.00     0.023 A 
ATOM     75  C   UNL A   1      40.133  34.634  37.170  1.00  0.00     0.031 A 
ATOM     76  C   UNL A   1      38.548  32.997  37.945  1.00  0.00     0.131 A 
ATOM     77  C   UNL A   1      39.946  35.342  38.368  1.00  0.00     0.055 A 
ATOM     78  C   UNL A   1      38.319  33.736  39.108  1.00  0.00     0.041 A 
ATOM     79  F   UNL A   1      37.865  31.852  37.791  1.00  0.00    -0.206 F 
ATOM     80  C   UNL A   1      39.033  34.909  39.331  1.00  0.00     0.022 A 
BRANCH  77  81
ATOM     81  S   UNL A   1      40.990  36.789  38.693  1.00  0.00     0.124 S 
ATOM     82  O   UNL A   1      41.709  36.925  37.431  1.00  0.00    -0.237 OA
ATOM     83  O   UNL A   1      39.998  37.819  38.982  1.00  0.00    -0.237 OA
ATOM     84  O   UNL A   1      41.804  36.371  39.834  1.00  0.00    -0.744 OA
ENDBRANCH  77  81
ENDBRANCH  50  74
BRANCH  62  85
ATOM     85  C   UNL A   1      44.214  28.569  35.405  1.00  0.00     0.023 A 
ATOM     86  C   UNL A   1      44.089  27.563  36.379  1.00  0.00     0.031 A 
ATOM     87  C   UNL A   1      45.498  29.088  35.153  1.00  0.00     0.131 A 
ATOM     88  C   UNL A   1      45.215  27.150  37.107  1.00  0.00     0.055 A 
ATOM     89  C   UNL A   1      46.624  28.624  35.831  1.00  0.00     0.041 A 
ATOM     90  F   UNL A   1      45.677  30.052  34.237  1.00  0.00    -0.206 F 
ATOM     91  C   UNL A   1      46.486  27.659  36.825  1.00  0.00     0.022 A 
BRANCH  88  92
ATOM     92  S   UNL A   1      44.983  26.009  38.497  1.00  0.00     0.124 S 
ATOM     93  O   UNL A   1      43.725  26.478  39.067  1.00  0.00    -0.237 OA
ATOM     94  O   UNL A   1      44.937  24.711  37.833  1.00  0.00    -0.237 OA
ATOM     95  O   UNL A   1      46.164  26.238  39.329  1.00  0.00    -0.744 OA
ENDBRANCH  88  92
ENDBRANCH  62  85
ENDBRANCH  36  37
ENDBRANCH  28  31
ENDBRANCH  26  27
ENDBRANCH   1  26
TORSDOF 17
ENDMDL
