MODEL 1
REMARK VINA RESULT:     -12.9      0.000      0.000
REMARK SMILES COC(=O)c1ccc(NC(=O)[C@@H]2CC=CC[C@@H]2C(=O)NCCCNC(=O)c2ccc(-c3c4nc(c(-c5cc(S(=O)(=O)[O-])ccc5F)c5ccc([nH]5)c(-c5cc(S(=O)(=O)[O-])ccc5F)c5nc(c(-c6cc(S(=O)(=O)[O-])ccc6F)c6ccc3[nH]6)C=C5)C=C4)cc2)c(C)c1
REMARK SMILES IDX 21 1 20 2 18 3 19 4 17 6 12 7 13 8 14 9 16 10 15 11 10 12
REMARK SMILES IDX 9 13 11 15 8 16 5 17 6 18 92 19 7 20 90 21 91 22 3 23 4 24
REMARK SMILES IDX 2 25 1 26 22 27 23 28 24 29 25 30 26 32 27 33 28 34 89 35
REMARK SMILES IDX 29 36 88 37 30 38 31 39 32 40 82 41 33 42 87 43 81 44 83 45
REMARK SMILES IDX 34 46 86 47 80 48 79 49 35 51 67 52 47 53 66 54 48 55 51 56
REMARK SMILES IDX 65 57 84 58 49 59 50 60 64 62 85 63 52 64 36 65 37 66 45 67
REMARK SMILES IDX 38 68 44 69 46 70 43 71 39 72 40 73 41 74 42 75 68 76 69 77
REMARK SMILES IDX 77 78 70 79 76 80 78 81 75 82 71 83 72 84 73 85 74 86 53 87
REMARK SMILES IDX 54 88 62 89 55 90 61 91 63 92 60 93 56 94 57 95 58 96 59 97
REMARK H PARENT 20 5 9 14 24 31 83 50 51 61
REMARK Flexibility Score: inf
ROOT
ATOM      1  C   UNL A   1      31.860  29.528  25.864  1.00  0.00     0.117 C 
ENDROOT
BRANCH   1   2
ATOM      2  N   UNL A   1      31.686  28.161  26.336  1.00  0.00    -0.356 N 
ATOM      3  C   UNL A   1      32.151  26.978  25.837  1.00  0.00     0.224 C 
ATOM      4  O   UNL A   1      32.261  26.030  26.619  1.00  0.00    -0.275 OA
ATOM      5  H   UNL A   1      31.143  28.077  27.153  1.00  0.00     0.163 HD
BRANCH   3   6
ATOM      6  C   UNL A   1      32.525  26.818  24.356  1.00  0.00     0.095 C 
ATOM      7  C   UNL A   1      31.531  26.035  23.461  1.00  0.00     0.095 C 
ATOM      8  C   UNL A   1      31.941  24.695  22.818  1.00  0.00     0.041 C 
ATOM      9  C   UNL A   1      33.344  24.248  23.053  1.00  0.00    -0.030 C 
ATOM     10  C   UNL A   1      33.999  26.370  24.209  1.00  0.00     0.041 C 
ATOM     11  C   UNL A   1      34.255  24.990  23.687  1.00  0.00    -0.030 C 
BRANCH   7  12
ATOM     12  C   UNL A   1      30.095  25.940  23.936  1.00  0.00     0.228 C 
ATOM     13  N   UNL A   1      29.090  26.811  23.697  1.00  0.00    -0.326 N 
ATOM     14  H   UNL A   1      28.233  26.458  24.033  1.00  0.00     0.169 HD
ATOM     15  O   UNL A   1      29.795  24.981  24.668  1.00  0.00    -0.274 OA
BRANCH  13  16
ATOM     16  C   UNL A   1      28.910  28.079  23.107  1.00  0.00     0.044 A 
ATOM     17  C   UNL A   1      28.400  30.651  22.017  1.00  0.00     0.060 A 
ATOM     18  C   UNL A   1      29.673  30.096  21.961  1.00  0.00     0.018 A 
ATOM     19  C   UNL A   1      27.370  29.910  22.594  1.00  0.00     0.021 A 
ATOM     20  C   UNL A   1      29.913  28.822  22.492  1.00  0.00     0.027 A 
ATOM     21  C   UNL A   1      27.618  28.646  23.161  1.00  0.00    -0.027 A 
ATOM     22  C   UNL A   1      26.457  27.930  23.782  1.00  0.00     0.046 C 
BRANCH  17  23
ATOM     23  C   UNL A   1      28.204  32.044  21.526  1.00  0.00     0.337 C 
ATOM     24  O   UNL A   1      28.346  32.383  20.368  1.00  0.00    -0.246 OA
BRANCH  23  25
ATOM     25  O   UNL A   1      27.904  32.881  22.548  1.00  0.00    -0.465 OA
ATOM     26  C   UNL A   1      29.048  33.532  23.104  1.00  0.00     0.282 C 
ENDBRANCH  23  25
ENDBRANCH  17  23
ENDBRANCH  13  16
ENDBRANCH   7  12
ENDBRANCH   3   6
ENDBRANCH   1   2
BRANCH   1  27
ATOM     27  C   UNL A   1      32.561  30.474  26.837  1.00  0.00     0.042 C 
BRANCH  27  28
ATOM     28  C   UNL A   1      33.935  30.015  27.337  1.00  0.00     0.118 C 
BRANCH  28  29
ATOM     29  N   UNL A   1      34.494  30.974  28.298  1.00  0.00    -0.352 N 
ATOM     30  C   UNL A   1      35.689  30.996  28.982  1.00  0.00     0.251 C 
ATOM     31  H   UNL A   1      33.908  31.741  28.489  1.00  0.00     0.163 HD
ATOM     32  O   UNL A   1      35.969  31.914  29.750  1.00  0.00    -0.269 OA
BRANCH  30  33
ATOM     33  C   UNL A   1      36.710  29.974  28.688  1.00  0.00     0.039 A 
ATOM     34  C   UNL A   1      36.960  29.006  29.669  1.00  0.00     0.014 A 
ATOM     35  C   UNL A   1      37.519  30.062  27.564  1.00  0.00     0.014 A 
ATOM     36  C   UNL A   1      38.168  28.312  29.660  1.00  0.00     0.010 A 
ATOM     37  C   UNL A   1      38.725  29.386  27.568  1.00  0.00     0.010 A 
ATOM     38  C   UNL A   1      39.097  28.598  28.662  1.00  0.00    -0.014 A 
BRANCH  38  39
ATOM     39  C   UNL A   1      40.526  28.322  28.799  1.00  0.00     0.031 A 
ATOM     40  C   UNL A   1      41.173  27.162  28.163  1.00  0.00     0.074 A 
ATOM     41  C   UNL A   1      41.309  29.199  29.468  1.00  0.00     0.049 A 
ATOM     42  N   UNL A   1      42.199  26.554  28.660  1.00  0.00    -0.248 NA
ATOM     43  C   UNL A   1      40.718  26.593  26.902  1.00  0.00     0.031 C 
ATOM     44  C   UNL A   1      42.768  29.234  29.514  1.00  0.00     0.029 A 
ATOM     45  N   UNL A   1      40.914  30.113  30.440  1.00  0.00    -0.354 N 
ATOM     46  C   UNL A   1      42.718  25.748  27.675  1.00  0.00     0.074 A 
ATOM     47  C   UNL A   1      41.716  25.743  26.631  1.00  0.00     0.031 C 
ATOM     48  C   UNL A   1      43.153  29.894  30.616  1.00  0.00     0.029 A 
ATOM     49  C   UNL A   1      41.958  30.206  31.377  1.00  0.00     0.049 A 
ATOM     50  H   UNL A   1      40.060  30.602  30.468  1.00  0.00     0.167 HD
ATOM     51  C   UNL A   1      44.001  25.294  27.770  1.00  0.00     0.034 A 
ATOM     52  C   UNL A   1      41.752  29.926  32.696  1.00  0.00     0.034 A 
ATOM     53  C   UNL A   1      44.680  25.809  28.959  1.00  0.00     0.049 A 
ATOM     54  C   UNL A   1      42.603  28.783  33.209  1.00  0.00     0.074 A 
ATOM     55  C   UNL A   1      45.614  26.817  29.141  1.00  0.00     0.029 A 
ATOM     56  N   UNL A   1      44.247  25.444  30.228  1.00  0.00    -0.354 N 
ATOM     57  N   UNL A   1      43.274  27.972  32.439  1.00  0.00    -0.248 NA
ATOM     58  C   UNL A   1      42.745  28.443  34.621  1.00  0.00     0.031 C 
ATOM     59  C   UNL A   1      45.728  27.068  30.530  1.00  0.00     0.029 A 
ATOM     60  C   UNL A   1      44.875  26.205  31.195  1.00  0.00     0.049 A 
ATOM     61  H   UNL A   1      43.584  24.740  30.412  1.00  0.00     0.167 HD
ATOM     62  C   UNL A   1      43.887  27.003  33.197  1.00  0.00     0.074 A 
ATOM     63  C   UNL A   1      43.544  27.361  34.562  1.00  0.00     0.031 C 
ATOM     64  C   UNL A   1      44.601  25.990  32.611  1.00  0.00     0.034 A 
BRANCH  51  65
ATOM     65  C   UNL A   1      44.749  24.632  26.634  1.00  0.00     0.023 A 
ATOM     66  C   UNL A   1      44.481  23.283  26.317  1.00  0.00     0.031 A 
ATOM     67  C   UNL A   1      45.728  25.255  25.840  1.00  0.00     0.131 A 
ATOM     68  C   UNL A   1      45.232  22.588  25.353  1.00  0.00     0.055 A 
ATOM     69  C   UNL A   1      46.515  24.552  24.915  1.00  0.00     0.041 A 
ATOM     70  F   UNL A   1      45.933  26.579  25.889  1.00  0.00    -0.206 F 
ATOM     71  C   UNL A   1      46.280  23.206  24.678  1.00  0.00     0.022 A 
BRANCH  68  72
ATOM     72  S   UNL A   1      44.814  20.861  24.992  1.00  0.00     0.124 S 
ATOM     73  O   UNL A   1      43.655  20.641  25.852  1.00  0.00    -0.237 OA
ATOM     74  O   UNL A   1      44.560  20.896  23.557  1.00  0.00    -0.237 OA
ATOM     75  O   UNL A   1      46.019  20.133  25.386  1.00  0.00    -0.744 OA
ENDBRANCH  68  72
ENDBRANCH  51  65
BRANCH  52  76
ATOM     76  C   UNL A   1      40.369  30.270  33.139  1.00  0.00     0.023 A 
ATOM     77  C   UNL A   1      40.061  31.647  33.243  1.00  0.00     0.031 A 
ATOM     78  C   UNL A   1      39.304  29.368  33.018  1.00  0.00     0.131 A 
ATOM     79  C   UNL A   1      38.753  32.098  33.019  1.00  0.00     0.055 A 
ATOM     80  C   UNL A   1      37.984  29.821  32.890  1.00  0.00     0.041 A 
ATOM     81  F   UNL A   1      39.533  28.053  32.881  1.00  0.00    -0.206 F 
ATOM     82  C   UNL A   1      37.709  31.191  32.840  1.00  0.00     0.022 A 
BRANCH  79  83
ATOM     83  S   UNL A   1      38.513  33.867  32.663  1.00  0.00     0.124 S 
ATOM     84  O   UNL A   1      37.400  34.211  33.539  1.00  0.00    -0.237 OA
ATOM     85  O   UNL A   1      39.810  34.445  33.019  1.00  0.00    -0.237 OA
ATOM     86  O   UNL A   1      38.219  33.911  31.232  1.00  0.00    -0.744 OA
ENDBRANCH  79  83
ENDBRANCH  52  76
BRANCH  64  87
ATOM     87  C   UNL A   1      45.178  24.753  33.283  1.00  0.00     0.023 A 
ATOM     88  C   UNL A   1      46.443  24.702  33.888  1.00  0.00     0.031 A 
ATOM     89  C   UNL A   1      44.415  23.558  33.386  1.00  0.00     0.131 A 
ATOM     90  C   UNL A   1      46.920  23.522  34.496  1.00  0.00     0.055 A 
ATOM     91  C   UNL A   1      44.864  22.409  34.046  1.00  0.00     0.041 A 
ATOM     92  F   UNL A   1      43.185  23.452  32.863  1.00  0.00    -0.206 F 
ATOM     93  C   UNL A   1      46.132  22.380  34.597  1.00  0.00     0.022 A 
BRANCH  90  94
ATOM     94  S   UNL A   1      48.625  23.500  35.111  1.00  0.00     0.124 S 
ATOM     95  O   UNL A   1      48.807  22.091  35.446  1.00  0.00    -0.237 OA
ATOM     96  O   UNL A   1      49.379  23.979  33.957  1.00  0.00    -0.237 OA
ATOM     97  O   UNL A   1      48.594  24.410  36.254  1.00  0.00    -0.744 OA
ENDBRANCH  90  94
ENDBRANCH  64  87
ENDBRANCH  38  39
ENDBRANCH  30  33
ENDBRANCH  28  29
ENDBRANCH  27  28
ENDBRANCH   1  27
TORSDOF 17
ENDMDL
MODEL 2
REMARK VINA RESULT:     -12.8      2.166      4.456
REMARK SMILES COC(=O)c1ccc(NC(=O)[C@@H]2CC=CC[C@@H]2C(=O)NCCCNC(=O)c2ccc(-c3c4nc(c(-c5cc(S(=O)(=O)[O-])ccc5F)c5ccc([nH]5)c(-c5cc(S(=O)(=O)[O-])ccc5F)c5nc(c(-c6cc(S(=O)(=O)[O-])ccc6F)c6ccc3[nH]6)C=C5)C=C4)cc2)c(C)c1
REMARK SMILES IDX 21 1 20 2 18 3 19 4 17 6 12 7 13 8 14 9 16 10 15 11 10 12
REMARK SMILES IDX 9 13 11 15 8 16 5 17 6 18 92 19 7 20 90 21 91 22 3 23 4 24
REMARK SMILES IDX 2 25 1 26 22 27 23 28 24 29 25 30 26 32 27 33 28 34 89 35
REMARK SMILES IDX 29 36 88 37 30 38 31 39 32 40 82 41 33 42 87 43 81 44 83 45
REMARK SMILES IDX 34 46 86 47 80 48 79 49 35 51 67 52 47 53 66 54 48 55 51 56
REMARK SMILES IDX 65 57 84 58 49 59 50 60 64 62 85 63 52 64 36 65 37 66 45 67
REMARK SMILES IDX 38 68 44 69 46 70 43 71 39 72 40 73 41 74 42 75 68 76 69 77
REMARK SMILES IDX 77 78 70 79 76 80 78 81 75 82 71 83 72 84 73 85 74 86 53 87
REMARK SMILES IDX 54 88 62 89 55 90 61 91 63 92 60 93 56 94 57 95 58 96 59 97
REMARK H PARENT 20 5 9 14 24 31 83 50 51 61
REMARK Flexibility Score: inf
ROOT
ATOM      1  C   UNL A   1      32.380  29.897  26.131  1.00  0.00     0.117 C 
ENDROOT
BRANCH   1   2
ATOM      2  N   UNL A   1      31.544  28.852  26.704  1.00  0.00    -0.356 N 
ATOM      3  C   UNL A   1      31.261  27.591  26.262  1.00  0.00     0.224 C 
ATOM      4  O   UNL A   1      30.912  26.755  27.099  1.00  0.00    -0.275 OA
ATOM      5  H   UNL A   1      31.109  29.096  27.552  1.00  0.00     0.163 HD
BRANCH   3   6
ATOM      6  C   UNL A   1      31.367  27.213  24.777  1.00  0.00     0.095 C 
ATOM      7  C   UNL A   1      32.767  26.803  24.254  1.00  0.00     0.095 C 
ATOM      8  C   UNL A   1      33.494  27.660  23.200  1.00  0.00     0.041 C 
ATOM      9  C   UNL A   1      32.750  28.842  22.678  1.00  0.00    -0.030 C 
ATOM     10  C   UNL A   1      30.641  28.256  23.893  1.00  0.00     0.041 C 
ATOM     11  C   UNL A   1      31.483  29.115  23.002  1.00  0.00    -0.030 C 
BRANCH   7  12
ATOM     12  C   UNL A   1      33.773  26.312  25.276  1.00  0.00     0.228 C 
ATOM     13  N   UNL A   1      34.103  25.032  25.558  1.00  0.00    -0.326 N 
ATOM     14  H   UNL A   1      34.859  24.997  26.189  1.00  0.00     0.169 HD
ATOM     15  O   UNL A   1      34.341  27.167  25.978  1.00  0.00    -0.274 OA
BRANCH  13  16
ATOM     16  C   UNL A   1      33.679  23.732  25.213  1.00  0.00     0.044 A 
ATOM     17  C   UNL A   1      32.987  21.056  24.562  1.00  0.00     0.060 A 
ATOM     18  C   UNL A   1      32.002  22.003  24.815  1.00  0.00     0.018 A 
ATOM     19  C   UNL A   1      34.323  21.451  24.607  1.00  0.00     0.021 A 
ATOM     20  C   UNL A   1      32.352  23.324  25.124  1.00  0.00     0.027 A 
ATOM     21  C   UNL A   1      34.677  22.768  24.955  1.00  0.00    -0.027 A 
ATOM     22  C   UNL A   1      36.139  23.099  25.004  1.00  0.00     0.046 C 
BRANCH  17  23
ATOM     23  C   UNL A   1      32.580  19.643  24.328  1.00  0.00     0.337 C 
ATOM     24  O   UNL A   1      32.346  19.175  23.231  1.00  0.00    -0.246 OA
BRANCH  23  25
ATOM     25  O   UNL A   1      32.451  18.974  25.500  1.00  0.00    -0.465 OA
ATOM     26  C   UNL A   1      32.549  17.556  25.358  1.00  0.00     0.282 C 
ENDBRANCH  23  25
ENDBRANCH  17  23
ENDBRANCH  13  16
ENDBRANCH   7  12
ENDBRANCH   3   6
ENDBRANCH   1   2
BRANCH   1  27
ATOM     27  C   UNL A   1      33.152  30.746  27.139  1.00  0.00     0.042 C 
BRANCH  27  28
ATOM     28  C   UNL A   1      34.363  30.069  27.789  1.00  0.00     0.118 C 
BRANCH  28  29
ATOM     29  N   UNL A   1      35.175  31.040  28.533  1.00  0.00    -0.352 N 
ATOM     30  C   UNL A   1      36.441  30.959  29.068  1.00  0.00     0.251 C 
ATOM     31  H   UNL A   1      34.734  31.908  28.676  1.00  0.00     0.163 HD
ATOM     32  O   UNL A   1      36.947  31.910  29.660  1.00  0.00    -0.269 OA
BRANCH  30  33
ATOM     33  C   UNL A   1      37.260  29.759  28.812  1.00  0.00     0.039 A 
ATOM     34  C   UNL A   1      37.426  28.851  29.865  1.00  0.00     0.014 A 
ATOM     35  C   UNL A   1      37.982  29.615  27.636  1.00  0.00     0.014 A 
ATOM     36  C   UNL A   1      38.503  27.967  29.848  1.00  0.00     0.010 A 
ATOM     37  C   UNL A   1      39.061  28.750  27.631  1.00  0.00     0.010 A 
ATOM     38  C   UNL A   1      39.386  28.008  28.771  1.00  0.00    -0.014 A 
BRANCH  38  39
ATOM     39  C   UNL A   1      40.759  27.511  28.844  1.00  0.00     0.031 A 
ATOM     40  C   UNL A   1      41.145  26.177  28.352  1.00  0.00     0.074 A 
ATOM     41  C   UNL A   1      41.734  28.324  29.309  1.00  0.00     0.049 A 
ATOM     42  N   UNL A   1      42.104  25.478  28.862  1.00  0.00    -0.248 NA
ATOM     43  C   UNL A   1      40.483  25.523  27.232  1.00  0.00     0.031 C 
ATOM     44  C   UNL A   1      43.178  28.112  29.242  1.00  0.00     0.029 A 
ATOM     45  N   UNL A   1      41.588  29.422  30.153  1.00  0.00    -0.354 N 
ATOM     46  C   UNL A   1      42.388  24.462  27.980  1.00  0.00     0.074 A 
ATOM     47  C   UNL A   1      41.300  24.483  27.026  1.00  0.00     0.031 C 
ATOM     48  C   UNL A   1      43.770  28.845  30.196  1.00  0.00     0.029 A 
ATOM     49  C   UNL A   1      42.721  29.464  30.984  1.00  0.00     0.049 A 
ATOM     50  H   UNL A   1      40.831  30.051  30.166  1.00  0.00     0.167 HD
ATOM     51  C   UNL A   1      43.584  23.811  28.051  1.00  0.00     0.034 A 
ATOM     52  C   UNL A   1      42.603  29.415  32.342  1.00  0.00     0.034 A 
ATOM     53  C   UNL A   1      44.451  24.364  29.092  1.00  0.00     0.049 A 
ATOM     54  C   UNL A   1      43.307  28.227  32.964  1.00  0.00     0.074 A 
ATOM     55  C   UNL A   1      45.548  25.210  29.045  1.00  0.00     0.029 A 
ATOM     56  N   UNL A   1      44.092  24.263  30.430  1.00  0.00    -0.354 N 
ATOM     57  N   UNL A   1      43.759  27.210  32.284  1.00  0.00    -0.248 NA
ATOM     58  C   UNL A   1      43.530  28.070  34.397  1.00  0.00     0.031 C 
ATOM     59  C   UNL A   1      45.837  25.632  30.366  1.00  0.00     0.029 A 
ATOM     60  C   UNL A   1      44.926  25.034  31.218  1.00  0.00     0.049 A 
ATOM     61  H   UNL A   1      43.345  23.718  30.771  1.00  0.00     0.167 HD
ATOM     62  C   UNL A   1      44.280  26.267  33.138  1.00  0.00     0.074 A 
ATOM     63  C   UNL A   1      44.136  26.870  34.451  1.00  0.00     0.031 C 
ATOM     64  C   UNL A   1      44.761  25.073  32.666  1.00  0.00     0.034 A 
BRANCH  51  65
ATOM     65  C   UNL A   1      44.101  22.875  26.981  1.00  0.00     0.023 A 
ATOM     66  C   UNL A   1      43.492  21.613  26.807  1.00  0.00     0.031 A 
ATOM     67  C   UNL A   1      45.176  23.150  26.117  1.00  0.00     0.131 A 
ATOM     68  C   UNL A   1      44.010  20.662  25.911  1.00  0.00     0.055 A 
ATOM     69  C   UNL A   1      45.728  22.185  25.262  1.00  0.00     0.041 A 
ATOM     70  F   UNL A   1      45.708  24.377  26.029  1.00  0.00    -0.206 F 
ATOM     71  C   UNL A   1      45.154  20.926  25.166  1.00  0.00     0.022 A 
BRANCH  68  72
ATOM     72  S   UNL A   1      43.159  19.070  25.733  1.00  0.00     0.124 S 
ATOM     73  O   UNL A   1      41.870  19.472  25.179  1.00  0.00    -0.237 OA
ATOM     74  O   UNL A   1      44.050  18.340  24.838  1.00  0.00    -0.237 OA
ATOM     75  O   UNL A   1      43.108  18.560  27.102  1.00  0.00    -0.744 OA
ENDBRANCH  68  72
ENDBRANCH  51  65
BRANCH  52  76
ATOM     76  C   UNL A   1      41.343  30.053  32.826  1.00  0.00     0.023 A 
ATOM     77  C   UNL A   1      41.282  31.464  32.756  1.00  0.00     0.031 A 
ATOM     78  C   UNL A   1      40.137  29.347  32.905  1.00  0.00     0.131 A 
ATOM     79  C   UNL A   1      40.053  32.109  32.561  1.00  0.00     0.055 A 
ATOM     80  C   UNL A   1      38.904  30.008  32.805  1.00  0.00     0.041 A 
ATOM     81  F   UNL A   1      40.128  28.005  32.939  1.00  0.00    -0.206 F 
ATOM     82  C   UNL A   1      38.860  31.388  32.582  1.00  0.00     0.022 A 
BRANCH  79  83
ATOM     83  S   UNL A   1      40.080  33.834  31.977  1.00  0.00     0.124 S 
ATOM     84  O   UNL A   1      39.610  33.704  30.604  1.00  0.00    -0.237 OA
ATOM     85  O   UNL A   1      39.167  34.501  32.906  1.00  0.00    -0.237 OA
ATOM     86  O   UNL A   1      41.476  34.242  32.125  1.00  0.00    -0.744 OA
ENDBRANCH  79  83
ENDBRANCH  52  76
BRANCH  64  87
ATOM     87  C   UNL A   1      45.196  23.863  33.480  1.00  0.00     0.023 A 
ATOM     88  C   UNL A   1      46.492  23.674  33.982  1.00  0.00     0.031 A 
ATOM     89  C   UNL A   1      44.262  22.851  33.834  1.00  0.00     0.131 A 
ATOM     90  C   UNL A   1      46.831  22.528  34.731  1.00  0.00     0.055 A 
ATOM     91  C   UNL A   1      44.585  21.747  34.631  1.00  0.00     0.041 A 
ATOM     92  F   UNL A   1      42.983  22.892  33.435  1.00  0.00    -0.206 F 
ATOM     93  C   UNL A   1      45.882  21.572  35.077  1.00  0.00     0.022 A 
BRANCH  90  94
ATOM     94  S   UNL A   1      48.565  22.291  35.203  1.00  0.00     0.124 S 
ATOM     95  O   UNL A   1      49.264  23.087  34.198  1.00  0.00    -0.237 OA
ATOM     96  O   UNL A   1      48.593  22.822  36.562  1.00  0.00    -0.237 OA
ATOM     97  O   UNL A   1      48.761  20.847  35.097  1.00  0.00    -0.744 OA
ENDBRANCH  90  94
ENDBRANCH  64  87
ENDBRANCH  38  39
ENDBRANCH  30  33
ENDBRANCH  28  29
ENDBRANCH  27  28
ENDBRANCH   1  27
TORSDOF 17
ENDMDL
MODEL 3
REMARK VINA RESULT:     -12.7      4.266     10.238
REMARK SMILES COC(=O)c1ccc(NC(=O)[C@@H]2CC=CC[C@@H]2C(=O)NCCCNC(=O)c2ccc(-c3c4nc(c(-c5cc(S(=O)(=O)[O-])ccc5F)c5ccc([nH]5)c(-c5cc(S(=O)(=O)[O-])ccc5F)c5nc(c(-c6cc(S(=O)(=O)[O-])ccc6F)c6ccc3[nH]6)C=C5)C=C4)cc2)c(C)c1
REMARK SMILES IDX 21 1 20 2 18 3 19 4 17 6 12 7 13 8 14 9 16 10 15 11 10 12
REMARK SMILES IDX 9 13 11 15 8 16 5 17 6 18 92 19 7 20 90 21 91 22 3 23 4 24
REMARK SMILES IDX 2 25 1 26 22 27 23 28 24 29 25 30 26 32 27 33 28 34 89 35
REMARK SMILES IDX 29 36 88 37 30 38 31 39 32 40 82 41 33 42 87 43 81 44 83 45
REMARK SMILES IDX 34 46 86 47 80 48 79 49 35 51 67 52 47 53 66 54 48 55 51 56
REMARK SMILES IDX 65 57 84 58 49 59 50 60 64 62 85 63 52 64 36 65 37 66 45 67
REMARK SMILES IDX 38 68 44 69 46 70 43 71 39 72 40 73 41 74 42 75 68 76 69 77
REMARK SMILES IDX 77 78 70 79 76 80 78 81 75 82 71 83 72 84 73 85 74 86 53 87
REMARK SMILES IDX 54 88 62 89 55 90 61 91 63 92 60 93 56 94 57 95 58 96 59 97
REMARK H PARENT 20 5 9 14 24 31 83 50 51 61
REMARK Flexibility Score: inf
ROOT
ATOM      1  C   UNL A   1      37.590  21.263  25.373  1.00  0.00     0.117 C 
ENDROOT
BRANCH   1   2
ATOM      2  N   UNL A   1      36.668  22.241  25.932  1.00  0.00    -0.356 N 
ATOM      3  C   UNL A   1      35.302  22.272  25.953  1.00  0.00     0.224 C 
ATOM      4  O   UNL A   1      34.757  22.933  26.841  1.00  0.00    -0.275 OA
ATOM      5  H   UNL A   1      37.102  23.009  26.369  1.00  0.00     0.163 HD
BRANCH   3   6
ATOM      6  C   UNL A   1      34.462  21.518  24.912  1.00  0.00     0.095 C 
ATOM      7  C   UNL A   1      34.074  22.292  23.626  1.00  0.00     0.095 C 
ATOM      8  C   UNL A   1      32.599  22.613  23.317  1.00  0.00     0.041 C 
ATOM      9  C   UNL A   1      31.589  22.083  24.277  1.00  0.00    -0.030 C 
ATOM     10  C   UNL A   1      33.280  20.783  25.590  1.00  0.00     0.041 C 
ATOM     11  C   UNL A   1      31.898  21.280  25.299  1.00  0.00    -0.030 C 
BRANCH   7  12
ATOM     12  C   UNL A   1      34.932  23.482  23.248  1.00  0.00     0.228 C 
ATOM     13  N   UNL A   1      34.542  24.770  23.112  1.00  0.00    -0.326 N 
ATOM     14  H   UNL A   1      35.318  25.357  22.962  1.00  0.00     0.169 HD
ATOM     15  O   UNL A   1      36.128  23.267  22.984  1.00  0.00    -0.274 OA
BRANCH  13  16
ATOM     16  C   UNL A   1      33.345  25.516  23.123  1.00  0.00     0.044 A 
ATOM     17  C   UNL A   1      30.990  27.093  23.298  1.00  0.00     0.060 A 
ATOM     18  C   UNL A   1      31.394  26.552  22.083  1.00  0.00     0.018 A 
ATOM     19  C   UNL A   1      31.748  26.824  24.436  1.00  0.00     0.021 A 
ATOM     20  C   UNL A   1      32.552  25.766  22.008  1.00  0.00     0.027 A 
ATOM     21  C   UNL A   1      32.932  26.066  24.355  1.00  0.00    -0.027 A 
ATOM     22  C   UNL A   1      33.698  25.848  25.625  1.00  0.00     0.046 C 
BRANCH  17  23
ATOM     23  C   UNL A   1      29.807  27.998  23.322  1.00  0.00     0.337 C 
ATOM     24  O   UNL A   1      28.656  27.612  23.358  1.00  0.00    -0.246 OA
BRANCH  23  25
ATOM     25  O   UNL A   1      30.188  29.296  23.240  1.00  0.00    -0.465 OA
ATOM     26  C   UNL A   1      29.890  29.897  21.978  1.00  0.00     0.282 C 
ENDBRANCH  23  25
ENDBRANCH  17  23
ENDBRANCH  13  16
ENDBRANCH   7  12
ENDBRANCH   3   6
ENDBRANCH   1   2
BRANCH   1  27
ATOM     27  C   UNL A   1      39.055  21.444  25.762  1.00  0.00     0.042 C 
BRANCH  27  28
ATOM     28  C   UNL A   1      39.372  22.690  26.596  1.00  0.00     0.118 C 
BRANCH  28  29
ATOM     29  N   UNL A   1      40.783  23.070  26.463  1.00  0.00    -0.352 N 
ATOM     30  C   UNL A   1      41.418  24.289  26.558  1.00  0.00     0.251 C 
ATOM     31  H   UNL A   1      41.387  22.317  26.270  1.00  0.00     0.163 HD
ATOM     32  O   UNL A   1      42.635  24.388  26.415  1.00  0.00    -0.269 OA
BRANCH  30  33
ATOM     33  C   UNL A   1      40.648  25.476  26.971  1.00  0.00     0.039 A 
ATOM     34  C   UNL A   1      40.835  26.657  26.240  1.00  0.00     0.014 A 
ATOM     35  C   UNL A   1      39.900  25.482  28.139  1.00  0.00     0.014 A 
ATOM     36  C   UNL A   1      40.507  27.882  26.816  1.00  0.00     0.010 A 
ATOM     37  C   UNL A   1      39.593  26.700  28.716  1.00  0.00     0.010 A 
ATOM     38  C   UNL A   1      39.991  27.896  28.110  1.00  0.00    -0.014 A 
BRANCH  38  39
ATOM     39  C   UNL A   1      40.056  29.068  28.983  1.00  0.00     0.031 A 
ATOM     40  C   UNL A   1      38.974  30.066  29.050  1.00  0.00     0.074 A 
ATOM     41  C   UNL A   1      41.107  29.212  29.820  1.00  0.00     0.049 A 
ATOM     42  N   UNL A   1      39.171  31.317  29.307  1.00  0.00    -0.248 NA
ATOM     43  C   UNL A   1      37.573  29.731  28.840  1.00  0.00     0.031 C 
ATOM     44  C   UNL A   1      41.246  30.163  30.921  1.00  0.00     0.029 A 
ATOM     45  N   UNL A   1      42.377  28.659  29.686  1.00  0.00    -0.354 N 
ATOM     46  C   UNL A   1      37.950  31.875  29.599  1.00  0.00     0.074 A 
ATOM     47  C   UNL A   1      36.980  30.872  29.214  1.00  0.00     0.031 C 
ATOM     48  C   UNL A   1      42.549  30.337  31.185  1.00  0.00     0.029 A 
ATOM     49  C   UNL A   1      43.298  29.594  30.190  1.00  0.00     0.049 A 
ATOM     50  H   UNL A   1      42.591  27.776  29.306  1.00  0.00     0.167 HD
ATOM     51  C   UNL A   1      37.884  33.056  30.278  1.00  0.00     0.034 A 
ATOM     52  C   UNL A   1      44.303  30.087  29.411  1.00  0.00     0.034 A 
ATOM     53  C   UNL A   1      39.209  33.550  30.652  1.00  0.00     0.049 A 
ATOM     54  C   UNL A   1      44.246  31.590  29.234  1.00  0.00     0.074 A 
ATOM     55  C   UNL A   1      39.907  33.544  31.849  1.00  0.00     0.029 A 
ATOM     56  N   UNL A   1      40.117  33.935  29.672  1.00  0.00    -0.354 N 
ATOM     57  N   UNL A   1      43.218  32.323  29.560  1.00  0.00    -0.248 NA
ATOM     58  C   UNL A   1      45.322  32.383  28.650  1.00  0.00     0.031 C 
ATOM     59  C   UNL A   1      41.248  33.911  31.581  1.00  0.00     0.029 A 
ATOM     60  C   UNL A   1      41.365  34.155  30.224  1.00  0.00     0.049 A 
ATOM     61  H   UNL A   1      39.901  34.037  28.717  1.00  0.00     0.167 HD
ATOM     62  C   UNL A   1      43.445  33.633  29.213  1.00  0.00     0.074 A 
ATOM     63  C   UNL A   1      44.792  33.620  28.670  1.00  0.00     0.031 C 
ATOM     64  C   UNL A   1      42.482  34.591  29.396  1.00  0.00     0.034 A 
BRANCH  51  65
ATOM     65  C   UNL A   1      36.613  33.618  30.876  1.00  0.00     0.023 A 
ATOM     66  C   UNL A   1      35.654  34.220  30.032  1.00  0.00     0.031 A 
ATOM     67  C   UNL A   1      36.288  33.602  32.244  1.00  0.00     0.131 A 
ATOM     68  C   UNL A   1      34.516  34.862  30.551  1.00  0.00     0.055 A 
ATOM     69  C   UNL A   1      35.182  34.286  32.769  1.00  0.00     0.041 A 
ATOM     70  F   UNL A   1      36.999  32.884  33.125  1.00  0.00    -0.206 F 
ATOM     71  C   UNL A   1      34.296  34.936  31.922  1.00  0.00     0.022 A 
BRANCH  68  72
ATOM     72  S   UNL A   1      33.323  35.598  29.400  1.00  0.00     0.124 S 
ATOM     73  O   UNL A   1      34.197  36.227  28.414  1.00  0.00    -0.237 OA
ATOM     74  O   UNL A   1      32.569  34.435  28.949  1.00  0.00    -0.237 OA
ATOM     75  O   UNL A   1      32.574  36.530  30.241  1.00  0.00    -0.744 OA
ENDBRANCH  68  72
ENDBRANCH  51  65
BRANCH  52  76
ATOM     76  C   UNL A   1      44.780  29.093  28.404  1.00  0.00     0.023 A 
ATOM     77  C   UNL A   1      45.598  28.044  28.889  1.00  0.00     0.031 A 
ATOM     78  C   UNL A   1      44.127  28.902  27.181  1.00  0.00     0.131 A 
ATOM     79  C   UNL A   1      45.579  26.788  28.267  1.00  0.00     0.055 A 
ATOM     80  C   UNL A   1      44.188  27.671  26.512  1.00  0.00     0.041 A 
ATOM     81  F   UNL A   1      43.311  29.845  26.686  1.00  0.00    -0.206 F 
ATOM     82  C   UNL A   1      44.875  26.593  27.080  1.00  0.00     0.022 A 
BRANCH  79  83
ATOM     83  S   UNL A   1      46.229  25.367  29.201  1.00  0.00     0.124 S 
ATOM     84  O   UNL A   1      46.200  25.858  30.573  1.00  0.00    -0.237 OA
ATOM     85  O   UNL A   1      45.271  24.308  28.881  1.00  0.00    -0.237 OA
ATOM     86  O   UNL A   1      47.561  25.147  28.643  1.00  0.00    -0.744 OA
ENDBRANCH  79  83
ENDBRANCH  52  76
BRANCH  64  87
ATOM     87  C   UNL A   1      42.503  36.031  28.903  1.00  0.00     0.023 A 
ATOM     88  C   UNL A   1      43.169  37.079  29.556  1.00  0.00     0.031 A 
ATOM     89  C   UNL A   1      41.872  36.391  27.681  1.00  0.00     0.131 A 
ATOM     90  C   UNL A   1      43.150  38.394  29.046  1.00  0.00     0.055 A 
ATOM     91  C   UNL A   1      41.908  37.683  27.144  1.00  0.00     0.041 A 
ATOM     92  F   UNL A   1      41.199  35.501  26.938  1.00  0.00    -0.206 F 
ATOM     93  C   UNL A   1      42.541  38.701  27.834  1.00  0.00     0.022 A 
BRANCH  90  94
ATOM     94  S   UNL A   1      43.904  39.712  30.038  1.00  0.00     0.124 S 
ATOM     95  O   UNL A   1      45.045  39.025  30.636  1.00  0.00    -0.237 OA
ATOM     96  O   UNL A   1      44.227  40.714  29.028  1.00  0.00    -0.237 OA
ATOM     97  O   UNL A   1      42.847  40.091  30.973  1.00  0.00    -0.744 OA
ENDBRANCH  90  94
ENDBRANCH  64  87
ENDBRANCH  38  39
ENDBRANCH  30  33
ENDBRANCH  28  29
ENDBRANCH  27  28
ENDBRANCH   1  27
TORSDOF 17
ENDMDL
