MODEL 1
REMARK VINA RESULT:     -10.9      0.000      0.000
REMARK SMILES O=C(CCCCc1nc(C[C@H]2CCCO2)no1)NCCCNC(=O)c1ccc(-c2c3nc(c(-c4cc(S(=O)(=O)[O-])ccc4F)c4ccc([nH]4)c(-c4cc(S(=O)(=O)[O-])ccc4F)c4nc(c(-c5cc(S(=O)(=O)[O-])ccc5F)c5ccc2[nH]5)C=C4)C=C3)cc1
REMARK SMILES IDX 1 1 2 2 18 3 3 5 4 6 5 7 6 8 7 9 8 10 17 11 9 12 16 13 10 14
REMARK SMILES IDX 11 15 12 16 15 17 13 18 14 19 19 20 20 21 21 22 22 23 23 24
REMARK SMILES IDX 24 26 25 27 26 28 87 29 27 30 86 31 28 32 29 33 30 34 80 35
REMARK SMILES IDX 31 36 85 37 79 38 81 39 32 40 84 41 78 42 77 43 33 45 65 46
REMARK SMILES IDX 45 47 64 48 46 49 49 50 63 51 82 52 47 53 48 54 62 56 83 57
REMARK SMILES IDX 50 58 34 59 35 60 43 61 36 62 42 63 44 64 41 65 37 66 38 67
REMARK SMILES IDX 39 68 40 69 66 70 67 71 75 72 68 73 74 74 76 75 73 76 69 77
REMARK SMILES IDX 70 78 71 79 72 80 51 81 52 82 60 83 53 84 59 85 61 86 58 87
REMARK SMILES IDX 54 88 55 89 56 90 57 91
REMARK H PARENT 18 4 22 25 81 44 49 55
REMARK Flexibility Score: inf
ROOT
ATOM      1  O   UNL A   1      31.305  24.668  27.200  1.00  0.00    -0.275 OA
ATOM      2  C   UNL A   1      32.083  25.060  26.335  1.00  0.00     0.219 C 
ATOM      3  N   UNL A   1      32.406  26.380  26.133  1.00  0.00    -0.356 N 
ATOM      4  H   UNL A   1      33.089  26.597  25.458  1.00  0.00     0.163 HD
ENDROOT
BRANCH   2   5
ATOM      5  C   UNL A   1      32.757  24.111  25.366  1.00  0.00     0.100 C 
BRANCH   5   6
ATOM      6  C   UNL A   1      33.932  24.767  24.636  1.00  0.00     0.010 C 
BRANCH   6   7
ATOM      7  C   UNL A   1      33.689  25.171  23.172  1.00  0.00     0.010 C 
BRANCH   7   8
ATOM      8  C   UNL A   1      32.277  24.918  22.634  1.00  0.00     0.100 C 
BRANCH   8   9
ATOM      9  C   UNL A   1      31.420  26.119  22.718  1.00  0.00     0.226 A 
ATOM     10  N   UNL A   1      31.533  27.273  22.102  1.00  0.00    -0.196 NA
ATOM     11  O   UNL A   1      30.334  26.042  23.539  1.00  0.00    -0.339 OA
ATOM     12  C   UNL A   1      30.457  27.964  22.595  1.00  0.00     0.174 A 
ATOM     13  N   UNL A   1      29.697  27.279  23.462  1.00  0.00    -0.062 NA
BRANCH  12  14
ATOM     14  C   UNL A   1      30.177  29.373  22.238  1.00  0.00     0.113 C 
BRANCH  14  15
ATOM     15  C   UNL A   1      28.725  29.800  22.489  1.00  0.00     0.126 C 
ATOM     16  C   UNL A   1      28.547  31.007  23.402  1.00  0.00     0.035 C 
ATOM     17  O   UNL A   1      28.156  30.205  21.222  1.00  0.00    -0.378 OA
ATOM     18  C   UNL A   1      28.700  32.164  22.449  1.00  0.00     0.031 C 
ATOM     19  C   UNL A   1      28.017  31.635  21.208  1.00  0.00     0.160 C 
ENDBRANCH  14  15
ENDBRANCH  12  14
ENDBRANCH   8   9
ENDBRANCH   7   8
ENDBRANCH   6   7
ENDBRANCH   5   6
ENDBRANCH   2   5
BRANCH   3  20
ATOM     20  C   UNL A   1      31.789  27.464  26.867  1.00  0.00     0.117 C 
BRANCH  20  21
ATOM     21  C   UNL A   1      31.495  28.669  25.982  1.00  0.00     0.042 C 
BRANCH  21  22
ATOM     22  C   UNL A   1      32.678  29.605  25.744  1.00  0.00     0.118 C 
BRANCH  22  23
ATOM     23  N   UNL A   1      32.434  30.970  26.178  1.00  0.00    -0.352 N 
ATOM     24  C   UNL A   1      33.122  31.741  27.086  1.00  0.00     0.251 C 
ATOM     25  H   UNL A   1      31.659  31.410  25.759  1.00  0.00     0.163 HD
ATOM     26  O   UNL A   1      32.655  32.835  27.407  1.00  0.00    -0.269 OA
BRANCH  24  27
ATOM     27  C   UNL A   1      34.383  31.263  27.700  1.00  0.00     0.039 A 
ATOM     28  C   UNL A   1      35.392  32.195  27.961  1.00  0.00     0.014 A 
ATOM     29  C   UNL A   1      34.596  29.914  28.002  1.00  0.00     0.014 A 
ATOM     30  C   UNL A   1      36.580  31.787  28.575  1.00  0.00     0.010 A 
ATOM     31  C   UNL A   1      35.748  29.523  28.687  1.00  0.00     0.010 A 
ATOM     32  C   UNL A   1      36.758  30.453  28.979  1.00  0.00    -0.014 A 
BRANCH  32  33
ATOM     33  C   UNL A   1      37.989  30.040  29.710  1.00  0.00     0.031 A 
ATOM     34  C   UNL A   1      38.261  30.537  31.105  1.00  0.00     0.074 A 
ATOM     35  C   UNL A   1      38.879  29.227  29.103  1.00  0.00     0.049 A 
ATOM     36  N   UNL A   1      39.269  30.270  31.898  1.00  0.00    -0.248 NA
ATOM     37  C   UNL A   1      37.287  31.478  31.675  1.00  0.00     0.031 C 
ATOM     38  C   UNL A   1      38.760  28.721  27.733  1.00  0.00     0.029 A 
ATOM     39  N   UNL A   1      40.054  28.681  29.555  1.00  0.00    -0.354 N 
ATOM     40  C   UNL A   1      39.052  31.009  33.056  1.00  0.00     0.074 A 
ATOM     41  C   UNL A   1      37.854  31.789  32.832  1.00  0.00     0.031 C 
ATOM     42  C   UNL A   1      39.793  27.904  27.475  1.00  0.00     0.029 A 
ATOM     43  C   UNL A   1      40.673  27.861  28.638  1.00  0.00     0.049 A 
ATOM     44  H   UNL A   1      40.421  28.858  30.451  1.00  0.00     0.167 HD
ATOM     45  C   UNL A   1      39.769  31.017  34.209  1.00  0.00     0.034 A 
ATOM     46  C   UNL A   1      41.819  27.156  28.720  1.00  0.00     0.034 A 
ATOM     47  C   UNL A   1      40.962  30.231  34.421  1.00  0.00     0.049 A 
ATOM     48  C   UNL A   1      42.605  27.192  30.006  1.00  0.00     0.074 A 
ATOM     49  C   UNL A   1      41.735  30.127  35.565  1.00  0.00     0.029 A 
ATOM     50  N   UNL A   1      41.564  29.419  33.467  1.00  0.00    -0.354 N 
ATOM     51  N   UNL A   1      42.350  27.848  31.115  1.00  0.00    -0.248 NA
ATOM     52  C   UNL A   1      43.824  26.375  30.056  1.00  0.00     0.031 C 
ATOM     53  C   UNL A   1      42.840  29.317  35.281  1.00  0.00     0.029 A 
ATOM     54  C   UNL A   1      42.714  28.840  33.986  1.00  0.00     0.049 A 
ATOM     55  H   UNL A   1      41.224  29.276  32.554  1.00  0.00     0.167 HD
ATOM     56  C   UNL A   1      43.362  27.495  32.005  1.00  0.00     0.074 A 
ATOM     57  C   UNL A   1      44.211  26.550  31.311  1.00  0.00     0.031 C 
ATOM     58  C   UNL A   1      43.569  27.912  33.282  1.00  0.00     0.034 A 
BRANCH  45  59
ATOM     59  C   UNL A   1      39.290  31.925  35.320  1.00  0.00     0.023 A 
ATOM     60  C   UNL A   1      39.814  33.220  35.494  1.00  0.00     0.031 A 
ATOM     61  C   UNL A   1      38.310  31.489  36.229  1.00  0.00     0.131 A 
ATOM     62  C   UNL A   1      39.415  33.997  36.592  1.00  0.00     0.055 A 
ATOM     63  C   UNL A   1      37.853  32.302  37.269  1.00  0.00     0.041 A 
ATOM     64  F   UNL A   1      37.786  30.257  36.131  1.00  0.00    -0.206 F 
ATOM     65  C   UNL A   1      38.418  33.558  37.465  1.00  0.00     0.022 A 
BRANCH  62  66
ATOM     66  S   UNL A   1      40.327  35.524  36.949  1.00  0.00     0.124 S 
ATOM     67  O   UNL A   1      39.667  36.477  36.058  1.00  0.00    -0.237 OA
ATOM     68  O   UNL A   1      40.086  35.710  38.375  1.00  0.00    -0.237 OA
ATOM     69  O   UNL A   1      41.703  35.194  36.586  1.00  0.00    -0.744 OA
ENDBRANCH  62  66
ENDBRANCH  45  59
BRANCH  46  70
ATOM     70  C   UNL A   1      42.299  26.350  27.559  1.00  0.00     0.023 A 
ATOM     71  C   UNL A   1      41.973  24.991  27.433  1.00  0.00     0.031 A 
ATOM     72  C   UNL A   1      43.135  26.919  26.581  1.00  0.00     0.131 A 
ATOM     73  C   UNL A   1      42.521  24.231  26.387  1.00  0.00     0.055 A 
ATOM     74  C   UNL A   1      43.629  26.175  25.508  1.00  0.00     0.041 A 
ATOM     75  F   UNL A   1      43.475  28.216  26.649  1.00  0.00    -0.206 F 
ATOM     76  C   UNL A   1      43.335  24.818  25.416  1.00  0.00     0.022 A 
BRANCH  73  77
ATOM     77  S   UNL A   1      42.231  22.440  26.369  1.00  0.00     0.124 S 
ATOM     78  O   UNL A   1      43.139  21.982  27.413  1.00  0.00    -0.237 OA
ATOM     79  O   UNL A   1      40.807  22.362  26.676  1.00  0.00    -0.237 OA
ATOM     80  O   UNL A   1      42.595  22.052  25.009  1.00  0.00    -0.744 OA
ENDBRANCH  73  77
ENDBRANCH  46  70
BRANCH  58  81
ATOM     81  C   UNL A   1      44.743  27.307  34.017  1.00  0.00     0.023 A 
ATOM     82  C   UNL A   1      44.615  26.131  34.779  1.00  0.00     0.031 A 
ATOM     83  C   UNL A   1      45.999  27.941  33.992  1.00  0.00     0.131 A 
ATOM     84  C   UNL A   1      45.696  25.674  35.547  1.00  0.00     0.055 A 
ATOM     85  C   UNL A   1      47.092  27.438  34.698  1.00  0.00     0.041 A 
ATOM     86  F   UNL A   1      46.182  29.067  33.285  1.00  0.00    -0.206 F 
ATOM     87  C   UNL A   1      46.940  26.309  35.498  1.00  0.00     0.022 A 
BRANCH  84  88
ATOM     88  S   UNL A   1      45.417  24.317  36.719  1.00  0.00     0.124 S 
ATOM     89  O   UNL A   1      44.537  23.435  35.957  1.00  0.00    -0.237 OA
ATOM     90  O   UNL A   1      46.771  23.822  36.949  1.00  0.00    -0.237 OA
ATOM     91  O   UNL A   1      44.795  24.976  37.865  1.00  0.00    -0.744 OA
ENDBRANCH  84  88
ENDBRANCH  58  81
ENDBRANCH  32  33
ENDBRANCH  24  27
ENDBRANCH  22  23
ENDBRANCH  21  22
ENDBRANCH  20  21
ENDBRANCH   3  20
TORSDOF 19
ENDMDL
MODEL 2
REMARK VINA RESULT:     -10.7      5.031      7.249
REMARK SMILES O=C(CCCCc1nc(C[C@H]2CCCO2)no1)NCCCNC(=O)c1ccc(-c2c3nc(c(-c4cc(S(=O)(=O)[O-])ccc4F)c4ccc([nH]4)c(-c4cc(S(=O)(=O)[O-])ccc4F)c4nc(c(-c5cc(S(=O)(=O)[O-])ccc5F)c5ccc2[nH]5)C=C4)C=C3)cc1
REMARK SMILES IDX 1 1 2 2 18 3 3 5 4 6 5 7 6 8 7 9 8 10 17 11 9 12 16 13 10 14
REMARK SMILES IDX 11 15 12 16 15 17 13 18 14 19 19 20 20 21 21 22 22 23 23 24
REMARK SMILES IDX 24 26 25 27 26 28 87 29 27 30 86 31 28 32 29 33 30 34 80 35
REMARK SMILES IDX 31 36 85 37 79 38 81 39 32 40 84 41 78 42 77 43 33 45 65 46
REMARK SMILES IDX 45 47 64 48 46 49 49 50 63 51 82 52 47 53 48 54 62 56 83 57
REMARK SMILES IDX 50 58 34 59 35 60 43 61 36 62 42 63 44 64 41 65 37 66 38 67
REMARK SMILES IDX 39 68 40 69 66 70 67 71 75 72 68 73 74 74 76 75 73 76 69 77
REMARK SMILES IDX 70 78 71 79 72 80 51 81 52 82 60 83 53 84 59 85 61 86 58 87
REMARK SMILES IDX 54 88 55 89 56 90 57 91
REMARK H PARENT 18 4 22 25 81 44 49 55
REMARK Flexibility Score: inf
ROOT
ATOM      1  O   UNL A   1      33.624  24.868  22.063  1.00  0.00    -0.275 OA
ATOM      2  C   UNL A   1      33.833  25.057  23.258  1.00  0.00     0.219 C 
ATOM      3  N   UNL A   1      34.247  24.080  24.131  1.00  0.00    -0.356 N 
ATOM      4  H   UNL A   1      34.452  24.336  25.059  1.00  0.00     0.163 HD
ENDROOT
BRANCH   2   5
ATOM      5  C   UNL A   1      33.623  26.409  23.910  1.00  0.00     0.100 C 
BRANCH   5   6
ATOM      6  C   UNL A   1      33.231  26.286  25.385  1.00  0.00     0.010 C 
BRANCH   6   7
ATOM      7  C   UNL A   1      31.741  26.471  25.715  1.00  0.00     0.010 C 
BRANCH   7   8
ATOM      8  C   UNL A   1      30.754  25.876  24.705  1.00  0.00     0.100 C 
BRANCH   8   9
ATOM      9  C   UNL A   1      30.030  26.917  23.946  1.00  0.00     0.226 A 
ATOM     10  N   UNL A   1      30.498  27.962  23.302  1.00  0.00    -0.196 NA
ATOM     11  O   UNL A   1      28.673  26.793  23.874  1.00  0.00    -0.339 OA
ATOM     12  C   UNL A   1      29.349  28.535  22.820  1.00  0.00     0.174 A 
ATOM     13  N   UNL A   1      28.221  27.881  23.129  1.00  0.00    -0.062 NA
BRANCH  12  14
ATOM     14  C   UNL A   1      29.346  29.803  22.057  1.00  0.00     0.113 C 
BRANCH  14  15
ATOM     15  C   UNL A   1      27.992  30.523  22.057  1.00  0.00     0.126 C 
ATOM     16  C   UNL A   1      27.800  31.557  23.160  1.00  0.00     0.035 C 
ATOM     17  O   UNL A   1      27.888  31.272  20.823  1.00  0.00    -0.378 OA
ATOM     18  C   UNL A   1      28.431  32.789  22.567  1.00  0.00     0.031 C 
ATOM     19  C   UNL A   1      28.035  32.672  21.112  1.00  0.00     0.160 C 
ENDBRANCH  14  15
ENDBRANCH  12  14
ENDBRANCH   8   9
ENDBRANCH   7   8
ENDBRANCH   6   7
ENDBRANCH   5   6
ENDBRANCH   2   5
BRANCH   3  20
ATOM     20  C   UNL A   1      34.396  22.692  23.747  1.00  0.00     0.117 C 
BRANCH  20  21
ATOM     21  C   UNL A   1      35.816  22.182  23.957  1.00  0.00     0.042 C 
BRANCH  21  22
ATOM     22  C   UNL A   1      36.152  21.762  25.386  1.00  0.00     0.118 C 
BRANCH  22  23
ATOM     23  N   UNL A   1      37.172  20.730  25.464  1.00  0.00    -0.352 N 
ATOM     24  C   UNL A   1      38.514  20.838  25.742  1.00  0.00     0.251 C 
ATOM     25  H   UNL A   1      36.854  19.814  25.291  1.00  0.00     0.163 HD
ATOM     26  O   UNL A   1      39.226  19.841  25.618  1.00  0.00    -0.269 OA
BRANCH  24  27
ATOM     27  C   UNL A   1      39.113  22.132  26.149  1.00  0.00     0.039 A 
ATOM     28  C   UNL A   1      40.278  22.112  26.921  1.00  0.00     0.014 A 
ATOM     29  C   UNL A   1      38.534  23.357  25.804  1.00  0.00     0.014 A 
ATOM     30  C   UNL A   1      40.892  23.313  27.291  1.00  0.00     0.010 A 
ATOM     31  C   UNL A   1      39.192  24.552  26.107  1.00  0.00     0.010 A 
ATOM     32  C   UNL A   1      40.377  24.546  26.857  1.00  0.00    -0.014 A 
BRANCH  32  33
ATOM     33  C   UNL A   1      41.082  25.818  27.181  1.00  0.00     0.031 A 
ATOM     34  C   UNL A   1      40.423  26.870  28.033  1.00  0.00     0.074 A 
ATOM     35  C   UNL A   1      42.318  26.036  26.684  1.00  0.00     0.049 A 
ATOM     36  N   UNL A   1      40.891  28.028  28.430  1.00  0.00    -0.248 NA
ATOM     37  C   UNL A   1      39.048  26.598  28.477  1.00  0.00     0.031 C 
ATOM     38  C   UNL A   1      43.044  25.121  25.801  1.00  0.00     0.029 A 
ATOM     39  N   UNL A   1      43.184  27.088  26.852  1.00  0.00    -0.354 N 
ATOM     40  C   UNL A   1      39.870  28.622  29.166  1.00  0.00     0.074 A 
ATOM     41  C   UNL A   1      38.735  27.726  29.098  1.00  0.00     0.031 C 
ATOM     42  C   UNL A   1      44.259  25.629  25.542  1.00  0.00     0.029 A 
ATOM     43  C   UNL A   1      44.386  26.926  26.201  1.00  0.00     0.049 A 
ATOM     44  H   UNL A   1      42.966  27.884  27.388  1.00  0.00     0.167 HD
ATOM     45  C   UNL A   1      39.886  29.792  29.855  1.00  0.00     0.034 A 
ATOM     46  C   UNL A   1      45.469  27.727  26.138  1.00  0.00     0.034 A 
ATOM     47  C   UNL A   1      41.027  30.675  29.915  1.00  0.00     0.049 A 
ATOM     48  C   UNL A   1      45.456  29.027  26.901  1.00  0.00     0.074 A 
ATOM     49  C   UNL A   1      41.165  31.857  30.623  1.00  0.00     0.029 A 
ATOM     50  N   UNL A   1      42.224  30.482  29.237  1.00  0.00    -0.354 N 
ATOM     51  N   UNL A   1      44.504  29.543  27.645  1.00  0.00    -0.248 NA
ATOM     52  C   UNL A   1      46.674  29.844  26.831  1.00  0.00     0.031 C 
ATOM     53  C   UNL A   1      42.411  32.414  30.314  1.00  0.00     0.029 A 
ATOM     54  C   UNL A   1      43.091  31.538  29.483  1.00  0.00     0.049 A 
ATOM     55  H   UNL A   1      42.428  29.708  28.664  1.00  0.00     0.167 HD
ATOM     56  C   UNL A   1      45.024  30.730  28.156  1.00  0.00     0.074 A 
ATOM     57  C   UNL A   1      46.379  30.835  27.657  1.00  0.00     0.031 C 
ATOM     58  C   UNL A   1      44.436  31.648  28.967  1.00  0.00     0.034 A 
BRANCH  45  59
ATOM     59  C   UNL A   1      38.618  30.190  30.578  1.00  0.00     0.023 A 
ATOM     60  C   UNL A   1      37.591  30.903  29.932  1.00  0.00     0.031 A 
ATOM     61  C   UNL A   1      38.437  29.869  31.935  1.00  0.00     0.131 A 
ATOM     62  C   UNL A   1      36.473  31.338  30.660  1.00  0.00     0.055 A 
ATOM     63  C   UNL A   1      37.281  30.229  32.632  1.00  0.00     0.041 A 
ATOM     64  F   UNL A   1      39.388  29.208  32.615  1.00  0.00    -0.206 F 
ATOM     65  C   UNL A   1      36.298  30.983  31.998  1.00  0.00     0.022 A 
BRANCH  62  66
ATOM     66  S   UNL A   1      35.328  32.503  29.872  1.00  0.00     0.124 S 
ATOM     67  O   UNL A   1      34.377  32.759  30.953  1.00  0.00    -0.237 OA
ATOM     68  O   UNL A   1      36.203  33.614  29.515  1.00  0.00    -0.237 OA
ATOM     69  O   UNL A   1      34.788  31.746  28.745  1.00  0.00    -0.744 OA
ENDBRANCH  62  66
ENDBRANCH  45  59
BRANCH  46  70
ATOM     70  C   UNL A   1      46.659  27.331  25.330  1.00  0.00     0.023 A 
ATOM     71  C   UNL A   1      46.870  27.853  24.044  1.00  0.00     0.031 A 
ATOM     72  C   UNL A   1      47.578  26.382  25.814  1.00  0.00     0.131 A 
ATOM     73  C   UNL A   1      47.941  27.386  23.265  1.00  0.00     0.055 A 
ATOM     74  C   UNL A   1      48.676  25.965  25.059  1.00  0.00     0.041 A 
ATOM     75  F   UNL A   1      47.427  25.853  27.039  1.00  0.00    -0.206 F 
ATOM     76  C   UNL A   1      48.853  26.457  23.769  1.00  0.00     0.022 A 
BRANCH  73  77
ATOM     77  S   UNL A   1      48.068  27.941  21.542  1.00  0.00     0.124 S 
ATOM     78  O   UNL A   1      49.194  28.865  21.610  1.00  0.00    -0.237 OA
ATOM     79  O   UNL A   1      48.309  26.686  20.838  1.00  0.00    -0.237 OA
ATOM     80  O   UNL A   1      46.768  28.556  21.287  1.00  0.00    -0.744 OA
ENDBRANCH  73  77
ENDBRANCH  46  70
BRANCH  58  81
ATOM     81  C   UNL A   1      45.282  32.825  29.394  1.00  0.00     0.023 A 
ATOM     82  C   UNL A   1      45.316  34.021  28.654  1.00  0.00     0.031 A 
ATOM     83  C   UNL A   1      46.102  32.733  30.534  1.00  0.00     0.131 A 
ATOM     84  C   UNL A   1      46.210  35.041  29.013  1.00  0.00     0.055 A 
ATOM     85  C   UNL A   1      46.933  33.783  30.929  1.00  0.00     0.041 A 
ATOM     86  F   UNL A   1      46.115  31.617  31.279  1.00  0.00    -0.206 F 
ATOM     87  C   UNL A   1      47.006  34.938  30.157  1.00  0.00     0.022 A 
BRANCH  84  88
ATOM     88  S   UNL A   1      46.418  36.450  27.888  1.00  0.00     0.124 S 
ATOM     89  O   UNL A   1      47.753  36.925  28.243  1.00  0.00    -0.237 OA
ATOM     90  O   UNL A   1      46.293  35.822  26.577  1.00  0.00    -0.237 OA
ATOM     91  O   UNL A   1      45.324  37.347  28.254  1.00  0.00    -0.744 OA
ENDBRANCH  84  88
ENDBRANCH  58  81
ENDBRANCH  32  33
ENDBRANCH  24  27
ENDBRANCH  22  23
ENDBRANCH  21  22
ENDBRANCH  20  21
ENDBRANCH   3  20
TORSDOF 19
ENDMDL
MODEL 3
REMARK VINA RESULT:     -10.6      4.699      9.906
REMARK SMILES O=C(CCCCc1nc(C[C@H]2CCCO2)no1)NCCCNC(=O)c1ccc(-c2c3nc(c(-c4cc(S(=O)(=O)[O-])ccc4F)c4ccc([nH]4)c(-c4cc(S(=O)(=O)[O-])ccc4F)c4nc(c(-c5cc(S(=O)(=O)[O-])ccc5F)c5ccc2[nH]5)C=C4)C=C3)cc1
REMARK SMILES IDX 1 1 2 2 18 3 3 5 4 6 5 7 6 8 7 9 8 10 17 11 9 12 16 13 10 14
REMARK SMILES IDX 11 15 12 16 15 17 13 18 14 19 19 20 20 21 21 22 22 23 23 24
REMARK SMILES IDX 24 26 25 27 26 28 87 29 27 30 86 31 28 32 29 33 30 34 80 35
REMARK SMILES IDX 31 36 85 37 79 38 81 39 32 40 84 41 78 42 77 43 33 45 65 46
REMARK SMILES IDX 45 47 64 48 46 49 49 50 63 51 82 52 47 53 48 54 62 56 83 57
REMARK SMILES IDX 50 58 34 59 35 60 43 61 36 62 42 63 44 64 41 65 37 66 38 67
REMARK SMILES IDX 39 68 40 69 66 70 67 71 75 72 68 73 74 74 76 75 73 76 69 77
REMARK SMILES IDX 70 78 71 79 72 80 51 81 52 82 60 83 53 84 59 85 61 86 58 87
REMARK SMILES IDX 54 88 55 89 56 90 57 91
REMARK H PARENT 18 4 22 25 81 44 49 55
REMARK Flexibility Score: inf
ROOT
ATOM      1  O   UNL A   1      33.991  25.102  22.239  1.00  0.00    -0.275 OA
ATOM      2  C   UNL A   1      33.866  25.103  23.461  1.00  0.00     0.219 C 
ATOM      3  N   UNL A   1      34.554  24.267  24.305  1.00  0.00    -0.356 N 
ATOM      4  H   UNL A   1      34.438  24.381  25.276  1.00  0.00     0.163 HD
ENDROOT
BRANCH   2   5
ATOM      5  C   UNL A   1      32.898  26.027  24.172  1.00  0.00     0.100 C 
BRANCH   5   6
ATOM      6  C   UNL A   1      32.519  25.509  25.562  1.00  0.00     0.010 C 
BRANCH   6   7
ATOM      7  C   UNL A   1      31.038  25.159  25.781  1.00  0.00     0.010 C 
BRANCH   7   8
ATOM      8  C   UNL A   1      30.751  23.723  26.232  1.00  0.00     0.100 C 
BRANCH   8   9
ATOM      9  C   UNL A   1      31.406  22.720  25.367  1.00  0.00     0.226 A 
ATOM     10  N   UNL A   1      32.015  21.603  25.693  1.00  0.00    -0.196 NA
ATOM     11  O   UNL A   1      31.378  22.955  24.024  1.00  0.00    -0.339 OA
ATOM     12  C   UNL A   1      32.411  21.129  24.469  1.00  0.00     0.174 A 
ATOM     13  N   UNL A   1      32.057  21.895  23.427  1.00  0.00    -0.062 NA
BRANCH  12  14
ATOM     14  C   UNL A   1      33.206  19.891  24.308  1.00  0.00     0.113 C 
BRANCH  14  15
ATOM     15  C   UNL A   1      32.367  18.655  23.963  1.00  0.00     0.126 C 
ATOM     16  C   UNL A   1      33.048  17.633  23.061  1.00  0.00     0.035 C 
ATOM     17  O   UNL A   1      32.098  17.944  25.195  1.00  0.00    -0.378 OA
ATOM     18  C   UNL A   1      33.832  16.801  24.043  1.00  0.00     0.031 C 
ATOM     19  C   UNL A   1      32.889  16.745  25.224  1.00  0.00     0.160 C 
ENDBRANCH  14  15
ENDBRANCH  12  14
ENDBRANCH   8   9
ENDBRANCH   7   8
ENDBRANCH   6   7
ENDBRANCH   5   6
ENDBRANCH   2   5
BRANCH   3  20
ATOM     20  C   UNL A   1      35.440  23.225  23.831  1.00  0.00     0.117 C 
BRANCH  20  21
ATOM     21  C   UNL A   1      36.878  23.433  24.294  1.00  0.00     0.042 C 
BRANCH  21  22
ATOM     22  C   UNL A   1      37.135  23.138  25.770  1.00  0.00     0.118 C 
BRANCH  22  23
ATOM     23  N   UNL A   1      38.145  22.117  25.990  1.00  0.00    -0.352 N 
ATOM     24  C   UNL A   1      39.438  22.241  26.441  1.00  0.00     0.251 C 
ATOM     25  H   UNL A   1      37.860  21.197  25.786  1.00  0.00     0.163 HD
ATOM     26  O   UNL A   1      40.169  21.249  26.421  1.00  0.00    -0.269 OA
BRANCH  24  27
ATOM     27  C   UNL A   1      39.967  23.543  26.910  1.00  0.00     0.039 A 
ATOM     28  C   UNL A   1      39.930  24.632  26.035  1.00  0.00     0.014 A 
ATOM     29  C   UNL A   1      40.518  23.703  28.186  1.00  0.00     0.014 A 
ATOM     30  C   UNL A   1      40.385  25.885  26.457  1.00  0.00     0.010 A 
ATOM     31  C   UNL A   1      40.898  24.971  28.631  1.00  0.00     0.010 A 
ATOM     32  C   UNL A   1      40.840  26.078  27.771  1.00  0.00    -0.014 A 
BRANCH  32  33
ATOM     33  C   UNL A   1      41.243  27.433  28.243  1.00  0.00     0.031 A 
ATOM     34  C   UNL A   1      42.689  27.855  28.233  1.00  0.00     0.074 A 
ATOM     35  C   UNL A   1      40.301  28.281  28.706  1.00  0.00     0.049 A 
ATOM     36  N   UNL A   1      43.220  28.998  28.590  1.00  0.00    -0.248 NA
ATOM     37  C   UNL A   1      43.668  26.854  27.787  1.00  0.00     0.031 C 
ATOM     38  C   UNL A   1      38.873  27.973  28.821  1.00  0.00     0.029 A 
ATOM     39  N   UNL A   1      40.396  29.573  29.162  1.00  0.00    -0.354 N 
ATOM     40  C   UNL A   1      44.592  28.854  28.415  1.00  0.00     0.074 A 
ATOM     41  C   UNL A   1      44.814  27.489  27.988  1.00  0.00     0.031 C 
ATOM     42  C   UNL A   1      38.223  29.058  29.270  1.00  0.00     0.029 A 
ATOM     43  C   UNL A   1      39.187  30.125  29.520  1.00  0.00     0.049 A 
ATOM     44  H   UNL A   1      41.249  30.059  29.226  1.00  0.00     0.167 HD
ATOM     45  C   UNL A   1      45.574  29.779  28.570  1.00  0.00     0.034 A 
ATOM     46  C   UNL A   1      38.885  31.349  29.996  1.00  0.00     0.034 A 
ATOM     47  C   UNL A   1      45.338  31.139  28.994  1.00  0.00     0.049 A 
ATOM     48  C   UNL A   1      39.994  32.355  30.172  1.00  0.00     0.074 A 
ATOM     49  C   UNL A   1      46.252  32.169  29.135  1.00  0.00     0.029 A 
ATOM     50  N   UNL A   1      44.102  31.660  29.356  1.00  0.00    -0.354 N 
ATOM     51  N   UNL A   1      41.280  32.220  29.940  1.00  0.00    -0.248 NA
ATOM     52  C   UNL A   1      39.606  33.686  30.657  1.00  0.00     0.031 C 
ATOM     53  C   UNL A   1      45.585  33.285  29.653  1.00  0.00     0.029 A 
ATOM     54  C   UNL A   1      44.236  32.984  29.751  1.00  0.00     0.049 A 
ATOM     55  H   UNL A   1      43.253  31.162  29.336  1.00  0.00     0.167 HD
ATOM     56  C   UNL A   1      41.848  33.461  30.221  1.00  0.00     0.074 A 
ATOM     57  C   UNL A   1      40.760  34.333  30.612  1.00  0.00     0.031 C 
ATOM     58  C   UNL A   1      43.149  33.845  30.159  1.00  0.00     0.034 A 
BRANCH  45  59
ATOM     59  C   UNL A   1      46.995  29.338  28.299  1.00  0.00     0.023 A 
ATOM     60  C   UNL A   1      47.837  28.882  29.331  1.00  0.00     0.031 A 
ATOM     61  C   UNL A   1      47.526  29.388  26.998  1.00  0.00     0.131 A 
ATOM     62  C   UNL A   1      49.178  28.571  29.059  1.00  0.00     0.055 A 
ATOM     63  C   UNL A   1      48.836  28.994  26.719  1.00  0.00     0.041 A 
ATOM     64  F   UNL A   1      46.781  29.833  25.973  1.00  0.00    -0.206 F 
ATOM     65  C   UNL A   1      49.676  28.598  27.755  1.00  0.00     0.022 A 
BRANCH  62  66
ATOM     66  S   UNL A   1      50.300  28.281  30.454  1.00  0.00     0.124 S 
ATOM     67  O   UNL A   1      50.412  26.823  30.444  1.00  0.00    -0.237 OA
ATOM     68  O   UNL A   1      51.495  29.016  30.057  1.00  0.00    -0.237 OA
ATOM     69  O   UNL A   1      49.577  28.834  31.597  1.00  0.00    -0.744 OA
ENDBRANCH  62  66
ENDBRANCH  45  59
BRANCH  46  70
ATOM     70  C   UNL A   1      37.476  31.703  30.339  1.00  0.00     0.023 A 
ATOM     71  C   UNL A   1      36.569  32.114  29.350  1.00  0.00     0.031 A 
ATOM     72  C   UNL A   1      37.031  31.684  31.673  1.00  0.00     0.131 A 
ATOM     73  C   UNL A   1      35.281  32.540  29.713  1.00  0.00     0.055 A 
ATOM     74  C   UNL A   1      35.730  32.051  32.023  1.00  0.00     0.041 A 
ATOM     75  F   UNL A   1      37.855  31.295  32.659  1.00  0.00    -0.206 F 
ATOM     76  C   UNL A   1      34.851  32.497  31.041  1.00  0.00     0.022 A 
BRANCH  73  77
ATOM     77  S   UNL A   1      34.206  33.244  28.432  1.00  0.00     0.124 S 
ATOM     78  O   UNL A   1      33.273  34.032  29.228  1.00  0.00    -0.237 OA
ATOM     79  O   UNL A   1      35.155  33.998  27.622  1.00  0.00    -0.237 OA
ATOM     80  O   UNL A   1      33.635  32.066  27.784  1.00  0.00    -0.744 OA
ENDBRANCH  73  77
ENDBRANCH  46  70
BRANCH  58  81
ATOM     81  C   UNL A   1      43.452  35.290  30.484  1.00  0.00     0.023 A 
ATOM     82  C   UNL A   1      43.645  35.727  31.807  1.00  0.00     0.031 A 
ATOM     83  C   UNL A   1      43.504  36.252  29.459  1.00  0.00     0.131 A 
ATOM     84  C   UNL A   1      43.797  37.096  32.077  1.00  0.00     0.055 A 
ATOM     85  C   UNL A   1      43.733  37.603  29.728  1.00  0.00     0.041 A 
ATOM     86  F   UNL A   1      43.326  35.896  28.177  1.00  0.00    -0.206 F 
ATOM     87  C   UNL A   1      43.861  38.035  31.044  1.00  0.00     0.022 A 
BRANCH  84  88
ATOM     88  S   UNL A   1      43.774  37.650  33.805  1.00  0.00     0.124 S 
ATOM     89  O   UNL A   1      42.917  38.829  33.733  1.00  0.00    -0.237 OA
ATOM     90  O   UNL A   1      43.211  36.493  34.494  1.00  0.00    -0.237 OA
ATOM     91  O   UNL A   1      45.180  37.921  34.097  1.00  0.00    -0.744 OA
ENDBRANCH  84  88
ENDBRANCH  58  81
ENDBRANCH  32  33
ENDBRANCH  24  27
ENDBRANCH  22  23
ENDBRANCH  21  22
ENDBRANCH  20  21
ENDBRANCH   3  20
TORSDOF 19
ENDMDL
