MODEL 1
REMARK VINA RESULT:     -12.1      0.000      0.000
REMARK SMILES Cc1cccc(C)c1Nc1ccccc1CC(=O)NCCCNC(=O)c1ccc(-c2c3nc(c(-c4cc(S(=O)(=O)[O-])ccc4F)c4ccc([nH]4)c(-c4cc(S(=O)(=O)[O-])ccc4F)c4nc(c(-c5cc(S(=O)(=O)[O-])ccc5F)c5ccc2[nH]5)C=C4)C=C3)cc1
REMARK SMILES IDX 21 1 20 2 19 3 17 4 18 5 16 7 15 8 10 9 11 10 12 11 14 12
REMARK SMILES IDX 13 13 9 14 8 16 1 17 2 18 3 19 4 20 6 21 5 22 7 23 22 24
REMARK SMILES IDX 23 25 24 26 25 28 26 29 27 30 88 31 28 32 87 33 29 34 30 35
REMARK SMILES IDX 31 36 81 37 32 38 86 39 80 40 82 41 33 42 85 43 79 44 78 45
REMARK SMILES IDX 34 47 66 48 46 49 65 50 47 51 50 52 64 53 83 54 48 55 49 56
REMARK SMILES IDX 63 58 84 59 51 60 35 61 36 62 44 63 37 64 43 65 45 66 42 67
REMARK SMILES IDX 38 68 39 69 40 70 41 71 67 72 68 73 76 74 69 75 75 76 77 77
REMARK SMILES IDX 74 78 70 79 71 80 72 81 73 82 52 83 53 84 61 85 54 86 60 87
REMARK SMILES IDX 62 88 59 89 55 90 56 91 57 92 58 93
REMARK H PARENT 19 6 9 15 23 27 82 46 50 57
REMARK Flexibility Score: inf
ROOT
ATOM      1  C   UNL A   1      35.145  22.234  26.622  1.00  0.00     0.042 C 
ENDROOT
BRANCH   1   2
ATOM      2  C   UNL A   1      33.670  21.932  26.377  1.00  0.00     0.117 C 
BRANCH   2   3
ATOM      3  N   UNL A   1      32.806  22.896  27.031  1.00  0.00    -0.356 N 
ATOM      4  C   UNL A   1      31.688  23.502  26.534  1.00  0.00     0.224 C 
ATOM      5  O   UNL A   1      31.141  24.376  27.211  1.00  0.00    -0.275 OA
ATOM      6  H   UNL A   1      33.056  23.144  27.951  1.00  0.00     0.163 HD
BRANCH   4   7
ATOM      7  C   UNL A   1      31.116  23.052  25.202  1.00  0.00     0.137 C 
BRANCH   7   8
ATOM      8  C   UNL A   1      31.885  23.543  23.991  1.00  0.00    -0.015 A 
ATOM      9  C   UNL A   1      31.892  24.892  23.578  1.00  0.00     0.042 A 
ATOM     10  C   UNL A   1      32.551  25.229  22.380  1.00  0.00     0.026 A 
ATOM     11  C   UNL A   1      33.228  24.271  21.626  1.00  0.00     0.002 A 
ATOM     12  C   UNL A   1      32.595  22.590  23.230  1.00  0.00     0.006 A 
ATOM     13  C   UNL A   1      33.262  22.953  22.060  1.00  0.00     0.000 A 
BRANCH   9  14
ATOM     14  N   UNL A   1      31.328  25.956  24.310  1.00  0.00    -0.355 N 
ATOM     15  H   UNL A   1      30.388  25.806  24.558  1.00  0.00     0.167 HD
BRANCH  14  16
ATOM     16  C   UNL A   1      31.839  27.196  24.760  1.00  0.00     0.044 A 
ATOM     17  C   UNL A   1      29.807  28.327  23.685  1.00  0.00     0.046 C 
ATOM     18  C   UNL A   1      31.082  28.369  24.490  1.00  0.00    -0.027 A 
ATOM     19  C   UNL A   1      31.497  29.611  24.999  1.00  0.00     0.005 A 
ATOM     20  C   UNL A   1      32.644  29.711  25.774  1.00  0.00     0.001 A 
ATOM     21  C   UNL A   1      33.035  27.321  25.506  1.00  0.00    -0.027 A 
ATOM     22  C   UNL A   1      33.404  28.575  26.026  1.00  0.00     0.005 A 
ATOM     23  C   UNL A   1      33.984  26.177  25.760  1.00  0.00     0.046 C 
ENDBRANCH  14  16
ENDBRANCH   9  14
ENDBRANCH   7   8
ENDBRANCH   4   7
ENDBRANCH   2   3
ENDBRANCH   1   2
BRANCH   1  24
ATOM     24  C   UNL A   1      35.998  22.177  25.359  1.00  0.00     0.118 C 
BRANCH  24  25
ATOM     25  N   UNL A   1      36.969  21.090  25.398  1.00  0.00    -0.352 N 
ATOM     26  C   UNL A   1      38.320  21.126  25.622  1.00  0.00     0.251 C 
ATOM     27  H   UNL A   1      36.597  20.193  25.240  1.00  0.00     0.163 HD
ATOM     28  O   UNL A   1      38.995  20.125  25.377  1.00  0.00    -0.269 OA
BRANCH  26  29
ATOM     29  C   UNL A   1      38.965  22.354  26.132  1.00  0.00     0.039 A 
ATOM     30  C   UNL A   1      40.118  22.235  26.913  1.00  0.00     0.014 A 
ATOM     31  C   UNL A   1      38.429  23.615  25.860  1.00  0.00     0.014 A 
ATOM     32  C   UNL A   1      40.773  23.384  27.358  1.00  0.00     0.010 A 
ATOM     33  C   UNL A   1      39.123  24.761  26.242  1.00  0.00     0.010 A 
ATOM     34  C   UNL A   1      40.306  24.656  26.989  1.00  0.00    -0.014 A 
BRANCH  34  35
ATOM     35  C   UNL A   1      41.063  25.885  27.343  1.00  0.00     0.031 A 
ATOM     36  C   UNL A   1      40.420  26.962  28.173  1.00  0.00     0.074 A 
ATOM     37  C   UNL A   1      42.309  26.051  26.858  1.00  0.00     0.049 A 
ATOM     38  N   UNL A   1      40.895  28.130  28.519  1.00  0.00    -0.248 NA
ATOM     39  C   UNL A   1      39.058  26.699  28.655  1.00  0.00     0.031 C 
ATOM     40  C   UNL A   1      43.020  25.088  26.014  1.00  0.00     0.029 A 
ATOM     41  N   UNL A   1      43.197  27.090  26.992  1.00  0.00    -0.354 N 
ATOM     42  C   UNL A   1      39.887  28.748  29.252  1.00  0.00     0.074 A 
ATOM     43  C   UNL A   1      38.756  27.844  29.250  1.00  0.00     0.031 C 
ATOM     44  C   UNL A   1      44.242  25.567  25.732  1.00  0.00     0.029 A 
ATOM     45  C   UNL A   1      44.382  26.894  26.322  1.00  0.00     0.049 A 
ATOM     46  H   UNL A   1      43.003  27.898  27.520  1.00  0.00     0.167 HD
ATOM     47  C   UNL A   1      39.912  29.949  29.882  1.00  0.00     0.034 A 
ATOM     48  C   UNL A   1      45.453  27.700  26.179  1.00  0.00     0.034 A 
ATOM     49  C   UNL A   1      41.052  30.835  29.872  1.00  0.00     0.049 A 
ATOM     50  C   UNL A   1      45.434  29.053  26.843  1.00  0.00     0.074 A 
ATOM     51  C   UNL A   1      41.209  32.045  30.527  1.00  0.00     0.029 A 
ATOM     52  N   UNL A   1      42.224  30.618  29.158  1.00  0.00    -0.354 N 
ATOM     53  N   UNL A   1      44.495  29.597  27.584  1.00  0.00    -0.248 NA
ATOM     54  C   UNL A   1      46.619  29.899  26.654  1.00  0.00     0.031 C 
ATOM     55  C   UNL A   1      42.436  32.595  30.145  1.00  0.00     0.029 A 
ATOM     56  C   UNL A   1      43.088  31.693  29.317  1.00  0.00     0.049 A 
ATOM     57  H   UNL A   1      42.416  29.818  28.617  1.00  0.00     0.167 HD
ATOM     58  C   UNL A   1      44.988  30.841  27.967  1.00  0.00     0.074 A 
ATOM     59  C   UNL A   1      46.315  30.954  27.396  1.00  0.00     0.031 C 
ATOM     60  C   UNL A   1      44.398  31.804  28.721  1.00  0.00     0.034 A 
BRANCH  47  61
ATOM     61  C   UNL A   1      38.660  30.386  30.605  1.00  0.00     0.023 A 
ATOM     62  C   UNL A   1      37.618  31.060  29.941  1.00  0.00     0.031 A 
ATOM     63  C   UNL A   1      38.509  30.139  31.981  1.00  0.00     0.131 A 
ATOM     64  C   UNL A   1      36.510  31.525  30.665  1.00  0.00     0.055 A 
ATOM     65  C   UNL A   1      37.365  30.532  32.679  1.00  0.00     0.041 A 
ATOM     66  F   UNL A   1      39.476  29.521  32.674  1.00  0.00    -0.206 F 
ATOM     67  C   UNL A   1      36.363  31.242  32.025  1.00  0.00     0.022 A 
BRANCH  64  68
ATOM     68  S   UNL A   1      35.334  32.629  29.834  1.00  0.00     0.124 S 
ATOM     69  O   UNL A   1      34.401  32.934  30.916  1.00  0.00    -0.237 OA
ATOM     70  O   UNL A   1      36.188  33.728  29.397  1.00  0.00    -0.237 OA
ATOM     71  O   UNL A   1      34.785  31.800  28.763  1.00  0.00    -0.744 OA
ENDBRANCH  64  68
ENDBRANCH  47  61
BRANCH  48  72
ATOM     72  C   UNL A   1      46.622  27.268  25.361  1.00  0.00     0.023 A 
ATOM     73  C   UNL A   1      46.855  27.815  24.090  1.00  0.00     0.031 A 
ATOM     74  C   UNL A   1      47.501  26.269  25.820  1.00  0.00     0.131 A 
ATOM     75  C   UNL A   1      47.910  27.329  23.302  1.00  0.00     0.055 A 
ATOM     76  C   UNL A   1      48.584  25.831  25.056  1.00  0.00     0.041 A 
ATOM     77  F   UNL A   1      47.326  25.714  27.029  1.00  0.00    -0.206 F 
ATOM     78  C   UNL A   1      48.785  26.352  23.782  1.00  0.00     0.022 A 
BRANCH  75  79
ATOM     79  S   UNL A   1      48.065  27.927  21.596  1.00  0.00     0.124 S 
ATOM     80  O   UNL A   1      46.777  28.578  21.392  1.00  0.00    -0.237 OA
ATOM     81  O   UNL A   1      49.223  28.810  21.691  1.00  0.00    -0.237 OA
ATOM     82  O   UNL A   1      48.278  26.704  20.825  1.00  0.00    -0.744 OA
ENDBRANCH  75  79
ENDBRANCH  48  72
BRANCH  60  83
ATOM     83  C   UNL A   1      45.204  33.053  28.986  1.00  0.00     0.023 A 
ATOM     84  C   UNL A   1      45.094  34.188  28.165  1.00  0.00     0.031 A 
ATOM     85  C   UNL A   1      46.105  33.103  30.065  1.00  0.00     0.131 A 
ATOM     86  C   UNL A   1      45.912  35.304  28.400  1.00  0.00     0.055 A 
ATOM     87  C   UNL A   1      46.867  34.240  30.334  1.00  0.00     0.041 A 
ATOM     88  F   UNL A   1      46.256  32.046  30.880  1.00  0.00    -0.206 F 
ATOM     89  C   UNL A   1      46.783  35.345  29.491  1.00  0.00     0.022 A 
BRANCH  86  90
ATOM     90  S   UNL A   1      45.894  36.664  27.200  1.00  0.00     0.124 S 
ATOM     91  O   UNL A   1      46.740  36.137  26.134  1.00  0.00    -0.237 OA
ATOM     92  O   UNL A   1      44.474  36.785  26.886  1.00  0.00    -0.237 OA
ATOM     93  O   UNL A   1      46.462  37.786  27.945  1.00  0.00    -0.744 OA
ENDBRANCH  86  90
ENDBRANCH  60  83
ENDBRANCH  34  35
ENDBRANCH  26  29
ENDBRANCH  24  25
ENDBRANCH   1  24
TORSDOF 16
ENDMDL
MODEL 2
REMARK VINA RESULT:     -12.1      2.367      3.362
REMARK SMILES Cc1cccc(C)c1Nc1ccccc1CC(=O)NCCCNC(=O)c1ccc(-c2c3nc(c(-c4cc(S(=O)(=O)[O-])ccc4F)c4ccc([nH]4)c(-c4cc(S(=O)(=O)[O-])ccc4F)c4nc(c(-c5cc(S(=O)(=O)[O-])ccc5F)c5ccc2[nH]5)C=C4)C=C3)cc1
REMARK SMILES IDX 21 1 20 2 19 3 17 4 18 5 16 7 15 8 10 9 11 10 12 11 14 12
REMARK SMILES IDX 13 13 9 14 8 16 1 17 2 18 3 19 4 20 6 21 5 22 7 23 22 24
REMARK SMILES IDX 23 25 24 26 25 28 26 29 27 30 88 31 28 32 87 33 29 34 30 35
REMARK SMILES IDX 31 36 81 37 32 38 86 39 80 40 82 41 33 42 85 43 79 44 78 45
REMARK SMILES IDX 34 47 66 48 46 49 65 50 47 51 50 52 64 53 83 54 48 55 49 56
REMARK SMILES IDX 63 58 84 59 51 60 35 61 36 62 44 63 37 64 43 65 45 66 42 67
REMARK SMILES IDX 38 68 39 69 40 70 41 71 67 72 68 73 76 74 69 75 75 76 77 77
REMARK SMILES IDX 74 78 70 79 71 80 72 81 73 82 52 83 53 84 61 85 54 86 60 87
REMARK SMILES IDX 62 88 59 89 55 90 56 91 57 92 58 93
REMARK H PARENT 19 6 9 15 23 27 82 46 50 57
REMARK Flexibility Score: inf
ROOT
ATOM      1  C   UNL A   1      37.996  20.165  24.953  1.00  0.00     0.042 C 
ENDROOT
BRANCH   1   2
ATOM      2  C   UNL A   1      36.737  20.993  25.190  1.00  0.00     0.117 C 
BRANCH   2   3
ATOM      3  N   UNL A   1      36.481  21.913  24.099  1.00  0.00    -0.356 N 
ATOM      4  C   UNL A   1      35.952  23.169  24.159  1.00  0.00     0.224 C 
ATOM      5  O   UNL A   1      35.715  23.761  23.103  1.00  0.00    -0.275 OA
ATOM      6  H   UNL A   1      36.721  21.590  23.199  1.00  0.00     0.163 HD
BRANCH   4   7
ATOM      7  C   UNL A   1      35.721  23.826  25.508  1.00  0.00     0.137 C 
BRANCH   7   8
ATOM      8  C   UNL A   1      34.309  23.686  26.042  1.00  0.00    -0.015 A 
ATOM      9  C   UNL A   1      33.256  24.548  25.668  1.00  0.00     0.042 A 
ATOM     10  C   UNL A   1      32.006  24.400  26.298  1.00  0.00     0.026 A 
ATOM     11  C   UNL A   1      31.780  23.401  27.244  1.00  0.00     0.002 A 
ATOM     12  C   UNL A   1      34.057  22.665  26.981  1.00  0.00     0.006 A 
ATOM     13  C   UNL A   1      32.803  22.523  27.573  1.00  0.00     0.000 A 
BRANCH   9  14
ATOM     14  N   UNL A   1      33.342  25.525  24.656  1.00  0.00    -0.355 N 
ATOM     15  H   UNL A   1      34.022  25.324  23.973  1.00  0.00     0.167 HD
BRANCH  14  16
ATOM     16  C   UNL A   1      32.650  26.736  24.422  1.00  0.00     0.044 A 
ATOM     17  C   UNL A   1      31.462  25.582  22.467  1.00  0.00     0.046 C 
ATOM     18  C   UNL A   1      31.694  26.768  23.369  1.00  0.00    -0.027 A 
ATOM     19  C   UNL A   1      30.912  27.916  23.160  1.00  0.00     0.005 A 
ATOM     20  C   UNL A   1      31.055  29.029  23.976  1.00  0.00     0.001 A 
ATOM     21  C   UNL A   1      32.823  27.897  25.213  1.00  0.00    -0.027 A 
ATOM     22  C   UNL A   1      32.001  29.018  24.993  1.00  0.00     0.005 A 
ATOM     23  C   UNL A   1      33.879  28.030  26.280  1.00  0.00     0.046 C 
ENDBRANCH  14  16
ENDBRANCH   9  14
ENDBRANCH   7   8
ENDBRANCH   4   7
ENDBRANCH   2   3
ENDBRANCH   1   2
BRANCH   1  24
ATOM     24  C   UNL A   1      39.145  20.517  25.892  1.00  0.00     0.118 C 
BRANCH  24  25
ATOM     25  N   UNL A   1      40.121  19.440  25.995  1.00  0.00    -0.352 N 
ATOM     26  C   UNL A   1      41.486  19.497  26.112  1.00  0.00     0.251 C 
ATOM     27  H   UNL A   1      39.743  18.531  25.978  1.00  0.00     0.163 HD
ATOM     28  O   UNL A   1      42.145  18.470  25.945  1.00  0.00    -0.269 OA
BRANCH  26  29
ATOM     29  C   UNL A   1      42.161  20.776  26.415  1.00  0.00     0.039 A 
ATOM     30  C   UNL A   1      42.560  21.594  25.355  1.00  0.00     0.014 A 
ATOM     31  C   UNL A   1      42.417  21.161  27.734  1.00  0.00     0.014 A 
ATOM     32  C   UNL A   1      43.150  22.831  25.621  1.00  0.00     0.010 A 
ATOM     33  C   UNL A   1      42.937  22.425  27.998  1.00  0.00     0.010 A 
ATOM     34  C   UNL A   1      43.303  23.276  26.945  1.00  0.00    -0.014 A 
BRANCH  34  35
ATOM     35  C   UNL A   1      43.807  24.641  27.243  1.00  0.00     0.031 A 
ATOM     36  C   UNL A   1      42.871  25.706  27.746  1.00  0.00     0.074 A 
ATOM     37  C   UNL A   1      45.100  24.933  26.995  1.00  0.00     0.049 A 
ATOM     38  N   UNL A   1      43.112  26.968  27.989  1.00  0.00    -0.248 NA
ATOM     39  C   UNL A   1      41.479  25.301  27.983  1.00  0.00     0.031 C 
ATOM     40  C   UNL A   1      46.091  23.989  26.473  1.00  0.00     0.029 A 
ATOM     41  N   UNL A   1      45.802  26.103  27.137  1.00  0.00    -0.354 N 
ATOM     42  C   UNL A   1      41.900  27.513  28.400  1.00  0.00     0.074 A 
ATOM     43  C   UNL A   1      40.916  26.454  28.316  1.00  0.00     0.031 C 
ATOM     44  C   UNL A   1      47.276  24.609  26.368  1.00  0.00     0.029 A 
ATOM     45  C   UNL A   1      47.120  26.007  26.755  1.00  0.00     0.049 A 
ATOM     46  H   UNL A   1      45.400  26.934  27.480  1.00  0.00     0.167 HD
ATOM     47  C   UNL A   1      41.639  28.775  28.823  1.00  0.00     0.034 A 
ATOM     48  C   UNL A   1      48.090  26.942  26.702  1.00  0.00     0.034 A 
ATOM     49  C   UNL A   1      42.636  29.817  28.899  1.00  0.00     0.049 A 
ATOM     50  C   UNL A   1      47.760  28.350  27.125  1.00  0.00     0.074 A 
ATOM     51  C   UNL A   1      42.496  31.110  29.372  1.00  0.00     0.029 A 
ATOM     52  N   UNL A   1      43.954  29.691  28.476  1.00  0.00    -0.354 N 
ATOM     53  N   UNL A   1      46.622  28.835  27.569  1.00  0.00    -0.248 NA
ATOM     54  C   UNL A   1      48.844  29.336  27.044  1.00  0.00     0.031 C 
ATOM     55  C   UNL A   1      43.701  31.789  29.159  1.00  0.00     0.029 A 
ATOM     56  C   UNL A   1      44.623  30.898  28.631  1.00  0.00     0.049 A 
ATOM     57  H   UNL A   1      44.356  28.867  28.118  1.00  0.00     0.167 HD
ATOM     58  C   UNL A   1      46.863  30.179  27.839  1.00  0.00     0.074 A 
ATOM     59  C   UNL A   1      48.258  30.419  27.533  1.00  0.00     0.031 C 
ATOM     60  C   UNL A   1      46.008  31.129  28.298  1.00  0.00     0.034 A 
BRANCH  47  61
ATOM     61  C   UNL A   1      40.215  29.105  29.203  1.00  0.00     0.023 A 
ATOM     62  C   UNL A   1      39.802  29.168  30.547  1.00  0.00     0.031 A 
ATOM     63  C   UNL A   1      39.250  29.347  28.210  1.00  0.00     0.131 A 
ATOM     64  C   UNL A   1      38.453  29.393  30.857  1.00  0.00     0.055 A 
ATOM     65  C   UNL A   1      37.925  29.653  28.527  1.00  0.00     0.041 A 
ATOM     66  F   UNL A   1      39.576  29.280  26.910  1.00  0.00    -0.206 F 
ATOM     67  C   UNL A   1      37.516  29.663  29.857  1.00  0.00     0.022 A 
BRANCH  64  68
ATOM     68  S   UNL A   1      37.913  29.185  32.576  1.00  0.00     0.124 S 
ATOM     69  O   UNL A   1      36.656  29.930  32.583  1.00  0.00    -0.237 OA
ATOM     70  O   UNL A   1      37.798  27.737  32.698  1.00  0.00    -0.237 OA
ATOM     71  O   UNL A   1      38.992  29.794  33.350  1.00  0.00    -0.744 OA
ENDBRANCH  64  68
ENDBRANCH  47  61
BRANCH  48  72
ATOM     72  C   UNL A   1      49.454  26.592  26.212  1.00  0.00     0.023 A 
ATOM     73  C   UNL A   1      49.907  27.036  24.962  1.00  0.00     0.031 A 
ATOM     74  C   UNL A   1      50.310  25.771  26.970  1.00  0.00     0.131 A 
ATOM     75  C   UNL A   1      51.160  26.620  24.483  1.00  0.00     0.055 A 
ATOM     76  C   UNL A   1      51.579  25.408  26.515  1.00  0.00     0.041 A 
ATOM     77  F   UNL A   1      49.927  25.319  28.175  1.00  0.00    -0.206 F 
ATOM     78  C   UNL A   1      52.004  25.823  25.258  1.00  0.00     0.022 A 
BRANCH  75  79
ATOM     79  S   UNL A   1      51.631  27.062  22.787  1.00  0.00     0.124 S 
ATOM     80  O   UNL A   1      50.368  26.901  22.078  1.00  0.00    -0.237 OA
ATOM     81  O   UNL A   1      52.104  28.432  22.953  1.00  0.00    -0.237 OA
ATOM     82  O   UNL A   1      52.664  26.083  22.456  1.00  0.00    -0.744 OA
ENDBRANCH  75  79
ENDBRANCH  48  72
BRANCH  60  83
ATOM     83  C   UNL A   1      46.578  32.511  28.516  1.00  0.00     0.023 A 
ATOM     84  C   UNL A   1      46.760  33.409  27.451  1.00  0.00     0.031 A 
ATOM     85  C   UNL A   1      46.956  32.929  29.805  1.00  0.00     0.131 A 
ATOM     86  C   UNL A   1      47.359  34.656  27.681  1.00  0.00     0.055 A 
ATOM     87  C   UNL A   1      47.488  34.198  30.039  1.00  0.00     0.041 A 
ATOM     88  F   UNL A   1      46.809  32.112  30.860  1.00  0.00    -0.206 F 
ATOM     89  C   UNL A   1      47.705  35.065  28.972  1.00  0.00     0.022 A 
BRANCH  86  90
ATOM     90  S   UNL A   1      47.770  35.701  26.257  1.00  0.00     0.124 S 
ATOM     91  O   UNL A   1      47.495  34.807  25.137  1.00  0.00    -0.237 OA
ATOM     92  O   UNL A   1      46.851  36.824  26.417  1.00  0.00    -0.237 OA
ATOM     93  O   UNL A   1      49.181  36.022  26.462  1.00  0.00    -0.744 OA
ENDBRANCH  86  90
ENDBRANCH  60  83
ENDBRANCH  34  35
ENDBRANCH  26  29
ENDBRANCH  24  25
ENDBRANCH   1  24
TORSDOF 16
ENDMDL
MODEL 3
REMARK VINA RESULT:     -12.1      5.715     10.894
REMARK SMILES Cc1cccc(C)c1Nc1ccccc1CC(=O)NCCCNC(=O)c1ccc(-c2c3nc(c(-c4cc(S(=O)(=O)[O-])ccc4F)c4ccc([nH]4)c(-c4cc(S(=O)(=O)[O-])ccc4F)c4nc(c(-c5cc(S(=O)(=O)[O-])ccc5F)c5ccc2[nH]5)C=C4)C=C3)cc1
REMARK SMILES IDX 21 1 20 2 19 3 17 4 18 5 16 7 15 8 10 9 11 10 12 11 14 12
REMARK SMILES IDX 13 13 9 14 8 16 1 17 2 18 3 19 4 20 6 21 5 22 7 23 22 24
REMARK SMILES IDX 23 25 24 26 25 28 26 29 27 30 88 31 28 32 87 33 29 34 30 35
REMARK SMILES IDX 31 36 81 37 32 38 86 39 80 40 82 41 33 42 85 43 79 44 78 45
REMARK SMILES IDX 34 47 66 48 46 49 65 50 47 51 50 52 64 53 83 54 48 55 49 56
REMARK SMILES IDX 63 58 84 59 51 60 35 61 36 62 44 63 37 64 43 65 45 66 42 67
REMARK SMILES IDX 38 68 39 69 40 70 41 71 67 72 68 73 76 74 69 75 75 76 77 77
REMARK SMILES IDX 74 78 70 79 71 80 72 81 73 82 52 83 53 84 61 85 54 86 60 87
REMARK SMILES IDX 62 88 59 89 55 90 56 91 57 92 58 93
REMARK H PARENT 19 6 9 15 23 27 82 46 50 57
REMARK Flexibility Score: inf
ROOT
ATOM      1  C   UNL A   1      31.577  31.668  26.905  1.00  0.00     0.042 C 
ENDROOT
BRANCH   1   2
ATOM      2  C   UNL A   1      31.778  30.576  25.858  1.00  0.00     0.117 C 
BRANCH   2   3
ATOM      3  N   UNL A   1      32.883  29.700  26.196  1.00  0.00    -0.356 N 
ATOM      4  C   UNL A   1      32.862  28.349  26.386  1.00  0.00     0.224 C 
ATOM      5  O   UNL A   1      33.893  27.792  26.771  1.00  0.00    -0.275 OA
ATOM      6  H   UNL A   1      33.760  30.136  26.302  1.00  0.00     0.163 HD
BRANCH   4   7
ATOM      7  C   UNL A   1      31.604  27.562  26.067  1.00  0.00     0.137 C 
BRANCH   7   8
ATOM      8  C   UNL A   1      31.517  27.070  24.635  1.00  0.00    -0.015 A 
ATOM      9  C   UNL A   1      32.194  25.922  24.173  1.00  0.00     0.042 A 
ATOM     10  C   UNL A   1      32.134  25.607  22.803  1.00  0.00     0.026 A 
ATOM     11  C   UNL A   1      31.389  26.376  21.910  1.00  0.00     0.002 A 
ATOM     12  C   UNL A   1      30.747  27.823  23.724  1.00  0.00     0.006 A 
ATOM     13  C   UNL A   1      30.683  27.477  22.375  1.00  0.00     0.000 A 
BRANCH   9  14
ATOM     14  N   UNL A   1      32.894  25.018  24.999  1.00  0.00    -0.355 N 
ATOM     15  H   UNL A   1      33.378  25.455  25.736  1.00  0.00     0.167 HD
BRANCH  14  16
ATOM     16  C   UNL A   1      33.042  23.612  24.983  1.00  0.00     0.044 A 
ATOM     17  C   UNL A   1      30.697  23.438  26.002  1.00  0.00     0.046 C 
ATOM     18  C   UNL A   1      31.953  22.820  25.441  1.00  0.00    -0.027 A 
ATOM     19  C   UNL A   1      32.013  21.418  25.354  1.00  0.00     0.005 A 
ATOM     20  C   UNL A   1      33.128  20.789  24.818  1.00  0.00     0.001 A 
ATOM     21  C   UNL A   1      34.193  22.956  24.488  1.00  0.00    -0.027 A 
ATOM     22  C   UNL A   1      34.207  21.552  24.389  1.00  0.00     0.005 A 
ATOM     23  C   UNL A   1      35.454  23.675  24.082  1.00  0.00     0.046 C 
ENDBRANCH  14  16
ENDBRANCH   9  14
ENDBRANCH   7   8
ENDBRANCH   4   7
ENDBRANCH   2   3
ENDBRANCH   1   2
BRANCH   1  24
ATOM     24  C   UNL A   1      32.853  32.428  27.247  1.00  0.00     0.118 C 
BRANCH  24  25
ATOM     25  N   UNL A   1      32.593  33.827  27.565  1.00  0.00    -0.352 N 
ATOM     26  C   UNL A   1      33.111  34.614  28.560  1.00  0.00     0.251 C 
ATOM     27  H   UNL A   1      31.945  34.275  26.975  1.00  0.00     0.163 HD
ATOM     28  O   UNL A   1      32.582  35.700  28.802  1.00  0.00    -0.269 OA
BRANCH  26  29
ATOM     29  C   UNL A   1      34.278  34.161  29.346  1.00  0.00     0.039 A 
ATOM     30  C   UNL A   1      34.065  33.341  30.457  1.00  0.00     0.014 A 
ATOM     31  C   UNL A   1      35.574  34.556  29.004  1.00  0.00     0.014 A 
ATOM     32  C   UNL A   1      35.156  32.858  31.180  1.00  0.00     0.010 A 
ATOM     33  C   UNL A   1      36.665  34.015  29.680  1.00  0.00     0.010 A 
ATOM     34  C   UNL A   1      36.467  33.154  30.770  1.00  0.00    -0.014 A 
BRANCH  34  35
ATOM     35  C   UNL A   1      37.640  32.544  31.447  1.00  0.00     0.031 A 
ATOM     36  C   UNL A   1      38.370  31.391  30.815  1.00  0.00     0.074 A 
ATOM     37  C   UNL A   1      38.002  32.992  32.666  1.00  0.00     0.049 A 
ATOM     38  N   UNL A   1      39.364  30.685  31.287  1.00  0.00    -0.248 NA
ATOM     39  C   UNL A   1      37.905  30.965  29.488  1.00  0.00     0.031 C 
ATOM     40  C   UNL A   1      37.344  34.082  33.392  1.00  0.00     0.029 A 
ATOM     41  N   UNL A   1      39.000  32.586  33.515  1.00  0.00    -0.354 N 
ATOM     42  C   UNL A   1      39.639  29.723  30.321  1.00  0.00     0.074 A 
ATOM     43  C   UNL A   1      38.668  29.904  29.263  1.00  0.00     0.031 C 
ATOM     44  C   UNL A   1      37.975  34.275  34.561  1.00  0.00     0.029 A 
ATOM     45  C   UNL A   1      39.041  33.289  34.698  1.00  0.00     0.049 A 
ATOM     46  H   UNL A   1      39.628  31.859  33.299  1.00  0.00     0.167 HD
ATOM     47  C   UNL A   1      40.622  28.788  30.312  1.00  0.00     0.034 A 
ATOM     48  C   UNL A   1      39.832  33.143  35.779  1.00  0.00     0.034 A 
ATOM     49  C   UNL A   1      41.582  28.625  31.379  1.00  0.00     0.049 A 
ATOM     50  C   UNL A   1      40.881  32.060  35.767  1.00  0.00     0.074 A 
ATOM     51  C   UNL A   1      42.656  27.754  31.445  1.00  0.00     0.029 A 
ATOM     52  N   UNL A   1      41.574  29.335  32.573  1.00  0.00    -0.354 N 
ATOM     53  N   UNL A   1      41.167  31.197  34.818  1.00  0.00    -0.248 NA
ATOM     54  C   UNL A   1      41.715  31.934  36.968  1.00  0.00     0.031 C 
ATOM     55  C   UNL A   1      43.245  27.878  32.708  1.00  0.00     0.029 A 
ATOM     56  C   UNL A   1      42.594  28.887  33.402  1.00  0.00     0.049 A 
ATOM     57  H   UNL A   1      40.938  30.051  32.800  1.00  0.00     0.167 HD
ATOM     58  C   UNL A   1      42.229  30.440  35.303  1.00  0.00     0.074 A 
ATOM     59  C   UNL A   1      42.547  30.966  36.616  1.00  0.00     0.031 C 
ATOM     60  C   UNL A   1      42.883  29.404  34.719  1.00  0.00     0.034 A 
BRANCH  47  61
ATOM     61  C   UNL A   1      40.686  27.851  29.129  1.00  0.00     0.023 A 
ATOM     62  C   UNL A   1      41.616  28.033  28.089  1.00  0.00     0.031 A 
ATOM     63  C   UNL A   1      39.797  26.767  29.030  1.00  0.00     0.131 A 
ATOM     64  C   UNL A   1      41.587  27.193  26.966  1.00  0.00     0.055 A 
ATOM     65  C   UNL A   1      39.828  25.883  27.949  1.00  0.00     0.041 A 
ATOM     66  F   UNL A   1      38.872  26.553  29.978  1.00  0.00    -0.206 F 
ATOM     67  C   UNL A   1      40.717  26.102  26.901  1.00  0.00     0.022 A 
BRANCH  64  68
ATOM     68  S   UNL A   1      42.604  27.632  25.529  1.00  0.00     0.124 S 
ATOM     69  O   UNL A   1      41.898  28.803  25.015  1.00  0.00    -0.237 OA
ATOM     70  O   UNL A   1      43.908  27.885  26.131  1.00  0.00    -0.237 OA
ATOM     71  O   UNL A   1      42.527  26.445  24.681  1.00  0.00    -0.744 OA
ENDBRANCH  64  68
ENDBRANCH  47  61
BRANCH  48  72
ATOM     72  C   UNL A   1      39.656  34.022  36.970  1.00  0.00     0.023 A 
ATOM     73  C   UNL A   1      39.063  33.535  38.144  1.00  0.00     0.031 A 
ATOM     74  C   UNL A   1      40.040  35.375  36.939  1.00  0.00     0.131 A 
ATOM     75  C   UNL A   1      38.826  34.403  39.221  1.00  0.00     0.055 A 
ATOM     76  C   UNL A   1      39.856  36.221  38.034  1.00  0.00     0.041 A 
ATOM     77  F   UNL A   1      40.615  35.893  35.841  1.00  0.00    -0.206 F 
ATOM     78  C   UNL A   1      39.233  35.739  39.180  1.00  0.00     0.022 A 
BRANCH  75  79
ATOM     79  S   UNL A   1      37.889  33.784  40.646  1.00  0.00     0.124 S 
ATOM     80  O   UNL A   1      38.874  32.930  41.298  1.00  0.00    -0.237 OA
ATOM     81  O   UNL A   1      37.549  35.020  41.343  1.00  0.00    -0.237 OA
ATOM     82  O   UNL A   1      36.762  33.085  40.034  1.00  0.00    -0.744 OA
ENDBRANCH  75  79
ENDBRANCH  48  72
BRANCH  60  83
ATOM     83  C   UNL A   1      44.024  28.791  35.496  1.00  0.00     0.023 A 
ATOM     84  C   UNL A   1      43.833  27.676  36.329  1.00  0.00     0.031 A 
ATOM     85  C   UNL A   1      45.318  29.339  35.411  1.00  0.00     0.131 A 
ATOM     86  C   UNL A   1      44.901  27.179  37.091  1.00  0.00     0.055 A 
ATOM     87  C   UNL A   1      46.391  28.798  36.119  1.00  0.00     0.041 A 
ATOM     88  F   UNL A   1      45.559  30.407  34.635  1.00  0.00    -0.206 F 
ATOM     89  C   UNL A   1      46.184  27.720  36.975  1.00  0.00     0.022 A 
BRANCH  86  90
ATOM     90  S   UNL A   1      44.570  25.878  38.309  1.00  0.00     0.124 S 
ATOM     91  O   UNL A   1      43.749  24.947  37.542  1.00  0.00    -0.237 OA
ATOM     92  O   UNL A   1      45.913  25.415  38.646  1.00  0.00    -0.237 OA
ATOM     93  O   UNL A   1      43.871  26.582  39.383  1.00  0.00    -0.744 OA
ENDBRANCH  86  90
ENDBRANCH  60  83
ENDBRANCH  34  35
ENDBRANCH  26  29
ENDBRANCH  24  25
ENDBRANCH   1  24
TORSDOF 16
ENDMDL
