MODEL 1
REMARK VINA RESULT:     -11.0      0.000      0.000
REMARK SMILES CCC(CC)(NC(=O)NCCc1nccs1)C(=O)NCCCNC(=O)c1ccc(-c2c3nc(c(-c4cc(S(=O)(=O)[O-])ccc4F)c4ccc([nH]4)c(-c4cc(S(=O)(=O)[O-])ccc4F)c4nc(c(-c5cc(S(=O)(=O)[O-])ccc5F)c5ccc2[nH]5)C=C4)C=C3)cc1
REMARK SMILES IDX 20 1 19 2 17 3 18 4 3 6 2 7 1 8 4 9 5 10 6 11 7 12 8 14 9 15
REMARK SMILES IDX 10 17 11 18 12 19 13 20 16 21 14 22 15 23 21 24 22 25 23 26
REMARK SMILES IDX 24 27 25 29 26 30 27 31 88 32 28 33 87 34 29 35 30 36 31 37
REMARK SMILES IDX 81 38 32 39 86 40 80 41 82 42 33 43 85 44 79 45 78 46 34 48
REMARK SMILES IDX 66 49 46 50 65 51 47 52 50 53 64 54 83 55 48 56 49 57 63 59
REMARK SMILES IDX 84 60 51 61 35 62 36 63 44 64 37 65 43 66 45 67 42 68 38 69
REMARK SMILES IDX 39 70 40 71 41 72 67 73 68 74 76 75 69 76 75 77 77 78 74 79
REMARK SMILES IDX 70 80 71 81 72 82 73 83 52 84 53 85 61 86 54 87 60 88 62 89
REMARK SMILES IDX 59 90 55 91 56 92 57 93 58 94
REMARK H PARENT 19 5 6 13 9 16 23 28 82 47 50 58
REMARK Flexibility Score: inf
ROOT
ATOM      1  C   UNL A   1      32.087  27.864  27.121  1.00  0.00     0.117 C 
ENDROOT
BRANCH   1   2
ATOM      2  N   UNL A   1      30.926  26.987  26.975  1.00  0.00    -0.354 N 
ATOM      3  C   UNL A   1      30.621  25.951  26.119  1.00  0.00     0.245 C 
ATOM      4  O   UNL A   1      29.635  25.266  26.412  1.00  0.00    -0.272 OA
ATOM      5  H   UNL A   1      30.212  27.176  27.627  1.00  0.00     0.163 HD
BRANCH   3   6
ATOM      6  C   UNL A   1      31.538  25.569  24.924  1.00  0.00     0.120 C 
BRANCH   6   7
ATOM      7  C   UNL A   1      30.891  24.791  23.742  1.00  0.00     0.035 C 
ATOM      8  C   UNL A   1      31.807  24.034  22.790  1.00  0.00     0.007 C 
ENDBRANCH   6   7
BRANCH   6   9
ATOM      9  C   UNL A   1      32.644  24.667  25.586  1.00  0.00     0.035 C 
ATOM     10  C   UNL A   1      34.062  25.216  25.647  1.00  0.00     0.007 C 
ENDBRANCH   6   9
BRANCH   6  11
ATOM     11  N   UNL A   1      32.086  26.824  24.371  1.00  0.00    -0.324 N 
ATOM     12  C   UNL A   1      31.599  27.874  23.699  1.00  0.00     0.315 C 
ATOM     13  H   UNL A   1      33.052  26.910  24.540  1.00  0.00     0.166 HD
ATOM     14  O   UNL A   1      32.441  28.647  23.232  1.00  0.00    -0.249 OA
ATOM     15  N   UNL A   1      30.317  28.225  23.552  1.00  0.00    -0.338 N 
ATOM     16  H   UNL A   1      30.241  29.177  23.313  1.00  0.00     0.165 HD
BRANCH  15  17
ATOM     17  C   UNL A   1      28.993  27.604  23.641  1.00  0.00     0.125 C 
BRANCH  17  18
ATOM     18  C   UNL A   1      27.830  28.314  22.946  1.00  0.00     0.089 C 
BRANCH  18  19
ATOM     19  C   UNL A   1      27.946  29.734  22.476  1.00  0.00     0.094 A 
ATOM     20  N   UNL A   1      28.203  29.996  21.207  1.00  0.00    -0.250 NA
ATOM     21  S   UNL A   1      27.760  31.115  23.471  1.00  0.00    -0.127 S 
ATOM     22  C   UNL A   1      28.279  31.355  20.999  1.00  0.00     0.123 A 
ATOM     23  C   UNL A   1      28.061  32.129  22.117  1.00  0.00     0.087 A 
ENDBRANCH  18  19
ENDBRANCH  17  18
ENDBRANCH  15  17
ENDBRANCH   6  11
ENDBRANCH   3   6
ENDBRANCH   1   2
BRANCH   1  24
ATOM     24  C   UNL A   1      31.855  29.370  27.225  1.00  0.00     0.042 C 
BRANCH  24  25
ATOM     25  C   UNL A   1      32.708  30.292  26.374  1.00  0.00     0.118 C 
BRANCH  25  26
ATOM     26  N   UNL A   1      32.516  31.700  26.659  1.00  0.00    -0.352 N 
ATOM     27  C   UNL A   1      33.306  32.550  27.403  1.00  0.00     0.251 C 
ATOM     28  H   UNL A   1      31.711  32.106  26.265  1.00  0.00     0.163 HD
ATOM     29  O   UNL A   1      32.930  33.693  27.619  1.00  0.00    -0.269 OA
BRANCH  27  30
ATOM     30  C   UNL A   1      34.589  32.065  27.967  1.00  0.00     0.039 A 
ATOM     31  C   UNL A   1      35.702  32.909  27.946  1.00  0.00     0.014 A 
ATOM     32  C   UNL A   1      34.698  30.784  28.513  1.00  0.00     0.014 A 
ATOM     33  C   UNL A   1      36.901  32.495  28.538  1.00  0.00     0.010 A 
ATOM     34  C   UNL A   1      35.877  30.389  29.143  1.00  0.00     0.010 A 
ATOM     35  C   UNL A   1      36.989  31.245  29.172  1.00  0.00    -0.014 A 
BRANCH  35  36
ATOM     36  C   UNL A   1      38.218  30.820  29.894  1.00  0.00     0.031 A 
ATOM     37  C   UNL A   1      39.155  29.821  29.273  1.00  0.00     0.074 A 
ATOM     38  C   UNL A   1      38.444  31.271  31.144  1.00  0.00     0.049 A 
ATOM     39  N   UNL A   1      40.213  29.246  29.787  1.00  0.00    -0.248 NA
ATOM     40  C   UNL A   1      38.844  29.396  27.901  1.00  0.00     0.031 C 
ATOM     41  C   UNL A   1      37.594  32.221  31.864  1.00  0.00     0.029 A 
ATOM     42  N   UNL A   1      39.445  30.978  32.039  1.00  0.00    -0.354 N 
ATOM     43  C   UNL A   1      40.692  28.385  28.806  1.00  0.00     0.074 A 
ATOM     44  C   UNL A   1      39.774  28.477  27.688  1.00  0.00     0.031 C 
ATOM     45  C   UNL A   1      38.111  32.436  33.085  1.00  0.00     0.029 A 
ATOM     46  C   UNL A   1      39.300  31.605  33.256  1.00  0.00     0.049 A 
ATOM     47  H   UNL A   1      40.194  30.375  31.830  1.00  0.00     0.167 HD
ATOM     48  C   UNL A   1      41.803  27.607  28.831  1.00  0.00     0.034 A 
ATOM     49  C   UNL A   1      40.027  31.508  34.387  1.00  0.00     0.034 A 
ATOM     50  C   UNL A   1      42.704  27.526  29.956  1.00  0.00     0.049 A 
ATOM     51  C   UNL A   1      41.230  30.597  34.409  1.00  0.00     0.074 A 
ATOM     52  C   UNL A   1      43.880  26.802  30.068  1.00  0.00     0.029 A 
ATOM     53  N   UNL A   1      42.526  28.179  31.169  1.00  0.00    -0.354 N 
ATOM     54  N   UNL A   1      41.694  29.820  33.458  1.00  0.00    -0.248 NA
ATOM     55  C   UNL A   1      42.012  30.556  35.652  1.00  0.00     0.031 C 
ATOM     56  C   UNL A   1      44.370  26.955  31.369  1.00  0.00     0.029 A 
ATOM     57  C   UNL A   1      43.552  27.848  32.043  1.00  0.00     0.049 A 
ATOM     58  H   UNL A   1      41.781  28.788  31.379  1.00  0.00     0.167 HD
ATOM     59  C   UNL A   1      42.849  29.237  33.974  1.00  0.00     0.074 A 
ATOM     60  C   UNL A   1      43.009  29.750  35.319  1.00  0.00     0.031 C 
ATOM     61  C   UNL A   1      43.707  28.367  33.382  1.00  0.00     0.034 A 
BRANCH  48  62
ATOM     62  C   UNL A   1      42.086  26.756  27.614  1.00  0.00     0.023 A 
ATOM     63  C   UNL A   1      41.691  25.409  27.545  1.00  0.00     0.031 A 
ATOM     64  C   UNL A   1      42.771  27.295  26.509  1.00  0.00     0.131 A 
ATOM     65  C   UNL A   1      42.050  24.628  26.436  1.00  0.00     0.055 A 
ATOM     66  C   UNL A   1      43.048  26.536  25.371  1.00  0.00     0.041 A 
ATOM     67  F   UNL A   1      43.194  28.569  26.522  1.00  0.00    -0.206 F 
ATOM     68  C   UNL A   1      42.701  25.189  25.335  1.00  0.00     0.022 A 
BRANCH  65  69
ATOM     69  S   UNL A   1      41.786  22.835  26.520  1.00  0.00     0.124 S 
ATOM     70  O   UNL A   1      42.576  22.478  27.696  1.00  0.00    -0.237 OA
ATOM     71  O   UNL A   1      40.340  22.735  26.667  1.00  0.00    -0.237 OA
ATOM     72  O   UNL A   1      42.322  22.350  25.250  1.00  0.00    -0.744 OA
ENDBRANCH  65  69
ENDBRANCH  48  62
BRANCH  49  73
ATOM     73  C   UNL A   1      39.636  32.279  35.603  1.00  0.00     0.023 A 
ATOM     74  C   UNL A   1      38.845  31.698  36.606  1.00  0.00     0.031 A 
ATOM     75  C   UNL A   1      40.013  33.626  35.759  1.00  0.00     0.131 A 
ATOM     76  C   UNL A   1      38.414  32.472  37.695  1.00  0.00     0.055 A 
ATOM     77  C   UNL A   1      39.631  34.374  36.875  1.00  0.00     0.041 A 
ATOM     78  F   UNL A   1      40.771  34.231  34.832  1.00  0.00    -0.206 F 
ATOM     79  C   UNL A   1      38.814  33.801  37.844  1.00  0.00     0.022 A 
BRANCH  76  80
ATOM     80  S   UNL A   1      37.240  31.740  38.868  1.00  0.00     0.124 S 
ATOM     81  O   UNL A   1      36.082  32.612  38.711  1.00  0.00    -0.237 OA
ATOM     82  O   UNL A   1      37.098  30.384  38.348  1.00  0.00    -0.237 OA
ATOM     83  O   UNL A   1      37.932  31.844  40.151  1.00  0.00    -0.744 OA
ENDBRANCH  76  80
ENDBRANCH  49  73
BRANCH  61  84
ATOM     84  C   UNL A   1      44.943  27.972  34.155  1.00  0.00     0.023 A 
ATOM     85  C   UNL A   1      44.976  26.846  34.994  1.00  0.00     0.031 A 
ATOM     86  C   UNL A   1      46.118  28.738  34.030  1.00  0.00     0.131 A 
ATOM     87  C   UNL A   1      46.147  26.541  35.707  1.00  0.00     0.055 A 
ATOM     88  C   UNL A   1      47.295  28.396  34.694  1.00  0.00     0.041 A 
ATOM     89  F   UNL A   1      46.142  29.827  33.245  1.00  0.00    -0.206 F 
ATOM     90  C   UNL A   1      47.311  27.297  35.547  1.00  0.00     0.022 A 
BRANCH  87  91
ATOM     91  S   UNL A   1      46.113  25.179  36.907  1.00  0.00     0.124 S 
ATOM     92  O   UNL A   1      46.973  25.689  37.970  1.00  0.00    -0.237 OA
ATOM     93  O   UNL A   1      44.693  25.079  37.227  1.00  0.00    -0.237 OA
ATOM     94  O   UNL A   1      46.660  24.048  36.158  1.00  0.00    -0.744 OA
ENDBRANCH  87  91
ENDBRANCH  61  84
ENDBRANCH  35  36
ENDBRANCH  27  30
ENDBRANCH  25  26
ENDBRANCH  24  25
ENDBRANCH   1  24
TORSDOF 19
ENDMDL
MODEL 2
REMARK VINA RESULT:     -10.9      2.683      4.413
REMARK SMILES CCC(CC)(NC(=O)NCCc1nccs1)C(=O)NCCCNC(=O)c1ccc(-c2c3nc(c(-c4cc(S(=O)(=O)[O-])ccc4F)c4ccc([nH]4)c(-c4cc(S(=O)(=O)[O-])ccc4F)c4nc(c(-c5cc(S(=O)(=O)[O-])ccc5F)c5ccc2[nH]5)C=C4)C=C3)cc1
REMARK SMILES IDX 20 1 19 2 17 3 18 4 3 6 2 7 1 8 4 9 5 10 6 11 7 12 8 14 9 15
REMARK SMILES IDX 10 17 11 18 12 19 13 20 16 21 14 22 15 23 21 24 22 25 23 26
REMARK SMILES IDX 24 27 25 29 26 30 27 31 88 32 28 33 87 34 29 35 30 36 31 37
REMARK SMILES IDX 81 38 32 39 86 40 80 41 82 42 33 43 85 44 79 45 78 46 34 48
REMARK SMILES IDX 66 49 46 50 65 51 47 52 50 53 64 54 83 55 48 56 49 57 63 59
REMARK SMILES IDX 84 60 51 61 35 62 36 63 44 64 37 65 43 66 45 67 42 68 38 69
REMARK SMILES IDX 39 70 40 71 41 72 67 73 68 74 76 75 69 76 75 77 77 78 74 79
REMARK SMILES IDX 70 80 71 81 72 82 73 83 52 84 53 85 61 86 54 87 60 88 62 89
REMARK SMILES IDX 59 90 55 91 56 92 57 93 58 94
REMARK H PARENT 19 5 6 13 9 16 23 28 82 47 50 58
REMARK Flexibility Score: inf
ROOT
ATOM      1  C   UNL A   1      31.949  27.275  26.531  1.00  0.00     0.117 C 
ENDROOT
BRANCH   1   2
ATOM      2  N   UNL A   1      30.858  26.312  26.686  1.00  0.00    -0.354 N 
ATOM      3  C   UNL A   1      30.738  24.965  26.423  1.00  0.00     0.245 C 
ATOM      4  O   UNL A   1      29.738  24.400  26.882  1.00  0.00    -0.272 OA
ATOM      5  H   UNL A   1      30.038  26.711  27.056  1.00  0.00     0.163 HD
BRANCH   3   6
ATOM      6  C   UNL A   1      31.858  24.158  25.710  1.00  0.00     0.120 C 
BRANCH   6   7
ATOM      7  C   UNL A   1      32.957  24.965  24.958  1.00  0.00     0.035 C 
ATOM      8  C   UNL A   1      34.376  24.935  25.508  1.00  0.00     0.007 C 
ENDBRANCH   6   7
BRANCH   6   9
ATOM      9  C   UNL A   1      31.072  23.275  24.673  1.00  0.00     0.035 C 
ATOM     10  C   UNL A   1      30.655  23.926  23.362  1.00  0.00     0.007 C 
ENDBRANCH   6   9
BRANCH   6  11
ATOM     11  N   UNL A   1      32.541  23.350  26.741  1.00  0.00    -0.324 N 
ATOM     12  C   UNL A   1      33.167  22.168  26.780  1.00  0.00     0.315 C 
ATOM     13  H   UNL A   1      32.534  23.792  27.620  1.00  0.00     0.166 HD
ATOM     14  O   UNL A   1      33.437  21.742  27.907  1.00  0.00    -0.249 OA
ATOM     15  N   UNL A   1      33.607  21.443  25.745  1.00  0.00    -0.338 N 
ATOM     16  H   UNL A   1      34.301  20.808  26.034  1.00  0.00     0.165 HD
BRANCH  15  17
ATOM     17  C   UNL A   1      33.357  21.320  24.307  1.00  0.00     0.125 C 
BRANCH  17  18
ATOM     18  C   UNL A   1      32.479  20.159  23.838  1.00  0.00     0.089 C 
BRANCH  18  19
ATOM     19  C   UNL A   1      32.739  18.750  24.282  1.00  0.00     0.094 A 
ATOM     20  N   UNL A   1      32.540  18.401  25.540  1.00  0.00    -0.250 NA
ATOM     21  S   UNL A   1      33.289  17.486  23.265  1.00  0.00    -0.127 S 
ATOM     22  C   UNL A   1      32.851  17.073  25.730  1.00  0.00     0.123 A 
ATOM     23  C   UNL A   1      33.274  16.407  24.602  1.00  0.00     0.087 A 
ENDBRANCH  18  19
ENDBRANCH  17  18
ENDBRANCH  15  17
ENDBRANCH   6  11
ENDBRANCH   3   6
ENDBRANCH   1   2
BRANCH   1  24
ATOM     24  C   UNL A   1      31.741  28.469  25.604  1.00  0.00     0.042 C 
BRANCH  24  25
ATOM     25  C   UNL A   1      32.811  29.544  25.561  1.00  0.00     0.118 C 
BRANCH  25  26
ATOM     26  N   UNL A   1      32.367  30.837  26.041  1.00  0.00    -0.352 N 
ATOM     27  C   UNL A   1      32.948  31.659  26.982  1.00  0.00     0.251 C 
ATOM     28  H   UNL A   1      31.536  31.176  25.638  1.00  0.00     0.163 HD
ATOM     29  O   UNL A   1      32.372  32.678  27.335  1.00  0.00    -0.269 OA
BRANCH  27  30
ATOM     30  C   UNL A   1      34.250  31.288  27.588  1.00  0.00     0.039 A 
ATOM     31  C   UNL A   1      35.233  32.269  27.738  1.00  0.00     0.014 A 
ATOM     32  C   UNL A   1      34.504  29.979  28.004  1.00  0.00     0.014 A 
ATOM     33  C   UNL A   1      36.440  31.953  28.371  1.00  0.00     0.010 A 
ATOM     34  C   UNL A   1      35.686  29.676  28.677  1.00  0.00     0.010 A 
ATOM     35  C   UNL A   1      36.664  30.662  28.877  1.00  0.00    -0.014 A 
BRANCH  35  36
ATOM     36  C   UNL A   1      37.895  30.325  29.641  1.00  0.00     0.031 A 
ATOM     37  C   UNL A   1      38.888  29.344  29.084  1.00  0.00     0.074 A 
ATOM     38  C   UNL A   1      38.074  30.840  30.874  1.00  0.00     0.049 A 
ATOM     39  N   UNL A   1      39.959  28.840  29.643  1.00  0.00    -0.248 NA
ATOM     40  C   UNL A   1      38.626  28.846  27.726  1.00  0.00     0.031 C 
ATOM     41  C   UNL A   1      37.167  31.780  31.535  1.00  0.00     0.029 A 
ATOM     42  N   UNL A   1      39.067  30.631  31.801  1.00  0.00    -0.354 N 
ATOM     43  C   UNL A   1      40.498  27.960  28.711  1.00  0.00     0.074 A 
ATOM     44  C   UNL A   1      39.601  27.961  27.572  1.00  0.00     0.031 C 
ATOM     45  C   UNL A   1      37.647  32.071  32.755  1.00  0.00     0.029 A 
ATOM     46  C   UNL A   1      38.868  31.303  32.986  1.00  0.00     0.049 A 
ATOM     47  H   UNL A   1      39.846  30.054  31.634  1.00  0.00     0.167 HD
ATOM     48  C   UNL A   1      41.641  27.234  28.792  1.00  0.00     0.034 A 
ATOM     49  C   UNL A   1      39.574  31.288  34.135  1.00  0.00     0.034 A 
ATOM     50  C   UNL A   1      42.520  27.243  29.937  1.00  0.00     0.049 A 
ATOM     51  C   UNL A   1      40.815  30.434  34.221  1.00  0.00     0.074 A 
ATOM     52  C   UNL A   1      43.724  26.579  30.104  1.00  0.00     0.029 A 
ATOM     53  N   UNL A   1      42.288  27.939  31.117  1.00  0.00    -0.354 N 
ATOM     54  N   UNL A   1      41.334  29.638  33.314  1.00  0.00    -0.248 NA
ATOM     55  C   UNL A   1      41.572  30.483  35.479  1.00  0.00     0.031 C 
ATOM     56  C   UNL A   1      44.179  26.810  31.407  1.00  0.00     0.029 A 
ATOM     57  C   UNL A   1      43.308  27.694  32.024  1.00  0.00     0.049 A 
ATOM     58  H   UNL A   1      41.512  28.522  31.284  1.00  0.00     0.167 HD
ATOM     59  C   UNL A   1      42.502  29.132  33.878  1.00  0.00     0.074 A 
ATOM     60  C   UNL A   1      42.610  29.709  35.201  1.00  0.00     0.031 C 
ATOM     61  C   UNL A   1      43.411  28.276  33.342  1.00  0.00     0.034 A 
BRANCH  48  62
ATOM     62  C   UNL A   1      41.987  26.346  27.620  1.00  0.00     0.023 A 
ATOM     63  C   UNL A   1      41.564  25.007  27.556  1.00  0.00     0.031 A 
ATOM     64  C   UNL A   1      42.764  26.838  26.555  1.00  0.00     0.131 A 
ATOM     65  C   UNL A   1      41.980  24.189  26.495  1.00  0.00     0.055 A 
ATOM     66  C   UNL A   1      43.101  26.043  25.458  1.00  0.00     0.041 A 
ATOM     67  F   UNL A   1      43.217  28.101  26.566  1.00  0.00    -0.206 F 
ATOM     68  C   UNL A   1      42.722  24.704  25.430  1.00  0.00     0.022 A 
BRANCH  65  69
ATOM     69  S   UNL A   1      41.664  22.405  26.603  1.00  0.00     0.124 S 
ATOM     70  O   UNL A   1      40.212  22.355  26.441  1.00  0.00    -0.237 OA
ATOM     71  O   UNL A   1      42.449  21.878  25.495  1.00  0.00    -0.237 OA
ATOM     72  O   UNL A   1      42.146  22.052  27.937  1.00  0.00    -0.744 OA
ENDBRANCH  65  69
ENDBRANCH  48  62
BRANCH  49  73
ATOM     73  C   UNL A   1      39.123  32.093  35.307  1.00  0.00     0.023 A 
ATOM     74  C   UNL A   1      39.585  33.404  35.505  1.00  0.00     0.031 A 
ATOM     75  C   UNL A   1      38.257  31.547  36.272  1.00  0.00     0.131 A 
ATOM     76  C   UNL A   1      39.220  34.108  36.664  1.00  0.00     0.055 A 
ATOM     77  C   UNL A   1      37.849  32.274  37.392  1.00  0.00     0.041 A 
ATOM     78  F   UNL A   1      37.783  30.300  36.131  1.00  0.00    -0.206 F 
ATOM     79  C   UNL A   1      38.343  33.557  37.601  1.00  0.00     0.022 A 
BRANCH  76  80
ATOM     80  S   UNL A   1      39.987  35.721  36.975  1.00  0.00     0.124 S 
ATOM     81  O   UNL A   1      41.388  35.354  37.151  1.00  0.00    -0.237 OA
ATOM     82  O   UNL A   1      39.663  36.452  35.755  1.00  0.00    -0.237 OA
ATOM     83  O   UNL A   1      39.308  36.193  38.181  1.00  0.00    -0.744 OA
ENDBRANCH  76  80
ENDBRANCH  49  73
BRANCH  61  84
ATOM     84  C   UNL A   1      44.645  27.972  34.156  1.00  0.00     0.023 A 
ATOM     85  C   UNL A   1      44.716  26.878  35.035  1.00  0.00     0.031 A 
ATOM     86  C   UNL A   1      45.783  28.791  34.030  1.00  0.00     0.131 A 
ATOM     87  C   UNL A   1      45.883  26.657  35.784  1.00  0.00     0.055 A 
ATOM     88  C   UNL A   1      46.960  28.533  34.732  1.00  0.00     0.041 A 
ATOM     89  F   UNL A   1      45.771  29.853  33.208  1.00  0.00    -0.206 F 
ATOM     90  C   UNL A   1      47.011  27.466  35.623  1.00  0.00     0.022 A 
BRANCH  87  91
ATOM     91  S   UNL A   1      45.888  25.337  37.030  1.00  0.00     0.124 S 
ATOM     92  O   UNL A   1      44.766  24.509  36.598  1.00  0.00    -0.237 OA
ATOM     93  O   UNL A   1      47.215  24.753  36.862  1.00  0.00    -0.237 OA
ATOM     94  O   UNL A   1      45.681  26.052  38.288  1.00  0.00    -0.744 OA
ENDBRANCH  87  91
ENDBRANCH  61  84
ENDBRANCH  35  36
ENDBRANCH  27  30
ENDBRANCH  25  26
ENDBRANCH  24  25
ENDBRANCH   1  24
TORSDOF 19
ENDMDL
MODEL 3
REMARK VINA RESULT:     -10.7      2.457      3.715
REMARK SMILES CCC(CC)(NC(=O)NCCc1nccs1)C(=O)NCCCNC(=O)c1ccc(-c2c3nc(c(-c4cc(S(=O)(=O)[O-])ccc4F)c4ccc([nH]4)c(-c4cc(S(=O)(=O)[O-])ccc4F)c4nc(c(-c5cc(S(=O)(=O)[O-])ccc5F)c5ccc2[nH]5)C=C4)C=C3)cc1
REMARK SMILES IDX 20 1 19 2 17 3 18 4 3 6 2 7 1 8 4 9 5 10 6 11 7 12 8 14 9 15
REMARK SMILES IDX 10 17 11 18 12 19 13 20 16 21 14 22 15 23 21 24 22 25 23 26
REMARK SMILES IDX 24 27 25 29 26 30 27 31 88 32 28 33 87 34 29 35 30 36 31 37
REMARK SMILES IDX 81 38 32 39 86 40 80 41 82 42 33 43 85 44 79 45 78 46 34 48
REMARK SMILES IDX 66 49 46 50 65 51 47 52 50 53 64 54 83 55 48 56 49 57 63 59
REMARK SMILES IDX 84 60 51 61 35 62 36 63 44 64 37 65 43 66 45 67 42 68 38 69
REMARK SMILES IDX 39 70 40 71 41 72 67 73 68 74 76 75 69 76 75 77 77 78 74 79
REMARK SMILES IDX 70 80 71 81 72 82 73 83 52 84 53 85 61 86 54 87 60 88 62 89
REMARK SMILES IDX 59 90 55 91 56 92 57 93 58 94
REMARK H PARENT 19 5 6 13 9 16 23 28 82 47 50 58
REMARK Flexibility Score: inf
ROOT
ATOM      1  C   UNL A   1      31.428  29.964  25.181  1.00  0.00     0.117 C 
ENDROOT
BRANCH   1   2
ATOM      2  N   UNL A   1      32.630  29.819  24.359  1.00  0.00    -0.354 N 
ATOM      3  C   UNL A   1      33.118  28.807  23.563  1.00  0.00     0.245 C 
ATOM      4  O   UNL A   1      34.063  29.096  22.820  1.00  0.00    -0.272 OA
ATOM      5  H   UNL A   1      33.211  30.614  24.379  1.00  0.00     0.163 HD
BRANCH   3   6
ATOM      6  C   UNL A   1      32.438  27.411  23.489  1.00  0.00     0.120 C 
BRANCH   6   7
ATOM      7  C   UNL A   1      30.910  27.341  23.778  1.00  0.00     0.035 C 
ATOM      8  C   UNL A   1      29.952  27.877  22.723  1.00  0.00     0.007 C 
ENDBRANCH   6   7
BRANCH   6   9
ATOM      9  C   UNL A   1      33.204  26.573  24.578  1.00  0.00     0.035 C 
ATOM     10  C   UNL A   1      32.641  26.567  25.992  1.00  0.00     0.007 C 
ENDBRANCH   6   9
BRANCH   6  11
ATOM     11  N   UNL A   1      32.647  26.892  22.123  1.00  0.00    -0.324 N 
ATOM     12  C   UNL A   1      32.597  25.694  21.528  1.00  0.00     0.315 C 
ATOM     13  H   UNL A   1      32.882  27.608  21.489  1.00  0.00     0.166 HD
ATOM     14  O   UNL A   1      33.042  25.648  20.378  1.00  0.00    -0.249 OA
ATOM     15  N   UNL A   1      32.045  24.571  22.003  1.00  0.00    -0.338 N 
ATOM     16  H   UNL A   1      31.848  23.944  21.271  1.00  0.00     0.165 HD
BRANCH  15  17
ATOM     17  C   UNL A   1      31.650  24.004  23.294  1.00  0.00     0.125 C 
BRANCH  17  18
ATOM     18  C   UNL A   1      31.936  22.521  23.534  1.00  0.00     0.089 C 
BRANCH  18  19
ATOM     19  C   UNL A   1      32.941  22.071  24.553  1.00  0.00     0.094 A 
ATOM     20  N   UNL A   1      33.777  21.087  24.273  1.00  0.00    -0.250 NA
ATOM     21  S   UNL A   1      33.125  22.747  26.115  1.00  0.00    -0.127 S 
ATOM     22  C   UNL A   1      34.600  20.830  25.348  1.00  0.00     0.123 A 
ATOM     23  C   UNL A   1      34.395  21.638  26.444  1.00  0.00     0.087 A 
ENDBRANCH  18  19
ENDBRANCH  17  18
ENDBRANCH  15  17
ENDBRANCH   6  11
ENDBRANCH   3   6
ENDBRANCH   1   2
BRANCH   1  24
ATOM     24  C   UNL A   1      31.189  31.291  25.895  1.00  0.00     0.042 C 
BRANCH  24  25
ATOM     25  C   UNL A   1      32.189  31.738  26.944  1.00  0.00     0.118 C 
BRANCH  25  26
ATOM     26  N   UNL A   1      32.160  33.162  27.217  1.00  0.00    -0.352 N 
ATOM     27  C   UNL A   1      33.047  33.923  27.947  1.00  0.00     0.251 C 
ATOM     28  H   UNL A   1      31.402  33.652  26.828  1.00  0.00     0.163 HD
ATOM     29  O   UNL A   1      32.804  35.103  28.156  1.00  0.00    -0.269 OA
BRANCH  27  30
ATOM     30  C   UNL A   1      34.274  33.302  28.504  1.00  0.00     0.039 A 
ATOM     31  C   UNL A   1      35.486  33.988  28.408  1.00  0.00     0.014 A 
ATOM     32  C   UNL A   1      34.230  32.047  29.117  1.00  0.00     0.014 A 
ATOM     33  C   UNL A   1      36.639  33.449  28.991  1.00  0.00     0.010 A 
ATOM     34  C   UNL A   1      35.368  31.532  29.738  1.00  0.00     0.010 A 
ATOM     35  C   UNL A   1      36.583  32.232  29.690  1.00  0.00    -0.014 A 
BRANCH  35  36
ATOM     36  C   UNL A   1      37.768  31.686  30.403  1.00  0.00     0.031 A 
ATOM     37  C   UNL A   1      38.623  30.632  29.755  1.00  0.00     0.074 A 
ATOM     38  C   UNL A   1      38.024  32.078  31.667  1.00  0.00     0.049 A 
ATOM     39  N   UNL A   1      39.627  29.957  30.254  1.00  0.00    -0.248 NA
ATOM     40  C   UNL A   1      38.286  30.276  28.369  1.00  0.00     0.031 C 
ATOM     41  C   UNL A   1      37.250  33.072  32.414  1.00  0.00     0.029 A 
ATOM     42  N   UNL A   1      38.991  31.676  32.556  1.00  0.00    -0.354 N 
ATOM     43  C   UNL A   1      40.040  29.090  29.248  1.00  0.00     0.074 A 
ATOM     44  C   UNL A   1      39.139  29.291  28.131  1.00  0.00     0.031 C 
ATOM     45  C   UNL A   1      37.775  33.206  33.642  1.00  0.00     0.029 A 
ATOM     46  C   UNL A   1      38.891  32.276  33.791  1.00  0.00     0.049 A 
ATOM     47  H   UNL A   1      39.689  31.020  32.332  1.00  0.00     0.167 HD
ATOM     48  C   UNL A   1      41.083  28.222  29.253  1.00  0.00     0.034 A 
ATOM     49  C   UNL A   1      39.601  32.084  34.922  1.00  0.00     0.034 A 
ATOM     50  C   UNL A   1      41.967  28.032  30.378  1.00  0.00     0.049 A 
ATOM     51  C   UNL A   1      40.725  31.076  34.920  1.00  0.00     0.074 A 
ATOM     52  C   UNL A   1      43.078  27.211  30.472  1.00  0.00     0.029 A 
ATOM     53  N   UNL A   1      41.837  28.660  31.611  1.00  0.00    -0.354 N 
ATOM     54  N   UNL A   1      41.129  30.293  33.946  1.00  0.00    -0.248 NA
ATOM     55  C   UNL A   1      41.493  30.933  36.164  1.00  0.00     0.031 C 
ATOM     56  C   UNL A   1      43.572  27.283  31.779  1.00  0.00     0.029 A 
ATOM     57  C   UNL A   1      42.827  28.219  32.477  1.00  0.00     0.049 A 
ATOM     58  H   UNL A   1      41.143  29.322  31.836  1.00  0.00     0.167 HD
ATOM     59  C   UNL A   1      42.228  29.602  34.449  1.00  0.00     0.074 A 
ATOM     60  C   UNL A   1      42.422  30.058  35.809  1.00  0.00     0.031 C 
ATOM     61  C   UNL A   1      43.016  28.682  33.833  1.00  0.00     0.034 A 
BRANCH  48  62
ATOM     62  C   UNL A   1      41.301  27.388  28.012  1.00  0.00     0.023 A 
ATOM     63  C   UNL A   1      40.937  26.032  27.957  1.00  0.00     0.031 A 
ATOM     64  C   UNL A   1      41.894  27.953  26.867  1.00  0.00     0.131 A 
ATOM     65  C   UNL A   1      41.237  25.269  26.819  1.00  0.00     0.055 A 
ATOM     66  C   UNL A   1      42.110  27.210  25.705  1.00  0.00     0.041 A 
ATOM     67  F   UNL A   1      42.284  29.238  26.863  1.00  0.00    -0.206 F 
ATOM     68  C   UNL A   1      41.796  25.855  25.681  1.00  0.00     0.022 A 
BRANCH  65  69
ATOM     69  S   UNL A   1      41.026  23.469  26.903  1.00  0.00     0.124 S 
ATOM     70  O   UNL A   1      41.437  23.190  28.278  1.00  0.00    -0.237 OA
ATOM     71  O   UNL A   1      39.607  23.304  26.615  1.00  0.00    -0.237 OA
ATOM     72  O   UNL A   1      41.937  22.969  25.876  1.00  0.00    -0.744 OA
ENDBRANCH  65  69
ENDBRANCH  48  62
BRANCH  49  73
ATOM     73  C   UNL A   1      39.268  32.848  36.160  1.00  0.00     0.023 A 
ATOM     74  C   UNL A   1      39.765  34.144  36.365  1.00  0.00     0.031 A 
ATOM     75  C   UNL A   1      38.483  32.274  37.176  1.00  0.00     0.131 A 
ATOM     76  C   UNL A   1      39.514  34.807  37.578  1.00  0.00     0.055 A 
ATOM     77  C   UNL A   1      38.186  32.961  38.356  1.00  0.00     0.041 A 
ATOM     78  F   UNL A   1      37.980  31.039  37.032  1.00  0.00    -0.206 F 
ATOM     79  C   UNL A   1      38.716  34.230  38.568  1.00  0.00     0.022 A 
BRANCH  76  80
ATOM     80  S   UNL A   1      40.330  36.398  37.881  1.00  0.00     0.124 S 
ATOM     81  O   UNL A   1      40.639  36.835  36.524  1.00  0.00    -0.237 OA
ATOM     82  O   UNL A   1      39.287  37.145  38.575  1.00  0.00    -0.237 OA
ATOM     83  O   UNL A   1      41.485  36.037  38.700  1.00  0.00    -0.744 OA
ENDBRANCH  76  80
ENDBRANCH  49  73
BRANCH  61  84
ATOM     84  C   UNL A   1      44.210  28.164  34.597  1.00  0.00     0.023 A 
ATOM     85  C   UNL A   1      44.148  27.009  35.395  1.00  0.00     0.031 A 
ATOM     86  C   UNL A   1      45.443  28.837  34.505  1.00  0.00     0.131 A 
ATOM     87  C   UNL A   1      45.285  26.587  36.103  1.00  0.00     0.055 A 
ATOM     88  C   UNL A   1      46.584  28.379  35.163  1.00  0.00     0.041 A 
ATOM     89  F   UNL A   1      45.559  29.948  33.761  1.00  0.00    -0.206 F 
ATOM     90  C   UNL A   1      46.506  27.253  35.976  1.00  0.00     0.022 A 
BRANCH  87  91
ATOM     91  S   UNL A   1      45.133  25.190  37.252  1.00  0.00     0.124 S 
ATOM     92  O   UNL A   1      44.838  24.083  36.347  1.00  0.00    -0.237 OA
ATOM     93  O   UNL A   1      46.447  25.163  37.887  1.00  0.00    -0.237 OA
ATOM     94  O   UNL A   1      44.030  25.584  38.128  1.00  0.00    -0.744 OA
ENDBRANCH  87  91
ENDBRANCH  61  84
ENDBRANCH  35  36
ENDBRANCH  27  30
ENDBRANCH  25  26
ENDBRANCH  24  25
ENDBRANCH   1  24
TORSDOF 19
ENDMDL
