MODEL 1
REMARK VINA RESULT:     -11.1      0.000      0.000
REMARK SMILES CC[C@@H]1SC[C@H](C(=O)NCCCNC(=O)c2ccc(-c3c4nc(c(-c5cc(S(=O)(=O)[O-])ccc5F)c5ccc([nH]5)c(-c5cc(S(=O)(=O)[O-])ccc5F)c5nc(c(-c6cc(S(=O)(=O)[O-])ccc6F)c6ccc3[nH]6)C=C5)C=C4)cc2)N1C(=O)[C@](C)([NH3+])C(F)(F)F
REMARK SMILES IDX 11 1 10 2 9 3 7 4 8 5 6 7 3 8 4 9 79 10 5 11 2 12 1 13 80 14
REMARK SMILES IDX 81 15 82 16 83 17 84 18 85 22 86 23 87 24 88 25 12 26 13 27
REMARK SMILES IDX 14 28 15 30 16 31 17 32 78 33 18 34 77 35 19 36 20 37 21 38
REMARK SMILES IDX 71 39 22 40 76 41 70 42 72 43 23 44 75 45 69 46 68 47 24 49
REMARK SMILES IDX 56 50 36 51 55 52 37 53 40 54 54 55 73 56 38 57 39 58 53 60
REMARK SMILES IDX 74 61 41 62 25 63 26 64 34 65 27 66 33 67 35 68 32 69 28 70
REMARK SMILES IDX 29 71 30 72 31 73 57 74 58 75 66 76 59 77 65 78 67 79 64 80
REMARK SMILES IDX 60 81 61 82 62 83 63 84 42 85 43 86 51 87 44 88 50 89 52 90
REMARK SMILES IDX 49 91 45 92 46 93 47 94 48 95
REMARK H PARENT 9 6 84 19 84 20 84 21 13 29 72 48 40 59
REMARK Flexibility Score: inf
ROOT
ATOM      1  C   UNL A   1      32.893  28.138  26.852  1.00  0.00     0.042 C 
ENDROOT
BRANCH   1   2
ATOM      2  C   UNL A   1      32.584  26.923  25.989  1.00  0.00     0.117 C 
BRANCH   2   3
ATOM      3  N   UNL A   1      31.721  25.956  26.648  1.00  0.00    -0.354 N 
ATOM      4  C   UNL A   1      31.813  24.590  26.693  1.00  0.00     0.243 C 
ATOM      5  O   UNL A   1      30.986  23.972  27.367  1.00  0.00    -0.273 OA
ATOM      6  H   UNL A   1      30.955  26.340  27.133  1.00  0.00     0.163 HD
BRANCH   4   7
ATOM      7  C   UNL A   1      32.995  23.882  25.994  1.00  0.00     0.185 C 
ATOM      8  C   UNL A   1      33.268  21.646  24.965  1.00  0.00     0.144 C 
ATOM      9  S   UNL A   1      34.527  21.745  26.285  1.00  0.00    -0.134 SA
ATOM     10  N   UNL A   1      32.546  22.921  24.944  1.00  0.00    -0.312 N 
ATOM     11  C   UNL A   1      33.803  23.179  27.074  1.00  0.00     0.107 C 
BRANCH   8  12
ATOM     12  C   UNL A   1      32.499  20.326  25.167  1.00  0.00     0.033 C 
ATOM     13  C   UNL A   1      32.491  19.340  24.013  1.00  0.00     0.007 C 
ENDBRANCH   8  12
BRANCH  10  14
ATOM     14  C   UNL A   1      31.941  23.527  23.850  1.00  0.00     0.294 C 
ATOM     15  O   UNL A   1      30.697  23.460  23.772  1.00  0.00    -0.267 OA
BRANCH  14  16
ATOM     16  C   UNL A   1      32.642  24.299  22.691  1.00  0.00     0.267 C 
ATOM     17  C   UNL A   1      33.713  25.338  22.963  1.00  0.00     0.100 C 
BRANCH  16  18
ATOM     18  N   UNL A   1      31.545  25.086  21.995  1.00  0.00    -0.337 N 
ATOM     19  H   UNL A   1      31.195  24.552  21.199  1.00  0.00     0.345 HD
ATOM     20  H   UNL A   1      31.920  25.977  21.669  1.00  0.00     0.345 HD
ATOM     21  H   UNL A   1      30.783  25.258  22.651  1.00  0.00     0.345 HD
ENDBRANCH  16  18
BRANCH  16  22
ATOM     22  C   UNL A   1      33.275  23.178  21.814  1.00  0.00     0.453 C 
ATOM     23  F   UNL A   1      33.351  23.567  20.513  1.00  0.00    -0.164 F 
ATOM     24  F   UNL A   1      34.543  22.902  22.199  1.00  0.00    -0.164 F 
ATOM     25  F   UNL A   1      32.571  22.027  21.833  1.00  0.00    -0.164 F 
ENDBRANCH  16  22
ENDBRANCH  14  16
ENDBRANCH  10  14
ENDBRANCH   4   7
ENDBRANCH   2   3
ENDBRANCH   1   2
BRANCH   1  26
ATOM     26  C   UNL A   1      33.772  29.185  26.176  1.00  0.00     0.118 C 
BRANCH  26  27
ATOM     27  N   UNL A   1      33.614  30.511  26.756  1.00  0.00    -0.352 N 
ATOM     28  C   UNL A   1      34.353  31.166  27.711  1.00  0.00     0.251 C 
ATOM     29  H   UNL A   1      32.850  31.024  26.406  1.00  0.00     0.163 HD
ATOM     30  O   UNL A   1      33.908  32.212  28.179  1.00  0.00    -0.269 OA
BRANCH  28  31
ATOM     31  C   UNL A   1      35.650  30.630  28.188  1.00  0.00     0.039 A 
ATOM     32  C   UNL A   1      35.644  29.687  29.222  1.00  0.00     0.014 A 
ATOM     33  C   UNL A   1      36.869  31.083  27.677  1.00  0.00     0.014 A 
ATOM     34  C   UNL A   1      36.848  29.176  29.711  1.00  0.00     0.010 A 
ATOM     35  C   UNL A   1      38.065  30.509  28.105  1.00  0.00     0.010 A 
ATOM     36  C   UNL A   1      38.071  29.567  29.142  1.00  0.00    -0.014 A 
BRANCH  36  37
ATOM     37  C   UNL A   1      39.359  29.030  29.656  1.00  0.00     0.031 A 
ATOM     38  C   UNL A   1      40.023  29.673  30.848  1.00  0.00     0.074 A 
ATOM     39  C   UNL A   1      39.946  27.988  29.035  1.00  0.00     0.049 A 
ATOM     40  N   UNL A   1      41.153  29.366  31.434  1.00  0.00    -0.248 NA
ATOM     41  C   UNL A   1      39.340  30.834  31.437  1.00  0.00     0.031 C 
ATOM     42  C   UNL A   1      39.426  27.316  27.842  1.00  0.00     0.029 A 
ATOM     43  N   UNL A   1      41.105  27.312  29.318  1.00  0.00    -0.354 N 
ATOM     44  C   UNL A   1      41.321  30.302  32.450  1.00  0.00     0.074 A 
ATOM     45  C   UNL A   1      40.213  31.227  32.351  1.00  0.00     0.031 C 
ATOM     46  C   UNL A   1      40.246  26.302  27.518  1.00  0.00     0.029 A 
ATOM     47  C   UNL A   1      41.366  26.274  28.452  1.00  0.00     0.049 A 
ATOM     48  H   UNL A   1      41.696  27.546  30.070  1.00  0.00     0.167 HD
ATOM     49  C   UNL A   1      42.294  30.370  33.394  1.00  0.00     0.034 A 
ATOM     50  C   UNL A   1      42.390  25.398  28.419  1.00  0.00     0.034 A 
ATOM     51  C   UNL A   1      43.385  29.429  33.486  1.00  0.00     0.049 A 
ATOM     52  C   UNL A   1      43.449  25.480  29.487  1.00  0.00     0.074 A 
ATOM     53  C   UNL A   1      44.405  29.376  34.421  1.00  0.00     0.029 A 
ATOM     54  N   UNL A   1      43.602  28.375  32.607  1.00  0.00    -0.354 N 
ATOM     55  N   UNL A   1      43.567  26.341  30.473  1.00  0.00    -0.248 NA
ATOM     56  C   UNL A   1      44.501  24.457  29.452  1.00  0.00     0.031 C 
ATOM     57  C   UNL A   1      45.266  28.329  34.074  1.00  0.00     0.029 A 
ATOM     58  C   UNL A   1      44.745  27.677  32.967  1.00  0.00     0.049 A 
ATOM     59  H   UNL A   1      43.027  28.155  31.838  1.00  0.00     0.167 HD
ATOM     60  C   UNL A   1      44.686  25.938  31.196  1.00  0.00     0.074 A 
ATOM     61  C   UNL A   1      45.192  24.747  30.543  1.00  0.00     0.031 C 
ATOM     62  C   UNL A   1      45.243  26.496  32.302  1.00  0.00     0.034 A 
BRANCH  49  63
ATOM     63  C   UNL A   1      42.223  31.512  34.382  1.00  0.00     0.023 A 
ATOM     64  C   UNL A   1      41.335  31.491  35.474  1.00  0.00     0.031 A 
ATOM     65  C   UNL A   1      43.022  32.656  34.212  1.00  0.00     0.131 A 
ATOM     66  C   UNL A   1      41.207  32.620  36.297  1.00  0.00     0.055 A 
ATOM     67  C   UNL A   1      42.952  33.742  35.087  1.00  0.00     0.041 A 
ATOM     68  F   UNL A   1      43.874  32.746  33.179  1.00  0.00    -0.206 F 
ATOM     69  C   UNL A   1      42.028  33.735  36.127  1.00  0.00     0.022 A 
BRANCH  66  70
ATOM     70  S   UNL A   1      39.844  32.667  37.494  1.00  0.00     0.124 S 
ATOM     71  O   UNL A   1      39.022  31.543  37.050  1.00  0.00    -0.237 OA
ATOM     72  O   UNL A   1      40.532  32.494  38.766  1.00  0.00    -0.237 OA
ATOM     73  O   UNL A   1      39.247  33.986  37.281  1.00  0.00    -0.744 OA
ENDBRANCH  66  70
ENDBRANCH  49  63
BRANCH  50  74
ATOM     74  C   UNL A   1      42.458  24.357  27.354  1.00  0.00     0.023 A 
ATOM     75  C   UNL A   1      41.657  23.206  27.412  1.00  0.00     0.031 A 
ATOM     76  C   UNL A   1      43.361  24.477  26.282  1.00  0.00     0.131 A 
ATOM     77  C   UNL A   1      41.807  22.198  26.448  1.00  0.00     0.055 A 
ATOM     78  C   UNL A   1      43.470  23.495  25.295  1.00  0.00     0.041 A 
ATOM     79  F   UNL A   1      44.144  25.562  26.173  1.00  0.00    -0.206 F 
ATOM     80  C   UNL A   1      42.700  22.340  25.383  1.00  0.00     0.022 A 
BRANCH  77  81
ATOM     81  S   UNL A   1      40.875  20.654  26.652  1.00  0.00     0.124 S 
ATOM     82  O   UNL A   1      39.582  21.010  26.079  1.00  0.00    -0.237 OA
ATOM     83  O   UNL A   1      41.680  19.712  25.883  1.00  0.00    -0.237 OA
ATOM     84  O   UNL A   1      40.882  20.442  28.098  1.00  0.00    -0.744 OA
ENDBRANCH  77  81
ENDBRANCH  50  74
BRANCH  62  85
ATOM     85  C   UNL A   1      46.433  25.782  32.901  1.00  0.00     0.023 A 
ATOM     86  C   UNL A   1      47.744  26.019  32.453  1.00  0.00     0.031 A 
ATOM     87  C   UNL A   1      46.243  24.818  33.907  1.00  0.00     0.131 A 
ATOM     88  C   UNL A   1      48.804  25.247  32.952  1.00  0.00     0.055 A 
ATOM     89  C   UNL A   1      47.311  24.102  34.450  1.00  0.00     0.041 A 
ATOM     90  F   UNL A   1      45.013  24.548  34.373  1.00  0.00    -0.206 F 
ATOM     91  C   UNL A   1      48.598  24.301  33.960  1.00  0.00     0.022 A 
BRANCH  88  92
ATOM     92  S   UNL A   1      50.436  25.405  32.175  1.00  0.00     0.124 S 
ATOM     93  O   UNL A   1      51.299  25.643  33.326  1.00  0.00    -0.237 OA
ATOM     94  O   UNL A   1      50.593  24.112  31.516  1.00  0.00    -0.237 OA
ATOM     95  O   UNL A   1      50.276  26.544  31.273  1.00  0.00    -0.744 OA
ENDBRANCH  88  92
ENDBRANCH  62  85
ENDBRANCH  36  37
ENDBRANCH  28  31
ENDBRANCH  26  27
ENDBRANCH   1  26
TORSDOF 18
ENDMDL
MODEL 2
REMARK VINA RESULT:     -11.0      2.109      2.514
REMARK SMILES CC[C@@H]1SC[C@H](C(=O)NCCCNC(=O)c2ccc(-c3c4nc(c(-c5cc(S(=O)(=O)[O-])ccc5F)c5ccc([nH]5)c(-c5cc(S(=O)(=O)[O-])ccc5F)c5nc(c(-c6cc(S(=O)(=O)[O-])ccc6F)c6ccc3[nH]6)C=C5)C=C4)cc2)N1C(=O)[C@](C)([NH3+])C(F)(F)F
REMARK SMILES IDX 11 1 10 2 9 3 7 4 8 5 6 7 3 8 4 9 79 10 5 11 2 12 1 13 80 14
REMARK SMILES IDX 81 15 82 16 83 17 84 18 85 22 86 23 87 24 88 25 12 26 13 27
REMARK SMILES IDX 14 28 15 30 16 31 17 32 78 33 18 34 77 35 19 36 20 37 21 38
REMARK SMILES IDX 71 39 22 40 76 41 70 42 72 43 23 44 75 45 69 46 68 47 24 49
REMARK SMILES IDX 56 50 36 51 55 52 37 53 40 54 54 55 73 56 38 57 39 58 53 60
REMARK SMILES IDX 74 61 41 62 25 63 26 64 34 65 27 66 33 67 35 68 32 69 28 70
REMARK SMILES IDX 29 71 30 72 31 73 57 74 58 75 66 76 59 77 65 78 67 79 64 80
REMARK SMILES IDX 60 81 61 82 62 83 63 84 42 85 43 86 51 87 44 88 50 89 52 90
REMARK SMILES IDX 49 91 45 92 46 93 47 94 48 95
REMARK H PARENT 9 6 84 19 84 20 84 21 13 29 72 48 40 59
REMARK Flexibility Score: inf
ROOT
ATOM      1  C   UNL A   1      31.935  28.467  26.465  1.00  0.00     0.042 C 
ENDROOT
BRANCH   1   2
ATOM      2  C   UNL A   1      32.391  27.061  26.828  1.00  0.00     0.117 C 
BRANCH   2   3
ATOM      3  N   UNL A   1      31.312  26.087  26.821  1.00  0.00    -0.354 N 
ATOM      4  C   UNL A   1      31.341  24.753  26.513  1.00  0.00     0.243 C 
ATOM      5  O   UNL A   1      30.299  24.105  26.630  1.00  0.00    -0.273 OA
ATOM      6  H   UNL A   1      30.428  26.440  27.073  1.00  0.00     0.163 HD
BRANCH   4   7
ATOM      7  C   UNL A   1      32.683  24.086  26.135  1.00  0.00     0.185 C 
ATOM      8  C   UNL A   1      33.343  22.477  24.372  1.00  0.00     0.144 C 
ATOM      9  S   UNL A   1      33.763  21.678  25.960  1.00  0.00    -0.134 SA
ATOM     10  N   UNL A   1      32.787  23.799  24.674  1.00  0.00    -0.312 N 
ATOM     11  C   UNL A   1      32.801  22.811  26.956  1.00  0.00     0.107 C 
BRANCH   8  12
ATOM     12  C   UNL A   1      32.522  21.464  23.553  1.00  0.00     0.033 C 
ATOM     13  C   UNL A   1      32.423  20.048  24.091  1.00  0.00     0.007 C 
ENDBRANCH   8  12
BRANCH  10  14
ATOM     14  C   UNL A   1      32.846  24.939  23.881  1.00  0.00     0.294 C 
ATOM     15  O   UNL A   1      33.882  25.631  23.948  1.00  0.00    -0.267 OA
BRANCH  14  16
ATOM     16  C   UNL A   1      31.756  25.462  22.896  1.00  0.00     0.267 C 
ATOM     17  C   UNL A   1      31.065  26.795  23.111  1.00  0.00     0.100 C 
BRANCH  16  18
ATOM     18  N   UNL A   1      30.622  24.454  22.963  1.00  0.00    -0.337 N 
ATOM     19  H   UNL A   1      30.576  23.935  22.086  1.00  0.00     0.345 HD
ATOM     20  H   UNL A   1      29.740  24.944  23.115  1.00  0.00     0.345 HD
ATOM     21  H   UNL A   1      30.788  23.806  23.733  1.00  0.00     0.345 HD
ENDBRANCH  16  18
BRANCH  16  22
ATOM     22  C   UNL A   1      32.480  25.515  21.518  1.00  0.00     0.453 C 
ATOM     23  F   UNL A   1      31.611  25.852  20.528  1.00  0.00    -0.164 F 
ATOM     24  F   UNL A   1      33.451  26.458  21.504  1.00  0.00    -0.164 F 
ATOM     25  F   UNL A   1      33.034  24.337  21.162  1.00  0.00    -0.164 F 
ENDBRANCH  16  22
ENDBRANCH  14  16
ENDBRANCH  10  14
ENDBRANCH   4   7
ENDBRANCH   2   3
ENDBRANCH   1   2
BRANCH   1  26
ATOM     26  C   UNL A   1      33.050  29.386  25.974  1.00  0.00     0.118 C 
BRANCH  26  27
ATOM     27  N   UNL A   1      32.845  30.774  26.361  1.00  0.00    -0.352 N 
ATOM     28  C   UNL A   1      33.501  31.554  27.281  1.00  0.00     0.251 C 
ATOM     29  H   UNL A   1      32.114  31.230  25.884  1.00  0.00     0.163 HD
ATOM     30  O   UNL A   1      33.020  32.648  27.571  1.00  0.00    -0.269 OA
BRANCH  28  31
ATOM     31  C   UNL A   1      34.752  31.097  27.932  1.00  0.00     0.039 A 
ATOM     32  C   UNL A   1      35.837  31.979  27.990  1.00  0.00     0.014 A 
ATOM     33  C   UNL A   1      34.895  29.799  28.428  1.00  0.00     0.014 A 
ATOM     34  C   UNL A   1      37.039  31.574  28.576  1.00  0.00     0.010 A 
ATOM     35  C   UNL A   1      36.063  29.424  29.090  1.00  0.00     0.010 A 
ATOM     36  C   UNL A   1      37.156  30.299  29.152  1.00  0.00    -0.014 A 
BRANCH  36  37
ATOM     37  C   UNL A   1      38.431  29.857  29.777  1.00  0.00     0.031 A 
ATOM     38  C   UNL A   1      38.841  30.401  31.122  1.00  0.00     0.074 A 
ATOM     39  C   UNL A   1      39.233  28.992  29.124  1.00  0.00     0.049 A 
ATOM     40  N   UNL A   1      39.919  30.155  31.823  1.00  0.00    -0.248 NA
ATOM     41  C   UNL A   1      37.932  31.375  31.744  1.00  0.00     0.031 C 
ATOM     42  C   UNL A   1      38.969  28.436  27.795  1.00  0.00     0.029 A 
ATOM     43  N   UNL A   1      40.430  28.430  29.487  1.00  0.00    -0.354 N 
ATOM     44  C   UNL A   1      39.823  30.953  32.960  1.00  0.00     0.074 A 
ATOM     45  C   UNL A   1      38.618  31.740  32.816  1.00  0.00     0.031 C 
ATOM     46  C   UNL A   1      39.957  27.587  27.470  1.00  0.00     0.029 A 
ATOM     47  C   UNL A   1      40.942  27.565  28.547  1.00  0.00     0.049 A 
ATOM     48  H   UNL A   1      40.882  28.626  30.339  1.00  0.00     0.167 HD
ATOM     49  C   UNL A   1      40.649  31.005  34.036  1.00  0.00     0.034 A 
ATOM     50  C   UNL A   1      42.075  26.834  28.555  1.00  0.00     0.034 A 
ATOM     51  C   UNL A   1      41.841  30.202  34.169  1.00  0.00     0.049 A 
ATOM     52  C   UNL A   1      42.968  26.894  29.767  1.00  0.00     0.074 A 
ATOM     53  C   UNL A   1      42.730  30.142  35.228  1.00  0.00     0.029 A 
ATOM     54  N   UNL A   1      42.314  29.316  33.208  1.00  0.00    -0.354 N 
ATOM     55  N   UNL A   1      42.837  27.615  30.858  1.00  0.00    -0.248 NA
ATOM     56  C   UNL A   1      44.149  26.023  29.759  1.00  0.00     0.031 C 
ATOM     57  C   UNL A   1      43.768  29.268  34.883  1.00  0.00     0.029 A 
ATOM     58  C   UNL A   1      43.488  28.721  33.641  1.00  0.00     0.049 A 
ATOM     59  H   UNL A   1      41.878  29.138  32.343  1.00  0.00     0.167 HD
ATOM     60  C   UNL A   1      43.900  27.254  31.680  1.00  0.00     0.074 A 
ATOM     61  C   UNL A   1      44.648  26.238  30.966  1.00  0.00     0.031 C 
ATOM     62  C   UNL A   1      44.228  27.714  32.915  1.00  0.00     0.034 A 
BRANCH  49  63
ATOM     63  C   UNL A   1      40.292  31.979  35.136  1.00  0.00     0.023 A 
ATOM     64  C   UNL A   1      39.370  31.649  36.147  1.00  0.00     0.031 A 
ATOM     65  C   UNL A   1      40.849  33.270  35.157  1.00  0.00     0.131 A 
ATOM     66  C   UNL A   1      38.970  32.619  37.078  1.00  0.00     0.055 A 
ATOM     67  C   UNL A   1      40.511  34.204  36.139  1.00  0.00     0.041 A 
ATOM     68  F   UNL A   1      41.718  33.654  34.209  1.00  0.00    -0.206 F 
ATOM     69  C   UNL A   1      39.553  33.886  37.097  1.00  0.00     0.022 A 
BRANCH  66  70
ATOM     70  S   UNL A   1      37.563  32.248  38.163  1.00  0.00     0.124 S 
ATOM     71  O   UNL A   1      36.516  33.088  37.585  1.00  0.00    -0.237 OA
ATOM     72  O   UNL A   1      37.399  30.811  37.989  1.00  0.00    -0.237 OA
ATOM     73  O   UNL A   1      38.030  32.668  39.484  1.00  0.00    -0.744 OA
ENDBRANCH  66  70
ENDBRANCH  49  63
BRANCH  50  74
ATOM     74  C   UNL A   1      42.424  25.970  27.391  1.00  0.00     0.023 A 
ATOM     75  C   UNL A   1      42.014  24.628  27.335  1.00  0.00     0.031 A 
ATOM     76  C   UNL A   1      43.213  26.462  26.336  1.00  0.00     0.131 A 
ATOM     77  C   UNL A   1      42.434  23.811  26.275  1.00  0.00     0.055 A 
ATOM     78  C   UNL A   1      43.585  25.659  25.256  1.00  0.00     0.041 A 
ATOM     79  F   UNL A   1      43.625  27.740  26.335  1.00  0.00    -0.206 F 
ATOM     80  C   UNL A   1      43.207  24.320  25.229  1.00  0.00     0.022 A 
BRANCH  77  81
ATOM     81  S   UNL A   1      42.025  22.044  26.325  1.00  0.00     0.124 S 
ATOM     82  O   UNL A   1      42.865  21.514  25.258  1.00  0.00    -0.237 OA
ATOM     83  O   UNL A   1      42.408  21.683  27.685  1.00  0.00    -0.237 OA
ATOM     84  O   UNL A   1      40.587  22.021  26.058  1.00  0.00    -0.744 OA
ENDBRANCH  77  81
ENDBRANCH  50  74
BRANCH  62  85
ATOM     85  C   UNL A   1      45.421  27.074  33.588  1.00  0.00     0.023 A 
ATOM     86  C   UNL A   1      45.290  25.940  34.408  1.00  0.00     0.031 A 
ATOM     87  C   UNL A   1      46.701  27.636  33.436  1.00  0.00     0.131 A 
ATOM     88  C   UNL A   1      46.404  25.452  35.108  1.00  0.00     0.055 A 
ATOM     89  C   UNL A   1      47.818  27.103  34.081  1.00  0.00     0.041 A 
ATOM     90  F   UNL A   1      46.885  28.720  32.667  1.00  0.00    -0.206 F 
ATOM     91  C   UNL A   1      47.670  26.017  34.937  1.00  0.00     0.022 A 
BRANCH  88  92
ATOM     92  S   UNL A   1      46.150  24.150  36.346  1.00  0.00     0.124 S 
ATOM     93  O   UNL A   1      47.511  23.893  36.802  1.00  0.00    -0.237 OA
ATOM     94  O   UNL A   1      45.267  24.802  37.307  1.00  0.00    -0.237 OA
ATOM     95  O   UNL A   1      45.538  23.065  35.580  1.00  0.00    -0.744 OA
ENDBRANCH  88  92
ENDBRANCH  62  85
ENDBRANCH  36  37
ENDBRANCH  28  31
ENDBRANCH  26  27
ENDBRANCH   1  26
TORSDOF 18
ENDMDL
MODEL 3
REMARK VINA RESULT:     -10.8      2.584      7.981
REMARK SMILES CC[C@@H]1SC[C@H](C(=O)NCCCNC(=O)c2ccc(-c3c4nc(c(-c5cc(S(=O)(=O)[O-])ccc5F)c5ccc([nH]5)c(-c5cc(S(=O)(=O)[O-])ccc5F)c5nc(c(-c6cc(S(=O)(=O)[O-])ccc6F)c6ccc3[nH]6)C=C5)C=C4)cc2)N1C(=O)[C@](C)([NH3+])C(F)(F)F
REMARK SMILES IDX 11 1 10 2 9 3 7 4 8 5 6 7 3 8 4 9 79 10 5 11 2 12 1 13 80 14
REMARK SMILES IDX 81 15 82 16 83 17 84 18 85 22 86 23 87 24 88 25 12 26 13 27
REMARK SMILES IDX 14 28 15 30 16 31 17 32 78 33 18 34 77 35 19 36 20 37 21 38
REMARK SMILES IDX 71 39 22 40 76 41 70 42 72 43 23 44 75 45 69 46 68 47 24 49
REMARK SMILES IDX 56 50 36 51 55 52 37 53 40 54 54 55 73 56 38 57 39 58 53 60
REMARK SMILES IDX 74 61 41 62 25 63 26 64 34 65 27 66 33 67 35 68 32 69 28 70
REMARK SMILES IDX 29 71 30 72 31 73 57 74 58 75 66 76 59 77 65 78 67 79 64 80
REMARK SMILES IDX 60 81 61 82 62 83 63 84 42 85 43 86 51 87 44 88 50 89 52 90
REMARK SMILES IDX 49 91 45 92 46 93 47 94 48 95
REMARK H PARENT 9 6 84 19 84 20 84 21 13 29 72 48 40 59
REMARK Flexibility Score: inf
ROOT
ATOM      1  C   UNL A   1      31.438  28.490  25.980  1.00  0.00     0.042 C 
ENDROOT
BRANCH   1   2
ATOM      2  C   UNL A   1      31.895  27.387  26.924  1.00  0.00     0.117 C 
BRANCH   2   3
ATOM      3  N   UNL A   1      31.075  26.189  26.849  1.00  0.00    -0.354 N 
ATOM      4  C   UNL A   1      31.420  24.915  26.483  1.00  0.00     0.243 C 
ATOM      5  O   UNL A   1      30.557  24.037  26.548  1.00  0.00    -0.273 OA
ATOM      6  H   UNL A   1      30.130  26.313  27.096  1.00  0.00     0.163 HD
BRANCH   4   7
ATOM      7  C   UNL A   1      32.885  24.599  26.108  1.00  0.00     0.185 C 
ATOM      8  C   UNL A   1      33.925  23.215  24.337  1.00  0.00     0.144 C 
ATOM      9  S   UNL A   1      34.522  22.529  25.922  1.00  0.00    -0.134 SA
ATOM     10  N   UNL A   1      33.061  24.358  24.645  1.00  0.00    -0.312 N 
ATOM     11  C   UNL A   1      33.309  23.385  26.921  1.00  0.00     0.107 C 
BRANCH   8  12
ATOM     12  C   UNL A   1      33.379  22.038  23.507  1.00  0.00     0.033 C 
ATOM     13  C   UNL A   1      32.152  21.319  24.037  1.00  0.00     0.007 C 
ENDBRANCH   8  12
BRANCH  10  14
ATOM     14  C   UNL A   1      32.843  25.485  23.860  1.00  0.00     0.294 C 
ATOM     15  O   UNL A   1      33.604  26.458  24.030  1.00  0.00    -0.267 OA
BRANCH  14  16
ATOM     16  C   UNL A   1      31.745  25.676  22.770  1.00  0.00     0.267 C 
ATOM     17  C   UNL A   1      30.864  26.910  22.739  1.00  0.00     0.100 C 
BRANCH  16  18
ATOM     18  N   UNL A   1      30.762  24.536  22.969  1.00  0.00    -0.337 N 
ATOM     19  H   UNL A   1      31.272  23.656  23.048  1.00  0.00     0.345 HD
ATOM     20  H   UNL A   1      30.127  24.491  22.170  1.00  0.00     0.345 HD
ATOM     21  H   UNL A   1      30.224  24.696  23.821  1.00  0.00     0.345 HD
ENDBRANCH  16  18
BRANCH  16  22
ATOM     22  C   UNL A   1      32.529  25.614  21.425  1.00  0.00     0.453 C 
ATOM     23  F   UNL A   1      31.702  25.856  20.372  1.00  0.00    -0.164 F 
ATOM     24  F   UNL A   1      33.495  26.560  21.369  1.00  0.00    -0.164 F 
ATOM     25  F   UNL A   1      33.102  24.414  21.198  1.00  0.00    -0.164 F 
ENDBRANCH  16  22
ENDBRANCH  14  16
ENDBRANCH  10  14
ENDBRANCH   4   7
ENDBRANCH   2   3
ENDBRANCH   1   2
BRANCH   1  26
ATOM     26  C   UNL A   1      32.533  29.474  25.581  1.00  0.00     0.118 C 
BRANCH  26  27
ATOM     27  N   UNL A   1      32.200  30.851  25.916  1.00  0.00    -0.352 N 
ATOM     28  C   UNL A   1      32.723  31.694  26.867  1.00  0.00     0.251 C 
ATOM     29  H   UNL A   1      31.480  31.244  25.372  1.00  0.00     0.163 HD
ATOM     30  O   UNL A   1      32.144  32.755  27.089  1.00  0.00    -0.269 OA
BRANCH  28  31
ATOM     31  C   UNL A   1      33.946  31.341  27.626  1.00  0.00     0.039 A 
ATOM     32  C   UNL A   1      34.139  30.006  27.999  1.00  0.00     0.014 A 
ATOM     33  C   UNL A   1      34.872  32.307  28.027  1.00  0.00     0.014 A 
ATOM     34  C   UNL A   1      35.269  29.640  28.734  1.00  0.00     0.010 A 
ATOM     35  C   UNL A   1      36.042  31.929  28.683  1.00  0.00     0.010 A 
ATOM     36  C   UNL A   1      36.244  30.596  29.065  1.00  0.00    -0.014 A 
BRANCH  36  37
ATOM     37  C   UNL A   1      37.450  30.218  29.848  1.00  0.00     0.031 A 
ATOM     38  C   UNL A   1      38.497  29.321  29.236  1.00  0.00     0.074 A 
ATOM     39  C   UNL A   1      37.590  30.654  31.115  1.00  0.00     0.049 A 
ATOM     40  N   UNL A   1      39.606  28.864  29.760  1.00  0.00    -0.248 NA
ATOM     41  C   UNL A   1      38.244  28.852  27.866  1.00  0.00     0.031 C 
ATOM     42  C   UNL A   1      36.620  31.484  31.833  1.00  0.00     0.029 A 
ATOM     43  N   UNL A   1      38.599  30.462  32.024  1.00  0.00    -0.354 N 
ATOM     44  C   UNL A   1      40.176  28.045  28.789  1.00  0.00     0.074 A 
ATOM     45  C   UNL A   1      39.252  28.014  27.676  1.00  0.00     0.031 C 
ATOM     46  C   UNL A   1      37.098  31.757  33.058  1.00  0.00     0.029 A 
ATOM     47  C   UNL A   1      38.387  31.095  33.228  1.00  0.00     0.049 A 
ATOM     48  H   UNL A   1      39.400  29.923  31.834  1.00  0.00     0.167 HD
ATOM     49  C   UNL A   1      41.370  27.400  28.812  1.00  0.00     0.034 A 
ATOM     50  C   UNL A   1      39.147  31.138  34.340  1.00  0.00     0.034 A 
ATOM     51  C   UNL A   1      42.286  27.453  29.926  1.00  0.00     0.049 A 
ATOM     52  C   UNL A   1      40.477  30.429  34.337  1.00  0.00     0.074 A 
ATOM     53  C   UNL A   1      43.537  26.873  30.045  1.00  0.00     0.029 A 
ATOM     54  N   UNL A   1      42.049  28.126  31.118  1.00  0.00    -0.354 N 
ATOM     55  N   UNL A   1      41.025  29.700  33.391  1.00  0.00    -0.248 NA
ATOM     56  C   UNL A   1      41.301  30.569  35.543  1.00  0.00     0.031 C 
ATOM     57  C   UNL A   1      44.028  27.146  31.327  1.00  0.00     0.029 A 
ATOM     58  C   UNL A   1      43.120  27.961  31.983  1.00  0.00     0.049 A 
ATOM     59  H   UNL A   1      41.236  28.645  31.321  1.00  0.00     0.167 HD
ATOM     60  C   UNL A   1      42.275  29.327  33.877  1.00  0.00     0.074 A 
ATOM     61  C   UNL A   1      42.404  29.929  35.189  1.00  0.00     0.031 C 
ATOM     62  C   UNL A   1      43.233  28.561  33.292  1.00  0.00     0.034 A 
BRANCH  49  63
ATOM     63  C   UNL A   1      41.732  26.569  27.601  1.00  0.00     0.023 A 
ATOM     64  C   UNL A   1      41.415  25.201  27.522  1.00  0.00     0.031 A 
ATOM     65  C   UNL A   1      42.437  27.140  26.527  1.00  0.00     0.131 A 
ATOM     66  C   UNL A   1      41.875  24.434  26.440  1.00  0.00     0.055 A 
ATOM     67  C   UNL A   1      42.817  26.390  25.412  1.00  0.00     0.041 A 
ATOM     68  F   UNL A   1      42.787  28.436  26.551  1.00  0.00    -0.206 F 
ATOM     69  C   UNL A   1      42.552  25.025  25.372  1.00  0.00     0.022 A 
BRANCH  66  70
ATOM     70  S   UNL A   1      41.713  22.629  26.527  1.00  0.00     0.124 S 
ATOM     71  O   UNL A   1      42.377  22.334  27.795  1.00  0.00    -0.237 OA
ATOM     72  O   UNL A   1      40.268  22.440  26.503  1.00  0.00    -0.237 OA
ATOM     73  O   UNL A   1      42.424  22.163  25.337  1.00  0.00    -0.744 OA
ENDBRANCH  66  70
ENDBRANCH  49  63
BRANCH  50  74
ATOM     74  C   UNL A   1      38.686  31.890  35.542  1.00  0.00     0.023 A 
ATOM     75  C   UNL A   1      38.150  31.221  36.654  1.00  0.00     0.031 A 
ATOM     76  C   UNL A   1      38.733  33.295  35.579  1.00  0.00     0.131 A 
ATOM     77  C   UNL A   1      37.637  31.956  37.733  1.00  0.00     0.055 A 
ATOM     78  C   UNL A   1      38.270  34.020  36.678  1.00  0.00     0.041 A 
ATOM     79  F   UNL A   1      39.244  33.984  34.546  1.00  0.00    -0.206 F 
ATOM     80  C   UNL A   1      37.704  33.350  37.758  1.00  0.00     0.022 A 
BRANCH  77  81
ATOM     81  S   UNL A   1      36.802  31.063  39.074  1.00  0.00     0.124 S 
ATOM     82  O   UNL A   1      36.661  29.729  38.501  1.00  0.00    -0.237 OA
ATOM     83  O   UNL A   1      37.759  31.194  40.167  1.00  0.00    -0.237 OA
ATOM     84  O   UNL A   1      35.554  31.803  39.249  1.00  0.00    -0.744 OA
ENDBRANCH  77  81
ENDBRANCH  50  74
BRANCH  62  85
ATOM     85  C   UNL A   1      44.525  28.385  34.055  1.00  0.00     0.023 A 
ATOM     86  C   UNL A   1      44.719  27.319  34.950  1.00  0.00     0.031 A 
ATOM     87  C   UNL A   1      45.562  29.325  33.912  1.00  0.00     0.131 A 
ATOM     88  C   UNL A   1      45.886  27.262  35.727  1.00  0.00     0.055 A 
ATOM     89  C   UNL A   1      46.750  29.223  34.636  1.00  0.00     0.041 A 
ATOM     90  F   UNL A   1      45.432  30.364  33.072  1.00  0.00    -0.206 F 
ATOM     91  C   UNL A   1      46.910  28.199  35.564  1.00  0.00     0.022 A 
BRANCH  88  92
ATOM     92  S   UNL A   1      45.993  26.021  37.046  1.00  0.00     0.124 S 
ATOM     93  O   UNL A   1      45.050  26.540  38.030  1.00  0.00    -0.237 OA
ATOM     94  O   UNL A   1      45.590  24.800  36.357  1.00  0.00    -0.237 OA
ATOM     95  O   UNL A   1      47.398  26.070  37.449  1.00  0.00    -0.744 OA
ENDBRANCH  88  92
ENDBRANCH  62  85
ENDBRANCH  36  37
ENDBRANCH  28  31
ENDBRANCH  26  27
ENDBRANCH   1  26
TORSDOF 18
ENDMDL
