MODEL 1
REMARK VINA RESULT:     -12.1      0.000      0.000
REMARK SMILES CC[C@@H](C(=O)NCCCNC(=O)c1ccc(-c2c3nc(c(-c4cc(S(=O)(=O)[O-])ccc4F)c4ccc([nH]4)c(-c4cc(S(=O)(=O)[O-])ccc4F)c4nc(c(-c5cc(S(=O)(=O)[O-])ccc5F)c5ccc2[nH]5)C=C4)C=C3)cc1)N1C(=O)/C(=C/C(C)=C/c2ccccc2)SC1=S
REMARK SMILES IDX 8 1 7 2 6 3 4 4 5 5 3 7 2 8 1 9 76 10 77 11 91 12 78 13
REMARK SMILES IDX 79 14 90 15 92 16 80 17 81 18 82 19 83 20 84 21 85 22 89 23
REMARK SMILES IDX 86 24 88 25 87 26 9 27 10 28 11 29 12 31 13 32 14 33 75 34
REMARK SMILES IDX 15 35 74 36 16 37 17 38 18 39 68 40 19 41 73 42 67 43 69 44
REMARK SMILES IDX 20 45 72 46 66 47 65 48 21 50 53 51 33 52 52 53 34 54 37 55
REMARK SMILES IDX 51 56 70 57 35 58 36 59 50 61 71 62 38 63 22 64 23 65 31 66
REMARK SMILES IDX 24 67 30 68 32 69 29 70 25 71 26 72 27 73 28 74 54 75 55 76
REMARK SMILES IDX 63 77 56 78 62 79 64 80 61 81 57 82 58 83 59 84 60 85 39 86
REMARK SMILES IDX 40 87 48 88 41 89 47 90 49 91 46 92 42 93 43 94 44 95 45 96
REMARK H PARENT 6 6 10 30 69 49 37 60
REMARK Flexibility Score: inf
ROOT
ATOM      1  C   UNL A   1      31.408  31.696  26.756  1.00  0.00     0.042 C 
ENDROOT
BRANCH   1   2
ATOM      2  C   UNL A   1      31.364  30.916  25.449  1.00  0.00     0.117 C 
BRANCH   2   3
ATOM      3  N   UNL A   1      32.538  30.080  25.296  1.00  0.00    -0.354 N 
ATOM      4  C   UNL A   1      32.692  28.730  25.275  1.00  0.00     0.243 C 
ATOM      5  O   UNL A   1      33.839  28.331  25.047  1.00  0.00    -0.273 OA
ATOM      6  H   UNL A   1      33.379  30.583  25.189  1.00  0.00     0.163 HD
BRANCH   4   7
ATOM      7  C   UNL A   1      31.494  27.760  25.449  1.00  0.00     0.181 C 
BRANCH   7   8
ATOM      8  C   UNL A   1      31.031  27.437  26.883  1.00  0.00     0.032 C 
ATOM      9  C   UNL A   1      31.594  28.302  27.995  1.00  0.00     0.006 C 
ENDBRANCH   7   8
BRANCH   7  10
ATOM     10  N   UNL A   1      31.906  26.510  24.749  1.00  0.00    -0.280 N 
ATOM     11  C   UNL A   1      32.547  25.509  25.474  1.00  0.00     0.266 C 
ATOM     12  C   UNL A   1      31.792  26.297  23.394  1.00  0.00     0.149 C 
ATOM     13  O   UNL A   1      32.782  25.508  26.669  1.00  0.00    -0.268 OA
ATOM     14  C   UNL A   1      32.885  24.358  24.591  1.00  0.00     0.080 C 
ATOM     15  S   UNL A   1      32.524  24.757  22.965  1.00  0.00    -0.054 SA
ATOM     16  S   UNL A   1      31.057  27.264  22.248  1.00  0.00    -0.052 S 
ATOM     17  C   UNL A   1      33.347  23.225  25.141  1.00  0.00     0.024 C 
BRANCH  17  18
ATOM     18  C   UNL A   1      33.709  21.927  24.571  1.00  0.00    -0.049 C 
ATOM     19  C   UNL A   1      35.048  21.921  23.867  1.00  0.00     0.044 C 
ATOM     20  C   UNL A   1      32.959  20.818  24.722  1.00  0.00     0.011 C 
BRANCH  20  21
ATOM     21  C   UNL A   1      33.241  19.457  24.256  1.00  0.00    -0.025 A 
ATOM     22  C   UNL A   1      34.365  18.798  24.771  1.00  0.00     0.008 A 
ATOM     23  C   UNL A   1      32.512  18.861  23.223  1.00  0.00     0.008 A 
ATOM     24  C   UNL A   1      34.754  17.560  24.260  1.00  0.00     0.001 A 
ATOM     25  C   UNL A   1      32.899  17.620  22.714  1.00  0.00     0.001 A 
ATOM     26  C   UNL A   1      34.023  16.973  23.229  1.00  0.00     0.000 A 
ENDBRANCH  20  21
ENDBRANCH  17  18
ENDBRANCH   7  10
ENDBRANCH   4   7
ENDBRANCH   2   3
ENDBRANCH   1   2
BRANCH   1  27
ATOM     27  C   UNL A   1      32.753  32.343  27.052  1.00  0.00     0.118 C 
BRANCH  27  28
ATOM     28  N   UNL A   1      32.624  33.732  27.451  1.00  0.00    -0.352 N 
ATOM     29  C   UNL A   1      33.256  34.417  28.462  1.00  0.00     0.251 C 
ATOM     30  H   UNL A   1      31.989  34.263  26.919  1.00  0.00     0.163 HD
ATOM     31  O   UNL A   1      32.839  35.530  28.773  1.00  0.00    -0.269 OA
BRANCH  29  32
ATOM     32  C   UNL A   1      34.405  33.821  29.187  1.00  0.00     0.039 A 
ATOM     33  C   UNL A   1      34.158  32.837  30.149  1.00  0.00     0.014 A 
ATOM     34  C   UNL A   1      35.717  34.247  28.961  1.00  0.00     0.014 A 
ATOM     35  C   UNL A   1      35.223  32.257  30.848  1.00  0.00     0.010 A 
ATOM     36  C   UNL A   1      36.782  33.597  29.581  1.00  0.00     0.010 A 
ATOM     37  C   UNL A   1      36.549  32.614  30.553  1.00  0.00    -0.014 A 
BRANCH  37  38
ATOM     38  C   UNL A   1      37.696  32.022  31.295  1.00  0.00     0.031 A 
ATOM     39  C   UNL A   1      38.499  30.912  30.666  1.00  0.00     0.074 A 
ATOM     40  C   UNL A   1      37.991  32.447  32.541  1.00  0.00     0.049 A 
ATOM     41  N   UNL A   1      39.482  30.209  31.169  1.00  0.00    -0.248 NA
ATOM     42  C   UNL A   1      38.122  30.516  29.299  1.00  0.00     0.031 C 
ATOM     43  C   UNL A   1      37.270  33.490  33.272  1.00  0.00     0.029 A 
ATOM     44  N   UNL A   1      38.973  32.050  33.415  1.00  0.00    -0.354 N 
ATOM     45  C   UNL A   1      39.825  29.280  30.191  1.00  0.00     0.074 A 
ATOM     46  C   UNL A   1      38.897  29.463  29.096  1.00  0.00     0.031 C 
ATOM     47  C   UNL A   1      37.850  33.671  34.469  1.00  0.00     0.029 A 
ATOM     48  C   UNL A   1      38.954  32.726  34.614  1.00  0.00     0.049 A 
ATOM     49  H   UNL A   1      39.630  31.348  33.204  1.00  0.00     0.167 HD
ATOM     50  C   UNL A   1      40.837  28.375  30.191  1.00  0.00     0.034 A 
ATOM     51  C   UNL A   1      39.730  32.593  35.709  1.00  0.00     0.034 A 
ATOM     52  C   UNL A   1      41.769  28.222  31.281  1.00  0.00     0.049 A 
ATOM     53  C   UNL A   1      40.840  31.570  35.694  1.00  0.00     0.074 A 
ATOM     54  C   UNL A   1      42.861  27.374  31.368  1.00  0.00     0.029 A 
ATOM     55  N   UNL A   1      41.722  28.932  32.474  1.00  0.00    -0.354 N 
ATOM     56  N   UNL A   1      41.176  30.727  34.743  1.00  0.00    -0.248 NA
ATOM     57  C   UNL A   1      41.685  31.491  36.891  1.00  0.00     0.031 C 
ATOM     58  C   UNL A   1      43.430  27.522  32.637  1.00  0.00     0.029 A 
ATOM     59  C   UNL A   1      42.748  28.522  33.311  1.00  0.00     0.049 A 
ATOM     60  H   UNL A   1      41.058  29.625  32.693  1.00  0.00     0.167 HD
ATOM     61  C   UNL A   1      42.296  30.048  35.216  1.00  0.00     0.074 A 
ATOM     62  C   UNL A   1      42.584  30.588  36.528  1.00  0.00     0.031 C 
ATOM     63  C   UNL A   1      43.024  29.071  34.619  1.00  0.00     0.034 A 
BRANCH  50  64
ATOM     64  C   UNL A   1      40.966  27.472  28.986  1.00  0.00     0.023 A 
ATOM     65  C   UNL A   1      41.974  27.663  28.023  1.00  0.00     0.031 A 
ATOM     66  C   UNL A   1      40.057  26.420  28.784  1.00  0.00     0.131 A 
ATOM     67  C   UNL A   1      41.998  26.868  26.866  1.00  0.00     0.055 A 
ATOM     68  C   UNL A   1      40.140  25.576  27.674  1.00  0.00     0.041 A 
ATOM     69  F   UNL A   1      39.061  26.199  29.656  1.00  0.00    -0.206 F 
ATOM     70  C   UNL A   1      41.105  25.807  26.699  1.00  0.00     0.022 A 
BRANCH  67  71
ATOM     71  S   UNL A   1      43.119  27.335  25.520  1.00  0.00     0.124 S 
ATOM     72  O   UNL A   1      44.137  28.102  26.236  1.00  0.00    -0.237 OA
ATOM     73  O   UNL A   1      43.543  26.042  24.998  1.00  0.00    -0.237 OA
ATOM     74  O   UNL A   1      42.272  28.122  24.626  1.00  0.00    -0.744 OA
ENDBRANCH  67  71
ENDBRANCH  50  64
BRANCH  51  75
ATOM     75  C   UNL A   1      39.492  33.437  36.917  1.00  0.00     0.023 A 
ATOM     76  C   UNL A   1      38.808  32.927  38.033  1.00  0.00     0.031 A 
ATOM     77  C   UNL A   1      39.897  34.783  36.953  1.00  0.00     0.131 A 
ATOM     78  C   UNL A   1      38.501  33.771  39.112  1.00  0.00     0.055 A 
ATOM     79  C   UNL A   1      39.640  35.603  38.054  1.00  0.00     0.041 A 
ATOM     80  F   UNL A   1      40.558  35.321  35.915  1.00  0.00    -0.206 F 
ATOM     81  C   UNL A   1      38.924  35.102  39.136  1.00  0.00     0.022 A 
BRANCH  78  82
ATOM     82  S   UNL A   1      37.447  33.131  40.444  1.00  0.00     0.124 S 
ATOM     83  O   UNL A   1      36.377  32.488  39.691  1.00  0.00    -0.237 OA
ATOM     84  O   UNL A   1      38.362  32.240  41.149  1.00  0.00    -0.237 OA
ATOM     85  O   UNL A   1      37.061  34.333  41.179  1.00  0.00    -0.744 OA
ENDBRANCH  78  82
ENDBRANCH  51  75
BRANCH  63  86
ATOM     86  C   UNL A   1      44.244  28.571  35.356  1.00  0.00     0.023 A 
ATOM     87  C   UNL A   1      44.160  27.577  36.346  1.00  0.00     0.031 A 
ATOM     88  C   UNL A   1      45.511  29.108  35.064  1.00  0.00     0.131 A 
ATOM     89  C   UNL A   1      45.312  27.195  37.050  1.00  0.00     0.055 A 
ATOM     90  C   UNL A   1      46.662  28.676  35.721  1.00  0.00     0.041 A 
ATOM     91  F   UNL A   1      45.650  30.062  34.128  1.00  0.00    -0.206 F 
ATOM     92  C   UNL A   1      46.565  27.724  36.732  1.00  0.00     0.022 A 
BRANCH  89  93
ATOM     93  S   UNL A   1      45.137  26.066  38.460  1.00  0.00     0.124 S 
ATOM     94  O   UNL A   1      44.046  26.684  39.209  1.00  0.00    -0.237 OA
ATOM     95  O   UNL A   1      44.823  24.798  37.808  1.00  0.00    -0.237 OA
ATOM     96  O   UNL A   1      46.445  26.122  39.109  1.00  0.00    -0.744 OA
ENDBRANCH  89  93
ENDBRANCH  63  86
ENDBRANCH  37  38
ENDBRANCH  29  32
ENDBRANCH  27  28
ENDBRANCH   1  27
TORSDOF 17
ENDMDL
MODEL 2
REMARK VINA RESULT:     -12.1      2.458      8.009
REMARK SMILES CC[C@@H](C(=O)NCCCNC(=O)c1ccc(-c2c3nc(c(-c4cc(S(=O)(=O)[O-])ccc4F)c4ccc([nH]4)c(-c4cc(S(=O)(=O)[O-])ccc4F)c4nc(c(-c5cc(S(=O)(=O)[O-])ccc5F)c5ccc2[nH]5)C=C4)C=C3)cc1)N1C(=O)/C(=C/C(C)=C/c2ccccc2)SC1=S
REMARK SMILES IDX 8 1 7 2 6 3 4 4 5 5 3 7 2 8 1 9 76 10 77 11 91 12 78 13
REMARK SMILES IDX 79 14 90 15 92 16 80 17 81 18 82 19 83 20 84 21 85 22 89 23
REMARK SMILES IDX 86 24 88 25 87 26 9 27 10 28 11 29 12 31 13 32 14 33 75 34
REMARK SMILES IDX 15 35 74 36 16 37 17 38 18 39 68 40 19 41 73 42 67 43 69 44
REMARK SMILES IDX 20 45 72 46 66 47 65 48 21 50 53 51 33 52 52 53 34 54 37 55
REMARK SMILES IDX 51 56 70 57 35 58 36 59 50 61 71 62 38 63 22 64 23 65 31 66
REMARK SMILES IDX 24 67 30 68 32 69 29 70 25 71 26 72 27 73 28 74 54 75 55 76
REMARK SMILES IDX 63 77 56 78 62 79 64 80 61 81 57 82 58 83 59 84 60 85 39 86
REMARK SMILES IDX 40 87 48 88 41 89 47 90 49 91 46 92 42 93 43 94 44 95 45 96
REMARK H PARENT 6 6 10 30 69 49 37 60
REMARK Flexibility Score: inf
ROOT
ATOM      1  C   UNL A   1      31.812  29.437  26.848  1.00  0.00     0.042 C 
ENDROOT
BRANCH   1   2
ATOM      2  C   UNL A   1      31.745  27.916  26.873  1.00  0.00     0.117 C 
BRANCH   2   3
ATOM      3  N   UNL A   1      30.915  27.409  25.799  1.00  0.00    -0.354 N 
ATOM      4  C   UNL A   1      31.221  26.969  24.549  1.00  0.00     0.243 C 
ATOM      5  O   UNL A   1      30.271  26.524  23.897  1.00  0.00    -0.273 OA
ATOM      6  H   UNL A   1      29.954  27.378  26.013  1.00  0.00     0.163 HD
BRANCH   4   7
ATOM      7  C   UNL A   1      32.676  26.957  24.011  1.00  0.00     0.181 C 
BRANCH   7   8
ATOM      8  C   UNL A   1      32.991  27.813  22.769  1.00  0.00     0.032 C 
ATOM      9  C   UNL A   1      34.317  28.550  22.763  1.00  0.00     0.006 C 
ENDBRANCH   7   8
BRANCH   7  10
ATOM     10  N   UNL A   1      32.972  25.523  23.734  1.00  0.00    -0.280 N 
ATOM     11  C   UNL A   1      33.443  24.718  24.768  1.00  0.00     0.266 C 
ATOM     12  C   UNL A   1      32.910  24.935  22.491  1.00  0.00     0.149 C 
ATOM     13  O   UNL A   1      33.607  25.043  25.930  1.00  0.00    -0.268 OA
ATOM     14  C   UNL A   1      33.687  23.331  24.283  1.00  0.00     0.080 C 
ATOM     15  S   UNL A   1      33.471  23.272  22.585  1.00  0.00    -0.054 SA
ATOM     16  S   UNL A   1      32.365  25.594  21.057  1.00  0.00    -0.052 S 
ATOM     17  C   UNL A   1      33.975  22.368  25.171  1.00  0.00     0.024 C 
BRANCH  17  18
ATOM     18  C   UNL A   1      34.207  20.931  25.028  1.00  0.00    -0.049 C 
ATOM     19  C   UNL A   1      35.667  20.540  25.072  1.00  0.00     0.044 C 
ATOM     20  C   UNL A   1      33.212  20.026  24.942  1.00  0.00     0.011 C 
BRANCH  20  21
ATOM     21  C   UNL A   1      33.313  18.566  24.858  1.00  0.00    -0.025 A 
ATOM     22  C   UNL A   1      33.896  18.004  23.716  1.00  0.00     0.008 A 
ATOM     23  C   UNL A   1      32.724  17.727  25.809  1.00  0.00     0.008 A 
ATOM     24  C   UNL A   1      33.891  16.623  23.525  1.00  0.00     0.001 A 
ATOM     25  C   UNL A   1      32.722  16.343  25.621  1.00  0.00     0.001 A 
ATOM     26  C   UNL A   1      33.300  15.793  24.477  1.00  0.00     0.000 A 
ENDBRANCH  20  21
ENDBRANCH  17  18
ENDBRANCH   7  10
ENDBRANCH   4   7
ENDBRANCH   2   3
ENDBRANCH   1   2
BRANCH   1  27
ATOM     27  C   UNL A   1      33.222  29.999  26.739  1.00  0.00     0.118 C 
BRANCH  27  28
ATOM     28  N   UNL A   1      33.264  31.433  26.953  1.00  0.00    -0.352 N 
ATOM     29  C   UNL A   1      34.122  32.181  27.725  1.00  0.00     0.251 C 
ATOM     30  H   UNL A   1      32.577  31.949  26.472  1.00  0.00     0.163 HD
ATOM     31  O   UNL A   1      33.847  33.359  27.944  1.00  0.00    -0.269 OA
BRANCH  29  32
ATOM     32  C   UNL A   1      35.346  31.579  28.309  1.00  0.00     0.039 A 
ATOM     33  C   UNL A   1      35.261  30.311  28.892  1.00  0.00     0.014 A 
ATOM     34  C   UNL A   1      36.565  32.263  28.327  1.00  0.00     0.014 A 
ATOM     35  C   UNL A   1      36.399  29.719  29.450  1.00  0.00     0.010 A 
ATOM     36  C   UNL A   1      37.717  31.632  28.789  1.00  0.00     0.010 A 
ATOM     37  C   UNL A   1      37.645  30.363  29.382  1.00  0.00    -0.014 A 
BRANCH  37  38
ATOM     38  C   UNL A   1      38.866  29.759  29.984  1.00  0.00     0.031 A 
ATOM     39  C   UNL A   1      39.343  30.230  31.335  1.00  0.00     0.074 A 
ATOM     40  C   UNL A   1      39.566  28.825  29.309  1.00  0.00     0.049 A 
ATOM     41  N   UNL A   1      40.420  29.893  32.000  1.00  0.00    -0.248 NA
ATOM     42  C   UNL A   1      38.516  31.241  32.013  1.00  0.00     0.031 C 
ATOM     43  C   UNL A   1      39.226  28.310  27.981  1.00  0.00     0.029 A 
ATOM     44  N   UNL A   1      40.711  28.146  29.643  1.00  0.00    -0.354 N 
ATOM     45  C   UNL A   1      40.407  30.664  33.159  1.00  0.00     0.074 A 
ATOM     46  C   UNL A   1      39.255  31.534  33.071  1.00  0.00     0.031 C 
ATOM     47  C   UNL A   1      40.125  27.377  27.627  1.00  0.00     0.029 A 
ATOM     48  C   UNL A   1      41.132  27.259  28.677  1.00  0.00     0.049 A 
ATOM     49  H   UNL A   1      41.187  28.279  30.494  1.00  0.00     0.167 HD
ATOM     50  C   UNL A   1      41.260  30.631  34.214  1.00  0.00     0.034 A 
ATOM     51  C   UNL A   1      42.211  26.451  28.638  1.00  0.00     0.034 A 
ATOM     52  C   UNL A   1      42.391  29.739  34.298  1.00  0.00     0.049 A 
ATOM     53  C   UNL A   1      43.156  26.441  29.816  1.00  0.00     0.074 A 
ATOM     54  C   UNL A   1      43.291  29.585  35.338  1.00  0.00     0.029 A 
ATOM     55  N   UNL A   1      42.778  28.850  33.304  1.00  0.00    -0.354 N 
ATOM     56  N   UNL A   1      43.105  27.148  30.923  1.00  0.00    -0.248 NA
ATOM     57  C   UNL A   1      44.293  25.515  29.746  1.00  0.00     0.031 C 
ATOM     58  C   UNL A   1      44.259  28.655  34.946  1.00  0.00     0.029 A 
ATOM     59  C   UNL A   1      43.917  28.164  33.696  1.00  0.00     0.049 A 
ATOM     60  H   UNL A   1      42.312  28.723  32.446  1.00  0.00     0.167 HD
ATOM     61  C   UNL A   1      44.182  26.720  31.695  1.00  0.00     0.074 A 
ATOM     62  C   UNL A   1      44.854  25.687  30.934  1.00  0.00     0.031 C 
ATOM     63  C   UNL A   1      44.576  27.136  32.926  1.00  0.00     0.034 A 
BRANCH  50  64
ATOM     64  C   UNL A   1      41.011  31.603  35.344  1.00  0.00     0.023 A 
ATOM     65  C   UNL A   1      39.831  31.562  36.108  1.00  0.00     0.031 A 
ATOM     66  C   UNL A   1      41.955  32.599  35.648  1.00  0.00     0.131 A 
ATOM     67  C   UNL A   1      39.590  32.545  37.081  1.00  0.00     0.055 A 
ATOM     68  C   UNL A   1      41.748  33.521  36.677  1.00  0.00     0.041 A 
ATOM     69  F   UNL A   1      43.091  32.703  34.942  1.00  0.00    -0.206 F 
ATOM     70  C   UNL A   1      40.554  33.508  37.389  1.00  0.00     0.022 A 
BRANCH  67  71
ATOM     71  S   UNL A   1      37.941  32.635  37.831  1.00  0.00     0.124 S 
ATOM     72  O   UNL A   1      37.900  31.392  38.598  1.00  0.00    -0.237 OA
ATOM     73  O   UNL A   1      38.015  33.865  38.610  1.00  0.00    -0.237 OA
ATOM     74  O   UNL A   1      37.043  32.677  36.679  1.00  0.00    -0.744 OA
ENDBRANCH  67  71
ENDBRANCH  50  64
BRANCH  51  75
ATOM     75  C   UNL A   1      42.472  25.588  27.449  1.00  0.00     0.023 A 
ATOM     76  C   UNL A   1      41.965  24.280  27.379  1.00  0.00     0.031 A 
ATOM     77  C   UNL A   1      43.278  26.038  26.388  1.00  0.00     0.131 A 
ATOM     78  C   UNL A   1      42.313  23.450  26.301  1.00  0.00     0.055 A 
ATOM     79  C   UNL A   1      43.574  25.228  25.290  1.00  0.00     0.041 A 
ATOM     80  F   UNL A   1      43.786  27.281  26.401  1.00  0.00    -0.206 F 
ATOM     81  C   UNL A   1      43.103  23.919  25.250  1.00  0.00     0.022 A 
BRANCH  78  82
ATOM     82  S   UNL A   1      41.803  21.709  26.345  1.00  0.00     0.124 S 
ATOM     83  O   UNL A   1      42.636  21.130  25.298  1.00  0.00    -0.237 OA
ATOM     84  O   UNL A   1      42.136  21.332  27.714  1.00  0.00    -0.237 OA
ATOM     85  O   UNL A   1      40.374  21.767  26.047  1.00  0.00    -0.744 OA
ENDBRANCH  78  82
ENDBRANCH  51  75
BRANCH  63  86
ATOM     86  C   UNL A   1      45.754  26.425  33.550  1.00  0.00     0.023 A 
ATOM     87  C   UNL A   1      45.626  25.163  34.155  1.00  0.00     0.031 A 
ATOM     88  C   UNL A   1      47.024  27.029  33.542  1.00  0.00     0.131 A 
ATOM     89  C   UNL A   1      46.736  24.575  34.781  1.00  0.00     0.055 A 
ATOM     90  C   UNL A   1      48.138  26.409  34.108  1.00  0.00     0.041 A 
ATOM     91  F   UNL A   1      47.204  28.236  32.979  1.00  0.00    -0.206 F 
ATOM     92  C   UNL A   1      47.994  25.181  34.745  1.00  0.00     0.022 A 
BRANCH  89  93
ATOM     93  S   UNL A   1      46.492  23.049  35.732  1.00  0.00     0.124 S 
ATOM     94  O   UNL A   1      47.651  23.056  36.620  1.00  0.00    -0.237 OA
ATOM     95  O   UNL A   1      45.200  23.281  36.370  1.00  0.00    -0.237 OA
ATOM     96  O   UNL A   1      46.500  22.003  34.711  1.00  0.00    -0.744 OA
ENDBRANCH  89  93
ENDBRANCH  63  86
ENDBRANCH  37  38
ENDBRANCH  29  32
ENDBRANCH  27  28
ENDBRANCH   1  27
TORSDOF 17
ENDMDL
MODEL 3
REMARK VINA RESULT:     -12.0      2.070      2.672
REMARK SMILES CC[C@@H](C(=O)NCCCNC(=O)c1ccc(-c2c3nc(c(-c4cc(S(=O)(=O)[O-])ccc4F)c4ccc([nH]4)c(-c4cc(S(=O)(=O)[O-])ccc4F)c4nc(c(-c5cc(S(=O)(=O)[O-])ccc5F)c5ccc2[nH]5)C=C4)C=C3)cc1)N1C(=O)/C(=C/C(C)=C/c2ccccc2)SC1=S
REMARK SMILES IDX 8 1 7 2 6 3 4 4 5 5 3 7 2 8 1 9 76 10 77 11 91 12 78 13
REMARK SMILES IDX 79 14 90 15 92 16 80 17 81 18 82 19 83 20 84 21 85 22 89 23
REMARK SMILES IDX 86 24 88 25 87 26 9 27 10 28 11 29 12 31 13 32 14 33 75 34
REMARK SMILES IDX 15 35 74 36 16 37 17 38 18 39 68 40 19 41 73 42 67 43 69 44
REMARK SMILES IDX 20 45 72 46 66 47 65 48 21 50 53 51 33 52 52 53 34 54 37 55
REMARK SMILES IDX 51 56 70 57 35 58 36 59 50 61 71 62 38 63 22 64 23 65 31 66
REMARK SMILES IDX 24 67 30 68 32 69 29 70 25 71 26 72 27 73 28 74 54 75 55 76
REMARK SMILES IDX 63 77 56 78 62 79 64 80 61 81 57 82 58 83 59 84 60 85 39 86
REMARK SMILES IDX 40 87 48 88 41 89 47 90 49 91 46 92 42 93 43 94 44 95 45 96
REMARK H PARENT 6 6 10 30 69 49 37 60
REMARK Flexibility Score: inf
ROOT
ATOM      1  C   UNL A   1      31.764  29.122  26.974  1.00  0.00     0.042 C 
ENDROOT
BRANCH   1   2
ATOM      2  C   UNL A   1      31.784  27.615  26.753  1.00  0.00     0.117 C 
BRANCH   2   3
ATOM      3  N   UNL A   1      30.945  27.237  25.633  1.00  0.00    -0.354 N 
ATOM      4  C   UNL A   1      31.247  26.883  24.356  1.00  0.00     0.243 C 
ATOM      5  O   UNL A   1      30.286  26.539  23.660  1.00  0.00    -0.273 OA
ATOM      6  H   UNL A   1      29.981  27.239  25.834  1.00  0.00     0.163 HD
BRANCH   4   7
ATOM      7  C   UNL A   1      32.708  26.840  23.834  1.00  0.00     0.181 C 
BRANCH   7   8
ATOM      8  C   UNL A   1      33.055  27.689  22.597  1.00  0.00     0.032 C 
ATOM      9  C   UNL A   1      34.244  28.624  22.718  1.00  0.00     0.006 C 
ENDBRANCH   7   8
BRANCH   7  10
ATOM     10  N   UNL A   1      32.976  25.399  23.560  1.00  0.00    -0.280 N 
ATOM     11  C   UNL A   1      33.359  24.571  24.612  1.00  0.00     0.266 C 
ATOM     12  C   UNL A   1      32.970  24.825  22.310  1.00  0.00     0.149 C 
ATOM     13  O   UNL A   1      33.464  24.880  25.785  1.00  0.00    -0.268 OA
ATOM     14  C   UNL A   1      33.589  23.182  24.127  1.00  0.00     0.080 C 
ATOM     15  S   UNL A   1      33.473  23.144  22.419  1.00  0.00    -0.054 SA
ATOM     16  S   UNL A   1      32.532  25.513  20.853  1.00  0.00    -0.052 S 
ATOM     17  C   UNL A   1      33.794  22.202  25.020  1.00  0.00     0.024 C 
BRANCH  17  18
ATOM     18  C   UNL A   1      33.990  20.760  24.876  1.00  0.00    -0.049 C 
ATOM     19  C   UNL A   1      35.433  20.324  25.003  1.00  0.00     0.044 C 
ATOM     20  C   UNL A   1      32.976  19.887  24.721  1.00  0.00     0.011 C 
BRANCH  20  21
ATOM     21  C   UNL A   1      33.037  18.425  24.628  1.00  0.00    -0.025 A 
ATOM     22  C   UNL A   1      32.618  17.672  25.732  1.00  0.00     0.008 A 
ATOM     23  C   UNL A   1      33.625  17.776  23.539  1.00  0.00     0.008 A 
ATOM     24  C   UNL A   1      32.785  16.287  25.747  1.00  0.00     0.001 A 
ATOM     25  C   UNL A   1      33.789  16.389  23.552  1.00  0.00     0.001 A 
ATOM     26  C   UNL A   1      33.374  15.647  24.658  1.00  0.00     0.000 A 
ENDBRANCH  20  21
ENDBRANCH  17  18
ENDBRANCH   7  10
ENDBRANCH   4   7
ENDBRANCH   2   3
ENDBRANCH   1   2
BRANCH   1  27
ATOM     27  C   UNL A   1      32.953  29.857  26.374  1.00  0.00     0.118 C 
BRANCH  27  28
ATOM     28  N   UNL A   1      32.837  31.297  26.503  1.00  0.00    -0.352 N 
ATOM     29  C   UNL A   1      33.550  32.168  27.294  1.00  0.00     0.251 C 
ATOM     30  H   UNL A   1      32.144  31.714  25.941  1.00  0.00     0.163 HD
ATOM     31  O   UNL A   1      33.144  33.321  27.419  1.00  0.00    -0.269 OA
BRANCH  29  32
ATOM     32  C   UNL A   1      34.774  31.725  28.006  1.00  0.00     0.039 A 
ATOM     33  C   UNL A   1      34.770  30.482  28.645  1.00  0.00     0.014 A 
ATOM     34  C   UNL A   1      35.910  32.536  28.087  1.00  0.00     0.014 A 
ATOM     35  C   UNL A   1      35.910  30.039  29.324  1.00  0.00     0.010 A 
ATOM     36  C   UNL A   1      37.077  32.052  28.674  1.00  0.00     0.010 A 
ATOM     37  C   UNL A   1      37.085  30.809  29.324  1.00  0.00    -0.014 A 
BRANCH  37  38
ATOM     38  C   UNL A   1      38.304  30.366  30.054  1.00  0.00     0.031 A 
ATOM     39  C   UNL A   1      39.237  29.369  29.412  1.00  0.00     0.074 A 
ATOM     40  C   UNL A   1      38.554  30.819  31.299  1.00  0.00     0.049 A 
ATOM     41  N   UNL A   1      40.307  28.796  29.903  1.00  0.00    -0.248 NA
ATOM     42  C   UNL A   1      38.902  28.935  28.046  1.00  0.00     0.031 C 
ATOM     43  C   UNL A   1      37.712  31.758  32.042  1.00  0.00     0.029 A 
ATOM     44  N   UNL A   1      39.586  30.547  32.163  1.00  0.00    -0.354 N 
ATOM     45  C   UNL A   1      40.756  27.922  28.917  1.00  0.00     0.074 A 
ATOM     46  C   UNL A   1      39.804  27.990  27.831  1.00  0.00     0.031 C 
ATOM     47  C   UNL A   1      38.275  32.007  33.235  1.00  0.00     0.029 A 
ATOM     48  C   UNL A   1      39.491  31.210  33.366  1.00  0.00     0.049 A 
ATOM     49  H   UNL A   1      40.325  29.936  31.943  1.00  0.00     0.167 HD
ATOM     50  C   UNL A   1      41.875  27.154  28.904  1.00  0.00     0.034 A 
ATOM     51  C   UNL A   1      40.287  31.173  34.454  1.00  0.00     0.034 A 
ATOM     52  C   UNL A   1      42.829  27.117  29.985  1.00  0.00     0.049 A 
ATOM     53  C   UNL A   1      41.519  30.300  34.424  1.00  0.00     0.074 A 
ATOM     54  C   UNL A   1      44.021  26.415  30.060  1.00  0.00     0.029 A 
ATOM     55  N   UNL A   1      42.702  27.810  31.183  1.00  0.00    -0.354 N 
ATOM     56  N   UNL A   1      41.951  29.511  33.466  1.00  0.00    -0.248 NA
ATOM     57  C   UNL A   1      42.378  30.324  35.614  1.00  0.00     0.031 C 
ATOM     58  C   UNL A   1      44.577  26.629  31.325  1.00  0.00     0.029 A 
ATOM     59  C   UNL A   1      43.779  27.531  32.010  1.00  0.00     0.049 A 
ATOM     60  H   UNL A   1      41.957  28.411  31.411  1.00  0.00     0.167 HD
ATOM     61  C   UNL A   1      43.152  28.978  33.927  1.00  0.00     0.074 A 
ATOM     62  C   UNL A   1      43.381  29.545  35.239  1.00  0.00     0.031 C 
ATOM     63  C   UNL A   1      43.995  28.105  33.318  1.00  0.00     0.034 A 
BRANCH  50  64
ATOM     64  C   UNL A   1      42.108  26.281  27.694  1.00  0.00     0.023 A 
ATOM     65  C   UNL A   1      41.693  24.937  27.660  1.00  0.00     0.031 A 
ATOM     66  C   UNL A   1      42.775  26.790  26.566  1.00  0.00     0.131 A 
ATOM     67  C   UNL A   1      42.019  24.130  26.559  1.00  0.00     0.055 A 
ATOM     68  C   UNL A   1      43.018  26.004  25.436  1.00  0.00     0.041 A 
ATOM     69  F   UNL A   1      43.214  28.058  26.545  1.00  0.00    -0.206 F 
ATOM     70  C   UNL A   1      42.654  24.662  25.434  1.00  0.00     0.022 A 
BRANCH  67  71
ATOM     71  S   UNL A   1      41.730  22.343  26.680  1.00  0.00     0.124 S 
ATOM     72  O   UNL A   1      40.289  22.294  26.916  1.00  0.00    -0.237 OA
ATOM     73  O   UNL A   1      42.183  21.861  25.382  1.00  0.00    -0.237 OA
ATOM     74  O   UNL A   1      42.554  21.941  27.819  1.00  0.00    -0.744 OA
ENDBRANCH  67  71
ENDBRANCH  50  64
BRANCH  51  75
ATOM     75  C   UNL A   1      39.954  31.974  35.668  1.00  0.00     0.023 A 
ATOM     76  C   UNL A   1      39.014  31.513  36.604  1.00  0.00     0.031 A 
ATOM     77  C   UNL A   1      40.531  33.238  35.884  1.00  0.00     0.131 A 
ATOM     78  C   UNL A   1      38.636  32.332  37.680  1.00  0.00     0.055 A 
ATOM     79  C   UNL A   1      40.196  34.024  36.988  1.00  0.00     0.041 A 
ATOM     80  F   UNL A   1      41.439  33.726  35.024  1.00  0.00    -0.206 F 
ATOM     81  C   UNL A   1      39.231  33.579  37.886  1.00  0.00     0.022 A 
BRANCH  78  82
ATOM     82  S   UNL A   1      37.278  31.787  38.753  1.00  0.00     0.124 S 
ATOM     83  O   UNL A   1      37.019  30.447  38.244  1.00  0.00    -0.237 OA
ATOM     84  O   UNL A   1      37.890  31.865  40.075  1.00  0.00    -0.237 OA
ATOM     85  O   UNL A   1      36.228  32.769  38.497  1.00  0.00    -0.744 OA
ENDBRANCH  78  82
ENDBRANCH  51  75
BRANCH  63  86
ATOM     86  C   UNL A   1      45.274  27.762  34.042  1.00  0.00     0.023 A 
ATOM     87  C   UNL A   1      45.371  26.648  34.896  1.00  0.00     0.031 A 
ATOM     88  C   UNL A   1      46.414  28.570  33.879  1.00  0.00     0.131 A 
ATOM     89  C   UNL A   1      46.562  26.411  35.599  1.00  0.00     0.055 A 
ATOM     90  C   UNL A   1      47.615  28.290  34.530  1.00  0.00     0.041 A 
ATOM     91  F   UNL A   1      46.377  29.648  33.078  1.00  0.00    -0.206 F 
ATOM     92  C   UNL A   1      47.689  27.213  35.408  1.00  0.00     0.022 A 
BRANCH  89  93
ATOM     93  S   UNL A   1      46.589  25.093  36.847  1.00  0.00     0.124 S 
ATOM     94  O   UNL A   1      45.286  25.256  37.487  1.00  0.00    -0.237 OA
ATOM     95  O   UNL A   1      46.752  23.894  36.031  1.00  0.00    -0.237 OA
ATOM     96  O   UNL A   1      47.737  25.435  37.683  1.00  0.00    -0.744 OA
ENDBRANCH  89  93
ENDBRANCH  63  86
ENDBRANCH  37  38
ENDBRANCH  29  32
ENDBRANCH  27  28
ENDBRANCH   1  27
TORSDOF 17
ENDMDL
