MODEL 1
REMARK VINA RESULT:     -11.7      0.000      0.000
REMARK SMILES C[C@@H](C(=O)NCCCNC(=O)c1ccc(-c2c3nc(c(-c4cc(S(=O)(=O)[O-])ccc4F)c4ccc([nH]4)c(-c4cc(S(=O)(=O)[O-])ccc4F)c4nc(c(-c5cc(S(=O)(=O)[O-])ccc5F)c5ccc2[nH]5)C=C4)C=C3)cc1)c1ccc(C[C@H]2CCCC2=O)c(Br)c1
REMARK SMILES IDX 7 1 6 2 5 3 3 4 4 5 2 7 1 8 75 9 76 10 88 11 77 12 86 13
REMARK SMILES IDX 78 14 87 15 79 16 80 17 81 18 84 19 82 20 83 21 85 22 8 23
REMARK SMILES IDX 9 24 10 25 11 27 12 28 13 29 74 30 14 31 73 32 15 33 16 34
REMARK SMILES IDX 17 35 67 36 18 37 72 38 66 39 68 40 19 41 71 42 65 43 64 44
REMARK SMILES IDX 20 46 52 47 32 48 51 49 33 50 36 51 50 52 69 53 34 54 35 55
REMARK SMILES IDX 49 57 70 58 37 59 21 60 22 61 30 62 23 63 29 64 31 65 28 66
REMARK SMILES IDX 24 67 25 68 26 69 27 70 53 71 54 72 62 73 55 74 61 75 63 76
REMARK SMILES IDX 60 77 56 78 57 79 58 80 59 81 38 82 39 83 47 84 40 85 46 86
REMARK SMILES IDX 48 87 45 88 41 89 42 90 43 91 44 92
REMARK H PARENT 5 6 9 26 68 45 36 56
REMARK Flexibility Score: inf
ROOT
ATOM      1  C   UNL A   1      31.082  32.050  26.070  1.00  0.00     0.042 C 
ENDROOT
BRANCH   1   2
ATOM      2  C   UNL A   1      30.871  30.565  25.779  1.00  0.00     0.117 C 
BRANCH   2   3
ATOM      3  N   UNL A   1      31.792  30.088  24.765  1.00  0.00    -0.356 N 
ATOM      4  C   UNL A   1      32.913  29.319  24.877  1.00  0.00     0.227 C 
ATOM      5  O   UNL A   1      33.582  29.163  23.852  1.00  0.00    -0.274 OA
ATOM      6  H   UNL A   1      31.572  30.364  23.846  1.00  0.00     0.163 HD
BRANCH   4   7
ATOM      7  C   UNL A   1      33.265  28.650  26.216  1.00  0.00     0.105 C 
ATOM      8  C   UNL A   1      34.676  29.026  26.683  1.00  0.00     0.023 C 
BRANCH   7   9
ATOM      9  C   UNL A   1      33.039  27.138  26.162  1.00  0.00    -0.035 A 
ATOM     10  C   UNL A   1      31.782  26.622  26.502  1.00  0.00     0.005 A 
ATOM     11  C   UNL A   1      34.031  26.234  25.750  1.00  0.00     0.020 A 
ATOM     12  C   UNL A   1      31.540  25.247  26.467  1.00  0.00     0.005 A 
ATOM     13  C   UNL A   1      33.800  24.852  25.746  1.00  0.00     0.021 A 
ATOM     14  C   UNL A   1      32.555  24.333  26.131  1.00  0.00    -0.033 A 
ATOM     15  Br  UNL A   1      35.256  23.755  25.200  1.00  0.00    -0.051 Br
BRANCH  14  16
ATOM     16  C   UNL A   1      32.248  22.854  26.212  1.00  0.00     0.048 C 
BRANCH  16  17
ATOM     17  C   UNL A   1      31.492  22.249  25.021  1.00  0.00     0.060 C 
ATOM     18  C   UNL A   1      31.452  23.064  23.725  1.00  0.00     0.012 C 
ATOM     19  C   UNL A   1      32.104  20.948  24.553  1.00  0.00     0.136 C 
ATOM     20  C   UNL A   1      32.560  22.512  22.835  1.00  0.00     0.009 C 
ATOM     21  C   UNL A   1      32.630  21.024  23.145  1.00  0.00     0.076 C 
ATOM     22  O   UNL A   1      32.153  19.933  25.238  1.00  0.00    -0.299 OA
ENDBRANCH  16  17
ENDBRANCH  14  16
ENDBRANCH   7   9
ENDBRANCH   4   7
ENDBRANCH   2   3
ENDBRANCH   1   2
BRANCH   1  23
ATOM     23  C   UNL A   1      32.343  32.355  26.876  1.00  0.00     0.118 C 
BRANCH  23  24
ATOM     24  N   UNL A   1      32.387  33.734  27.337  1.00  0.00    -0.352 N 
ATOM     25  C   UNL A   1      33.184  34.322  28.284  1.00  0.00     0.251 C 
ATOM     26  H   UNL A   1      31.744  34.339  26.900  1.00  0.00     0.163 HD
ATOM     27  O   UNL A   1      32.905  35.459  28.673  1.00  0.00    -0.269 OA
BRANCH  25  28
ATOM     28  C   UNL A   1      34.348  33.607  28.854  1.00  0.00     0.039 A 
ATOM     29  C   UNL A   1      35.633  34.044  28.523  1.00  0.00     0.014 A 
ATOM     30  C   UNL A   1      34.185  32.494  29.684  1.00  0.00     0.014 A 
ATOM     31  C   UNL A   1      36.749  33.411  29.076  1.00  0.00     0.010 A 
ATOM     32  C   UNL A   1      35.296  31.910  30.293  1.00  0.00     0.010 A 
ATOM     33  C   UNL A   1      36.590  32.363  29.998  1.00  0.00    -0.014 A 
BRANCH  33  34
ATOM     34  C   UNL A   1      37.765  31.750  30.675  1.00  0.00     0.031 A 
ATOM     35  C   UNL A   1      38.577  30.688  29.981  1.00  0.00     0.074 A 
ATOM     36  C   UNL A   1      38.064  32.112  31.939  1.00  0.00     0.049 A 
ATOM     37  N   UNL A   1      39.588  29.993  30.436  1.00  0.00    -0.248 NA
ATOM     38  C   UNL A   1      38.186  30.349  28.605  1.00  0.00     0.031 C 
ATOM     39  C   UNL A   1      37.332  33.107  32.728  1.00  0.00     0.029 A 
ATOM     40  N   UNL A   1      39.056  31.685  32.788  1.00  0.00    -0.354 N 
ATOM     41  C   UNL A   1      39.948  29.127  29.408  1.00  0.00     0.074 A 
ATOM     42  C   UNL A   1      39.012  29.351  28.327  1.00  0.00     0.031 C 
ATOM     43  C   UNL A   1      37.912  33.228  33.933  1.00  0.00     0.029 A 
ATOM     44  C   UNL A   1      39.023  32.288  34.027  1.00  0.00     0.049 A 
ATOM     45  H   UNL A   1      39.728  31.012  32.535  1.00  0.00     0.167 HD
ATOM     46  C   UNL A   1      40.975  28.241  29.366  1.00  0.00     0.034 A 
ATOM     47  C   UNL A   1      39.787  32.091  35.120  1.00  0.00     0.034 A 
ATOM     48  C   UNL A   1      41.907  28.039  30.449  1.00  0.00     0.049 A 
ATOM     49  C   UNL A   1      40.899  31.075  35.056  1.00  0.00     0.074 A 
ATOM     50  C   UNL A   1      43.015  27.210  30.486  1.00  0.00     0.029 A 
ATOM     51  N   UNL A   1      41.837  28.659  31.689  1.00  0.00    -0.354 N 
ATOM     52  N   UNL A   1      41.258  30.304  34.055  1.00  0.00    -0.248 NA
ATOM     53  C   UNL A   1      41.716  30.909  36.265  1.00  0.00     0.031 C 
ATOM     54  C   UNL A   1      43.569  27.272  31.769  1.00  0.00     0.029 A 
ATOM     55  C   UNL A   1      42.860  28.205  32.508  1.00  0.00     0.049 A 
ATOM     56  H   UNL A   1      41.161  29.326  31.949  1.00  0.00     0.167 HD
ATOM     57  C   UNL A   1      42.366  29.589  34.507  1.00  0.00     0.074 A 
ATOM     58  C   UNL A   1      42.624  30.034  35.860  1.00  0.00     0.031 C 
ATOM     59  C   UNL A   1      43.103  28.651  33.860  1.00  0.00     0.034 A 
BRANCH  46  60
ATOM     60  C   UNL A   1      41.130  27.406  28.117  1.00  0.00     0.023 A 
ATOM     61  C   UNL A   1      40.762  26.050  28.082  1.00  0.00     0.031 A 
ATOM     62  C   UNL A   1      41.646  27.978  26.940  1.00  0.00     0.131 A 
ATOM     63  C   UNL A   1      40.969  25.297  26.915  1.00  0.00     0.055 A 
ATOM     64  C   UNL A   1      41.777  27.244  25.760  1.00  0.00     0.041 A 
ATOM     65  F   UNL A   1      42.033  29.263  26.918  1.00  0.00    -0.206 F 
ATOM     66  C   UNL A   1      41.449  25.892  25.746  1.00  0.00     0.022 A 
BRANCH  63  67
ATOM     67  S   UNL A   1      40.714  23.503  26.982  1.00  0.00     0.124 S 
ATOM     68  O   UNL A   1      41.067  23.208  28.370  1.00  0.00    -0.237 OA
ATOM     69  O   UNL A   1      39.302  23.371  26.642  1.00  0.00    -0.237 OA
ATOM     70  O   UNL A   1      41.649  22.986  25.986  1.00  0.00    -0.744 OA
ENDBRANCH  63  67
ENDBRANCH  46  60
BRANCH  47  71
ATOM     71  C   UNL A   1      39.524  32.849  36.379  1.00  0.00     0.023 A 
ATOM     72  C   UNL A   1      38.675  32.334  37.370  1.00  0.00     0.031 A 
ATOM     73  C   UNL A   1      40.066  34.133  36.579  1.00  0.00     0.131 A 
ATOM     74  C   UNL A   1      38.342  33.118  38.485  1.00  0.00     0.055 A 
ATOM     75  C   UNL A   1      39.783  34.883  37.721  1.00  0.00     0.041 A 
ATOM     76  F   UNL A   1      40.886  34.675  35.665  1.00  0.00    -0.206 F 
ATOM     77  C   UNL A   1      38.902  34.384  38.675  1.00  0.00     0.022 A 
BRANCH  74  78
ATOM     78  S   UNL A   1      37.075  32.505  39.630  1.00  0.00     0.124 S 
ATOM     79  O   UNL A   1      37.580  31.174  39.945  1.00  0.00    -0.237 OA
ATOM     80  O   UNL A   1      37.140  33.489  40.706  1.00  0.00    -0.237 OA
ATOM     81  O   UNL A   1      35.852  32.537  38.831  1.00  0.00    -0.744 OA
ENDBRANCH  74  78
ENDBRANCH  47  71
BRANCH  59  82
ATOM     82  C   UNL A   1      44.292  28.083  34.599  1.00  0.00     0.023 A 
ATOM     83  C   UNL A   1      44.188  26.931  35.398  1.00  0.00     0.031 A 
ATOM     84  C   UNL A   1      45.545  28.716  34.512  1.00  0.00     0.131 A 
ATOM     85  C   UNL A   1      45.300  26.483  36.127  1.00  0.00     0.055 A 
ATOM     86  C   UNL A   1      46.665  28.228  35.186  1.00  0.00     0.041 A 
ATOM     87  F   UNL A   1      45.702  29.822  33.767  1.00  0.00    -0.206 F 
ATOM     88  C   UNL A   1      46.542  27.113  36.011  1.00  0.00     0.022 A 
BRANCH  85  89
ATOM     89  S   UNL A   1      45.078  25.123  37.306  1.00  0.00     0.124 S 
ATOM     90  O   UNL A   1      44.150  25.706  38.270  1.00  0.00    -0.237 OA
ATOM     91  O   UNL A   1      44.538  24.063  36.462  1.00  0.00    -0.237 OA
ATOM     92  O   UNL A   1      46.429  24.884  37.812  1.00  0.00    -0.744 OA
ENDBRANCH  85  89
ENDBRANCH  59  82
ENDBRANCH  33  34
ENDBRANCH  25  28
ENDBRANCH  23  24
ENDBRANCH   1  23
TORSDOF 16
ENDMDL
MODEL 2
REMARK VINA RESULT:     -11.6      1.411      1.717
REMARK SMILES C[C@@H](C(=O)NCCCNC(=O)c1ccc(-c2c3nc(c(-c4cc(S(=O)(=O)[O-])ccc4F)c4ccc([nH]4)c(-c4cc(S(=O)(=O)[O-])ccc4F)c4nc(c(-c5cc(S(=O)(=O)[O-])ccc5F)c5ccc2[nH]5)C=C4)C=C3)cc1)c1ccc(C[C@H]2CCCC2=O)c(Br)c1
REMARK SMILES IDX 7 1 6 2 5 3 3 4 4 5 2 7 1 8 75 9 76 10 88 11 77 12 86 13
REMARK SMILES IDX 78 14 87 15 79 16 80 17 81 18 84 19 82 20 83 21 85 22 8 23
REMARK SMILES IDX 9 24 10 25 11 27 12 28 13 29 74 30 14 31 73 32 15 33 16 34
REMARK SMILES IDX 17 35 67 36 18 37 72 38 66 39 68 40 19 41 71 42 65 43 64 44
REMARK SMILES IDX 20 46 52 47 32 48 51 49 33 50 36 51 50 52 69 53 34 54 35 55
REMARK SMILES IDX 49 57 70 58 37 59 21 60 22 61 30 62 23 63 29 64 31 65 28 66
REMARK SMILES IDX 24 67 25 68 26 69 27 70 53 71 54 72 62 73 55 74 61 75 63 76
REMARK SMILES IDX 60 77 56 78 57 79 58 80 59 81 38 82 39 83 47 84 40 85 46 86
REMARK SMILES IDX 48 87 45 88 41 89 42 90 43 91 44 92
REMARK H PARENT 5 6 9 26 68 45 36 56
REMARK Flexibility Score: inf
ROOT
ATOM      1  C   UNL A   1      31.387  32.605  26.498  1.00  0.00     0.042 C 
ENDROOT
BRANCH   1   2
ATOM      2  C   UNL A   1      31.071  31.112  26.434  1.00  0.00     0.117 C 
BRANCH   2   3
ATOM      3  N   UNL A   1      31.593  30.511  25.221  1.00  0.00    -0.356 N 
ATOM      4  C   UNL A   1      32.559  29.564  25.045  1.00  0.00     0.227 C 
ATOM      5  O   UNL A   1      32.891  29.322  23.883  1.00  0.00    -0.274 OA
ATOM      6  H   UNL A   1      31.182  30.841  24.389  1.00  0.00     0.163 HD
BRANCH   4   7
ATOM      7  C   UNL A   1      33.141  28.816  26.256  1.00  0.00     0.105 C 
ATOM      8  C   UNL A   1      34.640  29.090  26.423  1.00  0.00     0.023 C 
BRANCH   7   9
ATOM      9  C   UNL A   1      32.811  27.323  26.202  1.00  0.00    -0.035 A 
ATOM     10  C   UNL A   1      31.477  26.913  26.324  1.00  0.00     0.005 A 
ATOM     11  C   UNL A   1      33.786  26.334  25.999  1.00  0.00     0.020 A 
ATOM     12  C   UNL A   1      31.138  25.559  26.282  1.00  0.00     0.005 A 
ATOM     13  C   UNL A   1      33.452  24.973  25.990  1.00  0.00     0.021 A 
ATOM     14  C   UNL A   1      32.122  24.562  26.158  1.00  0.00    -0.033 A 
ATOM     15  Br  UNL A   1      34.891  23.753  25.744  1.00  0.00    -0.051 Br
BRANCH  14  16
ATOM     16  C   UNL A   1      31.691  23.113  26.222  1.00  0.00     0.048 C 
BRANCH  16  17
ATOM     17  C   UNL A   1      31.182  22.496  24.912  1.00  0.00     0.060 C 
ATOM     18  C   UNL A   1      31.213  23.377  23.659  1.00  0.00     0.012 C 
ATOM     19  C   UNL A   1      32.010  21.308  24.476  1.00  0.00     0.136 C 
ATOM     20  C   UNL A   1      32.489  23.016  22.910  1.00  0.00     0.009 C 
ATOM     21  C   UNL A   1      32.705  21.531  23.161  1.00  0.00     0.076 C 
ATOM     22  O   UNL A   1      32.096  20.266  25.117  1.00  0.00    -0.299 OA
ENDBRANCH  16  17
ENDBRANCH  14  16
ENDBRANCH   7   9
ENDBRANCH   4   7
ENDBRANCH   2   3
ENDBRANCH   1   2
BRANCH   1  23
ATOM     23  C   UNL A   1      32.679  32.938  27.241  1.00  0.00     0.118 C 
BRANCH  23  24
ATOM     24  N   UNL A   1      32.677  34.289  27.781  1.00  0.00    -0.352 N 
ATOM     25  C   UNL A   1      33.405  34.828  28.810  1.00  0.00     0.251 C 
ATOM     26  H   UNL A   1      32.055  34.912  27.339  1.00  0.00     0.163 HD
ATOM     27  O   UNL A   1      33.087  35.938  29.245  1.00  0.00    -0.269 OA
BRANCH  25  28
ATOM     28  C   UNL A   1      34.539  34.092  29.411  1.00  0.00     0.039 A 
ATOM     29  C   UNL A   1      35.835  34.385  28.979  1.00  0.00     0.014 A 
ATOM     30  C   UNL A   1      34.335  33.096  30.371  1.00  0.00     0.014 A 
ATOM     31  C   UNL A   1      36.927  33.732  29.557  1.00  0.00     0.010 A 
ATOM     32  C   UNL A   1      35.429  32.497  30.997  1.00  0.00     0.010 A 
ATOM     33  C   UNL A   1      36.737  32.811  30.600  1.00  0.00    -0.014 A 
BRANCH  33  34
ATOM     34  C   UNL A   1      37.895  32.187  31.295  1.00  0.00     0.031 A 
ATOM     35  C   UNL A   1      38.641  31.044  30.659  1.00  0.00     0.074 A 
ATOM     36  C   UNL A   1      38.237  32.616  32.527  1.00  0.00     0.049 A 
ATOM     37  N   UNL A   1      39.627  30.332  31.141  1.00  0.00    -0.248 NA
ATOM     38  C   UNL A   1      38.206  30.634  29.316  1.00  0.00     0.031 C 
ATOM     39  C   UNL A   1      37.570  33.694  33.261  1.00  0.00     0.029 A 
ATOM     40  N   UNL A   1      39.224  32.198  33.385  1.00  0.00    -0.354 N 
ATOM     41  C   UNL A   1      39.924  29.383  30.167  1.00  0.00     0.074 A 
ATOM     42  C   UNL A   1      38.978  29.581  29.090  1.00  0.00     0.031 C 
ATOM     43  C   UNL A   1      38.179  33.866  34.445  1.00  0.00     0.029 A 
ATOM     44  C   UNL A   1      39.246  32.880  34.582  1.00  0.00     0.049 A 
ATOM     45  H   UNL A   1      39.858  31.477  33.166  1.00  0.00     0.167 HD
ATOM     46  C   UNL A   1      40.907  28.448  30.166  1.00  0.00     0.034 A 
ATOM     47  C   UNL A   1      40.022  32.718  35.672  1.00  0.00     0.034 A 
ATOM     48  C   UNL A   1      41.850  28.271  31.243  1.00  0.00     0.049 A 
ATOM     49  C   UNL A   1      41.084  31.647  35.656  1.00  0.00     0.074 A 
ATOM     50  C   UNL A   1      42.919  27.394  31.315  1.00  0.00     0.029 A 
ATOM     51  N   UNL A   1      41.836  28.974  32.440  1.00  0.00    -0.354 N 
ATOM     52  N   UNL A   1      41.385  30.796  34.702  1.00  0.00    -0.248 NA
ATOM     53  C   UNL A   1      41.917  31.521  36.859  1.00  0.00     0.031 C 
ATOM     54  C   UNL A   1      43.501  27.512  32.582  1.00  0.00     0.029 A 
ATOM     55  C   UNL A   1      42.853  28.524  33.269  1.00  0.00     0.049 A 
ATOM     56  H   UNL A   1      41.197  29.688  32.667  1.00  0.00     0.167 HD
ATOM     57  C   UNL A   1      42.466  30.059  35.180  1.00  0.00     0.074 A 
ATOM     58  C   UNL A   1      42.774  30.578  36.496  1.00  0.00     0.031 C 
ATOM     59  C   UNL A   1      43.145  29.045  34.584  1.00  0.00     0.034 A 
BRANCH  46  60
ATOM     60  C   UNL A   1      40.996  27.526  28.972  1.00  0.00     0.023 A 
ATOM     61  C   UNL A   1      41.979  27.687  27.982  1.00  0.00     0.031 A 
ATOM     62  C   UNL A   1      40.086  26.462  28.829  1.00  0.00     0.131 A 
ATOM     63  C   UNL A   1      41.995  26.838  26.864  1.00  0.00     0.055 A 
ATOM     64  C   UNL A   1      40.156  25.573  27.754  1.00  0.00     0.041 A 
ATOM     65  F   UNL A   1      39.112  26.268  29.732  1.00  0.00    -0.206 F 
ATOM     66  C   UNL A   1      41.107  25.765  26.758  1.00  0.00     0.022 A 
BRANCH  63  67
ATOM     67  S   UNL A   1      43.117  27.228  25.494  1.00  0.00     0.124 S 
ATOM     68  O   UNL A   1      43.371  25.901  24.935  1.00  0.00    -0.237 OA
ATOM     69  O   UNL A   1      42.313  28.123  24.671  1.00  0.00    -0.237 OA
ATOM     70  O   UNL A   1      44.264  27.846  26.154  1.00  0.00    -0.744 OA
ENDBRANCH  63  67
ENDBRANCH  46  60
BRANCH  47  71
ATOM     71  C   UNL A   1      39.822  33.569  36.882  1.00  0.00     0.023 A 
ATOM     72  C   UNL A   1      39.147  33.077  38.009  1.00  0.00     0.031 A 
ATOM     73  C   UNL A   1      40.245  34.912  36.903  1.00  0.00     0.131 A 
ATOM     74  C   UNL A   1      38.858  33.932  39.083  1.00  0.00     0.055 A 
ATOM     75  C   UNL A   1      40.012  35.741  38.001  1.00  0.00     0.041 A 
ATOM     76  F   UNL A   1      40.899  35.436  35.854  1.00  0.00    -0.206 F 
ATOM     77  C   UNL A   1      39.299  35.258  39.093  1.00  0.00     0.022 A 
BRANCH  74  78
ATOM     78  S   UNL A   1      37.796  33.319  40.420  1.00  0.00     0.124 S 
ATOM     79  O   UNL A   1      37.608  34.522  41.223  1.00  0.00    -0.237 OA
ATOM     80  O   UNL A   1      36.628  32.847  39.685  1.00  0.00    -0.237 OA
ATOM     81  O   UNL A   1      38.604  32.273  41.043  1.00  0.00    -0.744 OA
ENDBRANCH  74  78
ENDBRANCH  47  71
BRANCH  59  82
ATOM     82  C   UNL A   1      44.320  28.470  35.338  1.00  0.00     0.023 A 
ATOM     83  C   UNL A   1      44.164  27.442  36.284  1.00  0.00     0.031 A 
ATOM     84  C   UNL A   1      45.615  28.971  35.115  1.00  0.00     0.131 A 
ATOM     85  C   UNL A   1      45.272  26.991  37.016  1.00  0.00     0.055 A 
ATOM     86  C   UNL A   1      46.725  28.472  35.797  1.00  0.00     0.041 A 
ATOM     87  F   UNL A   1      45.824  29.955  34.225  1.00  0.00    -0.206 F 
ATOM     88  C   UNL A   1      46.555  27.485  36.765  1.00  0.00     0.022 A 
BRANCH  85  89
ATOM     89  S   UNL A   1      45.002  25.816  38.371  1.00  0.00     0.124 S 
ATOM     90  O   UNL A   1      46.368  25.476  38.755  1.00  0.00    -0.237 OA
ATOM     91  O   UNL A   1      44.250  26.615  39.332  1.00  0.00    -0.237 OA
ATOM     92  O   UNL A   1      44.248  24.733  37.741  1.00  0.00    -0.744 OA
ENDBRANCH  85  89
ENDBRANCH  59  82
ENDBRANCH  33  34
ENDBRANCH  25  28
ENDBRANCH  23  24
ENDBRANCH   1  23
TORSDOF 16
ENDMDL
MODEL 3
REMARK VINA RESULT:     -11.5      3.198      8.459
REMARK SMILES C[C@@H](C(=O)NCCCNC(=O)c1ccc(-c2c3nc(c(-c4cc(S(=O)(=O)[O-])ccc4F)c4ccc([nH]4)c(-c4cc(S(=O)(=O)[O-])ccc4F)c4nc(c(-c5cc(S(=O)(=O)[O-])ccc5F)c5ccc2[nH]5)C=C4)C=C3)cc1)c1ccc(C[C@H]2CCCC2=O)c(Br)c1
REMARK SMILES IDX 7 1 6 2 5 3 3 4 4 5 2 7 1 8 75 9 76 10 88 11 77 12 86 13
REMARK SMILES IDX 78 14 87 15 79 16 80 17 81 18 84 19 82 20 83 21 85 22 8 23
REMARK SMILES IDX 9 24 10 25 11 27 12 28 13 29 74 30 14 31 73 32 15 33 16 34
REMARK SMILES IDX 17 35 67 36 18 37 72 38 66 39 68 40 19 41 71 42 65 43 64 44
REMARK SMILES IDX 20 46 52 47 32 48 51 49 33 50 36 51 50 52 69 53 34 54 35 55
REMARK SMILES IDX 49 57 70 58 37 59 21 60 22 61 30 62 23 63 29 64 31 65 28 66
REMARK SMILES IDX 24 67 25 68 26 69 27 70 53 71 54 72 62 73 55 74 61 75 63 76
REMARK SMILES IDX 60 77 56 78 57 79 58 80 59 81 38 82 39 83 47 84 40 85 46 86
REMARK SMILES IDX 48 87 45 88 41 89 42 90 43 91 44 92
REMARK H PARENT 5 6 9 26 68 45 36 56
REMARK Flexibility Score: inf
ROOT
ATOM      1  C   UNL A   1      33.225  27.589  26.498  1.00  0.00     0.042 C 
ENDROOT
BRANCH   1   2
ATOM      2  C   UNL A   1      31.731  27.896  26.407  1.00  0.00     0.117 C 
BRANCH   2   3
ATOM      3  N   UNL A   1      30.930  26.758  26.816  1.00  0.00    -0.356 N 
ATOM      4  C   UNL A   1      30.496  25.678  26.105  1.00  0.00     0.227 C 
ATOM      5  O   UNL A   1      29.719  24.913  26.681  1.00  0.00    -0.274 OA
ATOM      6  H   UNL A   1      30.654  26.767  27.762  1.00  0.00     0.163 HD
BRANCH   4   7
ATOM      7  C   UNL A   1      31.016  25.428  24.679  1.00  0.00     0.105 C 
ATOM      8  C   UNL A   1      29.903  25.583  23.637  1.00  0.00     0.023 C 
BRANCH   7   9
ATOM      9  C   UNL A   1      31.745  24.086  24.578  1.00  0.00    -0.035 A 
ATOM     10  C   UNL A   1      31.580  23.305  23.426  1.00  0.00     0.005 A 
ATOM     11  C   UNL A   1      32.606  23.609  25.577  1.00  0.00     0.020 A 
ATOM     12  C   UNL A   1      32.227  22.074  23.299  1.00  0.00     0.005 A 
ATOM     13  C   UNL A   1      33.230  22.360  25.466  1.00  0.00     0.021 A 
ATOM     14  C   UNL A   1      33.028  21.558  24.333  1.00  0.00    -0.033 A 
ATOM     15  Br  UNL A   1      34.336  21.836  26.923  1.00  0.00    -0.051 Br
BRANCH  14  16
ATOM     16  C   UNL A   1      33.614  20.173  24.167  1.00  0.00     0.048 C 
BRANCH  16  17
ATOM     17  C   UNL A   1      32.610  19.029  23.963  1.00  0.00     0.060 C 
ATOM     18  C   UNL A   1      32.743  18.195  22.685  1.00  0.00     0.012 C 
ATOM     19  C   UNL A   1      32.718  17.972  25.038  1.00  0.00     0.136 C 
ATOM     20  C   UNL A   1      33.533  16.948  23.065  1.00  0.00     0.009 C 
ATOM     21  C   UNL A   1      33.129  16.629  24.497  1.00  0.00     0.076 C 
ATOM     22  O   UNL A   1      32.480  18.178  26.222  1.00  0.00    -0.299 OA
ENDBRANCH  16  17
ENDBRANCH  14  16
ENDBRANCH   7   9
ENDBRANCH   4   7
ENDBRANCH   2   3
ENDBRANCH   1   2
BRANCH   1  23
ATOM     23  C   UNL A   1      34.120  28.658  25.875  1.00  0.00     0.118 C 
BRANCH  23  24
ATOM     24  N   UNL A   1      33.814  29.993  26.366  1.00  0.00    -0.352 N 
ATOM     25  C   UNL A   1      34.409  30.724  27.362  1.00  0.00     0.251 C 
ATOM     26  H   UNL A   1      33.063  30.440  25.913  1.00  0.00     0.163 HD
ATOM     27  O   UNL A   1      33.850  31.748  27.762  1.00  0.00    -0.269 OA
BRANCH  25  28
ATOM     28  C   UNL A   1      35.686  30.289  27.970  1.00  0.00     0.039 A 
ATOM     29  C   UNL A   1      35.661  29.702  29.238  1.00  0.00     0.014 A 
ATOM     30  C   UNL A   1      36.907  30.481  27.317  1.00  0.00     0.014 A 
ATOM     31  C   UNL A   1      36.848  29.248  29.819  1.00  0.00     0.010 A 
ATOM     32  C   UNL A   1      38.080  29.962  27.866  1.00  0.00     0.010 A 
ATOM     33  C   UNL A   1      38.063  29.337  29.121  1.00  0.00    -0.014 A 
BRANCH  33  34
ATOM     34  C   UNL A   1      39.316  28.763  29.684  1.00  0.00     0.031 A 
ATOM     35  C   UNL A   1      39.957  29.375  30.901  1.00  0.00     0.074 A 
ATOM     36  C   UNL A   1      39.906  27.723  29.060  1.00  0.00     0.049 A 
ATOM     37  N   UNL A   1      41.081  29.058  31.490  1.00  0.00    -0.248 NA
ATOM     38  C   UNL A   1      39.253  30.507  31.522  1.00  0.00     0.031 C 
ATOM     39  C   UNL A   1      39.398  27.064  27.853  1.00  0.00     0.029 A 
ATOM     40  N   UNL A   1      41.062  27.039  29.344  1.00  0.00    -0.354 N 
ATOM     41  C   UNL A   1      41.226  29.955  32.544  1.00  0.00     0.074 A 
ATOM     42  C   UNL A   1      40.099  30.860  32.478  1.00  0.00     0.031 C 
ATOM     43  C   UNL A   1      40.224  26.061  27.517  1.00  0.00     0.029 A 
ATOM     44  C   UNL A   1      41.347  26.033  28.447  1.00  0.00     0.049 A 
ATOM     45  H   UNL A   1      41.633  27.247  30.118  1.00  0.00     0.167 HD
ATOM     46  C   UNL A   1      42.199  30.005  33.488  1.00  0.00     0.034 A 
ATOM     47  C   UNL A   1      42.402  25.198  28.370  1.00  0.00     0.034 A 
ATOM     48  C   UNL A   1      43.311  29.086  33.546  1.00  0.00     0.049 A 
ATOM     49  C   UNL A   1      43.488  25.299  29.413  1.00  0.00     0.074 A 
ATOM     50  C   UNL A   1      44.317  29.013  34.493  1.00  0.00     0.029 A 
ATOM     51  N   UNL A   1      43.571  28.088  32.617  1.00  0.00    -0.354 N 
ATOM     52  N   UNL A   1      43.579  26.119  30.435  1.00  0.00    -0.248 NA
ATOM     53  C   UNL A   1      44.607  24.355  29.299  1.00  0.00     0.031 C 
ATOM     54  C   UNL A   1      45.225  28.025  34.097  1.00  0.00     0.029 A 
ATOM     55  C   UNL A   1      44.740  27.420  32.949  1.00  0.00     0.049 A 
ATOM     56  H   UNL A   1      43.006  27.883  31.837  1.00  0.00     0.167 HD
ATOM     57  C   UNL A   1      44.748  25.763  31.103  1.00  0.00     0.074 A 
ATOM     58  C   UNL A   1      45.316  24.645  30.379  1.00  0.00     0.031 C 
ATOM     59  C   UNL A   1      45.301  26.310  32.215  1.00  0.00     0.034 A 
BRANCH  46  60
ATOM     60  C   UNL A   1      42.120  31.105  34.520  1.00  0.00     0.023 A 
ATOM     61  C   UNL A   1      42.764  32.340  34.338  1.00  0.00     0.031 A 
ATOM     62  C   UNL A   1      41.380  30.916  35.702  1.00  0.00     0.131 A 
ATOM     63  C   UNL A   1      42.705  33.317  35.345  1.00  0.00     0.055 A 
ATOM     64  C   UNL A   1      41.262  31.920  36.665  1.00  0.00     0.041 A 
ATOM     65  F   UNL A   1      40.760  29.750  35.942  1.00  0.00    -0.206 F 
ATOM     66  C   UNL A   1      41.936  33.125  36.495  1.00  0.00     0.022 A 
BRANCH  63  67
ATOM     67  S   UNL A   1      43.744  34.794  35.184  1.00  0.00     0.124 S 
ATOM     68  O   UNL A   1      44.851  34.288  34.374  1.00  0.00    -0.237 OA
ATOM     69  O   UNL A   1      42.851  35.739  34.525  1.00  0.00    -0.237 OA
ATOM     70  O   UNL A   1      44.093  35.121  36.564  1.00  0.00    -0.744 OA
ENDBRANCH  63  67
ENDBRANCH  46  60
BRANCH  47  71
ATOM     71  C   UNL A   1      42.507  24.203  27.262  1.00  0.00     0.023 A 
ATOM     72  C   UNL A   1      41.898  22.943  27.360  1.00  0.00     0.031 A 
ATOM     73  C   UNL A   1      43.277  24.474  26.115  1.00  0.00     0.131 A 
ATOM     74  C   UNL A   1      42.116  21.979  26.364  1.00  0.00     0.055 A 
ATOM     75  C   UNL A   1      43.438  23.534  25.095  1.00  0.00     0.041 A 
ATOM     76  F   UNL A   1      43.880  25.664  25.966  1.00  0.00    -0.206 F 
ATOM     77  C   UNL A   1      42.871  22.271  25.225  1.00  0.00     0.022 A 
BRANCH  74  78
ATOM     78  S   UNL A   1      41.494  20.296  26.633  1.00  0.00     0.124 S 
ATOM     79  O   UNL A   1      41.897  19.632  25.400  1.00  0.00    -0.237 OA
ATOM     80  O   UNL A   1      42.211  19.900  27.841  1.00  0.00    -0.237 OA
ATOM     81  O   UNL A   1      40.055  20.489  26.799  1.00  0.00    -0.744 OA
ENDBRANCH  74  78
ENDBRANCH  47  71
BRANCH  59  82
ATOM     82  C   UNL A   1      46.562  25.668  32.741  1.00  0.00     0.023 A 
ATOM     83  C   UNL A   1      46.528  24.639  33.698  1.00  0.00     0.031 A 
ATOM     84  C   UNL A   1      47.820  26.104  32.286  1.00  0.00     0.131 A 
ATOM     85  C   UNL A   1      47.726  24.123  34.215  1.00  0.00     0.055 A 
ATOM     86  C   UNL A   1      49.008  25.541  32.754  1.00  0.00     0.041 A 
ATOM     87  F   UNL A   1      47.914  27.086  31.375  1.00  0.00    -0.206 F 
ATOM     88  C   UNL A   1      48.965  24.554  33.734  1.00  0.00     0.022 A 
BRANCH  85  89
ATOM     89  S   UNL A   1      47.646  22.949  35.595  1.00  0.00     0.124 S 
ATOM     90  O   UNL A   1      47.233  21.720  34.924  1.00  0.00    -0.237 OA
ATOM     91  O   UNL A   1      49.013  22.970  36.104  1.00  0.00    -0.237 OA
ATOM     92  O   UNL A   1      46.644  23.534  36.485  1.00  0.00    -0.744 OA
ENDBRANCH  85  89
ENDBRANCH  59  82
ENDBRANCH  33  34
ENDBRANCH  25  28
ENDBRANCH  23  24
ENDBRANCH   1  23
TORSDOF 16
ENDMDL
