MODEL 1
REMARK VINA RESULT:     -13.0      0.000      0.000
REMARK SMILES COc1cccc(C[N@@H+]2C[C@H](C(=O)NCCCNC(=O)c3ccc(-c4c5nc(c(-c6cc(S(=O)(=O)[O-])ccc6F)c6ccc([nH]6)c(-c6cc(S(=O)(=O)[O-])ccc6F)c6nc(c(-c7cc(S(=O)(=O)[O-])ccc7F)c7ccc4[nH]7)C=C6)C=C5)cc3)C3(CC[NH+](C)CC3)C2)c1
REMARK SMILES IDX 16 1 15 2 14 3 12 4 13 5 11 7 9 8 10 9 91 10 84 12 85 13
REMARK SMILES IDX 90 14 86 15 89 16 87 17 88 18 8 20 7 21 3 22 4 23 92 24 5 25
REMARK SMILES IDX 6 26 2 27 1 28 17 29 18 30 19 31 20 33 21 34 22 35 83 36
REMARK SMILES IDX 23 37 82 38 24 39 25 40 26 41 76 42 27 43 81 44 75 45 77 46
REMARK SMILES IDX 28 47 80 48 74 49 73 50 29 52 61 53 41 54 60 55 42 56 45 57
REMARK SMILES IDX 59 58 78 59 43 60 44 61 58 63 79 64 46 65 30 66 31 67 39 68
REMARK SMILES IDX 32 69 38 70 40 71 37 72 33 73 34 74 35 75 36 76 62 77 63 78
REMARK SMILES IDX 71 79 64 80 70 81 72 82 69 83 65 84 66 85 67 86 68 87 47 88
REMARK SMILES IDX 48 89 56 90 49 91 55 92 57 93 54 94 50 95 51 96 52 97 53 98
REMARK H PARENT 14 6 9 11 87 19 18 32 77 51 45 62
REMARK Flexibility Score: inf
ROOT
ATOM      1  C   UNL A   1      32.052  28.817  27.132  1.00  0.00     0.042 C 
ENDROOT
BRANCH   1   2
ATOM      2  C   UNL A   1      32.272  27.365  26.784  1.00  0.00     0.117 C 
BRANCH   2   3
ATOM      3  N   UNL A   1      31.136  26.496  26.991  1.00  0.00    -0.356 N 
ATOM      4  C   UNL A   1      30.544  25.648  26.105  1.00  0.00     0.229 C 
ATOM      5  O   UNL A   1      29.744  24.826  26.564  1.00  0.00    -0.275 OA
ATOM      6  H   UNL A   1      30.736  26.522  27.891  1.00  0.00     0.163 HD
BRANCH   4   7
ATOM      7  C   UNL A   1      30.747  25.748  24.595  1.00  0.00     0.145 C 
ATOM      8  N   UNL A   1      31.137  27.399  22.917  1.00  0.00    -0.330 N 
ATOM      9  C   UNL A   1      30.409  27.171  24.154  1.00  0.00     0.276 C 
ATOM     10  C   UNL A   1      32.294  26.512  22.870  1.00  0.00     0.270 C 
ATOM     11  H   UNL A   1      30.538  27.148  22.130  1.00  0.00     0.348 HD
ATOM     12  C   UNL A   1      32.038  25.318  23.829  1.00  0.00     0.047 C 
ATOM     13  C   UNL A   1      31.763  23.995  23.054  1.00  0.00     0.075 C 
ATOM     14  C   UNL A   1      33.357  25.019  24.570  1.00  0.00     0.075 C 
ATOM     15  C   UNL A   1      31.721  22.770  23.995  1.00  0.00     0.262 C 
ATOM     16  C   UNL A   1      33.252  23.852  25.546  1.00  0.00     0.262 C 
ATOM     17  N   UNL A   1      32.886  22.603  24.878  1.00  0.00    -0.337 N 
ATOM     18  C   UNL A   1      34.036  21.997  24.215  1.00  0.00     0.332 C 
ATOM     19  H   UNL A   1      32.589  21.941  25.595  1.00  0.00     0.347 HD
BRANCH   8  20
ATOM     20  C   UNL A   1      31.408  28.821  22.635  1.00  0.00     0.299 C 
BRANCH  20  21
ATOM     21  C   UNL A   1      30.234  29.790  22.706  1.00  0.00     0.010 A 
ATOM     22  C   UNL A   1      28.403  30.964  21.625  1.00  0.00     0.119 A 
ATOM     23  C   UNL A   1      28.108  31.645  22.801  1.00  0.00     0.046 A 
ATOM     24  C   UNL A   1      29.459  30.054  21.566  1.00  0.00     0.056 A 
ATOM     25  C   UNL A   1      28.845  31.370  23.949  1.00  0.00     0.004 A 
ATOM     26  C   UNL A   1      29.892  30.441  23.904  1.00  0.00     0.010 A 
BRANCH  22  27
ATOM     27  O   UNL A   1      27.678  31.246  20.499  1.00  0.00    -0.497 OA
ATOM     28  C   UNL A   1      27.632  32.659  20.294  1.00  0.00     0.278 C 
ENDBRANCH  22  27
ENDBRANCH  20  21
ENDBRANCH   8  20
ENDBRANCH   4   7
ENDBRANCH   2   3
ENDBRANCH   1   2
BRANCH   1  29
ATOM     29  C   UNL A   1      32.942  29.750  26.325  1.00  0.00     0.118 C 
BRANCH  29  30
ATOM     30  N   UNL A   1      32.957  31.126  26.819  1.00  0.00    -0.352 N 
ATOM     31  C   UNL A   1      33.842  31.840  27.600  1.00  0.00     0.251 C 
ATOM     32  H   UNL A   1      32.173  31.651  26.537  1.00  0.00     0.163 HD
ATOM     33  O   UNL A   1      33.518  32.956  27.978  1.00  0.00    -0.269 OA
BRANCH  31  34
ATOM     34  C   UNL A   1      35.142  31.264  28.022  1.00  0.00     0.039 A 
ATOM     35  C   UNL A   1      36.239  32.112  28.204  1.00  0.00     0.014 A 
ATOM     36  C   UNL A   1      35.303  29.900  28.235  1.00  0.00     0.014 A 
ATOM     37  C   UNL A   1      37.443  31.600  28.699  1.00  0.00     0.010 A 
ATOM     38  C   UNL A   1      36.433  29.421  28.885  1.00  0.00     0.010 A 
ATOM     39  C   UNL A   1      37.528  30.260  29.114  1.00  0.00    -0.014 A 
BRANCH  39  40
ATOM     40  C   UNL A   1      38.747  29.715  29.774  1.00  0.00     0.031 A 
ATOM     41  C   UNL A   1      39.158  30.202  31.143  1.00  0.00     0.074 A 
ATOM     42  C   UNL A   1      39.529  28.840  29.108  1.00  0.00     0.049 A 
ATOM     43  N   UNL A   1      40.227  29.913  31.841  1.00  0.00    -0.248 NA
ATOM     44  C   UNL A   1      38.275  31.186  31.793  1.00  0.00     0.031 C 
ATOM     45  C   UNL A   1      39.286  28.352  27.747  1.00  0.00     0.029 A 
ATOM     46  N   UNL A   1      40.686  28.204  29.480  1.00  0.00    -0.354 N 
ATOM     47  C   UNL A   1      40.157  30.697  32.989  1.00  0.00     0.074 A 
ATOM     48  C   UNL A   1      38.988  31.536  32.852  1.00  0.00     0.031 C 
ATOM     49  C   UNL A   1      40.228  27.453  27.424  1.00  0.00     0.029 A 
ATOM     50  C   UNL A   1      41.175  27.340  28.527  1.00  0.00     0.049 A 
ATOM     51  H   UNL A   1      41.126  28.351  30.348  1.00  0.00     0.167 HD
ATOM     52  C   UNL A   1      40.968  30.691  34.077  1.00  0.00     0.034 A 
ATOM     53  C   UNL A   1      42.264  26.546  28.539  1.00  0.00     0.034 A 
ATOM     54  C   UNL A   1      42.107  29.818  34.215  1.00  0.00     0.049 A 
ATOM     55  C   UNL A   1      43.138  26.540  29.765  1.00  0.00     0.074 A 
ATOM     56  C   UNL A   1      42.956  29.672  35.298  1.00  0.00     0.029 A 
ATOM     57  N   UNL A   1      42.560  28.942  33.237  1.00  0.00    -0.354 N 
ATOM     58  N   UNL A   1      43.018  27.240  30.871  1.00  0.00    -0.248 NA
ATOM     59  C   UNL A   1      44.286  25.627  29.752  1.00  0.00     0.031 C 
ATOM     60  C   UNL A   1      43.957  28.759  34.951  1.00  0.00     0.029 A 
ATOM     61  C   UNL A   1      43.691  28.274  33.680  1.00  0.00     0.049 A 
ATOM     62  H   UNL A   1      42.138  28.813  32.357  1.00  0.00     0.167 HD
ATOM     63  C   UNL A   1      44.064  26.832  31.693  1.00  0.00     0.074 A 
ATOM     64  C   UNL A   1      44.782  25.803  30.967  1.00  0.00     0.031 C 
ATOM     65  C   UNL A   1      44.407  27.268  32.933  1.00  0.00     0.034 A 
BRANCH  52  66
ATOM     66  C   UNL A   1      40.648  31.664  35.191  1.00  0.00     0.023 A 
ATOM     67  C   UNL A   1      39.636  31.405  36.133  1.00  0.00     0.031 A 
ATOM     68  C   UNL A   1      41.340  32.883  35.295  1.00  0.00     0.131 A 
ATOM     69  C   UNL A   1      39.287  32.381  37.078  1.00  0.00     0.055 A 
ATOM     70  C   UNL A   1      41.050  33.814  36.296  1.00  0.00     0.041 A 
ATOM     71  F   UNL A   1      42.303  33.201  34.416  1.00  0.00    -0.206 F 
ATOM     72  C   UNL A   1      40.006  33.573  37.185  1.00  0.00     0.022 A 
BRANCH  69  73
ATOM     73  S   UNL A   1      37.783  32.135  38.061  1.00  0.00     0.124 S 
ATOM     74  O   UNL A   1      38.269  32.396  39.414  1.00  0.00    -0.237 OA
ATOM     75  O   UNL A   1      36.875  33.131  37.505  1.00  0.00    -0.237 OA
ATOM     76  O   UNL A   1      37.424  30.743  37.795  1.00  0.00    -0.744 OA
ENDBRANCH  69  73
ENDBRANCH  52  66
BRANCH  53  77
ATOM     77  C   UNL A   1      42.592  25.689  27.362  1.00  0.00     0.023 A 
ATOM     78  C   UNL A   1      42.154  24.356  27.297  1.00  0.00     0.031 A 
ATOM     79  C   UNL A   1      43.381  26.174  26.304  1.00  0.00     0.131 A 
ATOM     80  C   UNL A   1      42.549  23.539  26.226  1.00  0.00     0.055 A 
ATOM     81  C   UNL A   1      43.725  25.374  25.213  1.00  0.00     0.041 A 
ATOM     82  F   UNL A   1      43.819  27.442  26.311  1.00  0.00    -0.206 F 
ATOM     83  C   UNL A   1      43.321  24.043  25.176  1.00  0.00     0.022 A 
BRANCH  80  84
ATOM     84  S   UNL A   1      42.115  21.778  26.268  1.00  0.00     0.124 S 
ATOM     85  O   UNL A   1      40.698  21.814  25.925  1.00  0.00    -0.237 OA
ATOM     86  O   UNL A   1      43.007  21.224  25.256  1.00  0.00    -0.237 OA
ATOM     87  O   UNL A   1      42.415  21.387  27.644  1.00  0.00    -0.744 OA
ENDBRANCH  80  84
ENDBRANCH  53  77
BRANCH  65  88
ATOM     88  C   UNL A   1      45.600  26.603  33.578  1.00  0.00     0.023 A 
ATOM     89  C   UNL A   1      45.469  25.413  34.316  1.00  0.00     0.031 A 
ATOM     90  C   UNL A   1      46.875  27.190  33.489  1.00  0.00     0.131 A 
ATOM     91  C   UNL A   1      46.574  24.892  35.004  1.00  0.00     0.055 A 
ATOM     92  C   UNL A   1      47.987  26.625  34.116  1.00  0.00     0.041 A 
ATOM     93  F   UNL A   1      47.060  28.327  32.801  1.00  0.00    -0.206 F 
ATOM     94  C   UNL A   1      47.836  25.480  34.893  1.00  0.00     0.022 A 
BRANCH  91  95
ATOM     95  S   UNL A   1      46.309  23.512  36.149  1.00  0.00     0.124 S 
ATOM     96  O   UNL A   1      47.343  22.570  35.732  1.00  0.00    -0.237 OA
ATOM     97  O   UNL A   1      46.510  24.143  37.450  1.00  0.00    -0.237 OA
ATOM     98  O   UNL A   1      44.938  23.092  35.868  1.00  0.00    -0.744 OA
ENDBRANCH  91  95
ENDBRANCH  65  88
ENDBRANCH  39  40
ENDBRANCH  31  34
ENDBRANCH  29  30
ENDBRANCH   1  29
TORSDOF 16
ENDMDL
MODEL 2
REMARK VINA RESULT:     -12.9      1.293      7.499
REMARK SMILES COc1cccc(C[N@@H+]2C[C@H](C(=O)NCCCNC(=O)c3ccc(-c4c5nc(c(-c6cc(S(=O)(=O)[O-])ccc6F)c6ccc([nH]6)c(-c6cc(S(=O)(=O)[O-])ccc6F)c6nc(c(-c7cc(S(=O)(=O)[O-])ccc7F)c7ccc4[nH]7)C=C6)C=C5)cc3)C3(CC[NH+](C)CC3)C2)c1
REMARK SMILES IDX 16 1 15 2 14 3 12 4 13 5 11 7 9 8 10 9 91 10 84 12 85 13
REMARK SMILES IDX 90 14 86 15 89 16 87 17 88 18 8 20 7 21 3 22 4 23 92 24 5 25
REMARK SMILES IDX 6 26 2 27 1 28 17 29 18 30 19 31 20 33 21 34 22 35 83 36
REMARK SMILES IDX 23 37 82 38 24 39 25 40 26 41 76 42 27 43 81 44 75 45 77 46
REMARK SMILES IDX 28 47 80 48 74 49 73 50 29 52 61 53 41 54 60 55 42 56 45 57
REMARK SMILES IDX 59 58 78 59 43 60 44 61 58 63 79 64 46 65 30 66 31 67 39 68
REMARK SMILES IDX 32 69 38 70 40 71 37 72 33 73 34 74 35 75 36 76 62 77 63 78
REMARK SMILES IDX 71 79 64 80 70 81 72 82 69 83 65 84 66 85 67 86 68 87 47 88
REMARK SMILES IDX 48 89 56 90 49 91 55 92 57 93 54 94 50 95 51 96 52 97 53 98
REMARK H PARENT 14 6 9 11 87 19 18 32 77 51 45 62
REMARK Flexibility Score: inf
ROOT
ATOM      1  C   UNL A   1      31.769  28.595  26.735  1.00  0.00     0.042 C 
ENDROOT
BRANCH   1   2
ATOM      2  C   UNL A   1      32.245  27.187  26.477  1.00  0.00     0.117 C 
BRANCH   2   3
ATOM      3  N   UNL A   1      31.402  26.139  27.005  1.00  0.00    -0.356 N 
ATOM      4  C   UNL A   1      30.905  25.046  26.362  1.00  0.00     0.229 C 
ATOM      5  O   UNL A   1      30.412  24.158  27.066  1.00  0.00    -0.275 OA
ATOM      6  H   UNL A   1      31.152  26.226  27.954  1.00  0.00     0.163 HD
BRANCH   4   7
ATOM      7  C   UNL A   1      30.840  24.933  24.841  1.00  0.00     0.145 C 
ATOM      8  N   UNL A   1      30.754  26.338  22.915  1.00  0.00    -0.330 N 
ATOM      9  C   UNL A   1      30.274  26.236  24.283  1.00  0.00     0.276 C 
ATOM     10  C   UNL A   1      31.980  25.559  22.777  1.00  0.00     0.270 C 
ATOM     11  H   UNL A   1      30.064  25.919  22.290  1.00  0.00     0.348 HD
ATOM     12  C   UNL A   1      32.025  24.507  23.918  1.00  0.00     0.047 C 
ATOM     13  C   UNL A   1      31.776  23.062  23.390  1.00  0.00     0.075 C 
ATOM     14  C   UNL A   1      33.474  24.441  24.439  1.00  0.00     0.075 C 
ATOM     15  C   UNL A   1      32.031  21.995  24.478  1.00  0.00     0.262 C 
ATOM     16  C   UNL A   1      33.667  23.430  25.566  1.00  0.00     0.262 C 
ATOM     17  N   UNL A   1      33.338  22.068  25.149  1.00  0.00    -0.337 N 
ATOM     18  C   UNL A   1      34.423  21.471  24.375  1.00  0.00     0.332 C 
ATOM     19  H   UNL A   1      33.243  21.499  25.990  1.00  0.00     0.347 HD
BRANCH   8  20
ATOM     20  C   UNL A   1      30.812  27.718  22.400  1.00  0.00     0.299 C 
BRANCH  20  21
ATOM     21  C   UNL A   1      29.661  28.652  22.757  1.00  0.00     0.010 A 
ATOM     22  C   UNL A   1      28.859  30.835  23.458  1.00  0.00     0.119 A 
ATOM     23  C   UNL A   1      27.549  30.372  23.500  1.00  0.00     0.046 A 
ATOM     24  C   UNL A   1      29.911  29.989  23.104  1.00  0.00     0.056 A 
ATOM     25  C   UNL A   1      27.280  29.058  23.126  1.00  0.00     0.004 A 
ATOM     26  C   UNL A   1      28.327  28.209  22.747  1.00  0.00     0.010 A 
BRANCH  22  27
ATOM     27  O   UNL A   1      29.115  32.126  23.834  1.00  0.00    -0.497 OA
ATOM     28  C   UNL A   1      28.777  33.017  22.768  1.00  0.00     0.278 C 
ENDBRANCH  22  27
ENDBRANCH  20  21
ENDBRANCH   8  20
ENDBRANCH   4   7
ENDBRANCH   2   3
ENDBRANCH   1   2
BRANCH   1  29
ATOM     29  C   UNL A   1      32.508  29.623  25.892  1.00  0.00     0.118 C 
BRANCH  29  30
ATOM     30  N   UNL A   1      32.334  31.000  26.353  1.00  0.00    -0.352 N 
ATOM     31  C   UNL A   1      33.064  31.814  27.194  1.00  0.00     0.251 C 
ATOM     32  H   UNL A   1      31.530  31.436  25.987  1.00  0.00     0.163 HD
ATOM     33  O   UNL A   1      32.592  32.896  27.513  1.00  0.00    -0.269 OA
BRANCH  31  34
ATOM     34  C   UNL A   1      34.370  31.384  27.747  1.00  0.00     0.039 A 
ATOM     35  C   UNL A   1      35.356  32.344  27.999  1.00  0.00     0.014 A 
ATOM     36  C   UNL A   1      34.648  30.048  28.015  1.00  0.00     0.014 A 
ATOM     37  C   UNL A   1      36.555  31.969  28.615  1.00  0.00     0.010 A 
ATOM     38  C   UNL A   1      35.756  29.703  28.777  1.00  0.00     0.010 A 
ATOM     39  C   UNL A   1      36.736  30.654  29.077  1.00  0.00    -0.014 A 
BRANCH  39  40
ATOM     40  C   UNL A   1      37.937  30.252  29.860  1.00  0.00     0.031 A 
ATOM     41  C   UNL A   1      38.938  29.281  29.279  1.00  0.00     0.074 A 
ATOM     42  C   UNL A   1      38.086  30.697  31.125  1.00  0.00     0.049 A 
ATOM     43  N   UNL A   1      39.995  28.746  29.837  1.00  0.00    -0.248 NA
ATOM     44  C   UNL A   1      38.689  28.808  27.907  1.00  0.00     0.031 C 
ATOM     45  C   UNL A   1      37.148  31.575  31.831  1.00  0.00     0.029 A 
ATOM     46  N   UNL A   1      39.080  30.476  32.044  1.00  0.00    -0.354 N 
ATOM     47  C   UNL A   1      40.514  27.860  28.897  1.00  0.00     0.074 A 
ATOM     48  C   UNL A   1      39.606  27.864  27.772  1.00  0.00     0.031 C 
ATOM     49  C   UNL A   1      37.639  31.862  33.046  1.00  0.00     0.029 A 
ATOM     50  C   UNL A   1      38.896  31.147  33.232  1.00  0.00     0.049 A 
ATOM     51  H   UNL A   1      39.853  29.891  31.872  1.00  0.00     0.167 HD
ATOM     52  C   UNL A   1      41.661  27.137  28.948  1.00  0.00     0.034 A 
ATOM     53  C   UNL A   1      39.654  31.183  34.346  1.00  0.00     0.034 A 
ATOM     54  C   UNL A   1      42.576  27.176  30.062  1.00  0.00     0.049 A 
ATOM     55  C   UNL A   1      40.934  30.390  34.372  1.00  0.00     0.074 A 
ATOM     56  C   UNL A   1      43.802  26.546  30.194  1.00  0.00     0.029 A 
ATOM     57  N   UNL A   1      42.366  27.883  31.239  1.00  0.00    -0.354 N 
ATOM     58  N   UNL A   1      41.443  29.609  33.446  1.00  0.00    -0.248 NA
ATOM     59  C   UNL A   1      41.750  30.496  35.587  1.00  0.00     0.031 C 
ATOM     60  C   UNL A   1      44.299  26.819  31.473  1.00  0.00     0.029 A 
ATOM     61  C   UNL A   1      43.424  27.683  32.112  1.00  0.00     0.049 A 
ATOM     62  H   UNL A   1      41.580  28.446  31.425  1.00  0.00     0.167 HD
ATOM     63  C   UNL A   1      42.651  29.149  33.962  1.00  0.00     0.074 A 
ATOM     64  C   UNL A   1      42.807  29.768  35.263  1.00  0.00     0.031 C 
ATOM     65  C   UNL A   1      43.551  28.290  33.416  1.00  0.00     0.034 A 
BRANCH  52  66
ATOM     66  C   UNL A   1      41.978  26.245  27.768  1.00  0.00     0.023 A 
ATOM     67  C   UNL A   1      41.530  24.912  27.706  1.00  0.00     0.031 A 
ATOM     68  C   UNL A   1      42.765  26.719  26.704  1.00  0.00     0.131 A 
ATOM     69  C   UNL A   1      41.942  24.080  26.654  1.00  0.00     0.055 A 
ATOM     70  C   UNL A   1      43.097  25.911  25.614  1.00  0.00     0.041 A 
ATOM     71  F   UNL A   1      43.241  27.974  26.712  1.00  0.00    -0.206 F 
ATOM     72  C   UNL A   1      42.699  24.577  25.593  1.00  0.00     0.022 A 
BRANCH  69  73
ATOM     73  S   UNL A   1      41.603  22.302  26.776  1.00  0.00     0.124 S 
ATOM     74  O   UNL A   1      40.143  22.278  26.742  1.00  0.00    -0.237 OA
ATOM     75  O   UNL A   1      42.279  21.770  25.598  1.00  0.00    -0.237 OA
ATOM     76  O   UNL A   1      42.195  21.928  28.059  1.00  0.00    -0.744 OA
ENDBRANCH  69  73
ENDBRANCH  52  66
BRANCH  53  77
ATOM     77  C   UNL A   1      39.233  31.996  35.525  1.00  0.00     0.023 A 
ATOM     78  C   UNL A   1      38.539  31.408  36.596  1.00  0.00     0.031 A 
ATOM     79  C   UNL A   1      39.481  33.378  35.582  1.00  0.00     0.131 A 
ATOM     80  C   UNL A   1      38.072  32.207  37.651  1.00  0.00     0.055 A 
ATOM     81  C   UNL A   1      39.064  34.159  36.661  1.00  0.00     0.041 A 
ATOM     82  F   UNL A   1      40.148  33.990  34.590  1.00  0.00    -0.206 F 
ATOM     83  C   UNL A   1      38.341  33.577  37.698  1.00  0.00     0.022 A 
BRANCH  80  84
ATOM     84  S   UNL A   1      37.026  31.444  38.922  1.00  0.00     0.124 S 
ATOM     85  O   UNL A   1      37.859  31.578  40.111  1.00  0.00    -0.237 OA
ATOM     86  O   UNL A   1      35.834  32.284  38.875  1.00  0.00    -0.237 OA
ATOM     87  O   UNL A   1      36.843  30.078  38.436  1.00  0.00    -0.744 OA
ENDBRANCH  80  84
ENDBRANCH  53  77
BRANCH  65  88
ATOM     88  C   UNL A   1      44.790  28.001  34.228  1.00  0.00     0.023 A 
ATOM     89  C   UNL A   1      44.837  26.933  35.142  1.00  0.00     0.031 A 
ATOM     90  C   UNL A   1      45.922  28.828  34.120  1.00  0.00     0.131 A 
ATOM     91  C   UNL A   1      45.958  26.769  35.969  1.00  0.00     0.055 A 
ATOM     92  C   UNL A   1      47.064  28.615  34.893  1.00  0.00     0.041 A 
ATOM     93  F   UNL A   1      45.934  29.864  33.266  1.00  0.00    -0.206 F 
ATOM     94  C   UNL A   1      47.079  27.592  35.837  1.00  0.00     0.022 A 
BRANCH  91  95
ATOM     95  S   UNL A   1      45.876  25.548  37.307  1.00  0.00     0.124 S 
ATOM     96  O   UNL A   1      45.197  24.432  36.657  1.00  0.00    -0.237 OA
ATOM     97  O   UNL A   1      47.285  25.338  37.624  1.00  0.00    -0.237 OA
ATOM     98  O   UNL A   1      45.102  26.228  38.344  1.00  0.00    -0.744 OA
ENDBRANCH  91  95
ENDBRANCH  65  88
ENDBRANCH  39  40
ENDBRANCH  31  34
ENDBRANCH  29  30
ENDBRANCH   1  29
TORSDOF 16
ENDMDL
MODEL 3
REMARK VINA RESULT:     -12.8      1.345      4.112
REMARK SMILES COc1cccc(C[N@@H+]2C[C@H](C(=O)NCCCNC(=O)c3ccc(-c4c5nc(c(-c6cc(S(=O)(=O)[O-])ccc6F)c6ccc([nH]6)c(-c6cc(S(=O)(=O)[O-])ccc6F)c6nc(c(-c7cc(S(=O)(=O)[O-])ccc7F)c7ccc4[nH]7)C=C6)C=C5)cc3)C3(CC[NH+](C)CC3)C2)c1
REMARK SMILES IDX 16 1 15 2 14 3 12 4 13 5 11 7 9 8 10 9 91 10 84 12 85 13
REMARK SMILES IDX 90 14 86 15 89 16 87 17 88 18 8 20 7 21 3 22 4 23 92 24 5 25
REMARK SMILES IDX 6 26 2 27 1 28 17 29 18 30 19 31 20 33 21 34 22 35 83 36
REMARK SMILES IDX 23 37 82 38 24 39 25 40 26 41 76 42 27 43 81 44 75 45 77 46
REMARK SMILES IDX 28 47 80 48 74 49 73 50 29 52 61 53 41 54 60 55 42 56 45 57
REMARK SMILES IDX 59 58 78 59 43 60 44 61 58 63 79 64 46 65 30 66 31 67 39 68
REMARK SMILES IDX 32 69 38 70 40 71 37 72 33 73 34 74 35 75 36 76 62 77 63 78
REMARK SMILES IDX 71 79 64 80 70 81 72 82 69 83 65 84 66 85 67 86 68 87 47 88
REMARK SMILES IDX 48 89 56 90 49 91 55 92 57 93 54 94 50 95 51 96 52 97 53 98
REMARK H PARENT 14 6 9 11 87 19 18 32 77 51 45 62
REMARK Flexibility Score: inf
ROOT
ATOM      1  C   UNL A   1      31.796  29.596  27.236  1.00  0.00     0.042 C 
ENDROOT
BRANCH   1   2
ATOM      2  C   UNL A   1      32.147  28.130  27.163  1.00  0.00     0.117 C 
BRANCH   2   3
ATOM      3  N   UNL A   1      31.029  27.230  27.000  1.00  0.00    -0.356 N 
ATOM      4  C   UNL A   1      30.900  26.187  26.133  1.00  0.00     0.229 C 
ATOM      5  O   UNL A   1      29.964  25.406  26.332  1.00  0.00    -0.275 OA
ATOM      6  H   UNL A   1      30.258  27.392  27.591  1.00  0.00     0.163 HD
BRANCH   4   7
ATOM      7  C   UNL A   1      31.781  26.018  24.898  1.00  0.00     0.145 C 
ATOM      8  N   UNL A   1      32.615  24.290  23.480  1.00  0.00    -0.330 N 
ATOM      9  C   UNL A   1      32.306  24.585  24.869  1.00  0.00     0.276 C 
ATOM     10  C   UNL A   1      31.815  25.153  22.617  1.00  0.00     0.270 C 
ATOM     11  H   UNL A   1      33.594  24.517  23.304  1.00  0.00     0.348 HD
ATOM     12  C   UNL A   1      31.367  26.391  23.439  1.00  0.00     0.047 C 
ATOM     13  C   UNL A   1      32.118  27.685  23.002  1.00  0.00     0.075 C 
ATOM     14  C   UNL A   1      29.903  26.698  23.066  1.00  0.00     0.075 C 
ATOM     15  C   UNL A   1      31.527  28.950  23.664  1.00  0.00     0.262 C 
ATOM     16  C   UNL A   1      29.333  27.908  23.798  1.00  0.00     0.262 C 
ATOM     17  N   UNL A   1      30.076  29.133  23.506  1.00  0.00    -0.337 N 
ATOM     18  C   UNL A   1      29.697  29.689  22.210  1.00  0.00     0.332 C 
ATOM     19  H   UNL A   1      29.814  29.831  24.202  1.00  0.00     0.347 HD
BRANCH   8  20
ATOM     20  C   UNL A   1      32.586  22.853  23.152  1.00  0.00     0.299 C 
BRANCH  20  21
ATOM     21  C   UNL A   1      33.616  21.955  23.827  1.00  0.00     0.010 A 
ATOM     22  C   UNL A   1      35.876  21.576  24.632  1.00  0.00     0.119 A 
ATOM     23  C   UNL A   1      35.557  20.273  25.001  1.00  0.00     0.046 A 
ATOM     24  C   UNL A   1      34.926  22.409  24.040  1.00  0.00     0.056 A 
ATOM     25  C   UNL A   1      34.253  19.818  24.828  1.00  0.00     0.004 A 
ATOM     26  C   UNL A   1      33.288  20.656  24.256  1.00  0.00     0.010 A 
BRANCH  22  27
ATOM     27  O   UNL A   1      37.162  22.013  24.800  1.00  0.00    -0.497 OA
ATOM     28  C   UNL A   1      37.165  23.417  25.070  1.00  0.00     0.278 C 
ENDBRANCH  22  27
ENDBRANCH  20  21
ENDBRANCH   8  20
ENDBRANCH   4   7
ENDBRANCH   2   3
ENDBRANCH   1   2
BRANCH   1  29
ATOM     29  C   UNL A   1      32.736  30.461  26.411  1.00  0.00     0.118 C 
BRANCH  29  30
ATOM     30  N   UNL A   1      32.823  31.846  26.874  1.00  0.00    -0.352 N 
ATOM     31  C   UNL A   1      33.736  32.525  27.654  1.00  0.00     0.251 C 
ATOM     32  H   UNL A   1      32.077  32.409  26.566  1.00  0.00     0.163 HD
ATOM     33  O   UNL A   1      33.472  33.667  28.000  1.00  0.00    -0.269 OA
BRANCH  31  34
ATOM     34  C   UNL A   1      34.992  31.884  28.112  1.00  0.00     0.039 A 
ATOM     35  C   UNL A   1      36.152  32.657  28.228  1.00  0.00     0.014 A 
ATOM     36  C   UNL A   1      35.052  30.531  28.423  1.00  0.00     0.014 A 
ATOM     37  C   UNL A   1      37.318  32.093  28.756  1.00  0.00     0.010 A 
ATOM     38  C   UNL A   1      36.148  30.016  29.102  1.00  0.00     0.010 A 
ATOM     39  C   UNL A   1      37.306  30.784  29.267  1.00  0.00    -0.014 A 
BRANCH  39  40
ATOM     40  C   UNL A   1      38.486  30.197  29.961  1.00  0.00     0.031 A 
ATOM     41  C   UNL A   1      38.843  30.632  31.362  1.00  0.00     0.074 A 
ATOM     42  C   UNL A   1      39.283  29.332  29.299  1.00  0.00     0.049 A 
ATOM     43  N   UNL A   1      39.876  30.302  32.095  1.00  0.00    -0.248 NA
ATOM     44  C   UNL A   1      37.948  31.608  32.005  1.00  0.00     0.031 C 
ATOM     45  C   UNL A   1      39.094  28.894  27.913  1.00  0.00     0.029 A 
ATOM     46  N   UNL A   1      40.413  28.666  29.701  1.00  0.00    -0.354 N 
ATOM     47  C   UNL A   1      39.767  31.048  33.265  1.00  0.00     0.074 A 
ATOM     48  C   UNL A   1      38.618  31.911  33.105  1.00  0.00     0.031 C 
ATOM     49  C   UNL A   1      40.036  27.991  27.602  1.00  0.00     0.029 A 
ATOM     50  C   UNL A   1      40.931  27.826  28.740  1.00  0.00     0.049 A 
ATOM     51  H   UNL A   1      40.817  28.776  30.591  1.00  0.00     0.167 HD
ATOM     52  C   UNL A   1      40.529  30.994  34.387  1.00  0.00     0.034 A 
ATOM     53  C   UNL A   1      42.007  27.014  28.773  1.00  0.00     0.034 A 
ATOM     54  C   UNL A   1      41.648  30.098  34.545  1.00  0.00     0.049 A 
ATOM     55  C   UNL A   1      42.826  26.953  30.036  1.00  0.00     0.074 A 
ATOM     56  C   UNL A   1      42.446  29.902  35.658  1.00  0.00     0.029 A 
ATOM     57  N   UNL A   1      42.130  29.247  33.558  1.00  0.00    -0.354 N 
ATOM     58  N   UNL A   1      42.667  27.617  31.158  1.00  0.00    -0.248 NA
ATOM     59  C   UNL A   1      43.959  26.021  30.042  1.00  0.00     0.031 C 
ATOM     60  C   UNL A   1      43.448  28.985  35.324  1.00  0.00     0.029 A 
ATOM     61  C   UNL A   1      43.231  28.547  34.028  1.00  0.00     0.049 A 
ATOM     62  H   UNL A   1      41.746  29.154  32.656  1.00  0.00     0.167 HD
ATOM     63  C   UNL A   1      43.670  27.165  32.011  1.00  0.00     0.074 A 
ATOM     64  C   UNL A   1      44.403  26.149  31.282  1.00  0.00     0.031 C 
ATOM     65  C   UNL A   1      43.964  27.553  33.278  1.00  0.00     0.034 A 
BRANCH  52  66
ATOM     66  C   UNL A   1      40.175  31.934  35.518  1.00  0.00     0.023 A 
ATOM     67  C   UNL A   1      39.174  31.621  36.456  1.00  0.00     0.031 A 
ATOM     68  C   UNL A   1      40.822  33.176  35.643  1.00  0.00     0.131 A 
ATOM     69  C   UNL A   1      38.791  32.567  37.418  1.00  0.00     0.055 A 
ATOM     70  C   UNL A   1      40.498  34.078  36.661  1.00  0.00     0.041 A 
ATOM     71  F   UNL A   1      41.772  33.544  34.770  1.00  0.00    -0.206 F 
ATOM     72  C   UNL A   1      39.465  33.782  37.546  1.00  0.00     0.022 A 
BRANCH  69  73
ATOM     73  S   UNL A   1      37.297  32.248  38.397  1.00  0.00     0.124 S 
ATOM     74  O   UNL A   1      37.125  30.810  38.210  1.00  0.00    -0.237 OA
ATOM     75  O   UNL A   1      37.698  32.675  39.733  1.00  0.00    -0.237 OA
ATOM     76  O   UNL A   1      36.282  33.079  37.753  1.00  0.00    -0.744 OA
ENDBRANCH  69  73
ENDBRANCH  52  66
BRANCH  53  77
ATOM     77  C   UNL A   1      42.373  26.191  27.583  1.00  0.00     0.023 A 
ATOM     78  C   UNL A   1      41.948  24.856  27.471  1.00  0.00     0.031 A 
ATOM     79  C   UNL A   1      43.186  26.710  26.561  1.00  0.00     0.131 A 
ATOM     80  C   UNL A   1      42.379  24.072  26.390  1.00  0.00     0.055 A 
ATOM     81  C   UNL A   1      43.566  25.942  25.458  1.00  0.00     0.041 A 
ATOM     82  F   UNL A   1      43.613  27.981  26.613  1.00  0.00    -0.206 F 
ATOM     83  C   UNL A   1      43.175  24.610  25.376  1.00  0.00     0.022 A 
BRANCH  80  84
ATOM     84  S   UNL A   1      41.959  22.307  26.374  1.00  0.00     0.124 S 
ATOM     85  O   UNL A   1      42.569  21.846  27.616  1.00  0.00    -0.237 OA
ATOM     86  O   UNL A   1      40.501  22.345  26.349  1.00  0.00    -0.237 OA
ATOM     87  O   UNL A   1      42.590  21.819  25.149  1.00  0.00    -0.744 OA
ENDBRANCH  80  84
ENDBRANCH  53  77
BRANCH  65  88
ATOM     88  C   UNL A   1      45.117  26.849  33.952  1.00  0.00     0.023 A 
ATOM     89  C   UNL A   1      44.919  25.693  34.729  1.00  0.00     0.031 A 
ATOM     90  C   UNL A   1      46.422  27.363  33.851  1.00  0.00     0.131 A 
ATOM     91  C   UNL A   1      45.992  25.137  35.440  1.00  0.00     0.055 A 
ATOM     92  C   UNL A   1      47.500  26.761  34.502  1.00  0.00     0.041 A 
ATOM     93  F   UNL A   1      46.671  28.464  33.126  1.00  0.00    -0.206 F 
ATOM     94  C   UNL A   1      47.285  25.653  35.317  1.00  0.00     0.022 A 
BRANCH  91  95
ATOM     95  S   UNL A   1      45.649  23.812  36.630  1.00  0.00     0.124 S 
ATOM     96  O   UNL A   1      44.980  22.821  35.793  1.00  0.00    -0.237 OA
ATOM     97  O   UNL A   1      46.986  23.455  37.093  1.00  0.00    -0.237 OA
ATOM     98  O   UNL A   1      44.800  24.459  37.627  1.00  0.00    -0.744 OA
ENDBRANCH  91  95
ENDBRANCH  65  88
ENDBRANCH  39  40
ENDBRANCH  31  34
ENDBRANCH  29  30
ENDBRANCH   1  29
TORSDOF 16
ENDMDL
