MODEL 1
REMARK VINA RESULT:     -11.1      0.000      0.000
REMARK SMILES CC[C@]1(C(=O)NCCCNC(=O)c2ccc(-c3c4nc(c(-c5cc(S(=O)(=O)[O-])ccc5F)c5ccc([nH]5)c(-c5cc(S(=O)(=O)[O-])ccc5F)c5nc(c(-c6cc(S(=O)(=O)[O-])ccc6F)c6ccc3[nH]6)C=C5)C=C4)cc2)CCN(C(=O)[C@]2(C)CCCO2)C1
REMARK SMILES IDX 8 1 7 2 6 3 4 4 5 5 3 7 76 8 87 9 77 10 78 11 2 12 1 13
REMARK SMILES IDX 79 14 80 15 81 16 83 17 86 18 82 19 84 20 85 21 9 22 10 23
REMARK SMILES IDX 11 24 12 26 13 27 14 28 75 29 15 30 74 31 16 32 17 33 18 34
REMARK SMILES IDX 68 35 19 36 73 37 67 38 69 39 20 40 72 41 66 42 65 43 21 45
REMARK SMILES IDX 53 46 33 47 52 48 34 49 37 50 51 51 70 52 35 53 36 54 50 56
REMARK SMILES IDX 71 57 38 58 22 59 23 60 31 61 24 62 30 63 32 64 29 65 25 66
REMARK SMILES IDX 26 67 27 68 28 69 54 70 55 71 63 72 56 73 62 74 64 75 61 76
REMARK SMILES IDX 57 77 58 78 59 79 60 80 39 81 40 82 48 83 41 84 47 85 49 86
REMARK SMILES IDX 46 87 42 88 43 89 44 90 45 91
REMARK H PARENT 6 6 10 25 69 44 37 55
REMARK Flexibility Score: inf
ROOT
ATOM      1  C   UNL A   1      31.203  32.115  26.214  1.00  0.00     0.042 C 
ENDROOT
BRANCH   1   2
ATOM      2  C   UNL A   1      31.027  30.638  25.895  1.00  0.00     0.117 C 
BRANCH   2   3
ATOM      3  N   UNL A   1      31.984  30.171  24.904  1.00  0.00    -0.355 N 
ATOM      4  C   UNL A   1      32.719  29.035  24.798  1.00  0.00     0.228 C 
ATOM      5  O   UNL A   1      33.372  28.922  23.754  1.00  0.00    -0.274 OA
ATOM      6  H   UNL A   1      32.127  30.804  24.165  1.00  0.00     0.163 HD
BRANCH   4   7
ATOM      7  C   UNL A   1      32.749  27.944  25.879  1.00  0.00     0.068 C 
ATOM      8  C   UNL A   1      31.423  27.165  26.006  1.00  0.00     0.040 C 
ATOM      9  C   UNL A   1      33.778  26.842  25.490  1.00  0.00     0.136 C 
ATOM     10  C   UNL A   1      31.888  25.789  26.445  1.00  0.00     0.121 C 
ATOM     11  N   UNL A   1      33.043  25.581  25.609  1.00  0.00    -0.339 N 
BRANCH   7  12
ATOM     12  C   UNL A   1      33.151  28.558  27.257  1.00  0.00     0.015 C 
ATOM     13  C   UNL A   1      34.520  29.241  27.309  1.00  0.00     0.005 C 
ENDBRANCH   7  12
BRANCH  11  14
ATOM     14  C   UNL A   1      33.358  24.470  24.848  1.00  0.00     0.254 C 
ATOM     15  O   UNL A   1      32.860  24.344  23.722  1.00  0.00    -0.272 OA
BRANCH  14  16
ATOM     16  C   UNL A   1      34.303  23.362  25.433  1.00  0.00     0.144 C 
ATOM     17  C   UNL A   1      34.007  21.953  24.905  1.00  0.00     0.048 C 
ATOM     18  O   UNL A   1      34.200  23.318  26.865  1.00  0.00    -0.365 OA
ATOM     19  C   UNL A   1      35.758  23.728  25.090  1.00  0.00     0.053 C 
ATOM     20  C   UNL A   1      33.734  21.099  26.124  1.00  0.00     0.032 C 
ATOM     21  C   UNL A   1      34.087  21.967  27.309  1.00  0.00     0.162 C 
ENDBRANCH  14  16
ENDBRANCH  11  14
ENDBRANCH   4   7
ENDBRANCH   2   3
ENDBRANCH   1   2
BRANCH   1  22
ATOM     22  C   UNL A   1      32.463  32.429  27.009  1.00  0.00     0.118 C 
BRANCH  22  23
ATOM     23  N   UNL A   1      32.514  33.813  27.459  1.00  0.00    -0.352 N 
ATOM     24  C   UNL A   1      33.348  34.414  28.372  1.00  0.00     0.251 C 
ATOM     25  H   UNL A   1      31.849  34.410  27.045  1.00  0.00     0.163 HD
ATOM     26  O   UNL A   1      33.104  35.552  28.754  1.00  0.00    -0.269 OA
BRANCH  24  27
ATOM     27  C   UNL A   1      34.512  33.675  28.911  1.00  0.00     0.039 A 
ATOM     28  C   UNL A   1      35.794  34.183  28.692  1.00  0.00     0.014 A 
ATOM     29  C   UNL A   1      34.342  32.491  29.631  1.00  0.00     0.014 A 
ATOM     30  C   UNL A   1      36.897  33.541  29.260  1.00  0.00     0.010 A 
ATOM     31  C   UNL A   1      35.428  31.909  30.275  1.00  0.00     0.010 A 
ATOM     32  C   UNL A   1      36.721  32.424  30.094  1.00  0.00    -0.014 A 
BRANCH  32  33
ATOM     33  C   UNL A   1      37.872  31.778  30.776  1.00  0.00     0.031 A 
ATOM     34  C   UNL A   1      38.669  30.715  30.068  1.00  0.00     0.074 A 
ATOM     35  C   UNL A   1      38.163  32.106  32.052  1.00  0.00     0.049 A 
ATOM     36  N   UNL A   1      39.656  29.983  30.518  1.00  0.00    -0.248 NA
ATOM     37  C   UNL A   1      38.283  30.415  28.681  1.00  0.00     0.031 C 
ATOM     38  C   UNL A   1      37.439  33.094  32.856  1.00  0.00     0.029 A 
ATOM     39  N   UNL A   1      39.138  31.643  32.900  1.00  0.00    -0.354 N 
ATOM     40  C   UNL A   1      40.000  29.128  29.475  1.00  0.00     0.074 A 
ATOM     41  C   UNL A   1      39.069  29.387  28.398  1.00  0.00     0.031 C 
ATOM     42  C   UNL A   1      38.014  33.185  34.065  1.00  0.00     0.029 A 
ATOM     43  C   UNL A   1      39.112  32.225  34.146  1.00  0.00     0.049 A 
ATOM     44  H   UNL A   1      39.795  30.957  32.640  1.00  0.00     0.167 HD
ATOM     45  C   UNL A   1      41.014  28.231  29.413  1.00  0.00     0.034 A 
ATOM     46  C   UNL A   1      39.873  32.003  35.237  1.00  0.00     0.034 A 
ATOM     47  C   UNL A   1      41.940  27.993  30.494  1.00  0.00     0.049 A 
ATOM     48  C   UNL A   1      40.971  30.972  35.155  1.00  0.00     0.074 A 
ATOM     49  C   UNL A   1      43.033  27.145  30.521  1.00  0.00     0.029 A 
ATOM     50  N   UNL A   1      41.875  28.595  31.744  1.00  0.00    -0.354 N 
ATOM     51  N   UNL A   1      41.315  30.206  34.144  1.00  0.00    -0.248 NA
ATOM     52  C   UNL A   1      41.790  30.780  36.359  1.00  0.00     0.031 C 
ATOM     53  C   UNL A   1      43.580  27.174  31.808  1.00  0.00     0.029 A 
ATOM     54  C   UNL A   1      42.886  28.109  32.560  1.00  0.00     0.049 A 
ATOM     55  H   UNL A   1      41.209  29.269  32.013  1.00  0.00     0.167 HD
ATOM     56  C   UNL A   1      42.413  29.471  34.581  1.00  0.00     0.074 A 
ATOM     57  C   UNL A   1      42.682  29.895  35.939  1.00  0.00     0.031 C 
ATOM     58  C   UNL A   1      43.138  28.533  33.918  1.00  0.00     0.034 A 
BRANCH  45  59
ATOM     59  C   UNL A   1      41.155  27.425  28.141  1.00  0.00     0.023 A 
ATOM     60  C   UNL A   1      40.771  26.074  28.074  1.00  0.00     0.031 A 
ATOM     61  C   UNL A   1      41.702  28.009  26.985  1.00  0.00     0.131 A 
ATOM     62  C   UNL A   1      41.012  25.334  26.907  1.00  0.00     0.055 A 
ATOM     63  C   UNL A   1      41.856  27.289  25.798  1.00  0.00     0.041 A 
ATOM     64  F   UNL A   1      42.109  29.288  26.991  1.00  0.00    -0.206 F 
ATOM     65  C   UNL A   1      41.526  25.940  25.759  1.00  0.00     0.022 A 
BRANCH  62  66
ATOM     66  S   UNL A   1      40.788  23.534  26.964  1.00  0.00     0.124 S 
ATOM     67  O   UNL A   1      41.680  23.094  25.894  1.00  0.00    -0.237 OA
ATOM     68  O   UNL A   1      41.207  23.207  28.321  1.00  0.00    -0.237 OA
ATOM     69  O   UNL A   1      39.363  23.357  26.690  1.00  0.00    -0.744 OA
ENDBRANCH  62  66
ENDBRANCH  45  59
BRANCH  46  70
ATOM     70  C   UNL A   1      39.624  32.753  36.502  1.00  0.00     0.023 A 
ATOM     71  C   UNL A   1      38.679  32.301  37.438  1.00  0.00     0.031 A 
ATOM     72  C   UNL A   1      40.292  33.961  36.773  1.00  0.00     0.131 A 
ATOM     73  C   UNL A   1      38.391  33.076  38.572  1.00  0.00     0.055 A 
ATOM     74  C   UNL A   1      40.046  34.697  37.933  1.00  0.00     0.041 A 
ATOM     75  F   UNL A   1      41.207  34.439  35.914  1.00  0.00    -0.206 F 
ATOM     76  C   UNL A   1      39.079  34.263  38.834  1.00  0.00     0.022 A 
BRANCH  73  77
ATOM     77  S   UNL A   1      37.029  32.561  39.653  1.00  0.00     0.124 S 
ATOM     78  O   UNL A   1      37.410  31.191  39.977  1.00  0.00    -0.237 OA
ATOM     79  O   UNL A   1      37.123  33.529  40.741  1.00  0.00    -0.237 OA
ATOM     80  O   UNL A   1      35.850  32.697  38.801  1.00  0.00    -0.744 OA
ENDBRANCH  73  77
ENDBRANCH  46  70
BRANCH  58  81
ATOM     81  C   UNL A   1      44.324  27.940  34.641  1.00  0.00     0.023 A 
ATOM     82  C   UNL A   1      44.218  26.764  35.405  1.00  0.00     0.031 A 
ATOM     83  C   UNL A   1      45.579  28.571  34.572  1.00  0.00     0.131 A 
ATOM     84  C   UNL A   1      45.330  26.289  36.116  1.00  0.00     0.055 A 
ATOM     85  C   UNL A   1      46.699  28.054  35.225  1.00  0.00     0.041 A 
ATOM     86  F   UNL A   1      45.740  29.699  33.862  1.00  0.00    -0.206 F 
ATOM     87  C   UNL A   1      46.575  26.915  36.014  1.00  0.00     0.022 A 
BRANCH  84  88
ATOM     88  S   UNL A   1      45.103  24.902  37.262  1.00  0.00     0.124 S 
ATOM     89  O   UNL A   1      44.144  24.070  36.544  1.00  0.00    -0.237 OA
ATOM     90  O   UNL A   1      46.456  24.365  37.373  1.00  0.00    -0.237 OA
ATOM     91  O   UNL A   1      44.589  25.538  38.473  1.00  0.00    -0.744 OA
ENDBRANCH  84  88
ENDBRANCH  58  81
ENDBRANCH  32  33
ENDBRANCH  24  27
ENDBRANCH  22  23
ENDBRANCH   1  22
TORSDOF 16
ENDMDL
MODEL 2
REMARK VINA RESULT:     -11.1      1.736      2.358
REMARK SMILES CC[C@]1(C(=O)NCCCNC(=O)c2ccc(-c3c4nc(c(-c5cc(S(=O)(=O)[O-])ccc5F)c5ccc([nH]5)c(-c5cc(S(=O)(=O)[O-])ccc5F)c5nc(c(-c6cc(S(=O)(=O)[O-])ccc6F)c6ccc3[nH]6)C=C5)C=C4)cc2)CCN(C(=O)[C@]2(C)CCCO2)C1
REMARK SMILES IDX 8 1 7 2 6 3 4 4 5 5 3 7 76 8 87 9 77 10 78 11 2 12 1 13
REMARK SMILES IDX 79 14 80 15 81 16 83 17 86 18 82 19 84 20 85 21 9 22 10 23
REMARK SMILES IDX 11 24 12 26 13 27 14 28 75 29 15 30 74 31 16 32 17 33 18 34
REMARK SMILES IDX 68 35 19 36 73 37 67 38 69 39 20 40 72 41 66 42 65 43 21 45
REMARK SMILES IDX 53 46 33 47 52 48 34 49 37 50 51 51 70 52 35 53 36 54 50 56
REMARK SMILES IDX 71 57 38 58 22 59 23 60 31 61 24 62 30 63 32 64 29 65 25 66
REMARK SMILES IDX 26 67 27 68 28 69 54 70 55 71 63 72 56 73 62 74 64 75 61 76
REMARK SMILES IDX 57 77 58 78 59 79 60 80 39 81 40 82 48 83 41 84 47 85 49 86
REMARK SMILES IDX 46 87 42 88 43 89 44 90 45 91
REMARK H PARENT 6 6 10 25 69 44 37 55
REMARK Flexibility Score: inf
ROOT
ATOM      1  C   UNL A   1      31.750  31.424  26.574  1.00  0.00     0.042 C 
ENDROOT
BRANCH   1   2
ATOM      2  C   UNL A   1      31.934  29.919  26.457  1.00  0.00     0.117 C 
BRANCH   2   3
ATOM      3  N   UNL A   1      32.840  29.558  25.378  1.00  0.00    -0.355 N 
ATOM      4  C   UNL A   1      32.778  28.618  24.399  1.00  0.00     0.228 C 
ATOM      5  O   UNL A   1      33.697  28.652  23.573  1.00  0.00    -0.274 OA
ATOM      6  H   UNL A   1      33.659  30.101  25.351  1.00  0.00     0.163 HD
BRANCH   4   7
ATOM      7  C   UNL A   1      31.651  27.581  24.295  1.00  0.00     0.068 C 
ATOM      8  C   UNL A   1      31.953  26.437  23.304  1.00  0.00     0.040 C 
ATOM      9  C   UNL A   1      31.484  26.843  25.656  1.00  0.00     0.136 C 
ATOM     10  C   UNL A   1      31.214  25.262  23.916  1.00  0.00     0.121 C 
ATOM     11  N   UNL A   1      31.512  25.418  25.318  1.00  0.00    -0.339 N 
BRANCH   7  12
ATOM     12  C   UNL A   1      30.304  28.279  23.922  1.00  0.00     0.015 C 
ATOM     13  C   UNL A   1      30.246  28.915  22.532  1.00  0.00     0.005 C 
ENDBRANCH   7  12
BRANCH  11  14
ATOM     14  C   UNL A   1      31.961  24.458  26.207  1.00  0.00     0.254 C 
ATOM     15  O   UNL A   1      31.293  24.207  27.219  1.00  0.00    -0.272 OA
BRANCH  14  16
ATOM     16  C   UNL A   1      33.328  23.732  25.951  1.00  0.00     0.144 C 
ATOM     17  C   UNL A   1      34.465  24.677  25.544  1.00  0.00     0.048 C 
ATOM     18  O   UNL A   1      33.189  22.750  24.911  1.00  0.00    -0.365 OA
ATOM     19  C   UNL A   1      33.736  22.986  27.234  1.00  0.00     0.053 C 
ATOM     20  C   UNL A   1      34.971  24.172  24.210  1.00  0.00     0.032 C 
ATOM     21  C   UNL A   1      34.276  22.849  23.993  1.00  0.00     0.162 C 
ENDBRANCH  14  16
ENDBRANCH  11  14
ENDBRANCH   4   7
ENDBRANCH   2   3
ENDBRANCH   1   2
BRANCH   1  22
ATOM     22  C   UNL A   1      32.920  32.140  27.234  1.00  0.00     0.118 C 
BRANCH  22  23
ATOM     23  N   UNL A   1      32.641  33.543  27.504  1.00  0.00    -0.352 N 
ATOM     24  C   UNL A   1      33.175  34.383  28.454  1.00  0.00     0.251 C 
ATOM     25  H   UNL A   1      31.966  33.955  26.916  1.00  0.00     0.163 HD
ATOM     26  O   UNL A   1      32.667  35.481  28.643  1.00  0.00    -0.269 OA
BRANCH  24  27
ATOM     27  C   UNL A   1      34.334  33.944  29.262  1.00  0.00     0.039 A 
ATOM     28  C   UNL A   1      34.123  33.063  30.324  1.00  0.00     0.014 A 
ATOM     29  C   UNL A   1      35.624  34.395  28.975  1.00  0.00     0.014 A 
ATOM     30  C   UNL A   1      35.215  32.577  31.048  1.00  0.00     0.010 A 
ATOM     31  C   UNL A   1      36.716  33.838  29.631  1.00  0.00     0.010 A 
ATOM     32  C   UNL A   1      36.525  32.925  30.680  1.00  0.00    -0.014 A 
BRANCH  32  33
ATOM     33  C   UNL A   1      37.703  32.353  31.381  1.00  0.00     0.031 A 
ATOM     34  C   UNL A   1      38.470  31.214  30.764  1.00  0.00     0.074 A 
ATOM     35  C   UNL A   1      38.046  32.819  32.600  1.00  0.00     0.049 A 
ATOM     36  N   UNL A   1      39.474  30.532  31.251  1.00  0.00    -0.248 NA
ATOM     37  C   UNL A   1      38.027  30.765  29.436  1.00  0.00     0.031 C 
ATOM     38  C   UNL A   1      37.356  33.893  33.319  1.00  0.00     0.029 A 
ATOM     39  N   UNL A   1      39.055  32.448  33.453  1.00  0.00    -0.354 N 
ATOM     40  C   UNL A   1      39.774  29.565  30.296  1.00  0.00     0.074 A 
ATOM     41  C   UNL A   1      38.800  29.708  29.235  1.00  0.00     0.031 C 
ATOM     42  C   UNL A   1      37.981  34.114  34.486  1.00  0.00     0.029 A 
ATOM     43  C   UNL A   1      39.081  33.164  34.628  1.00  0.00     0.049 A 
ATOM     44  H   UNL A   1      39.701  31.734  33.245  1.00  0.00     0.167 HD
ATOM     45  C   UNL A   1      40.785  28.661  30.292  1.00  0.00     0.034 A 
ATOM     46  C   UNL A   1      39.886  33.060  35.704  1.00  0.00     0.034 A 
ATOM     47  C   UNL A   1      41.754  28.540  31.354  1.00  0.00     0.049 A 
ATOM     48  C   UNL A   1      40.979  32.021  35.693  1.00  0.00     0.074 A 
ATOM     49  C   UNL A   1      42.847  27.695  31.430  1.00  0.00     0.029 A 
ATOM     50  N   UNL A   1      41.742  29.277  32.532  1.00  0.00    -0.354 N 
ATOM     51  N   UNL A   1      41.281  31.147  34.759  1.00  0.00    -0.248 NA
ATOM     52  C   UNL A   1      41.847  31.960  36.875  1.00  0.00     0.031 C 
ATOM     53  C   UNL A   1      43.447  27.863  32.682  1.00  0.00     0.029 A 
ATOM     54  C   UNL A   1      42.785  28.879  33.354  1.00  0.00     0.049 A 
ATOM     55  H   UNL A   1      41.087  29.979  32.751  1.00  0.00     0.167 HD
ATOM     56  C   UNL A   1      42.396  30.458  35.230  1.00  0.00     0.074 A 
ATOM     57  C   UNL A   1      42.721  31.029  36.520  1.00  0.00     0.031 C 
ATOM     58  C   UNL A   1      43.092  29.450  34.645  1.00  0.00     0.034 A 
BRANCH  45  59
ATOM     59  C   UNL A   1      40.873  27.719  29.113  1.00  0.00     0.023 A 
ATOM     60  C   UNL A   1      41.799  27.917  28.074  1.00  0.00     0.031 A 
ATOM     61  C   UNL A   1      40.001  26.620  29.014  1.00  0.00     0.131 A 
ATOM     62  C   UNL A   1      41.779  27.081  26.948  1.00  0.00     0.055 A 
ATOM     63  C   UNL A   1      40.047  25.738  27.931  1.00  0.00     0.041 A 
ATOM     64  F   UNL A   1      39.078  26.390  29.961  1.00  0.00    -0.206 F 
ATOM     65  C   UNL A   1      40.929  25.975  26.882  1.00  0.00     0.022 A 
BRANCH  62  66
ATOM     66  S   UNL A   1      42.773  27.551  25.504  1.00  0.00     0.124 S 
ATOM     67  O   UNL A   1      42.047  28.722  25.017  1.00  0.00    -0.237 OA
ATOM     68  O   UNL A   1      44.081  27.808  26.092  1.00  0.00    -0.237 OA
ATOM     69  O   UNL A   1      42.697  26.375  24.639  1.00  0.00    -0.744 OA
ENDBRANCH  62  66
ENDBRANCH  45  59
BRANCH  46  70
ATOM     70  C   UNL A   1      39.689  33.947  36.888  1.00  0.00     0.023 A 
ATOM     71  C   UNL A   1      39.143  33.450  38.082  1.00  0.00     0.031 A 
ATOM     72  C   UNL A   1      40.001  35.317  36.827  1.00  0.00     0.131 A 
ATOM     73  C   UNL A   1      38.875  34.325  39.147  1.00  0.00     0.055 A 
ATOM     74  C   UNL A   1      39.790  36.172  37.911  1.00  0.00     0.041 A 
ATOM     75  F   UNL A   1      40.529  35.845  35.711  1.00  0.00    -0.206 F 
ATOM     76  C   UNL A   1      39.209  35.679  39.075  1.00  0.00     0.022 A 
BRANCH  73  77
ATOM     77  S   UNL A   1      37.989  33.686  40.594  1.00  0.00     0.124 S 
ATOM     78  O   UNL A   1      37.718  34.910  41.339  1.00  0.00    -0.237 OA
ATOM     79  O   UNL A   1      36.835  33.038  39.980  1.00  0.00    -0.237 OA
ATOM     80  O   UNL A   1      38.955  32.780  41.211  1.00  0.00    -0.744 OA
ENDBRANCH  73  77
ENDBRANCH  46  70
BRANCH  58  81
ATOM     81  C   UNL A   1      44.307  28.935  35.381  1.00  0.00     0.023 A 
ATOM     82  C   UNL A   1      44.215  27.921  36.352  1.00  0.00     0.031 A 
ATOM     83  C   UNL A   1      45.577  29.476  35.111  1.00  0.00     0.131 A 
ATOM     84  C   UNL A   1      45.360  27.524  37.059  1.00  0.00     0.055 A 
ATOM     85  C   UNL A   1      46.723  29.027  35.768  1.00  0.00     0.041 A 
ATOM     86  F   UNL A   1      45.726  30.449  34.198  1.00  0.00    -0.206 F 
ATOM     87  C   UNL A   1      46.616  28.055  36.758  1.00  0.00     0.022 A 
BRANCH  84  88
ATOM     88  S   UNL A   1      45.169  26.377  38.451  1.00  0.00     0.124 S 
ATOM     89  O   UNL A   1      46.091  26.937  39.433  1.00  0.00    -0.237 OA
ATOM     90  O   UNL A   1      43.749  26.504  38.766  1.00  0.00    -0.237 OA
ATOM     91  O   UNL A   1      45.566  25.087  37.891  1.00  0.00    -0.744 OA
ENDBRANCH  84  88
ENDBRANCH  58  81
ENDBRANCH  32  33
ENDBRANCH  24  27
ENDBRANCH  22  23
ENDBRANCH   1  22
TORSDOF 16
ENDMDL
MODEL 3
REMARK VINA RESULT:     -11.0      5.232      8.804
REMARK SMILES CC[C@]1(C(=O)NCCCNC(=O)c2ccc(-c3c4nc(c(-c5cc(S(=O)(=O)[O-])ccc5F)c5ccc([nH]5)c(-c5cc(S(=O)(=O)[O-])ccc5F)c5nc(c(-c6cc(S(=O)(=O)[O-])ccc6F)c6ccc3[nH]6)C=C5)C=C4)cc2)CCN(C(=O)[C@]2(C)CCCO2)C1
REMARK SMILES IDX 8 1 7 2 6 3 4 4 5 5 3 7 76 8 87 9 77 10 78 11 2 12 1 13
REMARK SMILES IDX 79 14 80 15 81 16 83 17 86 18 82 19 84 20 85 21 9 22 10 23
REMARK SMILES IDX 11 24 12 26 13 27 14 28 75 29 15 30 74 31 16 32 17 33 18 34
REMARK SMILES IDX 68 35 19 36 73 37 67 38 69 39 20 40 72 41 66 42 65 43 21 45
REMARK SMILES IDX 53 46 33 47 52 48 34 49 37 50 51 51 70 52 35 53 36 54 50 56
REMARK SMILES IDX 71 57 38 58 22 59 23 60 31 61 24 62 30 63 32 64 29 65 25 66
REMARK SMILES IDX 26 67 27 68 28 69 54 70 55 71 63 72 56 73 62 74 64 75 61 76
REMARK SMILES IDX 57 77 58 78 59 79 60 80 39 81 40 82 48 83 41 84 47 85 49 86
REMARK SMILES IDX 46 87 42 88 43 89 44 90 45 91
REMARK H PARENT 6 6 10 25 69 44 37 55
REMARK Flexibility Score: inf
ROOT
ATOM      1  C   UNL A   1      36.083  21.168  25.592  1.00  0.00     0.042 C 
ENDROOT
BRANCH   1   2
ATOM      2  C   UNL A   1      35.702  22.536  26.134  1.00  0.00     0.117 C 
BRANCH   2   3
ATOM      3  N   UNL A   1      34.743  22.449  27.224  1.00  0.00    -0.355 N 
ATOM      4  C   UNL A   1      33.400  22.641  27.287  1.00  0.00     0.228 C 
ATOM      5  O   UNL A   1      32.879  22.383  28.377  1.00  0.00    -0.274 OA
ATOM      6  H   UNL A   1      35.147  22.201  28.086  1.00  0.00     0.163 HD
BRANCH   4   7
ATOM      7  C   UNL A   1      32.562  23.136  26.099  1.00  0.00     0.068 C 
ATOM      8  C   UNL A   1      31.048  23.193  26.392  1.00  0.00     0.040 C 
ATOM      9  C   UNL A   1      32.921  24.617  25.778  1.00  0.00     0.136 C 
ATOM     10  C   UNL A   1      30.584  24.349  25.528  1.00  0.00     0.121 C 
ATOM     11  N   UNL A   1      31.635  25.315  25.729  1.00  0.00    -0.339 N 
BRANCH   7  12
ATOM     12  C   UNL A   1      32.837  22.257  24.838  1.00  0.00     0.015 C 
ATOM     13  C   UNL A   1      32.215  20.859  24.852  1.00  0.00     0.005 C 
ENDBRANCH   7  12
BRANCH  11  14
ATOM     14  C   UNL A   1      31.512  26.657  26.040  1.00  0.00     0.254 C 
ATOM     15  O   UNL A   1      31.379  26.998  27.222  1.00  0.00    -0.272 OA
BRANCH  14  16
ATOM     16  C   UNL A   1      31.499  27.728  24.892  1.00  0.00     0.144 C 
ATOM     17  C   UNL A   1      30.263  27.652  23.988  1.00  0.00     0.048 C 
ATOM     18  O   UNL A   1      32.657  27.583  24.054  1.00  0.00    -0.365 OA
ATOM     19  C   UNL A   1      31.566  29.129  25.527  1.00  0.00     0.053 C 
ATOM     20  C   UNL A   1      30.786  27.459  22.581  1.00  0.00     0.032 C 
ATOM     21  C   UNL A   1      32.281  27.646  22.680  1.00  0.00     0.162 C 
ENDBRANCH  14  16
ENDBRANCH  11  14
ENDBRANCH   4   7
ENDBRANCH   2   3
ENDBRANCH   1   2
BRANCH   1  22
ATOM     22  C   UNL A   1      37.421  21.141  24.866  1.00  0.00     0.118 C 
BRANCH  22  23
ATOM     23  N   UNL A   1      38.335  20.145  25.407  1.00  0.00    -0.352 N 
ATOM     24  C   UNL A   1      39.529  20.308  26.070  1.00  0.00     0.251 C 
ATOM     25  H   UNL A   1      38.055  19.209  25.278  1.00  0.00     0.163 HD
ATOM     26  O   UNL A   1      40.243  19.336  26.277  1.00  0.00    -0.269 OA
BRANCH  24  27
ATOM     27  C   UNL A   1      39.958  21.659  26.500  1.00  0.00     0.039 A 
ATOM     28  C   UNL A   1      40.924  21.774  27.501  1.00  0.00     0.014 A 
ATOM     29  C   UNL A   1      39.415  22.806  25.917  1.00  0.00     0.014 A 
ATOM     30  C   UNL A   1      41.397  23.037  27.863  1.00  0.00     0.010 A 
ATOM     31  C   UNL A   1      39.955  24.054  26.209  1.00  0.00     0.010 A 
ATOM     32  C   UNL A   1      40.950  24.186  27.189  1.00  0.00    -0.014 A 
BRANCH  32  33
ATOM     33  C   UNL A   1      41.503  25.529  27.500  1.00  0.00     0.031 A 
ATOM     34  C   UNL A   1      42.906  25.882  27.085  1.00  0.00     0.074 A 
ATOM     35  C   UNL A   1      40.764  26.409  28.208  1.00  0.00     0.049 A 
ATOM     36  N   UNL A   1      43.593  26.969  27.329  1.00  0.00    -0.248 NA
ATOM     37  C   UNL A   1      43.643  24.865  26.321  1.00  0.00     0.031 C 
ATOM     38  C   UNL A   1      39.405  26.167  28.699  1.00  0.00     0.029 A 
ATOM     39  N   UNL A   1      41.050  27.679  28.641  1.00  0.00    -0.354 N 
ATOM     40  C   UNL A   1      44.846  26.761  26.760  1.00  0.00     0.074 A 
ATOM     41  C   UNL A   1      44.843  25.417  26.222  1.00  0.00     0.031 C 
ATOM     42  C   UNL A   1      38.966  27.264  29.337  1.00  0.00     0.029 A 
ATOM     43  C   UNL A   1      40.027  28.267  29.350  1.00  0.00     0.049 A 
ATOM     44  H   UNL A   1      41.908  28.129  28.462  1.00  0.00     0.167 HD
ATOM     45  C   UNL A   1      45.891  27.620  26.671  1.00  0.00     0.034 A 
ATOM     46  C   UNL A   1      39.955  29.469  29.957  1.00  0.00     0.034 A 
ATOM     47  C   UNL A   1      45.872  28.960  27.204  1.00  0.00     0.049 A 
ATOM     48  C   UNL A   1      41.145  30.393  29.877  1.00  0.00     0.074 A 
ATOM     49  C   UNL A   1      46.855  29.932  27.127  1.00  0.00     0.029 A 
ATOM     50  N   UNL A   1      44.822  29.516  27.925  1.00  0.00    -0.354 N 
ATOM     51  N   UNL A   1      42.306  30.200  29.293  1.00  0.00    -0.248 NA
ATOM     52  C   UNL A   1      41.013  31.701  30.531  1.00  0.00     0.031 C 
ATOM     53  C   UNL A   1      46.433  31.042  27.866  1.00  0.00     0.029 A 
ATOM     54  C   UNL A   1      45.149  30.802  28.328  1.00  0.00     0.049 A 
ATOM     55  H   UNL A   1      43.970  29.063  28.120  1.00  0.00     0.167 HD
ATOM     56  C   UNL A   1      43.025  31.376  29.479  1.00  0.00     0.074 A 
ATOM     57  C   UNL A   1      42.163  32.277  30.215  1.00  0.00     0.031 C 
ATOM     58  C   UNL A   1      44.283  31.688  29.073  1.00  0.00     0.034 A 
BRANCH  45  59
ATOM     59  C   UNL A   1      47.147  27.122  25.994  1.00  0.00     0.023 A 
ATOM     60  C   UNL A   1      48.120  26.381  26.689  1.00  0.00     0.031 A 
ATOM     61  C   UNL A   1      47.388  27.411  24.639  1.00  0.00     0.131 A 
ATOM     62  C   UNL A   1      49.318  26.025  26.053  1.00  0.00     0.055 A 
ATOM     63  C   UNL A   1      48.545  26.975  23.987  1.00  0.00     0.041 A 
ATOM     64  F   UNL A   1      46.510  28.133  23.926  1.00  0.00    -0.206 F 
ATOM     65  C   UNL A   1      49.525  26.292  24.697  1.00  0.00     0.022 A 
BRANCH  62  66
ATOM     66  S   UNL A   1      50.664  25.346  27.062  1.00  0.00     0.124 S 
ATOM     67  O   UNL A   1      49.980  24.275  27.782  1.00  0.00    -0.237 OA
ATOM     68  O   UNL A   1      51.631  24.926  26.056  1.00  0.00    -0.237 OA
ATOM     69  O   UNL A   1      51.076  26.478  27.890  1.00  0.00    -0.744 OA
ENDBRANCH  62  66
ENDBRANCH  45  59
BRANCH  46  70
ATOM     70  C   UNL A   1      38.727  29.870  30.703  1.00  0.00     0.023 A 
ATOM     71  C   UNL A   1      37.716  30.623  30.082  1.00  0.00     0.031 A 
ATOM     72  C   UNL A   1      38.565  29.547  32.062  1.00  0.00     0.131 A 
ATOM     73  C   UNL A   1      36.618  31.073  30.832  1.00  0.00     0.055 A 
ATOM     74  C   UNL A   1      37.440  29.944  32.788  1.00  0.00     0.041 A 
ATOM     75  F   UNL A   1      39.499  28.826  32.705  1.00  0.00    -0.206 F 
ATOM     76  C   UNL A   1      36.466  30.725  32.176  1.00  0.00     0.022 A 
BRANCH  73  77
ATOM     77  S   UNL A   1      35.438  32.206  30.049  1.00  0.00     0.124 S 
ATOM     78  O   UNL A   1      36.286  33.352  29.744  1.00  0.00    -0.237 OA
ATOM     79  O   UNL A   1      34.979  31.423  28.907  1.00  0.00    -0.237 OA
ATOM     80  O   UNL A   1      34.439  32.428  31.092  1.00  0.00    -0.744 OA
ENDBRANCH  73  77
ENDBRANCH  46  70
BRANCH  58  81
ATOM     81  C   UNL A   1      44.780  33.081  29.376  1.00  0.00     0.023 A 
ATOM     82  C   UNL A   1      44.534  34.164  28.512  1.00  0.00     0.031 A 
ATOM     83  C   UNL A   1      45.521  33.327  30.546  1.00  0.00     0.131 A 
ATOM     84  C   UNL A   1      45.076  35.426  28.800  1.00  0.00     0.055 A 
ATOM     85  C   UNL A   1      45.997  34.600  30.862  1.00  0.00     0.041 A 
ATOM     86  F   UNL A   1      45.791  32.332  31.406  1.00  0.00    -0.206 F 
ATOM     87  C   UNL A   1      45.788  35.655  29.980  1.00  0.00     0.022 A 
BRANCH  84  88
ATOM     88  S   UNL A   1      44.928  36.740  27.559  1.00  0.00     0.124 S 
ATOM     89  O   UNL A   1      43.833  36.251  26.729  1.00  0.00    -0.237 OA
ATOM     90  O   UNL A   1      44.631  37.911  28.380  1.00  0.00    -0.237 OA
ATOM     91  O   UNL A   1      46.239  36.753  26.914  1.00  0.00    -0.744 OA
ENDBRANCH  84  88
ENDBRANCH  58  81
ENDBRANCH  32  33
ENDBRANCH  24  27
ENDBRANCH  22  23
ENDBRANCH   1  22
TORSDOF 16
ENDMDL
