MODEL 1
REMARK VINA RESULT:     -12.1      0.000      0.000
REMARK SMILES O=C(NCCCNC(=O)c1cn(C2CN(C(=O)Nc3ccsc3)C2)nn1)c1ccc(-c2c3nc(c(-c4cc(S(=O)(=O)[O-])ccc4F)c4ccc([nH]4)c(-c4cc(S(=O)(=O)[O-])ccc4F)c4nc(c(-c5cc(S(=O)(=O)[O-])ccc5F)c5ccc2[nH]5)C=C4)C=C3)cc1
REMARK SMILES IDX 4 1 3 2 1 3 2 4 27 6 28 7 89 8 29 9 88 10 30 11 31 12 32 13
REMARK SMILES IDX 82 14 33 15 87 16 81 17 83 18 34 19 86 20 80 21 79 22 35 24
REMARK SMILES IDX 67 25 47 26 66 27 48 28 51 29 65 30 84 31 49 32 50 33 64 35
REMARK SMILES IDX 85 36 52 37 36 38 37 39 45 40 38 41 44 42 46 43 43 44 39 45
REMARK SMILES IDX 40 46 41 47 42 48 68 49 69 50 77 51 70 52 76 53 78 54 75 55
REMARK SMILES IDX 71 56 72 57 73 58 74 59 53 60 54 61 62 62 55 63 61 64 63 65
REMARK SMILES IDX 60 66 56 67 57 68 58 69 59 70 5 71 6 72 7 73 8 74 9 76 10 77
REMARK SMILES IDX 11 78 26 79 12 80 25 81 13 82 14 83 24 84 15 85 16 86 17 87
REMARK SMILES IDX 18 88 19 90 20 91 23 92 21 93 22 94
REMARK H PARENT 3 5 83 23 51 34 7 75 18 89
REMARK Flexibility Score: inf
ROOT
ATOM      1  C   UNL A   1      41.753  21.363  27.622  1.00  0.00     0.118 C 
ENDROOT
BRANCH   1   2
ATOM      2  N   UNL A   1      40.510  21.745  26.983  1.00  0.00    -0.352 N 
ATOM      3  O   UNL A   1      38.897  22.867  25.994  1.00  0.00    -0.269 OA
ATOM      4  C   UNL A   1      39.854  22.927  26.772  1.00  0.00     0.251 C 
ATOM      5  H   UNL A   1      40.023  20.972  26.615  1.00  0.00     0.163 HD
BRANCH   4   6
ATOM      6  C   UNL A   1      40.152  24.221  27.448  1.00  0.00     0.039 A 
ATOM      7  C   UNL A   1      41.350  24.576  28.067  1.00  0.00     0.014 A 
ATOM      8  C   UNL A   1      39.094  25.152  27.459  1.00  0.00     0.014 A 
ATOM      9  C   UNL A   1      41.458  25.796  28.745  1.00  0.00     0.010 A 
ATOM     10  C   UNL A   1      39.197  26.367  28.129  1.00  0.00     0.010 A 
ATOM     11  C   UNL A   1      40.373  26.683  28.799  1.00  0.00    -0.014 A 
BRANCH  11  12
ATOM     12  C   UNL A   1      40.574  28.025  29.356  1.00  0.00     0.031 A 
ATOM     13  C   UNL A   1      41.645  28.798  28.666  1.00  0.00     0.074 A 
ATOM     14  C   UNL A   1      39.797  28.622  30.288  1.00  0.00     0.049 A 
ATOM     15  N   UNL A   1      42.793  29.151  29.138  1.00  0.00    -0.248 NA
ATOM     16  C   UNL A   1      41.481  29.090  27.232  1.00  0.00     0.031 C 
ATOM     17  C   UNL A   1      38.551  28.124  30.872  1.00  0.00     0.029 A 
ATOM     18  N   UNL A   1      39.921  29.862  30.855  1.00  0.00    -0.354 N 
ATOM     19  C   UNL A   1      43.408  29.908  28.144  1.00  0.00     0.074 A 
ATOM     20  C   UNL A   1      42.645  29.677  26.946  1.00  0.00     0.031 C 
ATOM     21  C   UNL A   1      37.932  29.129  31.539  1.00  0.00     0.029 A 
ATOM     22  C   UNL A   1      38.789  30.306  31.541  1.00  0.00     0.049 A 
ATOM     23  H   UNL A   1      40.743  30.399  30.783  1.00  0.00     0.167 HD
ATOM     24  C   UNL A   1      44.360  30.834  28.445  1.00  0.00     0.034 A 
ATOM     25  C   UNL A   1      38.550  31.554  32.045  1.00  0.00     0.034 A 
ATOM     26  C   UNL A   1      44.866  30.642  29.784  1.00  0.00     0.049 A 
ATOM     27  C   UNL A   1      39.869  32.205  32.231  1.00  0.00     0.074 A 
ATOM     28  C   UNL A   1      45.488  29.602  30.448  1.00  0.00     0.029 A 
ATOM     29  N   UNL A   1      44.425  31.495  30.770  1.00  0.00    -0.354 N 
ATOM     30  N   UNL A   1      40.749  31.801  33.105  1.00  0.00    -0.248 NA
ATOM     31  C   UNL A   1      40.405  32.995  31.133  1.00  0.00     0.031 C 
ATOM     32  C   UNL A   1      44.932  29.623  31.760  1.00  0.00     0.029 A 
ATOM     33  C   UNL A   1      44.075  30.722  31.849  1.00  0.00     0.049 A 
ATOM     34  H   UNL A   1      44.370  32.476  30.712  1.00  0.00     0.167 HD
ATOM     35  C   UNL A   1      41.965  31.884  32.446  1.00  0.00     0.074 A 
ATOM     36  C   UNL A   1      41.703  32.714  31.272  1.00  0.00     0.031 C 
ATOM     37  C   UNL A   1      42.997  31.047  32.761  1.00  0.00     0.034 A 
BRANCH  24  38
ATOM     38  C   UNL A   1      44.586  32.134  27.698  1.00  0.00     0.023 A 
ATOM     39  C   UNL A   1      43.959  33.287  28.213  1.00  0.00     0.031 A 
ATOM     40  C   UNL A   1      45.099  32.248  26.388  1.00  0.00     0.131 A 
ATOM     41  C   UNL A   1      43.755  34.420  27.407  1.00  0.00     0.055 A 
ATOM     42  C   UNL A   1      44.959  33.406  25.616  1.00  0.00     0.041 A 
ATOM     43  F   UNL A   1      45.676  31.228  25.744  1.00  0.00    -0.206 F 
ATOM     44  C   UNL A   1      44.250  34.488  26.109  1.00  0.00     0.022 A 
BRANCH  41  45
ATOM     45  S   UNL A   1      42.659  35.724  28.024  1.00  0.00     0.124 S 
ATOM     46  O   UNL A   1      42.503  36.559  26.839  1.00  0.00    -0.237 OA
ATOM     47  O   UNL A   1      41.485  34.961  28.434  1.00  0.00    -0.237 OA
ATOM     48  O   UNL A   1      43.425  36.322  29.114  1.00  0.00    -0.744 OA
ENDBRANCH  41  45
ENDBRANCH  24  38
BRANCH  25  49
ATOM     49  C   UNL A   1      37.262  32.315  32.081  1.00  0.00     0.023 A 
ATOM     50  C   UNL A   1      36.596  32.789  30.923  1.00  0.00     0.031 A 
ATOM     51  C   UNL A   1      36.525  32.357  33.285  1.00  0.00     0.131 A 
ATOM     52  C   UNL A   1      35.263  33.270  31.006  1.00  0.00     0.055 A 
ATOM     53  C   UNL A   1      35.212  32.829  33.360  1.00  0.00     0.041 A 
ATOM     54  F   UNL A   1      37.026  31.851  34.422  1.00  0.00    -0.206 F 
ATOM     55  C   UNL A   1      34.571  33.279  32.218  1.00  0.00     0.022 A 
BRANCH  52  56
ATOM     56  S   UNL A   1      34.356  33.813  29.514  1.00  0.00     0.124 S 
ATOM     57  O   UNL A   1      33.241  34.561  30.081  1.00  0.00    -0.237 OA
ATOM     58  O   UNL A   1      35.361  34.588  28.796  1.00  0.00    -0.237 OA
ATOM     59  O   UNL A   1      33.980  32.555  28.865  1.00  0.00    -0.744 OA
ENDBRANCH  52  56
ENDBRANCH  25  49
BRANCH  37  60
ATOM     60  C   UNL A   1      42.923  30.246  34.045  1.00  0.00     0.023 A 
ATOM     61  C   UNL A   1      42.365  28.953  34.167  1.00  0.00     0.031 A 
ATOM     62  C   UNL A   1      43.565  30.789  35.172  1.00  0.00     0.131 A 
ATOM     63  C   UNL A   1      42.456  28.262  35.392  1.00  0.00     0.055 A 
ATOM     64  C   UNL A   1      43.673  30.093  36.374  1.00  0.00     0.041 A 
ATOM     65  F   UNL A   1      44.136  32.004  35.111  1.00  0.00    -0.206 F 
ATOM     66  C   UNL A   1      43.113  28.827  36.491  1.00  0.00     0.022 A 
BRANCH  63  67
ATOM     67  S   UNL A   1      41.710  26.611  35.590  1.00  0.00     0.124 S 
ATOM     68  O   UNL A   1      41.142  26.652  36.932  1.00  0.00    -0.237 OA
ATOM     69  O   UNL A   1      40.751  26.567  34.489  1.00  0.00    -0.237 OA
ATOM     70  O   UNL A   1      42.850  25.705  35.438  1.00  0.00    -0.744 OA
ENDBRANCH  63  67
ENDBRANCH  37  60
ENDBRANCH  11  12
ENDBRANCH   4   6
ENDBRANCH   1   2
BRANCH   1  71
ATOM     71  C   UNL A   1      42.038  19.866  27.640  1.00  0.00     0.042 C 
BRANCH  71  72
ATOM     72  C   UNL A   1      42.302  19.249  26.271  1.00  0.00     0.118 C 
BRANCH  72  73
ATOM     73  N   UNL A   1      43.470  18.379  26.250  1.00  0.00    -0.351 N 
ATOM     74  C   UNL A   1      44.732  18.594  25.741  1.00  0.00     0.273 C 
ATOM     75  H   UNL A   1      43.336  17.496  26.664  1.00  0.00     0.163 HD
ATOM     76  O   UNL A   1      45.510  17.644  25.703  1.00  0.00    -0.267 OA
BRANCH  74  77
ATOM     77  C   UNL A   1      45.102  19.922  25.284  1.00  0.00     0.170 A 
ATOM     78  C   UNL A   1      44.281  20.981  24.949  1.00  0.00     0.145 A 
ATOM     79  N   UNL A   1      46.408  20.340  25.194  1.00  0.00    -0.125 NA
ATOM     80  N   UNL A   1      45.140  21.968  24.566  1.00  0.00    -0.245 N 
ATOM     81  N   UNL A   1      46.417  21.587  24.743  1.00  0.00    -0.066 NA
BRANCH  80  82
ATOM     82  C   UNL A   1      44.816  23.303  24.181  1.00  0.00     0.148 C 
ATOM     83  C   UNL A   1      43.417  23.820  24.563  1.00  0.00     0.150 C 
ATOM     84  C   UNL A   1      45.339  24.331  25.212  1.00  0.00     0.150 C 
ATOM     85  N   UNL A   1      44.120  25.054  24.935  1.00  0.00    -0.320 N 
ATOM     86  C   UNL A   1      43.562  26.243  25.266  1.00  0.00     0.322 C 
ATOM     87  O   UNL A   1      42.355  26.440  25.118  1.00  0.00    -0.248 OA
ATOM     88  N   UNL A   1      44.280  27.208  25.896  1.00  0.00    -0.307 N 
ATOM     89  H   UNL A   1      43.729  27.873  26.369  1.00  0.00     0.171 HD
BRANCH  88  90
ATOM     90  C   UNL A   1      45.638  27.431  25.994  1.00  0.00     0.053 A 
ATOM     91  C   UNL A   1      46.556  27.744  24.951  1.00  0.00     0.038 A 
ATOM     92  C   UNL A   1      46.268  27.455  27.221  1.00  0.00     0.091 A 
ATOM     93  C   UNL A   1      47.863  27.770  25.386  1.00  0.00     0.067 A 
ATOM     94  S   UNL A   1      47.969  27.591  27.081  1.00  0.00    -0.150 S 
ENDBRANCH  88  90
ENDBRANCH  80  82
ENDBRANCH  74  77
ENDBRANCH  72  73
ENDBRANCH  71  72
ENDBRANCH   1  71
TORSDOF 15
ENDMDL
MODEL 2
REMARK VINA RESULT:     -12.0      4.959     11.197
REMARK SMILES O=C(NCCCNC(=O)c1cn(C2CN(C(=O)Nc3ccsc3)C2)nn1)c1ccc(-c2c3nc(c(-c4cc(S(=O)(=O)[O-])ccc4F)c4ccc([nH]4)c(-c4cc(S(=O)(=O)[O-])ccc4F)c4nc(c(-c5cc(S(=O)(=O)[O-])ccc5F)c5ccc2[nH]5)C=C4)C=C3)cc1
REMARK SMILES IDX 4 1 3 2 1 3 2 4 27 6 28 7 89 8 29 9 88 10 30 11 31 12 32 13
REMARK SMILES IDX 82 14 33 15 87 16 81 17 83 18 34 19 86 20 80 21 79 22 35 24
REMARK SMILES IDX 67 25 47 26 66 27 48 28 51 29 65 30 84 31 49 32 50 33 64 35
REMARK SMILES IDX 85 36 52 37 36 38 37 39 45 40 38 41 44 42 46 43 43 44 39 45
REMARK SMILES IDX 40 46 41 47 42 48 68 49 69 50 77 51 70 52 76 53 78 54 75 55
REMARK SMILES IDX 71 56 72 57 73 58 74 59 53 60 54 61 62 62 55 63 61 64 63 65
REMARK SMILES IDX 60 66 56 67 57 68 58 69 59 70 5 71 6 72 7 73 8 74 9 76 10 77
REMARK SMILES IDX 11 78 26 79 12 80 25 81 13 82 14 83 24 84 15 85 16 86 17 87
REMARK SMILES IDX 18 88 19 90 20 91 23 92 21 93 22 94
REMARK H PARENT 3 5 83 23 51 34 7 75 18 89
REMARK Flexibility Score: inf
ROOT
ATOM      1  C   UNL A   1      34.137  30.598  27.290  1.00  0.00     0.118 C 
ENDROOT
BRANCH   1   2
ATOM      2  N   UNL A   1      34.234  31.459  28.450  1.00  0.00    -0.352 N 
ATOM      3  O   UNL A   1      34.974  32.745  30.075  1.00  0.00    -0.269 OA
ATOM      4  C   UNL A   1      35.236  31.808  29.315  1.00  0.00     0.251 C 
ATOM      5  H   UNL A   1      33.378  31.895  28.669  1.00  0.00     0.163 HD
BRANCH   4   6
ATOM      6  C   UNL A   1      36.547  31.113  29.454  1.00  0.00     0.039 A 
ATOM      7  C   UNL A   1      37.799  31.720  29.549  1.00  0.00     0.014 A 
ATOM      8  C   UNL A   1      36.484  29.706  29.474  1.00  0.00     0.014 A 
ATOM      9  C   UNL A   1      38.960  30.937  29.584  1.00  0.00     0.010 A 
ATOM     10  C   UNL A   1      37.635  28.923  29.511  1.00  0.00     0.010 A 
ATOM     11  C   UNL A   1      38.881  29.539  29.540  1.00  0.00    -0.014 A 
BRANCH  11  12
ATOM     12  C   UNL A   1      40.096  28.747  29.762  1.00  0.00     0.031 A 
ATOM     13  C   UNL A   1      40.427  28.563  31.203  1.00  0.00     0.074 A 
ATOM     14  C   UNL A   1      40.797  28.086  28.813  1.00  0.00     0.049 A 
ATOM     15  N   UNL A   1      41.428  29.057  31.852  1.00  0.00    -0.248 NA
ATOM     16  C   UNL A   1      39.454  27.865  32.060  1.00  0.00     0.031 C 
ATOM     17  C   UNL A   1      40.464  27.928  27.397  1.00  0.00     0.029 A 
ATOM     18  N   UNL A   1      41.934  27.332  28.941  1.00  0.00    -0.354 N 
ATOM     19  C   UNL A   1      41.342  28.549  33.146  1.00  0.00     0.074 A 
ATOM     20  C   UNL A   1      40.023  27.986  33.261  1.00  0.00     0.031 C 
ATOM     21  C   UNL A   1      41.251  26.966  26.853  1.00  0.00     0.029 A 
ATOM     22  C   UNL A   1      42.228  26.527  27.839  1.00  0.00     0.049 A 
ATOM     23  H   UNL A   1      42.498  27.356  29.748  1.00  0.00     0.167 HD
ATOM     24  C   UNL A   1      42.444  28.439  33.938  1.00  0.00     0.034 A 
ATOM     25  C   UNL A   1      43.176  25.548  27.747  1.00  0.00     0.034 A 
ATOM     26  C   UNL A   1      43.538  29.227  33.419  1.00  0.00     0.049 A 
ATOM     27  C   UNL A   1      44.192  25.829  28.789  1.00  0.00     0.074 A 
ATOM     28  C   UNL A   1      43.721  30.566  33.134  1.00  0.00     0.029 A 
ATOM     29  N   UNL A   1      44.551  28.569  32.759  1.00  0.00    -0.354 N 
ATOM     30  N   UNL A   1      44.977  26.871  28.760  1.00  0.00    -0.248 NA
ATOM     31  C   UNL A   1      44.015  25.224  30.100  1.00  0.00     0.031 C 
ATOM     32  C   UNL A   1      44.485  30.580  31.930  1.00  0.00     0.029 A 
ATOM     33  C   UNL A   1      44.797  29.261  31.600  1.00  0.00     0.049 A 
ATOM     34  H   UNL A   1      45.013  27.754  33.062  1.00  0.00     0.167 HD
ATOM     35  C   UNL A   1      45.019  27.318  30.070  1.00  0.00     0.074 A 
ATOM     36  C   UNL A   1      44.488  26.213  30.865  1.00  0.00     0.031 C 
ATOM     37  C   UNL A   1      45.217  28.638  30.360  1.00  0.00     0.034 A 
BRANCH  24  38
ATOM     38  C   UNL A   1      42.678  27.352  34.969  1.00  0.00     0.023 A 
ATOM     39  C   UNL A   1      43.475  26.257  34.577  1.00  0.00     0.031 A 
ATOM     40  C   UNL A   1      41.938  27.178  36.158  1.00  0.00     0.131 A 
ATOM     41  C   UNL A   1      43.418  25.036  35.271  1.00  0.00     0.055 A 
ATOM     42  C   UNL A   1      41.943  25.983  36.887  1.00  0.00     0.041 A 
ATOM     43  F   UNL A   1      41.099  28.104  36.633  1.00  0.00    -0.206 F 
ATOM     44  C   UNL A   1      42.655  24.891  36.424  1.00  0.00     0.022 A 
BRANCH  41  45
ATOM     45  S   UNL A   1      44.206  23.588  34.521  1.00  0.00     0.124 S 
ATOM     46  O   UNL A   1      43.101  23.014  33.762  1.00  0.00    -0.237 OA
ATOM     47  O   UNL A   1      45.277  24.199  33.739  1.00  0.00    -0.237 OA
ATOM     48  O   UNL A   1      44.646  22.807  35.674  1.00  0.00    -0.744 OA
ENDBRANCH  41  45
ENDBRANCH  24  38
BRANCH  25  49
ATOM     49  C   UNL A   1      43.096  24.235  27.032  1.00  0.00     0.023 A 
ATOM     50  C   UNL A   1      44.017  23.823  26.038  1.00  0.00     0.031 A 
ATOM     51  C   UNL A   1      42.227  23.238  27.528  1.00  0.00     0.131 A 
ATOM     52  C   UNL A   1      44.039  22.476  25.590  1.00  0.00     0.055 A 
ATOM     53  C   UNL A   1      42.255  21.913  27.086  1.00  0.00     0.041 A 
ATOM     54  F   UNL A   1      41.377  23.497  28.534  1.00  0.00    -0.206 F 
ATOM     55  C   UNL A   1      43.168  21.524  26.121  1.00  0.00     0.022 A 
BRANCH  52  56
ATOM     56  S   UNL A   1      45.271  21.903  24.366  1.00  0.00     0.124 S 
ATOM     57  O   UNL A   1      44.517  20.917  23.602  1.00  0.00    -0.237 OA
ATOM     58  O   UNL A   1      45.624  23.135  23.670  1.00  0.00    -0.237 OA
ATOM     59  O   UNL A   1      46.343  21.344  25.194  1.00  0.00    -0.744 OA
ENDBRANCH  52  56
ENDBRANCH  25  49
BRANCH  37  60
ATOM     60  C   UNL A   1      45.710  29.561  29.265  1.00  0.00     0.023 A 
ATOM     61  C   UNL A   1      44.884  30.331  28.415  1.00  0.00     0.031 A 
ATOM     62  C   UNL A   1      47.101  29.749  29.169  1.00  0.00     0.131 A 
ATOM     63  C   UNL A   1      45.464  31.240  27.507  1.00  0.00     0.055 A 
ATOM     64  C   UNL A   1      47.669  30.665  28.287  1.00  0.00     0.041 A 
ATOM     65  F   UNL A   1      47.937  29.065  29.968  1.00  0.00    -0.206 F 
ATOM     66  C   UNL A   1      46.851  31.411  27.447  1.00  0.00     0.022 A 
BRANCH  63  67
ATOM     67  S   UNL A   1      44.425  32.216  26.372  1.00  0.00     0.124 S 
ATOM     68  O   UNL A   1      43.414  31.262  25.931  1.00  0.00    -0.237 OA
ATOM     69  O   UNL A   1      43.953  33.298  27.232  1.00  0.00    -0.237 OA
ATOM     70  O   UNL A   1      45.363  32.634  25.329  1.00  0.00    -0.744 OA
ENDBRANCH  63  67
ENDBRANCH  37  60
ENDBRANCH  11  12
ENDBRANCH   4   6
ENDBRANCH   1   2
BRANCH   1  71
ATOM     71  C   UNL A   1      32.727  30.411  26.739  1.00  0.00     0.042 C 
BRANCH  71  72
ATOM     72  C   UNL A   1      32.659  29.738  25.372  1.00  0.00     0.118 C 
BRANCH  72  73
ATOM     73  N   UNL A   1      31.466  30.093  24.617  1.00  0.00    -0.351 N 
ATOM     74  C   UNL A   1      30.528  29.292  24.004  1.00  0.00     0.273 C 
ATOM     75  H   UNL A   1      31.304  31.061  24.530  1.00  0.00     0.163 HD
ATOM     76  O   UNL A   1      29.687  29.829  23.288  1.00  0.00    -0.267 OA
BRANCH  74  77
ATOM     77  C   UNL A   1      30.556  27.857  24.230  1.00  0.00     0.170 A 
ATOM     78  C   UNL A   1      31.422  27.123  25.016  1.00  0.00     0.145 A 
ATOM     79  N   UNL A   1      29.611  27.005  23.711  1.00  0.00    -0.125 NA
ATOM     80  N   UNL A   1      31.018  25.831  24.848  1.00  0.00    -0.245 N 
ATOM     81  N   UNL A   1      29.913  25.769  24.087  1.00  0.00    -0.066 NA
BRANCH  80  82
ATOM     82  C   UNL A   1      31.537  24.667  25.491  1.00  0.00     0.148 C 
ATOM     83  C   UNL A   1      30.873  23.323  25.143  1.00  0.00     0.150 C 
ATOM     84  C   UNL A   1      32.769  24.109  24.739  1.00  0.00     0.150 C 
ATOM     85  N   UNL A   1      32.247  22.809  25.090  1.00  0.00    -0.320 N 
ATOM     86  C   UNL A   1      32.631  21.515  24.989  1.00  0.00     0.322 C 
ATOM     87  O   UNL A   1      31.814  20.599  25.101  1.00  0.00    -0.248 OA
ATOM     88  N   UNL A   1      33.896  21.180  24.627  1.00  0.00    -0.307 N 
ATOM     89  H   UNL A   1      33.984  20.265  24.275  1.00  0.00     0.171 HD
BRANCH  88  90
ATOM     90  C   UNL A   1      35.083  21.885  24.663  1.00  0.00     0.053 A 
ATOM     91  C   UNL A   1      35.737  22.561  23.594  1.00  0.00     0.038 A 
ATOM     92  C   UNL A   1      35.755  22.085  25.851  1.00  0.00     0.091 A 
ATOM     93  C   UNL A   1      36.973  23.049  23.954  1.00  0.00     0.067 A 
ATOM     94  S   UNL A   1      37.272  22.846  25.624  1.00  0.00    -0.150 S 
ENDBRANCH  88  90
ENDBRANCH  80  82
ENDBRANCH  74  77
ENDBRANCH  72  73
ENDBRANCH  71  72
ENDBRANCH   1  71
TORSDOF 15
ENDMDL
MODEL 3
REMARK VINA RESULT:     -12.0      5.017     11.290
REMARK SMILES O=C(NCCCNC(=O)c1cn(C2CN(C(=O)Nc3ccsc3)C2)nn1)c1ccc(-c2c3nc(c(-c4cc(S(=O)(=O)[O-])ccc4F)c4ccc([nH]4)c(-c4cc(S(=O)(=O)[O-])ccc4F)c4nc(c(-c5cc(S(=O)(=O)[O-])ccc5F)c5ccc2[nH]5)C=C4)C=C3)cc1
REMARK SMILES IDX 4 1 3 2 1 3 2 4 27 6 28 7 89 8 29 9 88 10 30 11 31 12 32 13
REMARK SMILES IDX 82 14 33 15 87 16 81 17 83 18 34 19 86 20 80 21 79 22 35 24
REMARK SMILES IDX 67 25 47 26 66 27 48 28 51 29 65 30 84 31 49 32 50 33 64 35
REMARK SMILES IDX 85 36 52 37 36 38 37 39 45 40 38 41 44 42 46 43 43 44 39 45
REMARK SMILES IDX 40 46 41 47 42 48 68 49 69 50 77 51 70 52 76 53 78 54 75 55
REMARK SMILES IDX 71 56 72 57 73 58 74 59 53 60 54 61 62 62 55 63 61 64 63 65
REMARK SMILES IDX 60 66 56 67 57 68 58 69 59 70 5 71 6 72 7 73 8 74 9 76 10 77
REMARK SMILES IDX 11 78 26 79 12 80 25 81 13 82 14 83 24 84 15 85 16 86 17 87
REMARK SMILES IDX 18 88 19 90 20 91 23 92 21 93 22 94
REMARK H PARENT 3 5 83 23 51 34 7 75 18 89
REMARK Flexibility Score: inf
ROOT
ATOM      1  C   UNL A   1      34.164  30.029  27.260  1.00  0.00     0.118 C 
ENDROOT
BRANCH   1   2
ATOM      2  N   UNL A   1      34.684  31.320  27.659  1.00  0.00    -0.352 N 
ATOM      3  O   UNL A   1      35.999  33.031  28.088  1.00  0.00    -0.269 OA
ATOM      4  C   UNL A   1      35.918  31.802  28.003  1.00  0.00     0.251 C 
ATOM      5  H   UNL A   1      33.986  32.014  27.692  1.00  0.00     0.163 HD
BRANCH   4   6
ATOM      6  C   UNL A   1      37.111  30.977  28.345  1.00  0.00     0.039 A 
ATOM      7  C   UNL A   1      38.116  31.311  29.253  1.00  0.00     0.014 A 
ATOM      8  C   UNL A   1      37.214  29.751  27.657  1.00  0.00     0.014 A 
ATOM      9  C   UNL A   1      39.231  30.478  29.408  1.00  0.00     0.010 A 
ATOM     10  C   UNL A   1      38.319  28.918  27.810  1.00  0.00     0.010 A 
ATOM     11  C   UNL A   1      39.345  29.293  28.668  1.00  0.00    -0.014 A 
BRANCH  11  12
ATOM     12  C   UNL A   1      40.428  28.355  28.985  1.00  0.00     0.031 A 
ATOM     13  C   UNL A   1      40.732  28.272  30.442  1.00  0.00     0.074 A 
ATOM     14  C   UNL A   1      41.019  27.502  28.117  1.00  0.00     0.049 A 
ATOM     15  N   UNL A   1      41.798  28.676  31.049  1.00  0.00    -0.248 NA
ATOM     16  C   UNL A   1      39.668  27.821  31.353  1.00  0.00     0.031 C 
ATOM     17  C   UNL A   1      40.661  27.250  26.721  1.00  0.00     0.029 A 
ATOM     18  N   UNL A   1      42.029  26.604  28.336  1.00  0.00    -0.354 N 
ATOM     19  C   UNL A   1      41.641  28.322  32.387  1.00  0.00     0.074 A 
ATOM     20  C   UNL A   1      40.252  27.978  32.542  1.00  0.00     0.031 C 
ATOM     21  C   UNL A   1      41.293  26.131  26.288  1.00  0.00     0.029 A 
ATOM     22  C   UNL A   1      42.196  25.654  27.326  1.00  0.00     0.049 A 
ATOM     23  H   UNL A   1      42.593  26.626  29.143  1.00  0.00     0.167 HD
ATOM     24  C   UNL A   1      42.717  28.130  33.200  1.00  0.00     0.034 A 
ATOM     25  C   UNL A   1      42.985  24.539  27.346  1.00  0.00     0.034 A 
ATOM     26  C   UNL A   1      43.915  28.687  32.617  1.00  0.00     0.049 A 
ATOM     27  C   UNL A   1      44.036  24.771  28.367  1.00  0.00     0.074 A 
ATOM     28  C   UNL A   1      44.296  29.947  32.198  1.00  0.00     0.029 A 
ATOM     29  N   UNL A   1      44.815  27.820  32.040  1.00  0.00    -0.354 N 
ATOM     30  N   UNL A   1      44.968  25.675  28.242  1.00  0.00    -0.248 NA
ATOM     31  C   UNL A   1      43.774  24.338  29.731  1.00  0.00     0.031 C 
ATOM     32  C   UNL A   1      45.050  29.723  31.009  1.00  0.00     0.029 A 
ATOM     33  C   UNL A   1      45.159  28.344  30.820  1.00  0.00     0.049 A 
ATOM     34  H   UNL A   1      45.150  26.981  32.431  1.00  0.00     0.167 HD
ATOM     35  C   UNL A   1      45.081  26.243  29.500  1.00  0.00     0.074 A 
ATOM     36  C   UNL A   1      44.392  25.318  30.397  1.00  0.00     0.031 C 
ATOM     37  C   UNL A   1      45.476  27.541  29.655  1.00  0.00     0.034 A 
BRANCH  24  38
ATOM     38  C   UNL A   1      42.787  27.133  34.340  1.00  0.00     0.023 A 
ATOM     39  C   UNL A   1      43.579  25.983  34.138  1.00  0.00     0.031 A 
ATOM     40  C   UNL A   1      41.910  27.087  35.445  1.00  0.00     0.131 A 
ATOM     41  C   UNL A   1      43.393  24.831  34.921  1.00  0.00     0.055 A 
ATOM     42  C   UNL A   1      41.784  25.962  36.267  1.00  0.00     0.041 A 
ATOM     43  F   UNL A   1      41.061  28.077  35.737  1.00  0.00    -0.206 F 
ATOM     44  C   UNL A   1      42.499  24.812  35.985  1.00  0.00     0.022 A 
BRANCH  41  45
ATOM     45  S   UNL A   1      44.203  23.298  34.394  1.00  0.00     0.124 S 
ATOM     46  O   UNL A   1      44.300  22.571  35.654  1.00  0.00    -0.237 OA
ATOM     47  O   UNL A   1      43.251  22.775  33.419  1.00  0.00    -0.237 OA
ATOM     48  O   UNL A   1      45.472  23.760  33.838  1.00  0.00    -0.744 OA
ENDBRANCH  41  45
ENDBRANCH  24  38
BRANCH  25  49
ATOM     49  C   UNL A   1      42.706  23.187  26.769  1.00  0.00     0.023 A 
ATOM     50  C   UNL A   1      43.659  22.429  26.044  1.00  0.00     0.031 A 
ATOM     51  C   UNL A   1      41.536  22.502  27.165  1.00  0.00     0.131 A 
ATOM     52  C   UNL A   1      43.419  21.061  25.751  1.00  0.00     0.055 A 
ATOM     53  C   UNL A   1      41.307  21.154  26.877  1.00  0.00     0.041 A 
ATOM     54  F   UNL A   1      40.610  23.098  27.932  1.00  0.00    -0.206 F 
ATOM     55  C   UNL A   1      42.252  20.425  26.176  1.00  0.00     0.022 A 
BRANCH  52  56
ATOM     56  S   UNL A   1      44.668  20.043  24.887  1.00  0.00     0.124 S 
ATOM     57  O   UNL A   1      44.528  20.485  23.504  1.00  0.00    -0.237 OA
ATOM     58  O   UNL A   1      45.904  20.411  25.566  1.00  0.00    -0.237 OA
ATOM     59  O   UNL A   1      44.222  18.670  25.136  1.00  0.00    -0.744 OA
ENDBRANCH  52  56
ENDBRANCH  25  49
BRANCH  37  60
ATOM     60  C   UNL A   1      46.099  28.262  28.477  1.00  0.00     0.023 A 
ATOM     61  C   UNL A   1      47.461  28.187  28.104  1.00  0.00     0.031 A 
ATOM     62  C   UNL A   1      45.227  28.965  27.627  1.00  0.00     0.131 A 
ATOM     63  C   UNL A   1      47.899  28.813  26.920  1.00  0.00     0.055 A 
ATOM     64  C   UNL A   1      45.660  29.563  26.446  1.00  0.00     0.041 A 
ATOM     65  F   UNL A   1      43.917  29.051  27.915  1.00  0.00    -0.206 F 
ATOM     66  C   UNL A   1      47.002  29.495  26.091  1.00  0.00     0.022 A 
BRANCH  63  67
ATOM     67  S   UNL A   1      49.655  28.766  26.435  1.00  0.00     0.124 S 
ATOM     68  O   UNL A   1      50.267  27.922  27.454  1.00  0.00    -0.237 OA
ATOM     69  O   UNL A   1      49.594  28.203  25.089  1.00  0.00    -0.237 OA
ATOM     70  O   UNL A   1      50.058  30.172  26.487  1.00  0.00    -0.744 OA
ENDBRANCH  63  67
ENDBRANCH  37  60
ENDBRANCH  11  12
ENDBRANCH   4   6
ENDBRANCH   1   2
BRANCH   1  71
ATOM     71  C   UNL A   1      32.934  30.077  26.361  1.00  0.00     0.042 C 
BRANCH  71  72
ATOM     72  C   UNL A   1      33.140  29.501  24.964  1.00  0.00     0.118 C 
BRANCH  72  73
ATOM     73  N   UNL A   1      31.906  29.398  24.198  1.00  0.00    -0.351 N 
ATOM     74  C   UNL A   1      30.992  28.370  24.114  1.00  0.00     0.273 C 
ATOM     75  H   UNL A   1      31.690  30.189  23.653  1.00  0.00     0.163 HD
ATOM     76  O   UNL A   1      30.101  28.455  23.273  1.00  0.00    -0.267 OA
BRANCH  74  77
ATOM     77  C   UNL A   1      31.104  27.239  25.019  1.00  0.00     0.170 A 
ATOM     78  C   UNL A   1      31.711  26.017  24.804  1.00  0.00     0.145 A 
ATOM     79  N   UNL A   1      30.653  27.278  26.316  1.00  0.00    -0.125 NA
ATOM     80  N   UNL A   1      31.502  25.328  25.961  1.00  0.00    -0.245 N 
ATOM     81  N   UNL A   1      30.891  26.099  26.877  1.00  0.00    -0.066 NA
BRANCH  80  82
ATOM     82  C   UNL A   1      31.980  24.025  26.297  1.00  0.00     0.148 C 
ATOM     83  C   UNL A   1      31.208  22.826  25.717  1.00  0.00     0.150 C 
ATOM     84  C   UNL A   1      33.124  23.583  25.353  1.00  0.00     0.150 C 
ATOM     85  N   UNL A   1      32.539  22.267  25.452  1.00  0.00    -0.320 N 
ATOM     86  C   UNL A   1      32.829  21.008  25.044  1.00  0.00     0.322 C 
ATOM     87  O   UNL A   1      31.960  20.134  25.016  1.00  0.00    -0.248 OA
ATOM     88  N   UNL A   1      34.044  20.696  24.526  1.00  0.00    -0.307 N 
ATOM     89  H   UNL A   1      34.049  19.878  23.979  1.00  0.00     0.171 HD
BRANCH  88  90
ATOM     90  C   UNL A   1      35.275  21.314  24.626  1.00  0.00     0.053 A 
ATOM     91  C   UNL A   1      35.839  22.296  23.762  1.00  0.00     0.038 A 
ATOM     92  C   UNL A   1      36.103  21.078  25.704  1.00  0.00     0.091 A 
ATOM     93  C   UNL A   1      37.144  22.596  24.084  1.00  0.00     0.067 A 
ATOM     94  S   UNL A   1      37.632  21.829  25.530  1.00  0.00    -0.150 S 
ENDBRANCH  88  90
ENDBRANCH  80  82
ENDBRANCH  74  77
ENDBRANCH  72  73
ENDBRANCH  71  72
ENDBRANCH   1  71
TORSDOF 15
ENDMDL
