MODEL 1
REMARK VINA RESULT:     -11.8      0.000      0.000
REMARK SMILES CC(C)Nc1cc2ccccc2cc1C(=O)NCCCNC(=O)c1ccc(-c2c3nc(c(-c4cc(S(=O)(=O)[O-])ccc4F)c4ccc([nH]4)c(-c4cc(S(=O)(=O)[O-])ccc4F)c4nc(c(-c5cc(S(=O)(=O)[O-])ccc5F)c5ccc2[nH]5)C=C4)C=C3)cc1
REMARK SMILES IDX 19 1 18 2 17 3 15 4 16 5 14 7 5 8 6 9 7 10 13 11 8 12 12 13
REMARK SMILES IDX 9 14 11 15 10 16 4 17 2 19 1 20 3 21 20 22 21 23 22 24 23 26
REMARK SMILES IDX 24 27 25 28 86 29 26 30 85 31 27 32 28 33 29 34 79 35 30 36
REMARK SMILES IDX 84 37 78 38 80 39 31 40 83 41 77 42 76 43 32 45 64 46 44 47
REMARK SMILES IDX 63 48 45 49 48 50 62 51 81 52 46 53 47 54 61 56 82 57 49 58
REMARK SMILES IDX 33 59 34 60 42 61 35 62 41 63 43 64 40 65 36 66 37 67 38 68
REMARK SMILES IDX 39 69 65 70 66 71 74 72 67 73 73 74 75 75 72 76 68 77 69 78
REMARK SMILES IDX 70 79 71 80 50 81 51 82 59 83 52 84 58 85 60 86 57 87 53 88
REMARK SMILES IDX 54 89 55 90 56 91
REMARK H PARENT 17 6 4 18 21 25 80 44 48 55
REMARK Flexibility Score: inf
ROOT
ATOM      1  C   UNL A   1      33.046  28.195  26.979  1.00  0.00     0.042 C 
ENDROOT
BRANCH   1   2
ATOM      2  C   UNL A   1      31.819  27.815  26.171  1.00  0.00     0.118 C 
BRANCH   2   3
ATOM      3  N   UNL A   1      31.145  26.598  26.585  1.00  0.00    -0.352 N 
ATOM      4  C   UNL A   1      31.512  25.293  26.339  1.00  0.00     0.253 C 
ATOM      5  O   UNL A   1      30.863  24.383  26.855  1.00  0.00    -0.269 OA
ATOM      6  H   UNL A   1      30.319  26.722  27.108  1.00  0.00     0.163 HD
BRANCH   4   7
ATOM      7  C   UNL A   1      32.575  24.962  25.356  1.00  0.00     0.063 A 
ATOM      8  C   UNL A   1      32.396  24.822  23.971  1.00  0.00     0.048 A 
ATOM      9  C   UNL A   1      33.437  24.203  23.251  1.00  0.00     0.035 A 
ATOM     10  C   UNL A   1      34.650  23.814  23.848  1.00  0.00    -0.016 A 
ATOM     11  C   UNL A   1      33.816  24.649  25.953  1.00  0.00     0.024 A 
ATOM     12  C   UNL A   1      35.660  23.167  23.116  1.00  0.00     0.009 A 
ATOM     13  C   UNL A   1      34.863  24.090  25.211  1.00  0.00    -0.017 A 
ATOM     14  C   UNL A   1      36.877  22.836  23.715  1.00  0.00     0.001 A 
ATOM     15  C   UNL A   1      36.102  23.776  25.796  1.00  0.00     0.009 A 
ATOM     16  C   UNL A   1      37.105  23.158  25.049  1.00  0.00     0.001 A 
BRANCH   8  17
ATOM     17  N   UNL A   1      31.320  25.296  23.227  1.00  0.00    -0.382 N 
ATOM     18  H   UNL A   1      30.483  24.777  23.239  1.00  0.00     0.160 HD
BRANCH  17  19
ATOM     19  C   UNL A   1      31.364  26.523  22.427  1.00  0.00     0.073 C 
ATOM     20  C   UNL A   1      30.243  27.444  22.925  1.00  0.00     0.030 C 
ATOM     21  C   UNL A   1      32.672  27.276  22.618  1.00  0.00     0.030 C 
ENDBRANCH  17  19
ENDBRANCH   8  17
ENDBRANCH   4   7
ENDBRANCH   2   3
ENDBRANCH   1   2
BRANCH   1  22
ATOM     22  C   UNL A   1      34.006  29.188  26.334  1.00  0.00     0.118 C 
BRANCH  22  23
ATOM     23  N   UNL A   1      33.830  30.585  26.717  1.00  0.00    -0.352 N 
ATOM     24  C   UNL A   1      34.474  31.386  27.634  1.00  0.00     0.251 C 
ATOM     25  H   UNL A   1      33.112  31.044  26.223  1.00  0.00     0.163 HD
ATOM     26  O   UNL A   1      34.043  32.515  27.865  1.00  0.00    -0.269 OA
BRANCH  24  27
ATOM     27  C   UNL A   1      35.669  30.890  28.350  1.00  0.00     0.039 A 
ATOM     28  C   UNL A   1      35.547  29.921  29.349  1.00  0.00     0.014 A 
ATOM     29  C   UNL A   1      36.926  31.381  28.017  1.00  0.00     0.014 A 
ATOM     30  C   UNL A   1      36.701  29.373  29.921  1.00  0.00     0.010 A 
ATOM     31  C   UNL A   1      38.061  30.717  28.449  1.00  0.00     0.010 A 
ATOM     32  C   UNL A   1      37.969  29.722  29.428  1.00  0.00    -0.014 A 
BRANCH  32  33
ATOM     33  C   UNL A   1      39.225  29.109  29.934  1.00  0.00     0.031 A 
ATOM     34  C   UNL A   1      39.900  29.695  31.151  1.00  0.00     0.074 A 
ATOM     35  C   UNL A   1      39.806  28.106  29.245  1.00  0.00     0.049 A 
ATOM     36  N   UNL A   1      41.063  29.408  31.675  1.00  0.00    -0.248 NA
ATOM     37  C   UNL A   1      39.200  30.799  31.829  1.00  0.00     0.031 C 
ATOM     38  C   UNL A   1      39.286  27.511  28.010  1.00  0.00     0.029 A 
ATOM     39  N   UNL A   1      40.964  27.410  29.481  1.00  0.00    -0.354 N 
ATOM     40  C   UNL A   1      41.242  30.315  32.717  1.00  0.00     0.074 A 
ATOM     41  C   UNL A   1      40.119  31.223  32.681  1.00  0.00     0.031 C 
ATOM     42  C   UNL A   1      40.094  26.509  27.628  1.00  0.00     0.029 A 
ATOM     43  C   UNL A   1      41.215  26.423  28.555  1.00  0.00     0.049 A 
ATOM     44  H   UNL A   1      41.561  27.601  30.240  1.00  0.00     0.167 HD
ATOM     45  C   UNL A   1      42.229  30.362  33.645  1.00  0.00     0.034 A 
ATOM     46  C   UNL A   1      42.236  25.547  28.470  1.00  0.00     0.034 A 
ATOM     47  C   UNL A   1      43.317  29.416  33.684  1.00  0.00     0.049 A 
ATOM     48  C   UNL A   1      43.307  25.594  29.530  1.00  0.00     0.074 A 
ATOM     49  C   UNL A   1      44.342  29.315  34.607  1.00  0.00     0.029 A 
ATOM     50  N   UNL A   1      43.515  28.401  32.755  1.00  0.00    -0.354 N 
ATOM     51  N   UNL A   1      43.431  26.420  30.547  1.00  0.00    -0.248 NA
ATOM     52  C   UNL A   1      44.362  24.579  29.445  1.00  0.00     0.031 C 
ATOM     53  C   UNL A   1      45.193  28.280  34.202  1.00  0.00     0.029 A 
ATOM     54  C   UNL A   1      44.656  27.681  33.072  1.00  0.00     0.049 A 
ATOM     55  H   UNL A   1      42.929  28.219  31.986  1.00  0.00     0.167 HD
ATOM     56  C   UNL A   1      44.563  26.000  31.239  1.00  0.00     0.074 A 
ATOM     57  C   UNL A   1      45.064  24.835  30.539  1.00  0.00     0.031 C 
ATOM     58  C   UNL A   1      45.141  26.528  32.350  1.00  0.00     0.034 A 
BRANCH  45  59
ATOM     59  C   UNL A   1      42.168  31.469  34.673  1.00  0.00     0.023 A 
ATOM     60  C   UNL A   1      41.194  31.481  35.691  1.00  0.00     0.031 A 
ATOM     61  C   UNL A   1      43.059  32.556  34.612  1.00  0.00     0.131 A 
ATOM     62  C   UNL A   1      41.072  32.594  36.537  1.00  0.00     0.055 A 
ATOM     63  C   UNL A   1      42.992  33.616  35.519  1.00  0.00     0.041 A 
ATOM     64  F   UNL A   1      43.996  32.618  33.653  1.00  0.00    -0.206 F 
ATOM     65  C   UNL A   1      41.983  33.650  36.476  1.00  0.00     0.022 A 
BRANCH  62  66
ATOM     66  S   UNL A   1      39.607  32.716  37.598  1.00  0.00     0.124 S 
ATOM     67  O   UNL A   1      38.853  31.530  37.195  1.00  0.00    -0.237 OA
ATOM     68  O   UNL A   1      40.182  32.681  38.938  1.00  0.00    -0.237 OA
ATOM     69  O   UNL A   1      39.006  33.989  37.209  1.00  0.00    -0.744 OA
ENDBRANCH  62  66
ENDBRANCH  45  59
BRANCH  46  70
ATOM     70  C   UNL A   1      42.289  24.541  27.368  1.00  0.00     0.023 A 
ATOM     71  C   UNL A   1      41.572  23.337  27.457  1.00  0.00     0.031 A 
ATOM     72  C   UNL A   1      43.082  24.749  26.226  1.00  0.00     0.131 A 
ATOM     73  C   UNL A   1      41.704  22.364  26.454  1.00  0.00     0.055 A 
ATOM     74  C   UNL A   1      43.165  23.803  25.202  1.00  0.00     0.041 A 
ATOM     75  F   UNL A   1      43.781  25.886  26.083  1.00  0.00    -0.206 F 
ATOM     76  C   UNL A   1      42.486  22.595  25.320  1.00  0.00     0.022 A 
BRANCH  73  77
ATOM     77  S   UNL A   1      40.911  20.751  26.696  1.00  0.00     0.124 S 
ATOM     78  O   UNL A   1      41.878  19.848  26.081  1.00  0.00    -0.237 OA
ATOM     79  O   UNL A   1      40.805  20.682  28.150  1.00  0.00    -0.237 OA
ATOM     80  O   UNL A   1      39.641  20.885  25.986  1.00  0.00    -0.744 OA
ENDBRANCH  73  77
ENDBRANCH  46  70
BRANCH  58  81
ATOM     81  C   UNL A   1      46.353  25.808  32.890  1.00  0.00     0.023 A 
ATOM     82  C   UNL A   1      47.642  26.057  32.389  1.00  0.00     0.031 A 
ATOM     83  C   UNL A   1      46.209  24.832  33.892  1.00  0.00     0.131 A 
ATOM     84  C   UNL A   1      48.723  25.283  32.831  1.00  0.00     0.055 A 
ATOM     85  C   UNL A   1      47.301  24.120  34.384  1.00  0.00     0.041 A 
ATOM     86  F   UNL A   1      45.001  24.552  34.407  1.00  0.00    -0.206 F 
ATOM     87  C   UNL A   1      48.565  24.329  33.839  1.00  0.00     0.022 A 
BRANCH  84  88
ATOM     88  S   UNL A   1      50.311  25.444  31.969  1.00  0.00     0.124 S 
ATOM     89  O   UNL A   1      50.645  24.051  31.687  1.00  0.00    -0.237 OA
ATOM     90  O   UNL A   1      49.957  26.262  30.815  1.00  0.00    -0.237 OA
ATOM     91  O   UNL A   1      51.169  26.101  32.955  1.00  0.00    -0.744 OA
ENDBRANCH  84  88
ENDBRANCH  58  81
ENDBRANCH  32  33
ENDBRANCH  24  27
ENDBRANCH  22  23
ENDBRANCH   1  22
TORSDOF 15
ENDMDL
MODEL 2
REMARK VINA RESULT:     -11.7      4.830      9.691
REMARK SMILES CC(C)Nc1cc2ccccc2cc1C(=O)NCCCNC(=O)c1ccc(-c2c3nc(c(-c4cc(S(=O)(=O)[O-])ccc4F)c4ccc([nH]4)c(-c4cc(S(=O)(=O)[O-])ccc4F)c4nc(c(-c5cc(S(=O)(=O)[O-])ccc5F)c5ccc2[nH]5)C=C4)C=C3)cc1
REMARK SMILES IDX 19 1 18 2 17 3 15 4 16 5 14 7 5 8 6 9 7 10 13 11 8 12 12 13
REMARK SMILES IDX 9 14 11 15 10 16 4 17 2 19 1 20 3 21 20 22 21 23 22 24 23 26
REMARK SMILES IDX 24 27 25 28 86 29 26 30 85 31 27 32 28 33 29 34 79 35 30 36
REMARK SMILES IDX 84 37 78 38 80 39 31 40 83 41 77 42 76 43 32 45 64 46 44 47
REMARK SMILES IDX 63 48 45 49 48 50 62 51 81 52 46 53 47 54 61 56 82 57 49 58
REMARK SMILES IDX 33 59 34 60 42 61 35 62 41 63 43 64 40 65 36 66 37 67 38 68
REMARK SMILES IDX 39 69 65 70 66 71 74 72 67 73 73 74 75 75 72 76 68 77 69 78
REMARK SMILES IDX 70 79 71 80 50 81 51 82 59 83 52 84 58 85 60 86 57 87 53 88
REMARK SMILES IDX 54 89 55 90 56 91
REMARK H PARENT 17 6 4 18 21 25 80 44 48 55
REMARK Flexibility Score: inf
ROOT
ATOM      1  C   UNL A   1      35.902  21.809  26.082  1.00  0.00     0.042 C 
ENDROOT
BRANCH   1   2
ATOM      2  C   UNL A   1      34.944  22.971  25.895  1.00  0.00     0.118 C 
BRANCH   2   3
ATOM      3  N   UNL A   1      34.706  23.376  24.521  1.00  0.00    -0.352 N 
ATOM      4  C   UNL A   1      34.117  24.534  24.063  1.00  0.00     0.253 C 
ATOM      5  O   UNL A   1      34.085  24.749  22.850  1.00  0.00    -0.269 OA
ATOM      6  H   UNL A   1      35.003  22.741  23.829  1.00  0.00     0.163 HD
BRANCH   4   7
ATOM      7  C   UNL A   1      33.395  25.449  24.982  1.00  0.00     0.063 A 
ATOM      8  C   UNL A   1      32.047  25.342  25.355  1.00  0.00     0.048 A 
ATOM      9  C   UNL A   1      31.463  26.466  25.974  1.00  0.00     0.035 A 
ATOM     10  C   UNL A   1      32.194  27.623  26.300  1.00  0.00    -0.016 A 
ATOM     11  C   UNL A   1      34.159  26.571  25.374  1.00  0.00     0.024 A 
ATOM     12  C   UNL A   1      31.582  28.743  26.885  1.00  0.00     0.009 A 
ATOM     13  C   UNL A   1      33.577  27.654  26.043  1.00  0.00    -0.017 A 
ATOM     14  C   UNL A   1      32.335  29.861  27.249  1.00  0.00     0.001 A 
ATOM     15  C   UNL A   1      34.329  28.774  26.437  1.00  0.00     0.009 A 
ATOM     16  C   UNL A   1      33.711  29.869  27.042  1.00  0.00     0.001 A 
BRANCH   8  17
ATOM     17  N   UNL A   1      31.245  24.211  25.234  1.00  0.00    -0.382 N 
ATOM     18  H   UNL A   1      30.587  24.184  24.502  1.00  0.00     0.160 HD
BRANCH  17  19
ATOM     19  C   UNL A   1      31.328  23.059  26.136  1.00  0.00     0.073 C 
ATOM     20  C   UNL A   1      29.974  22.924  26.844  1.00  0.00     0.030 C 
ATOM     21  C   UNL A   1      31.560  21.761  25.377  1.00  0.00     0.030 C 
ENDBRANCH  17  19
ENDBRANCH   8  17
ENDBRANCH   4   7
ENDBRANCH   2   3
ENDBRANCH   1   2
BRANCH   1  22
ATOM     22  C   UNL A   1      37.115  21.770  25.158  1.00  0.00     0.118 C 
BRANCH  22  23
ATOM     23  N   UNL A   1      38.150  20.803  25.506  1.00  0.00    -0.352 N 
ATOM     24  C   UNL A   1      39.390  20.937  26.092  1.00  0.00     0.251 C 
ATOM     25  H   UNL A   1      37.917  19.873  25.278  1.00  0.00     0.163 HD
ATOM     26  O   UNL A   1      40.141  19.965  26.159  1.00  0.00    -0.269 OA
BRANCH  24  27
ATOM     27  C   UNL A   1      39.825  22.245  26.625  1.00  0.00     0.039 A 
ATOM     28  C   UNL A   1      40.802  22.318  27.622  1.00  0.00     0.014 A 
ATOM     29  C   UNL A   1      39.269  23.416  26.121  1.00  0.00     0.014 A 
ATOM     30  C   UNL A   1      41.291  23.568  28.017  1.00  0.00     0.010 A 
ATOM     31  C   UNL A   1      39.874  24.633  26.380  1.00  0.00     0.010 A 
ATOM     32  C   UNL A   1      40.875  24.733  27.352  1.00  0.00    -0.014 A 
BRANCH  32  33
ATOM     33  C   UNL A   1      41.424  26.078  27.668  1.00  0.00     0.031 A 
ATOM     34  C   UNL A   1      42.805  26.449  27.183  1.00  0.00     0.074 A 
ATOM     35  C   UNL A   1      40.731  26.912  28.469  1.00  0.00     0.049 A 
ATOM     36  N   UNL A   1      43.526  27.505  27.459  1.00  0.00    -0.248 NA
ATOM     37  C   UNL A   1      43.493  25.468  26.327  1.00  0.00     0.031 C 
ATOM     38  C   UNL A   1      39.421  26.629  29.062  1.00  0.00     0.029 A 
ATOM     39  N   UNL A   1      41.034  28.169  28.929  1.00  0.00    -0.354 N 
ATOM     40  C   UNL A   1      44.755  27.295  26.838  1.00  0.00     0.074 A 
ATOM     41  C   UNL A   1      44.714  25.970  26.263  1.00  0.00     0.031 C 
ATOM     42  C   UNL A   1      39.012  27.698  29.763  1.00  0.00     0.029 A 
ATOM     43  C   UNL A   1      40.049  28.722  29.716  1.00  0.00     0.049 A 
ATOM     44  H   UNL A   1      41.877  28.630  28.718  1.00  0.00     0.167 HD
ATOM     45  C   UNL A   1      45.806  28.143  26.721  1.00  0.00     0.034 A 
ATOM     46  C   UNL A   1      39.992  29.922  30.326  1.00  0.00     0.034 A 
ATOM     47  C   UNL A   1      45.804  29.477  27.268  1.00  0.00     0.049 A 
ATOM     48  C   UNL A   1      41.157  30.864  30.156  1.00  0.00     0.074 A 
ATOM     49  C   UNL A   1      46.776  30.456  27.165  1.00  0.00     0.029 A 
ATOM     50  N   UNL A   1      44.770  30.021  28.022  1.00  0.00    -0.354 N 
ATOM     51  N   UNL A   1      42.289  30.675  29.514  1.00  0.00    -0.248 NA
ATOM     52  C   UNL A   1      41.028  32.188  30.775  1.00  0.00     0.031 C 
ATOM     53  C   UNL A   1      46.357  31.567  27.906  1.00  0.00     0.029 A 
ATOM     54  C   UNL A   1      45.088  31.313  28.406  1.00  0.00     0.049 A 
ATOM     55  H   UNL A   1      43.933  29.555  28.248  1.00  0.00     0.167 HD
ATOM     56  C   UNL A   1      42.992  31.871  29.627  1.00  0.00     0.074 A 
ATOM     57  C   UNL A   1      42.143  32.778  30.373  1.00  0.00     0.031 C 
ATOM     58  C   UNL A   1      44.227  32.194  29.160  1.00  0.00     0.034 A 
BRANCH  45  59
ATOM     59  C   UNL A   1      47.027  27.643  25.982  1.00  0.00     0.023 A 
ATOM     60  C   UNL A   1      47.267  27.982  24.636  1.00  0.00     0.031 A 
ATOM     61  C   UNL A   1      47.941  26.777  26.609  1.00  0.00     0.131 A 
ATOM     62  C   UNL A   1      48.328  27.384  23.938  1.00  0.00     0.055 A 
ATOM     63  C   UNL A   1      49.050  26.261  25.934  1.00  0.00     0.041 A 
ATOM     64  F   UNL A   1      47.758  26.397  27.883  1.00  0.00    -0.206 F 
ATOM     65  C   UNL A   1      49.238  26.548  24.586  1.00  0.00     0.022 A 
BRANCH  62  66
ATOM     66  S   UNL A   1      48.398  27.583  22.137  1.00  0.00     0.124 S 
ATOM     67  O   UNL A   1      48.607  26.205  21.697  1.00  0.00    -0.237 OA
ATOM     68  O   UNL A   1      47.093  28.159  21.831  1.00  0.00    -0.237 OA
ATOM     69  O   UNL A   1      49.538  28.474  21.933  1.00  0.00    -0.744 OA
ENDBRANCH  62  66
ENDBRANCH  45  59
BRANCH  46  70
ATOM     70  C   UNL A   1      38.795  30.316  31.127  1.00  0.00     0.023 A 
ATOM     71  C   UNL A   1      37.745  31.043  30.544  1.00  0.00     0.031 A 
ATOM     72  C   UNL A   1      38.696  30.003  32.494  1.00  0.00     0.131 A 
ATOM     73  C   UNL A   1      36.670  31.482  31.333  1.00  0.00     0.055 A 
ATOM     74  C   UNL A   1      37.597  30.392  33.263  1.00  0.00     0.041 A 
ATOM     75  F   UNL A   1      39.666  29.302  33.102  1.00  0.00    -0.206 F 
ATOM     76  C   UNL A   1      36.583  31.150  32.686  1.00  0.00     0.022 A 
BRANCH  73  77
ATOM     77  S   UNL A   1      35.431  32.575  30.584  1.00  0.00     0.124 S 
ATOM     78  O   UNL A   1      35.183  31.914  29.308  1.00  0.00    -0.237 OA
ATOM     79  O   UNL A   1      34.347  32.515  31.559  1.00  0.00    -0.237 OA
ATOM     80  O   UNL A   1      36.119  33.862  30.498  1.00  0.00    -0.744 OA
ENDBRANCH  73  77
ENDBRANCH  46  70
BRANCH  58  81
ATOM     81  C   UNL A   1      44.698  33.606  29.413  1.00  0.00     0.023 A 
ATOM     82  C   UNL A   1      44.537  34.620  28.453  1.00  0.00     0.031 A 
ATOM     83  C   UNL A   1      45.350  33.930  30.616  1.00  0.00     0.131 A 
ATOM     84  C   UNL A   1      45.095  35.886  28.676  1.00  0.00     0.055 A 
ATOM     85  C   UNL A   1      45.834  35.214  30.865  1.00  0.00     0.041 A 
ATOM     86  F   UNL A   1      45.533  33.001  31.568  1.00  0.00    -0.206 F 
ATOM     87  C   UNL A   1      45.726  36.195  29.884  1.00  0.00     0.022 A 
BRANCH  84  88
ATOM     88  S   UNL A   1      45.105  37.079  27.310  1.00  0.00     0.124 S 
ATOM     89  O   UNL A   1      43.689  37.156  26.966  1.00  0.00    -0.237 OA
ATOM     90  O   UNL A   1      45.674  38.266  27.938  1.00  0.00    -0.237 OA
ATOM     91  O   UNL A   1      45.954  36.441  26.306  1.00  0.00    -0.744 OA
ENDBRANCH  84  88
ENDBRANCH  58  81
ENDBRANCH  32  33
ENDBRANCH  24  27
ENDBRANCH  22  23
ENDBRANCH   1  22
TORSDOF 15
ENDMDL
MODEL 3
REMARK VINA RESULT:     -11.7      1.348      1.648
REMARK SMILES CC(C)Nc1cc2ccccc2cc1C(=O)NCCCNC(=O)c1ccc(-c2c3nc(c(-c4cc(S(=O)(=O)[O-])ccc4F)c4ccc([nH]4)c(-c4cc(S(=O)(=O)[O-])ccc4F)c4nc(c(-c5cc(S(=O)(=O)[O-])ccc5F)c5ccc2[nH]5)C=C4)C=C3)cc1
REMARK SMILES IDX 19 1 18 2 17 3 15 4 16 5 14 7 5 8 6 9 7 10 13 11 8 12 12 13
REMARK SMILES IDX 9 14 11 15 10 16 4 17 2 19 1 20 3 21 20 22 21 23 22 24 23 26
REMARK SMILES IDX 24 27 25 28 86 29 26 30 85 31 27 32 28 33 29 34 79 35 30 36
REMARK SMILES IDX 84 37 78 38 80 39 31 40 83 41 77 42 76 43 32 45 64 46 44 47
REMARK SMILES IDX 63 48 45 49 48 50 62 51 81 52 46 53 47 54 61 56 82 57 49 58
REMARK SMILES IDX 33 59 34 60 42 61 35 62 41 63 43 64 40 65 36 66 37 67 38 68
REMARK SMILES IDX 39 69 65 70 66 71 74 72 67 73 73 74 75 75 72 76 68 77 69 78
REMARK SMILES IDX 70 79 71 80 50 81 51 82 59 83 52 84 58 85 60 86 57 87 53 88
REMARK SMILES IDX 54 89 55 90 56 91
REMARK H PARENT 17 6 4 18 21 25 80 44 48 55
REMARK Flexibility Score: inf
ROOT
ATOM      1  C   UNL A   1      33.263  28.036  26.972  1.00  0.00     0.042 C 
ENDROOT
BRANCH   1   2
ATOM      2  C   UNL A   1      31.917  27.732  26.340  1.00  0.00     0.118 C 
BRANCH   2   3
ATOM      3  N   UNL A   1      31.260  26.527  26.809  1.00  0.00    -0.352 N 
ATOM      4  C   UNL A   1      31.596  25.216  26.553  1.00  0.00     0.253 C 
ATOM      5  O   UNL A   1      30.973  24.317  27.118  1.00  0.00    -0.269 OA
ATOM      6  H   UNL A   1      30.471  26.664  27.384  1.00  0.00     0.163 HD
BRANCH   4   7
ATOM      7  C   UNL A   1      32.588  24.864  25.505  1.00  0.00     0.063 A 
ATOM      8  C   UNL A   1      32.302  24.618  24.154  1.00  0.00     0.048 A 
ATOM      9  C   UNL A   1      33.310  23.997  23.388  1.00  0.00     0.035 A 
ATOM     10  C   UNL A   1      34.587  23.708  23.902  1.00  0.00    -0.016 A 
ATOM     11  C   UNL A   1      33.890  24.652  26.011  1.00  0.00     0.024 A 
ATOM     12  C   UNL A   1      35.564  23.058  23.130  1.00  0.00     0.009 A 
ATOM     13  C   UNL A   1      34.898  24.091  25.220  1.00  0.00    -0.017 A 
ATOM     14  C   UNL A   1      36.843  22.827  23.641  1.00  0.00     0.001 A 
ATOM     15  C   UNL A   1      36.197  23.877  25.714  1.00  0.00     0.009 A 
ATOM     16  C   UNL A   1      37.165  23.253  24.926  1.00  0.00     0.001 A 
BRANCH   8  17
ATOM     17  N   UNL A   1      31.144  24.986  23.476  1.00  0.00    -0.382 N 
ATOM     18  H   UNL A   1      30.380  24.365  23.489  1.00  0.00     0.160 HD
BRANCH  17  19
ATOM     19  C   UNL A   1      30.998  26.248  22.746  1.00  0.00     0.073 C 
ATOM     20  C   UNL A   1      29.881  27.053  23.423  1.00  0.00     0.030 C 
ATOM     21  C   UNL A   1      32.260  27.095  22.822  1.00  0.00     0.030 C 
ENDBRANCH  17  19
ENDBRANCH   8  17
ENDBRANCH   4   7
ENDBRANCH   2   3
ENDBRANCH   1   2
BRANCH   1  22
ATOM     22  C   UNL A   1      34.112  29.102  26.289  1.00  0.00     0.118 C 
BRANCH  22  23
ATOM     23  N   UNL A   1      33.885  30.475  26.728  1.00  0.00    -0.352 N 
ATOM     24  C   UNL A   1      34.495  31.259  27.683  1.00  0.00     0.251 C 
ATOM     25  H   UNL A   1      33.154  30.930  26.249  1.00  0.00     0.163 HD
ATOM     26  O   UNL A   1      34.024  32.361  27.958  1.00  0.00    -0.269 OA
BRANCH  24  27
ATOM     27  C   UNL A   1      35.701  30.774  28.387  1.00  0.00     0.039 A 
ATOM     28  C   UNL A   1      35.593  29.844  29.424  1.00  0.00     0.014 A 
ATOM     29  C   UNL A   1      36.956  31.236  28.005  1.00  0.00     0.014 A 
ATOM     30  C   UNL A   1      36.755  29.303  29.987  1.00  0.00     0.010 A 
ATOM     31  C   UNL A   1      38.093  30.575  28.434  1.00  0.00     0.010 A 
ATOM     32  C   UNL A   1      38.014  29.618  29.451  1.00  0.00    -0.014 A 
BRANCH  32  33
ATOM     33  C   UNL A   1      39.275  29.008  29.948  1.00  0.00     0.031 A 
ATOM     34  C   UNL A   1      39.947  29.584  31.172  1.00  0.00     0.074 A 
ATOM     35  C   UNL A   1      39.862  28.017  29.247  1.00  0.00     0.049 A 
ATOM     36  N   UNL A   1      41.113  29.299  31.692  1.00  0.00    -0.248 NA
ATOM     37  C   UNL A   1      39.240  30.674  31.864  1.00  0.00     0.031 C 
ATOM     38  C   UNL A   1      39.346  27.433  28.005  1.00  0.00     0.029 A 
ATOM     39  N   UNL A   1      41.026  27.327  29.473  1.00  0.00    -0.354 N 
ATOM     40  C   UNL A   1      41.286  30.194  32.744  1.00  0.00     0.074 A 
ATOM     41  C   UNL A   1      40.156  31.094  32.720  1.00  0.00     0.031 C 
ATOM     42  C   UNL A   1      40.161  26.443  27.610  1.00  0.00     0.029 A 
ATOM     43  C   UNL A   1      41.283  26.353  28.535  1.00  0.00     0.049 A 
ATOM     44  H   UNL A   1      41.622  27.513  30.234  1.00  0.00     0.167 HD
ATOM     45  C   UNL A   1      42.274  30.238  33.671  1.00  0.00     0.034 A 
ATOM     46  C   UNL A   1      42.310  25.486  28.439  1.00  0.00     0.034 A 
ATOM     47  C   UNL A   1      43.368  29.300  33.698  1.00  0.00     0.049 A 
ATOM     48  C   UNL A   1      43.382  25.528  29.498  1.00  0.00     0.074 A 
ATOM     49  C   UNL A   1      44.395  29.195  34.618  1.00  0.00     0.029 A 
ATOM     50  N   UNL A   1      43.573  28.297  32.757  1.00  0.00    -0.354 N 
ATOM     51  N   UNL A   1      43.501  26.343  30.524  1.00  0.00    -0.248 NA
ATOM     52  C   UNL A   1      44.445  24.522  29.400  1.00  0.00     0.031 C 
ATOM     53  C   UNL A   1      45.253  28.171  34.200  1.00  0.00     0.029 A 
ATOM     54  C   UNL A   1      44.720  27.582  33.064  1.00  0.00     0.049 A 
ATOM     55  H   UNL A   1      42.988  28.120  31.986  1.00  0.00     0.167 HD
ATOM     56  C   UNL A   1      44.637  25.923  31.210  1.00  0.00     0.074 A 
ATOM     57  C   UNL A   1      45.146  24.769  30.495  1.00  0.00     0.031 C 
ATOM     58  C   UNL A   1      45.212  26.442  32.327  1.00  0.00     0.034 A 
BRANCH  45  59
ATOM     59  C   UNL A   1      42.205  31.332  34.713  1.00  0.00     0.023 A 
ATOM     60  C   UNL A   1      42.808  32.588  34.508  1.00  0.00     0.031 A 
ATOM     61  C   UNL A   1      41.574  31.106  35.950  1.00  0.00     0.131 A 
ATOM     62  C   UNL A   1      42.852  33.526  35.551  1.00  0.00     0.055 A 
ATOM     63  C   UNL A   1      41.539  32.082  36.949  1.00  0.00     0.041 A 
ATOM     64  F   UNL A   1      41.000  29.923  36.218  1.00  0.00    -0.206 F 
ATOM     65  C   UNL A   1      42.197  33.293  36.761  1.00  0.00     0.022 A 
BRANCH  62  66
ATOM     66  S   UNL A   1      43.921  34.979  35.360  1.00  0.00     0.124 S 
ATOM     67  O   UNL A   1      43.835  35.584  36.688  1.00  0.00    -0.237 OA
ATOM     68  O   UNL A   1      45.206  34.384  35.011  1.00  0.00    -0.237 OA
ATOM     69  O   UNL A   1      43.276  35.742  34.293  1.00  0.00    -0.744 OA
ENDBRANCH  62  66
ENDBRANCH  45  59
BRANCH  46  70
ATOM     70  C   UNL A   1      42.369  24.494  27.324  1.00  0.00     0.023 A 
ATOM     71  C   UNL A   1      41.605  23.317  27.366  1.00  0.00     0.031 A 
ATOM     72  C   UNL A   1      43.215  24.687  26.218  1.00  0.00     0.131 A 
ATOM     73  C   UNL A   1      41.741  22.353  26.355  1.00  0.00     0.055 A 
ATOM     74  C   UNL A   1      43.304  23.753  25.184  1.00  0.00     0.041 A 
ATOM     75  F   UNL A   1      43.962  25.798  26.120  1.00  0.00    -0.206 F 
ATOM     76  C   UNL A   1      42.575  22.570  25.257  1.00  0.00     0.022 A 
BRANCH  73  77
ATOM     77  S   UNL A   1      40.879  20.768  26.541  1.00  0.00     0.124 S 
ATOM     78  O   UNL A   1      39.572  21.070  25.967  1.00  0.00    -0.237 OA
ATOM     79  O   UNL A   1      41.728  19.869  25.767  1.00  0.00    -0.237 OA
ATOM     80  O   UNL A   1      40.890  20.542  27.985  1.00  0.00    -0.744 OA
ENDBRANCH  73  77
ENDBRANCH  46  70
BRANCH  58  81
ATOM     81  C   UNL A   1      46.430  25.724  32.857  1.00  0.00     0.023 A 
ATOM     82  C   UNL A   1      47.701  25.907  32.285  1.00  0.00     0.031 A 
ATOM     83  C   UNL A   1      46.308  24.816  33.924  1.00  0.00     0.131 A 
ATOM     84  C   UNL A   1      48.782  25.133  32.726  1.00  0.00     0.055 A 
ATOM     85  C   UNL A   1      47.405  24.106  34.411  1.00  0.00     0.041 A 
ATOM     86  F   UNL A   1      45.119  24.599  34.507  1.00  0.00    -0.206 F 
ATOM     87  C   UNL A   1      48.647  24.247  33.798  1.00  0.00     0.022 A 
BRANCH  84  88
ATOM     88  S   UNL A   1      50.333  25.199  31.788  1.00  0.00     0.124 S 
ATOM     89  O   UNL A   1      51.092  26.202  32.529  1.00  0.00    -0.237 OA
ATOM     90  O   UNL A   1      50.818  23.828  31.891  1.00  0.00    -0.237 OA
ATOM     91  O   UNL A   1      49.906  25.607  30.450  1.00  0.00    -0.744 OA
ENDBRANCH  84  88
ENDBRANCH  58  81
ENDBRANCH  32  33
ENDBRANCH  24  27
ENDBRANCH  22  23
ENDBRANCH   1  22
TORSDOF 15
ENDMDL
