MODEL 1
REMARK VINA RESULT:     -11.8      0.000      0.000
REMARK SMILES O=C(NCCCNC(=O)[C@H]1CC[C@@H](CNc2ncccn2)O1)c1ccc(-c2c3nc(c(-c4cc(S(=O)(=O)[O-])ccc4F)c4ccc([nH]4)c(-c4cc(S(=O)(=O)[O-])ccc4F)c4nc(c(-c5cc(S(=O)(=O)[O-])ccc5F)c5ccc2[nH]5)C=C4)C=C3)cc1
REMARK SMILES IDX 5 1 4 2 3 3 1 4 2 5 23 7 24 8 85 9 25 10 84 11 26 12 27 13
REMARK SMILES IDX 28 14 78 15 29 16 83 17 77 18 79 19 30 20 82 21 76 22 75 23
REMARK SMILES IDX 31 25 63 26 43 27 62 28 44 29 47 30 61 31 80 32 45 33 46 34
REMARK SMILES IDX 60 36 81 37 48 38 32 39 33 40 41 41 34 42 40 43 42 44 39 45
REMARK SMILES IDX 35 46 36 47 37 48 38 49 64 50 65 51 73 52 66 53 72 54 74 55
REMARK SMILES IDX 71 56 67 57 68 58 69 59 70 60 49 61 50 62 58 63 51 64 57 65
REMARK SMILES IDX 59 66 56 67 52 68 53 69 54 70 55 71 6 72 7 73 8 74 9 76
REMARK SMILES IDX 10 77 11 78 22 79 12 80 13 81 14 82 15 83 16 85 17 86 21 87
REMARK SMILES IDX 18 88 20 89 19 90
REMARK H PARENT 3 6 79 24 47 35 7 75 15 84
REMARK Flexibility Score: inf
ROOT
ATOM      1  C   UNL A   1      32.111  28.046  26.723  1.00  0.00     0.042 C 
ENDROOT
BRANCH   1   2
ATOM      2  C   UNL A   1      33.005  29.024  25.969  1.00  0.00     0.118 C 
BRANCH   2   3
ATOM      3  N   UNL A   1      32.658  30.421  26.217  1.00  0.00    -0.352 N 
ATOM      4  O   UNL A   1      32.649  32.418  27.250  1.00  0.00    -0.269 OA
ATOM      5  C   UNL A   1      33.216  31.341  27.072  1.00  0.00     0.251 C 
ATOM      6  H   UNL A   1      31.901  30.758  25.685  1.00  0.00     0.163 HD
BRANCH   5   7
ATOM      7  C   UNL A   1      34.477  31.039  27.784  1.00  0.00     0.039 A 
ATOM      8  C   UNL A   1      34.719  29.762  28.289  1.00  0.00     0.014 A 
ATOM      9  C   UNL A   1      35.449  32.037  27.920  1.00  0.00     0.014 A 
ATOM     10  C   UNL A   1      35.846  29.528  29.066  1.00  0.00     0.010 A 
ATOM     11  C   UNL A   1      36.635  31.768  28.615  1.00  0.00     0.010 A 
ATOM     12  C   UNL A   1      36.830  30.519  29.222  1.00  0.00    -0.014 A 
BRANCH  12  13
ATOM     13  C   UNL A   1      38.070  30.173  29.967  1.00  0.00     0.031 A 
ATOM     14  C   UNL A   1      38.304  30.664  31.370  1.00  0.00     0.074 A 
ATOM     15  C   UNL A   1      38.950  29.336  29.383  1.00  0.00     0.049 A 
ATOM     16  N   UNL A   1      39.289  30.381  32.184  1.00  0.00    -0.248 NA
ATOM     17  C   UNL A   1      37.316  31.599  31.927  1.00  0.00     0.031 C 
ATOM     18  C   UNL A   1      38.830  28.816  28.015  1.00  0.00     0.029 A 
ATOM     19  N   UNL A   1      40.089  28.742  29.861  1.00  0.00    -0.354 N 
ATOM     20  C   UNL A   1      39.045  31.102  33.349  1.00  0.00     0.074 A 
ATOM     21  C   UNL A   1      37.838  31.868  33.116  1.00  0.00     0.031 C 
ATOM     22  C   UNL A   1      39.811  27.932  27.793  1.00  0.00     0.029 A 
ATOM     23  C   UNL A   1      40.672  27.872  28.967  1.00  0.00     0.049 A 
ATOM     24  H   UNL A   1      40.455  28.922  30.756  1.00  0.00     0.167 HD
ATOM     25  C   UNL A   1      39.756  31.112  34.504  1.00  0.00     0.034 A 
ATOM     26  C   UNL A   1      41.782  27.118  29.073  1.00  0.00     0.034 A 
ATOM     27  C   UNL A   1      40.961  30.343  34.715  1.00  0.00     0.049 A 
ATOM     28  C   UNL A   1      42.554  27.157  30.364  1.00  0.00     0.074 A 
ATOM     29  C   UNL A   1      41.760  30.281  35.845  1.00  0.00     0.029 A 
ATOM     30  N   UNL A   1      41.544  29.501  33.776  1.00  0.00    -0.354 N 
ATOM     31  N   UNL A   1      42.300  27.843  31.455  1.00  0.00    -0.248 NA
ATOM     32  C   UNL A   1      43.754  26.317  30.440  1.00  0.00     0.031 C 
ATOM     33  C   UNL A   1      42.852  29.449  35.569  1.00  0.00     0.029 A 
ATOM     34  C   UNL A   1      42.701  28.934  34.292  1.00  0.00     0.049 A 
ATOM     35  H   UNL A   1      41.188  29.331  32.874  1.00  0.00     0.167 HD
ATOM     36  C   UNL A   1      43.313  27.514  32.349  1.00  0.00     0.074 A 
ATOM     37  C   UNL A   1      44.150  26.534  31.684  1.00  0.00     0.031 C 
ATOM     38  C   UNL A   1      43.540  27.984  33.602  1.00  0.00     0.034 A 
BRANCH  25  39
ATOM     39  C   UNL A   1      39.268  32.013  35.616  1.00  0.00     0.023 A 
ATOM     40  C   UNL A   1      39.713  33.340  35.743  1.00  0.00     0.031 A 
ATOM     41  C   UNL A   1      38.341  31.536  36.561  1.00  0.00     0.131 A 
ATOM     42  C   UNL A   1      39.275  34.127  36.820  1.00  0.00     0.055 A 
ATOM     43  C   UNL A   1      37.855  32.347  37.590  1.00  0.00     0.041 A 
ATOM     44  F   UNL A   1      37.894  30.272  36.503  1.00  0.00    -0.206 F 
ATOM     45  C   UNL A   1      38.330  33.647  37.731  1.00  0.00     0.022 A 
BRANCH  42  46
ATOM     46  S   UNL A   1      40.039  35.752  37.080  1.00  0.00     0.124 S 
ATOM     47  O   UNL A   1      39.652  36.459  35.862  1.00  0.00    -0.237 OA
ATOM     48  O   UNL A   1      39.403  36.207  38.311  1.00  0.00    -0.237 OA
ATOM     49  O   UNL A   1      41.464  35.448  37.190  1.00  0.00    -0.744 OA
ENDBRANCH  42  46
ENDBRANCH  25  39
BRANCH  26  50
ATOM     50  C   UNL A   1      42.248  26.297  27.919  1.00  0.00     0.023 A 
ATOM     51  C   UNL A   1      41.795  24.984  27.723  1.00  0.00     0.031 A 
ATOM     52  C   UNL A   1      43.193  26.811  27.010  1.00  0.00     0.131 A 
ATOM     53  C   UNL A   1      42.320  24.213  26.673  1.00  0.00     0.055 A 
ATOM     54  C   UNL A   1      43.665  26.063  25.933  1.00  0.00     0.041 A 
ATOM     55  F   UNL A   1      43.658  28.063  27.149  1.00  0.00    -0.206 F 
ATOM     56  C   UNL A   1      43.239  24.749  25.769  1.00  0.00     0.022 A 
BRANCH  53  57
ATOM     57  S   UNL A   1      41.858  22.463  26.565  1.00  0.00     0.124 S 
ATOM     58  O   UNL A   1      40.407  22.544  26.441  1.00  0.00    -0.237 OA
ATOM     59  O   UNL A   1      42.581  22.033  25.373  1.00  0.00    -0.237 OA
ATOM     60  O   UNL A   1      42.347  21.905  27.824  1.00  0.00    -0.744 OA
ENDBRANCH  53  57
ENDBRANCH  26  50
BRANCH  38  61
ATOM     61  C   UNL A   1      44.743  27.423  34.319  1.00  0.00     0.023 A 
ATOM     62  C   UNL A   1      44.649  26.260  35.106  1.00  0.00     0.031 A 
ATOM     63  C   UNL A   1      45.980  28.087  34.263  1.00  0.00     0.131 A 
ATOM     64  C   UNL A   1      45.750  25.841  35.866  1.00  0.00     0.055 A 
ATOM     65  C   UNL A   1      47.091  27.627  34.972  1.00  0.00     0.041 A 
ATOM     66  F   UNL A   1      46.125  29.202  33.530  1.00  0.00    -0.206 F 
ATOM     67  C   UNL A   1      46.974  26.508  35.793  1.00  0.00     0.022 A 
BRANCH  64  68
ATOM     68  S   UNL A   1      45.523  24.479  37.043  1.00  0.00     0.124 S 
ATOM     69  O   UNL A   1      44.592  25.061  38.004  1.00  0.00    -0.237 OA
ATOM     70  O   UNL A   1      44.986  23.421  36.196  1.00  0.00    -0.237 OA
ATOM     71  O   UNL A   1      46.873  24.240  37.554  1.00  0.00    -0.744 OA
ENDBRANCH  64  68
ENDBRANCH  38  61
ENDBRANCH  12  13
ENDBRANCH   5   7
ENDBRANCH   2   3
ENDBRANCH   1   2
BRANCH   1  72
ATOM     72  C   UNL A   1      31.497  26.973  25.834  1.00  0.00     0.117 C 
BRANCH  72  73
ATOM     73  N   UNL A   1      31.048  25.820  26.589  1.00  0.00    -0.354 N 
ATOM     74  C   UNL A   1      31.432  24.513  26.499  1.00  0.00     0.249 C 
ATOM     75  H   UNL A   1      30.362  26.008  27.270  1.00  0.00     0.163 HD
ATOM     76  O   UNL A   1      30.890  23.707  27.259  1.00  0.00    -0.272 OA
BRANCH  74  77
ATOM     77  C   UNL A   1      32.510  24.090  25.484  1.00  0.00     0.207 C 
ATOM     78  C   UNL A   1      33.896  24.454  26.001  1.00  0.00     0.045 C 
ATOM     79  O   UNL A   1      32.491  22.665  25.290  1.00  0.00    -0.363 OA
ATOM     80  C   UNL A   1      34.371  23.166  26.625  1.00  0.00     0.037 C 
ATOM     81  C   UNL A   1      33.769  22.134  25.686  1.00  0.00     0.138 C 
BRANCH  81  82
ATOM     82  C   UNL A   1      33.631  20.731  26.297  1.00  0.00     0.148 C 
BRANCH  82  83
ATOM     83  N   UNL A   1      32.599  19.978  25.611  1.00  0.00    -0.352 N 
ATOM     84  H   UNL A   1      31.700  20.365  25.498  1.00  0.00     0.163 HD
BRANCH  83  85
ATOM     85  C   UNL A   1      32.872  18.730  25.118  1.00  0.00     0.222 A 
ATOM     86  N   UNL A   1      32.529  17.703  25.910  1.00  0.00    -0.222 NA
ATOM     87  N   UNL A   1      33.436  18.583  23.914  1.00  0.00    -0.222 NA
ATOM     88  C   UNL A   1      32.757  16.465  25.433  1.00  0.00     0.117 A 
ATOM     89  C   UNL A   1      33.673  17.328  23.492  1.00  0.00     0.117 A 
ATOM     90  C   UNL A   1      33.340  16.214  24.217  1.00  0.00     0.040 A 
ENDBRANCH  83  85
ENDBRANCH  82  83
ENDBRANCH  81  82
ENDBRANCH  74  77
ENDBRANCH  72  73
ENDBRANCH   1  72
TORSDOF 16
ENDMDL
MODEL 2
REMARK VINA RESULT:     -11.5      4.887     10.376
REMARK SMILES O=C(NCCCNC(=O)[C@H]1CC[C@@H](CNc2ncccn2)O1)c1ccc(-c2c3nc(c(-c4cc(S(=O)(=O)[O-])ccc4F)c4ccc([nH]4)c(-c4cc(S(=O)(=O)[O-])ccc4F)c4nc(c(-c5cc(S(=O)(=O)[O-])ccc5F)c5ccc2[nH]5)C=C4)C=C3)cc1
REMARK SMILES IDX 5 1 4 2 3 3 1 4 2 5 23 7 24 8 85 9 25 10 84 11 26 12 27 13
REMARK SMILES IDX 28 14 78 15 29 16 83 17 77 18 79 19 30 20 82 21 76 22 75 23
REMARK SMILES IDX 31 25 63 26 43 27 62 28 44 29 47 30 61 31 80 32 45 33 46 34
REMARK SMILES IDX 60 36 81 37 48 38 32 39 33 40 41 41 34 42 40 43 42 44 39 45
REMARK SMILES IDX 35 46 36 47 37 48 38 49 64 50 65 51 73 52 66 53 72 54 74 55
REMARK SMILES IDX 71 56 67 57 68 58 69 59 70 60 49 61 50 62 58 63 51 64 57 65
REMARK SMILES IDX 59 66 56 67 52 68 53 69 54 70 55 71 6 72 7 73 8 74 9 76
REMARK SMILES IDX 10 77 11 78 22 79 12 80 13 81 14 82 15 83 16 85 17 86 21 87
REMARK SMILES IDX 18 88 20 89 19 90
REMARK H PARENT 3 6 79 24 47 35 7 75 15 84
REMARK Flexibility Score: inf
ROOT
ATOM      1  C   UNL A   1      34.578  21.639  26.613  1.00  0.00     0.042 C 
ENDROOT
BRANCH   1   2
ATOM      2  C   UNL A   1      35.935  22.186  26.183  1.00  0.00     0.118 C 
BRANCH   2   3
ATOM      3  N   UNL A   1      36.903  21.135  25.884  1.00  0.00    -0.352 N 
ATOM      4  O   UNL A   1      38.894  20.208  25.403  1.00  0.00    -0.269 OA
ATOM      5  C   UNL A   1      38.277  21.170  25.856  1.00  0.00     0.251 C 
ATOM      6  H   UNL A   1      36.508  20.260  25.667  1.00  0.00     0.163 HD
BRANCH   5   7
ATOM      7  C   UNL A   1      39.011  22.355  26.352  1.00  0.00     0.039 A 
ATOM      8  C   UNL A   1      38.623  23.640  25.972  1.00  0.00     0.014 A 
ATOM      9  C   UNL A   1      40.081  22.185  27.238  1.00  0.00     0.014 A 
ATOM     10  C   UNL A   1      39.398  24.733  26.339  1.00  0.00     0.010 A 
ATOM     11  C   UNL A   1      40.798  23.299  27.692  1.00  0.00     0.010 A 
ATOM     12  C   UNL A   1      40.481  24.582  27.221  1.00  0.00    -0.014 A 
BRANCH  12  13
ATOM     13  C   UNL A   1      41.202  25.803  27.670  1.00  0.00     0.031 A 
ATOM     14  C   UNL A   1      42.621  26.075  27.252  1.00  0.00     0.074 A 
ATOM     15  C   UNL A   1      40.522  26.708  28.402  1.00  0.00     0.049 A 
ATOM     16  N   UNL A   1      43.357  27.131  27.486  1.00  0.00    -0.248 NA
ATOM     17  C   UNL A   1      43.305  25.026  26.482  1.00  0.00     0.031 C 
ATOM     18  C   UNL A   1      39.146  26.535  28.882  1.00  0.00     0.029 A 
ATOM     19  N   UNL A   1      40.866  27.961  28.839  1.00  0.00    -0.354 N 
ATOM     20  C   UNL A   1      44.592  26.878  26.898  1.00  0.00     0.074 A 
ATOM     21  C   UNL A   1      44.516  25.548  26.331  1.00  0.00     0.031 C 
ATOM     22  C   UNL A   1      38.743  27.662  29.481  1.00  0.00     0.029 A 
ATOM     23  C   UNL A   1      39.847  28.613  29.496  1.00  0.00     0.049 A 
ATOM     24  H   UNL A   1      41.756  28.356  28.697  1.00  0.00     0.167 HD
ATOM     25  C   UNL A   1      45.680  27.686  26.829  1.00  0.00     0.034 A 
ATOM     26  C   UNL A   1      39.807  29.835  30.060  1.00  0.00     0.034 A 
ATOM     27  C   UNL A   1      45.738  29.010  27.405  1.00  0.00     0.049 A 
ATOM     28  C   UNL A   1      41.032  30.704  29.975  1.00  0.00     0.074 A 
ATOM     29  C   UNL A   1      46.789  29.911  27.395  1.00  0.00     0.029 A 
ATOM     30  N   UNL A   1      44.701  29.625  28.096  1.00  0.00    -0.354 N 
ATOM     31  N   UNL A   1      42.187  30.445  29.407  1.00  0.00    -0.248 NA
ATOM     32  C   UNL A   1      40.945  32.029  30.597  1.00  0.00     0.031 C 
ATOM     33  C   UNL A   1      46.408  31.043  28.127  1.00  0.00     0.029 A 
ATOM     34  C   UNL A   1      45.095  30.881  28.535  1.00  0.00     0.049 A 
ATOM     35  H   UNL A   1      43.814  29.226  28.252  1.00  0.00     0.167 HD
ATOM     36  C   UNL A   1      42.966  31.581  29.605  1.00  0.00     0.074 A 
ATOM     37  C   UNL A   1      42.129  32.539  30.301  1.00  0.00     0.031 C 
ATOM     38  C   UNL A   1      44.257  31.810  29.255  1.00  0.00     0.034 A 
BRANCH  25  39
ATOM     39  C   UNL A   1      46.910  27.143  26.137  1.00  0.00     0.023 A 
ATOM     40  C   UNL A   1      47.916  26.461  26.842  1.00  0.00     0.031 A 
ATOM     41  C   UNL A   1      47.076  27.309  24.750  1.00  0.00     0.131 A 
ATOM     42  C   UNL A   1      49.067  26.018  26.171  1.00  0.00     0.055 A 
ATOM     43  C   UNL A   1      48.191  26.805  24.076  1.00  0.00     0.041 A 
ATOM     44  F   UNL A   1      46.159  27.970  24.025  1.00  0.00    -0.206 F 
ATOM     45  C   UNL A   1      49.200  26.164  24.788  1.00  0.00     0.022 A 
BRANCH  42  46
ATOM     46  S   UNL A   1      50.440  25.344  27.146  1.00  0.00     0.124 S 
ATOM     47  O   UNL A   1      51.401  24.995  26.103  1.00  0.00    -0.237 OA
ATOM     48  O   UNL A   1      50.804  26.469  27.999  1.00  0.00    -0.237 OA
ATOM     49  O   UNL A   1      49.843  24.204  27.839  1.00  0.00    -0.744 OA
ENDBRANCH  42  46
ENDBRANCH  25  39
BRANCH  26  50
ATOM     50  C   UNL A   1      38.585  30.290  30.784  1.00  0.00     0.023 A 
ATOM     51  C   UNL A   1      37.566  30.997  30.128  1.00  0.00     0.031 A 
ATOM     52  C   UNL A   1      38.441  30.055  32.165  1.00  0.00     0.131 A 
ATOM     53  C   UNL A   1      36.470  31.482  30.860  1.00  0.00     0.055 A 
ATOM     54  C   UNL A   1      37.322  30.486  32.875  1.00  0.00     0.041 A 
ATOM     55  F   UNL A   1      39.386  29.382  32.841  1.00  0.00    -0.206 F 
ATOM     56  C   UNL A   1      36.334  31.218  32.224  1.00  0.00     0.022 A 
BRANCH  53  57
ATOM     57  S   UNL A   1      35.271  32.552  30.021  1.00  0.00     0.124 S 
ATOM     58  O   UNL A   1      34.329  32.847  31.096  1.00  0.00    -0.237 OA
ATOM     59  O   UNL A   1      36.111  33.660  29.580  1.00  0.00    -0.237 OA
ATOM     60  O   UNL A   1      34.749  31.703  28.951  1.00  0.00    -0.744 OA
ENDBRANCH  53  57
ENDBRANCH  26  50
BRANCH  38  61
ATOM     61  C   UNL A   1      44.820  33.160  29.623  1.00  0.00     0.023 A 
ATOM     62  C   UNL A   1      44.734  34.253  28.740  1.00  0.00     0.031 A 
ATOM     63  C   UNL A   1      45.498  33.343  30.840  1.00  0.00     0.131 A 
ATOM     64  C   UNL A   1      45.384  35.456  29.053  1.00  0.00     0.055 A 
ATOM     65  C   UNL A   1      46.087  34.563  31.174  1.00  0.00     0.041 A 
ATOM     66  F   UNL A   1      45.612  32.333  31.717  1.00  0.00    -0.206 F 
ATOM     67  C   UNL A   1      46.047  35.623  30.270  1.00  0.00     0.022 A 
BRANCH  64  68
ATOM     68  S   UNL A   1      45.448  36.760  27.794  1.00  0.00     0.124 S 
ATOM     69  O   UNL A   1      44.058  36.829  27.358  1.00  0.00    -0.237 OA
ATOM     70  O   UNL A   1      45.935  37.905  28.556  1.00  0.00    -0.237 OA
ATOM     71  O   UNL A   1      46.384  36.233  26.802  1.00  0.00    -0.744 OA
ENDBRANCH  64  68
ENDBRANCH  38  61
ENDBRANCH  12  13
ENDBRANCH   5   7
ENDBRANCH   2   3
ENDBRANCH   1   2
BRANCH   1  72
ATOM     72  C   UNL A   1      33.976  22.372  27.805  1.00  0.00     0.117 C 
BRANCH  72  73
ATOM     73  N   UNL A   1      32.556  22.616  27.643  1.00  0.00    -0.354 N 
ATOM     74  C   UNL A   1      31.913  23.631  26.995  1.00  0.00     0.249 C 
ATOM     75  H   UNL A   1      31.967  21.951  28.065  1.00  0.00     0.163 HD
ATOM     76  O   UNL A   1      30.680  23.621  27.003  1.00  0.00    -0.272 OA
BRANCH  74  77
ATOM     77  C   UNL A   1      32.721  24.730  26.279  1.00  0.00     0.207 C 
ATOM     78  C   UNL A   1      33.095  24.280  24.872  1.00  0.00     0.045 C 
ATOM     79  O   UNL A   1      31.939  25.929  26.146  1.00  0.00    -0.363 OA
ATOM     80  C   UNL A   1      32.018  24.905  24.022  1.00  0.00     0.037 C 
ATOM     81  C   UNL A   1      31.786  26.221  24.745  1.00  0.00     0.138 C 
BRANCH  81  82
ATOM     82  C   UNL A   1      30.425  26.871  24.450  1.00  0.00     0.148 C 
BRANCH  82  83
ATOM     83  N   UNL A   1      30.357  27.301  23.067  1.00  0.00    -0.352 N 
ATOM     84  H   UNL A   1      30.899  26.845  22.383  1.00  0.00     0.163 HD
BRANCH  83  85
ATOM     85  C   UNL A   1      29.541  28.341  22.711  1.00  0.00     0.222 A 
ATOM     86  N   UNL A   1      28.298  28.305  23.213  1.00  0.00    -0.222 NA
ATOM     87  N   UNL A   1      29.994  29.320  21.919  1.00  0.00    -0.222 NA
ATOM     88  C   UNL A   1      27.487  29.334  22.904  1.00  0.00     0.117 A 
ATOM     89  C   UNL A   1      29.139  30.311  21.612  1.00  0.00     0.117 A 
ATOM     90  C   UNL A   1      27.856  30.376  22.092  1.00  0.00     0.040 A 
ENDBRANCH  83  85
ENDBRANCH  82  83
ENDBRANCH  81  82
ENDBRANCH  74  77
ENDBRANCH  72  73
ENDBRANCH   1  72
TORSDOF 16
ENDMDL
MODEL 3
REMARK VINA RESULT:     -11.4      5.265     10.657
REMARK SMILES O=C(NCCCNC(=O)[C@H]1CC[C@@H](CNc2ncccn2)O1)c1ccc(-c2c3nc(c(-c4cc(S(=O)(=O)[O-])ccc4F)c4ccc([nH]4)c(-c4cc(S(=O)(=O)[O-])ccc4F)c4nc(c(-c5cc(S(=O)(=O)[O-])ccc5F)c5ccc2[nH]5)C=C4)C=C3)cc1
REMARK SMILES IDX 5 1 4 2 3 3 1 4 2 5 23 7 24 8 85 9 25 10 84 11 26 12 27 13
REMARK SMILES IDX 28 14 78 15 29 16 83 17 77 18 79 19 30 20 82 21 76 22 75 23
REMARK SMILES IDX 31 25 63 26 43 27 62 28 44 29 47 30 61 31 80 32 45 33 46 34
REMARK SMILES IDX 60 36 81 37 48 38 32 39 33 40 41 41 34 42 40 43 42 44 39 45
REMARK SMILES IDX 35 46 36 47 37 48 38 49 64 50 65 51 73 52 66 53 72 54 74 55
REMARK SMILES IDX 71 56 67 57 68 58 69 59 70 60 49 61 50 62 58 63 51 64 57 65
REMARK SMILES IDX 59 66 56 67 52 68 53 69 54 70 55 71 6 72 7 73 8 74 9 76
REMARK SMILES IDX 10 77 11 78 22 79 12 80 13 81 14 82 15 83 16 85 17 86 21 87
REMARK SMILES IDX 18 88 20 89 19 90
REMARK H PARENT 3 6 79 24 47 35 7 75 15 84
REMARK Flexibility Score: inf
ROOT
ATOM      1  C   UNL A   1      34.944  22.255  26.523  1.00  0.00     0.042 C 
ENDROOT
BRANCH   1   2
ATOM      2  C   UNL A   1      36.254  22.611  25.828  1.00  0.00     0.118 C 
BRANCH   2   3
ATOM      3  N   UNL A   1      37.201  21.500  25.793  1.00  0.00    -0.352 N 
ATOM      4  O   UNL A   1      39.191  20.455  25.741  1.00  0.00    -0.269 OA
ATOM      5  C   UNL A   1      38.560  21.480  25.994  1.00  0.00     0.251 C 
ATOM      6  H   UNL A   1      36.800  20.623  25.592  1.00  0.00     0.163 HD
BRANCH   5   7
ATOM      7  C   UNL A   1      39.265  22.680  26.499  1.00  0.00     0.039 A 
ATOM      8  C   UNL A   1      38.902  23.953  26.060  1.00  0.00     0.014 A 
ATOM      9  C   UNL A   1      40.280  22.536  27.451  1.00  0.00     0.014 A 
ATOM     10  C   UNL A   1      39.655  25.056  26.440  1.00  0.00     0.010 A 
ATOM     11  C   UNL A   1      40.971  23.663  27.913  1.00  0.00     0.010 A 
ATOM     12  C   UNL A   1      40.684  24.931  27.388  1.00  0.00    -0.014 A 
BRANCH  12  13
ATOM     13  C   UNL A   1      41.379  26.165  27.844  1.00  0.00     0.031 A 
ATOM     14  C   UNL A   1      42.781  26.484  27.403  1.00  0.00     0.074 A 
ATOM     15  C   UNL A   1      40.688  27.038  28.603  1.00  0.00     0.049 A 
ATOM     16  N   UNL A   1      43.491  27.558  27.640  1.00  0.00    -0.248 NA
ATOM     17  C   UNL A   1      43.479  25.469  26.602  1.00  0.00     0.031 C 
ATOM     18  C   UNL A   1      39.327  26.818  29.106  1.00  0.00     0.029 A 
ATOM     19  N   UNL A   1      41.005  28.294  29.054  1.00  0.00    -0.354 N 
ATOM     20  C   UNL A   1      44.721  27.349  27.024  1.00  0.00     0.074 A 
ATOM     21  C   UNL A   1      44.672  26.027  26.437  1.00  0.00     0.031 C 
ATOM     22  C   UNL A   1      38.903  27.924  29.732  1.00  0.00     0.029 A 
ATOM     23  C   UNL A   1      39.981  28.906  29.741  1.00  0.00     0.049 A 
ATOM     24  H   UNL A   1      41.880  28.716  28.902  1.00  0.00     0.167 HD
ATOM     25  C   UNL A   1      45.784  28.189  26.948  1.00  0.00     0.034 A 
ATOM     26  C   UNL A   1      39.916  30.117  30.326  1.00  0.00     0.034 A 
ATOM     27  C   UNL A   1      45.815  29.505  27.545  1.00  0.00     0.049 A 
ATOM     28  C   UNL A   1      41.114  31.022  30.232  1.00  0.00     0.074 A 
ATOM     29  C   UNL A   1      46.840  30.436  27.530  1.00  0.00     0.029 A 
ATOM     30  N   UNL A   1      44.775  30.078  28.266  1.00  0.00    -0.354 N 
ATOM     31  N   UNL A   1      42.266  30.805  29.638  1.00  0.00    -0.248 NA
ATOM     32  C   UNL A   1      41.002  32.334  30.878  1.00  0.00     0.031 C 
ATOM     33  C   UNL A   1      46.442  31.545  28.287  1.00  0.00     0.029 A 
ATOM     34  C   UNL A   1      45.142  31.339  28.717  1.00  0.00     0.049 A 
ATOM     35  H   UNL A   1      43.903  29.652  28.432  1.00  0.00     0.167 HD
ATOM     36  C   UNL A   1      43.015  31.959  29.840  1.00  0.00     0.074 A 
ATOM     37  C   UNL A   1      42.166  32.882  30.568  1.00  0.00     0.031 C 
ATOM     38  C   UNL A   1      44.292  32.231  29.469  1.00  0.00     0.034 A 
BRANCH  25  39
ATOM     39  C   UNL A   1      47.015  27.693  26.224  1.00  0.00     0.023 A 
ATOM     40  C   UNL A   1      47.231  27.961  24.861  1.00  0.00     0.031 A 
ATOM     41  C   UNL A   1      47.988  26.942  26.909  1.00  0.00     0.131 A 
ATOM     42  C   UNL A   1      48.362  27.438  24.214  1.00  0.00     0.055 A 
ATOM     43  C   UNL A   1      49.145  26.483  26.275  1.00  0.00     0.041 A 
ATOM     44  F   UNL A   1      47.828  26.637  28.206  1.00  0.00    -0.206 F 
ATOM     45  C   UNL A   1      49.332  26.721  24.917  1.00  0.00     0.022 A 
BRANCH  42  46
ATOM     46  S   UNL A   1      48.494  27.613  22.413  1.00  0.00     0.124 S 
ATOM     47  O   UNL A   1      48.566  26.219  21.984  1.00  0.00    -0.237 OA
ATOM     48  O   UNL A   1      47.266  28.323  22.073  1.00  0.00    -0.237 OA
ATOM     49  O   UNL A   1      49.726  28.378  22.231  1.00  0.00    -0.744 OA
ENDBRANCH  42  46
ENDBRANCH  25  39
BRANCH  26  50
ATOM     50  C   UNL A   1      38.697  30.525  31.081  1.00  0.00     0.023 A 
ATOM     51  C   UNL A   1      37.625  31.171  30.446  1.00  0.00     0.031 A 
ATOM     52  C   UNL A   1      38.607  30.306  32.468  1.00  0.00     0.131 A 
ATOM     53  C   UNL A   1      36.530  31.615  31.204  1.00  0.00     0.055 A 
ATOM     54  C   UNL A   1      37.489  30.695  33.207  1.00  0.00     0.041 A 
ATOM     55  F   UNL A   1      39.602  29.690  33.125  1.00  0.00    -0.206 F 
ATOM     56  C   UNL A   1      36.448  31.368  32.576  1.00  0.00     0.022 A 
BRANCH  53  57
ATOM     57  S   UNL A   1      35.255  32.613  30.387  1.00  0.00     0.124 S 
ATOM     58  O   UNL A   1      34.253  32.740  31.439  1.00  0.00    -0.237 OA
ATOM     59  O   UNL A   1      35.991  33.827  30.051  1.00  0.00    -0.237 OA
ATOM     60  O   UNL A   1      34.860  31.789  29.246  1.00  0.00    -0.744 OA
ENDBRANCH  53  57
ENDBRANCH  26  50
BRANCH  38  61
ATOM     61  C   UNL A   1      44.824  33.591  29.848  1.00  0.00     0.023 A 
ATOM     62  C   UNL A   1      44.689  34.695  28.986  1.00  0.00     0.031 A 
ATOM     63  C   UNL A   1      45.521  33.774  31.055  1.00  0.00     0.131 A 
ATOM     64  C   UNL A   1      45.310  35.911  29.306  1.00  0.00     0.055 A 
ATOM     65  C   UNL A   1      46.081  35.005  31.398  1.00  0.00     0.041 A 
ATOM     66  F   UNL A   1      45.681  32.754  31.912  1.00  0.00    -0.206 F 
ATOM     67  C   UNL A   1      45.993  36.077  30.513  1.00  0.00     0.022 A 
BRANCH  64  68
ATOM     68  S   UNL A   1      45.312  37.237  28.068  1.00  0.00     0.124 S 
ATOM     69  O   UNL A   1      44.965  38.403  28.873  1.00  0.00    -0.237 OA
ATOM     70  O   UNL A   1      46.682  37.193  27.567  1.00  0.00    -0.237 OA
ATOM     71  O   UNL A   1      44.289  36.815  27.113  1.00  0.00    -0.744 OA
ENDBRANCH  64  68
ENDBRANCH  38  61
ENDBRANCH  12  13
ENDBRANCH   5   7
ENDBRANCH   2   3
ENDBRANCH   1   2
BRANCH   1  72
ATOM     72  C   UNL A   1      33.812  23.228  26.223  1.00  0.00     0.117 C 
BRANCH  72  73
ATOM     73  N   UNL A   1      33.905  23.790  24.890  1.00  0.00    -0.354 N 
ATOM     74  C   UNL A   1      33.454  24.988  24.415  1.00  0.00     0.249 C 
ATOM     75  H   UNL A   1      34.362  23.224  24.228  1.00  0.00     0.163 HD
ATOM     76  O   UNL A   1      33.652  25.239  23.223  1.00  0.00    -0.272 OA
BRANCH  74  77
ATOM     77  C   UNL A   1      32.736  25.975  25.353  1.00  0.00     0.207 C 
ATOM     78  C   UNL A   1      33.697  27.064  25.812  1.00  0.00     0.045 C 
ATOM     79  O   UNL A   1      31.652  26.627  24.670  1.00  0.00    -0.363 OA
ATOM     80  C   UNL A   1      33.406  28.193  24.855  1.00  0.00     0.037 C 
ATOM     81  C   UNL A   1      31.908  28.044  24.655  1.00  0.00     0.138 C 
BRANCH  81  82
ATOM     82  C   UNL A   1      31.374  28.700  23.372  1.00  0.00     0.148 C 
BRANCH  82  83
ATOM     83  N   UNL A   1      29.940  28.890  23.458  1.00  0.00    -0.352 N 
ATOM     84  H   UNL A   1      29.379  28.213  23.903  1.00  0.00     0.163 HD
BRANCH  83  85
ATOM     85  C   UNL A   1      29.362  30.010  22.922  1.00  0.00     0.222 A 
ATOM     86  N   UNL A   1      29.060  29.942  21.617  1.00  0.00    -0.222 NA
ATOM     87  N   UNL A   1      29.120  31.082  23.686  1.00  0.00    -0.222 NA
ATOM     88  C   UNL A   1      28.461  31.019  21.076  1.00  0.00     0.117 A 
ATOM     89  C   UNL A   1      28.549  32.145  23.094  1.00  0.00     0.117 A 
ATOM     90  C   UNL A   1      28.182  32.167  21.774  1.00  0.00     0.040 A 
ENDBRANCH  83  85
ENDBRANCH  82  83
ENDBRANCH  81  82
ENDBRANCH  74  77
ENDBRANCH  72  73
ENDBRANCH   1  72
TORSDOF 16
ENDMDL
