MODEL 1
REMARK VINA RESULT:     -10.9      0.000      0.000
REMARK SMILES CC[C@@H]1CCCN1C(=O)N(CC(=O)NCCCNC(=O)c1ccc(-c2c3nc(c(-c4cc(S(=O)(=O)[O-])ccc4F)c4ccc([nH]4)c(-c4cc(S(=O)(=O)[O-])ccc4F)c4nc(c(-c5cc(S(=O)(=O)[O-])ccc5F)c5ccc2[nH]5)C=C4)C=C3)cc1)CC(F)(F)F
REMARK SMILES IDX 15 1 14 2 12 3 13 4 11 6 10 7 8 8 9 9 7 10 3 11 4 12 5 13
REMARK SMILES IDX 6 14 2 15 1 16 84 17 85 18 86 19 87 20 88 21 16 22 17 23
REMARK SMILES IDX 18 24 19 25 20 27 21 28 22 29 83 30 23 31 82 32 24 33 25 34
REMARK SMILES IDX 26 35 76 36 27 37 81 38 75 39 77 40 28 41 80 42 74 43 73 44
REMARK SMILES IDX 29 46 61 47 41 48 60 49 42 50 45 51 59 52 78 53 43 54 44 55
REMARK SMILES IDX 58 57 79 58 46 59 30 60 31 61 39 62 32 63 38 64 40 65 37 66
REMARK SMILES IDX 33 67 34 68 35 69 36 70 62 71 63 72 71 73 64 74 70 75 72 76
REMARK SMILES IDX 69 77 65 78 66 79 67 80 68 81 47 82 48 83 56 84 49 85 55 86
REMARK SMILES IDX 57 87 54 88 50 89 51 90 52 91 53 92
REMARK H PARENT 14 5 18 26 77 45 45 56
REMARK Flexibility Score: inf
ROOT
ATOM      1  C   UNL A   1      33.997  21.412  24.434  1.00  0.00     0.117 C 
ENDROOT
BRANCH   1   2
ATOM      2  N   UNL A   1      32.966  21.921  25.319  1.00  0.00    -0.354 N 
ATOM      3  C   UNL A   1      31.885  22.707  25.084  1.00  0.00     0.239 C 
ATOM      4  O   UNL A   1      31.070  22.825  26.007  1.00  0.00    -0.273 OA
ATOM      5  H   UNL A   1      33.069  21.648  26.259  1.00  0.00     0.163 HD
BRANCH   3   6
ATOM      6  C   UNL A   1      31.531  23.249  23.695  1.00  0.00     0.221 C 
BRANCH   6   7
ATOM      7  N   UNL A   1      31.805  24.612  23.295  1.00  0.00    -0.306 N 
BRANCH   7   8
ATOM      8  C   UNL A   1      33.004  25.250  23.108  1.00  0.00     0.321 C 
ATOM      9  O   UNL A   1      33.859  24.620  22.467  1.00  0.00    -0.248 OA
BRANCH   8  10
ATOM     10  N   UNL A   1      33.274  26.562  23.457  1.00  0.00    -0.322 N 
ATOM     11  C   UNL A   1      33.881  27.317  24.599  1.00  0.00     0.086 C 
ATOM     12  C   UNL A   1      33.742  28.783  24.131  1.00  0.00     0.027 C 
ATOM     13  C   UNL A   1      34.096  28.707  22.671  1.00  0.00     0.024 C 
ATOM     14  C   UNL A   1      33.445  27.405  22.249  1.00  0.00     0.122 C 
BRANCH  11  15
ATOM     15  C   UNL A   1      33.522  27.282  26.097  1.00  0.00     0.022 C 
ATOM     16  C   UNL A   1      33.926  28.478  26.947  1.00  0.00     0.006 C 
ENDBRANCH  11  15
ENDBRANCH   8  10
ENDBRANCH   7   8
BRANCH   7  17
ATOM     17  C   UNL A   1      30.589  25.474  23.191  1.00  0.00     0.237 C 
BRANCH  17  18
ATOM     18  C   UNL A   1      30.151  26.213  24.465  1.00  0.00     0.406 C 
ATOM     19  F   UNL A   1      28.855  26.022  24.778  1.00  0.00    -0.169 F 
ATOM     20  F   UNL A   1      30.895  25.807  25.522  1.00  0.00    -0.169 F 
ATOM     21  F   UNL A   1      30.352  27.545  24.341  1.00  0.00    -0.169 F 
ENDBRANCH  17  18
ENDBRANCH   7  17
ENDBRANCH   6   7
ENDBRANCH   3   6
ENDBRANCH   1   2
BRANCH   1  22
ATOM     22  C   UNL A   1      35.216  22.308  24.371  1.00  0.00     0.042 C 
BRANCH  22  23
ATOM     23  C   UNL A   1      36.121  22.164  25.578  1.00  0.00     0.118 C 
BRANCH  23  24
ATOM     24  N   UNL A   1      37.071  21.064  25.453  1.00  0.00    -0.352 N 
ATOM     25  C   UNL A   1      38.427  21.065  25.685  1.00  0.00     0.251 C 
ATOM     26  H   UNL A   1      36.690  20.205  25.161  1.00  0.00     0.163 HD
ATOM     27  O   UNL A   1      39.110  20.098  25.359  1.00  0.00    -0.269 OA
BRANCH  25  28
ATOM     28  C   UNL A   1      39.045  22.260  26.294  1.00  0.00     0.039 A 
ATOM     29  C   UNL A   1      40.174  22.118  27.101  1.00  0.00     0.014 A 
ATOM     30  C   UNL A   1      38.554  23.530  25.982  1.00  0.00     0.014 A 
ATOM     31  C   UNL A   1      40.863  23.259  27.520  1.00  0.00     0.010 A 
ATOM     32  C   UNL A   1      39.313  24.649  26.286  1.00  0.00     0.010 A 
ATOM     33  C   UNL A   1      40.469  24.531  27.072  1.00  0.00    -0.014 A 
BRANCH  33  34
ATOM     34  C   UNL A   1      41.219  25.761  27.434  1.00  0.00     0.031 A 
ATOM     35  C   UNL A   1      40.556  26.811  28.287  1.00  0.00     0.074 A 
ATOM     36  C   UNL A   1      42.449  25.978  26.927  1.00  0.00     0.049 A 
ATOM     37  N   UNL A   1      40.976  28.004  28.615  1.00  0.00    -0.248 NA
ATOM     38  C   UNL A   1      39.212  26.489  28.789  1.00  0.00     0.031 C 
ATOM     39  C   UNL A   1      43.175  25.066  26.038  1.00  0.00     0.029 A 
ATOM     40  N   UNL A   1      43.307  27.037  27.083  1.00  0.00    -0.354 N 
ATOM     41  C   UNL A   1      39.934  28.586  29.331  1.00  0.00     0.074 A 
ATOM     42  C   UNL A   1      38.835  27.646  29.306  1.00  0.00     0.031 C 
ATOM     43  C   UNL A   1      44.383  25.586  25.765  1.00  0.00     0.029 A 
ATOM     44  C   UNL A   1      44.501  26.887  26.416  1.00  0.00     0.049 A 
ATOM     45  H   UNL A   1      43.089  27.832  27.621  1.00  0.00     0.167 HD
ATOM     46  C   UNL A   1      39.908  29.775  29.982  1.00  0.00     0.034 A 
ATOM     47  C   UNL A   1      45.567  27.707  26.337  1.00  0.00     0.034 A 
ATOM     48  C   UNL A   1      41.028  30.682  30.021  1.00  0.00     0.049 A 
ATOM     49  C   UNL A   1      45.523  29.024  27.067  1.00  0.00     0.074 A 
ATOM     50  C   UNL A   1      41.148  31.881  30.702  1.00  0.00     0.029 A 
ATOM     51  N   UNL A   1      42.228  30.488  29.345  1.00  0.00    -0.354 N 
ATOM     52  N   UNL A   1      44.552  29.540  27.785  1.00  0.00    -0.248 NA
ATOM     53  C   UNL A   1      46.724  29.865  26.981  1.00  0.00     0.031 C 
ATOM     54  C   UNL A   1      42.394  32.438  30.391  1.00  0.00     0.029 A 
ATOM     55  C   UNL A   1      43.082  31.555  29.573  1.00  0.00     0.049 A 
ATOM     56  H   UNL A   1      42.440  29.705  28.787  1.00  0.00     0.167 HD
ATOM     57  C   UNL A   1      45.037  30.755  28.260  1.00  0.00     0.074 A 
ATOM     58  C   UNL A   1      46.389  30.886  27.757  1.00  0.00     0.031 C 
ATOM     59  C   UNL A   1      44.423  31.676  29.048  1.00  0.00     0.034 A 
BRANCH  46  60
ATOM     60  C   UNL A   1      38.619  30.150  30.678  1.00  0.00     0.023 A 
ATOM     61  C   UNL A   1      37.575  30.803  29.995  1.00  0.00     0.031 A 
ATOM     62  C   UNL A   1      38.457  29.928  32.057  1.00  0.00     0.131 A 
ATOM     63  C   UNL A   1      36.480  31.314  30.709  1.00  0.00     0.055 A 
ATOM     64  C   UNL A   1      37.314  30.349  32.743  1.00  0.00     0.041 A 
ATOM     65  F   UNL A   1      39.422  29.326  32.770  1.00  0.00    -0.206 F 
ATOM     66  C   UNL A   1      36.329  31.068  32.073  1.00  0.00     0.022 A 
BRANCH  63  67
ATOM     67  S   UNL A   1      35.367  32.470  29.862  1.00  0.00     0.124 S 
ATOM     68  O   UNL A   1      34.946  31.680  28.706  1.00  0.00    -0.237 OA
ATOM     69  O   UNL A   1      34.345  32.721  30.871  1.00  0.00    -0.237 OA
ATOM     70  O   UNL A   1      36.229  33.608  29.547  1.00  0.00    -0.744 OA
ENDBRANCH  63  67
ENDBRANCH  46  60
BRANCH  47  71
ATOM     71  C   UNL A   1      46.770  27.303  25.555  1.00  0.00     0.023 A 
ATOM     72  C   UNL A   1      46.944  27.739  24.232  1.00  0.00     0.031 A 
ATOM     73  C   UNL A   1      47.754  26.468  26.112  1.00  0.00     0.131 A 
ATOM     74  C   UNL A   1      48.061  27.312  23.496  1.00  0.00     0.055 A 
ATOM     75  C   UNL A   1      48.886  26.082  25.390  1.00  0.00     0.041 A 
ATOM     76  F   UNL A   1      47.639  26.032  27.375  1.00  0.00    -0.206 F 
ATOM     77  C   UNL A   1      49.039  26.497  24.071  1.00  0.00     0.022 A 
BRANCH  74  78
ATOM     78  S   UNL A   1      48.192  27.798  21.754  1.00  0.00     0.124 S 
ATOM     79  O   UNL A   1      46.922  28.485  21.541  1.00  0.00    -0.237 OA
ATOM     80  O   UNL A   1      49.383  28.641  21.761  1.00  0.00    -0.237 OA
ATOM     81  O   UNL A   1      48.339  26.524  21.054  1.00  0.00    -0.744 OA
ENDBRANCH  74  78
ENDBRANCH  47  71
BRANCH  59  82
ATOM     82  C   UNL A   1      45.235  32.884  29.443  1.00  0.00     0.023 A 
ATOM     83  C   UNL A   1      45.233  34.061  28.676  1.00  0.00     0.031 A 
ATOM     84  C   UNL A   1      46.030  32.849  30.604  1.00  0.00     0.131 A 
ATOM     85  C   UNL A   1      46.051  35.138  29.048  1.00  0.00     0.055 A 
ATOM     86  C   UNL A   1      46.796  33.946  31.000  1.00  0.00     0.041 A 
ATOM     87  F   UNL A   1      46.071  31.749  31.372  1.00  0.00    -0.206 F 
ATOM     88  C   UNL A   1      46.820  35.093  30.215  1.00  0.00     0.022 A 
BRANCH  85  89
ATOM     89  S   UNL A   1      46.168  36.568  27.938  1.00  0.00     0.124 S 
ATOM     90  O   UNL A   1      46.038  37.685  28.869  1.00  0.00    -0.237 OA
ATOM     91  O   UNL A   1      47.484  36.389  27.336  1.00  0.00    -0.237 OA
ATOM     92  O   UNL A   1      45.040  36.386  27.027  1.00  0.00    -0.744 OA
ENDBRANCH  85  89
ENDBRANCH  59  82
ENDBRANCH  33  34
ENDBRANCH  25  28
ENDBRANCH  23  24
ENDBRANCH  22  23
ENDBRANCH   1  22
TORSDOF 19
ENDMDL
MODEL 2
REMARK VINA RESULT:     -10.8      4.989      7.605
REMARK SMILES CC[C@@H]1CCCN1C(=O)N(CC(=O)NCCCNC(=O)c1ccc(-c2c3nc(c(-c4cc(S(=O)(=O)[O-])ccc4F)c4ccc([nH]4)c(-c4cc(S(=O)(=O)[O-])ccc4F)c4nc(c(-c5cc(S(=O)(=O)[O-])ccc5F)c5ccc2[nH]5)C=C4)C=C3)cc1)CC(F)(F)F
REMARK SMILES IDX 15 1 14 2 12 3 13 4 11 6 10 7 8 8 9 9 7 10 3 11 4 12 5 13
REMARK SMILES IDX 6 14 2 15 1 16 84 17 85 18 86 19 87 20 88 21 16 22 17 23
REMARK SMILES IDX 18 24 19 25 20 27 21 28 22 29 83 30 23 31 82 32 24 33 25 34
REMARK SMILES IDX 26 35 76 36 27 37 81 38 75 39 77 40 28 41 80 42 74 43 73 44
REMARK SMILES IDX 29 46 61 47 41 48 60 49 42 50 45 51 59 52 78 53 43 54 44 55
REMARK SMILES IDX 58 57 79 58 46 59 30 60 31 61 39 62 32 63 38 64 40 65 37 66
REMARK SMILES IDX 33 67 34 68 35 69 36 70 62 71 63 72 71 73 64 74 70 75 72 76
REMARK SMILES IDX 69 77 65 78 66 79 67 80 68 81 47 82 48 83 56 84 49 85 55 86
REMARK SMILES IDX 57 87 54 88 50 89 51 90 52 91 53 92
REMARK H PARENT 14 5 18 26 77 45 45 56
REMARK Flexibility Score: inf
ROOT
ATOM      1  C   UNL A   1      32.111  28.412  25.055  1.00  0.00     0.117 C 
ENDROOT
BRANCH   1   2
ATOM      2  N   UNL A   1      31.279  27.358  25.606  1.00  0.00    -0.354 N 
ATOM      3  C   UNL A   1      31.433  26.010  25.630  1.00  0.00     0.239 C 
ATOM      4  O   UNL A   1      30.648  25.371  26.341  1.00  0.00    -0.273 OA
ATOM      5  H   UNL A   1      30.455  27.678  26.038  1.00  0.00     0.163 HD
BRANCH   3   6
ATOM      6  C   UNL A   1      32.641  25.295  25.015  1.00  0.00     0.221 C 
BRANCH   6   7
ATOM      7  N   UNL A   1      32.575  24.595  23.751  1.00  0.00    -0.306 N 
BRANCH   7   8
ATOM      8  C   UNL A   1      33.436  23.677  23.209  1.00  0.00     0.321 C 
ATOM      9  O   UNL A   1      34.024  24.029  22.175  1.00  0.00    -0.248 OA
BRANCH   8  10
ATOM     10  N   UNL A   1      33.788  22.471  23.790  1.00  0.00    -0.322 N 
ATOM     11  C   UNL A   1      34.880  21.917  24.654  1.00  0.00     0.086 C 
ATOM     12  C   UNL A   1      34.466  20.435  24.793  1.00  0.00     0.027 C 
ATOM     13  C   UNL A   1      32.976  20.516  24.979  1.00  0.00     0.024 C 
ATOM     14  C   UNL A   1      32.591  21.627  24.023  1.00  0.00     0.122 C 
BRANCH  11  15
ATOM     15  C   UNL A   1      36.405  21.947  24.441  1.00  0.00     0.022 C 
ATOM     16  C   UNL A   1      37.283  22.187  25.662  1.00  0.00     0.006 C 
ENDBRANCH  11  15
ENDBRANCH   8  10
ENDBRANCH   7   8
BRANCH   7  17
ATOM     17  C   UNL A   1      31.460  25.041  22.863  1.00  0.00     0.237 C 
BRANCH  17  18
ATOM     18  C   UNL A   1      31.716  26.284  21.996  1.00  0.00     0.406 C 
ATOM     19  F   UNL A   1      32.900  26.876  22.242  1.00  0.00    -0.169 F 
ATOM     20  F   UNL A   1      31.685  25.953  20.683  1.00  0.00    -0.169 F 
ATOM     21  F   UNL A   1      30.747  27.208  22.185  1.00  0.00    -0.169 F 
ENDBRANCH  17  18
ENDBRANCH   7  17
ENDBRANCH   6   7
ENDBRANCH   3   6
ENDBRANCH   1   2
BRANCH   1  22
ATOM     22  C   UNL A   1      31.618  29.798  25.409  1.00  0.00     0.042 C 
BRANCH  22  23
ATOM     23  C   UNL A   1      32.156  30.300  26.734  1.00  0.00     0.118 C 
BRANCH  23  24
ATOM     24  N   UNL A   1      32.122  31.754  26.851  1.00  0.00    -0.352 N 
ATOM     25  C   UNL A   1      33.039  32.593  27.441  1.00  0.00     0.251 C 
ATOM     26  H   UNL A   1      31.337  32.194  26.454  1.00  0.00     0.163 HD
ATOM     27  O   UNL A   1      32.771  33.780  27.610  1.00  0.00    -0.269 OA
BRANCH  25  28
ATOM     28  C   UNL A   1      34.326  32.033  27.901  1.00  0.00     0.039 A 
ATOM     29  C   UNL A   1      35.400  32.887  28.151  1.00  0.00     0.014 A 
ATOM     30  C   UNL A   1      34.430  30.667  28.172  1.00  0.00     0.014 A 
ATOM     31  C   UNL A   1      36.550  32.379  28.760  1.00  0.00     0.010 A 
ATOM     32  C   UNL A   1      35.514  30.196  28.895  1.00  0.00     0.010 A 
ATOM     33  C   UNL A   1      36.596  31.041  29.186  1.00  0.00    -0.014 A 
BRANCH  33  34
ATOM     34  C   UNL A   1      37.770  30.482  29.905  1.00  0.00     0.031 A 
ATOM     35  C   UNL A   1      38.022  30.878  31.336  1.00  0.00     0.074 A 
ATOM     36  C   UNL A   1      38.652  29.698  29.253  1.00  0.00     0.049 A 
ATOM     37  N   UNL A   1      39.044  30.611  32.106  1.00  0.00    -0.248 NA
ATOM     38  C   UNL A   1      37.008  31.741  31.961  1.00  0.00     0.031 C 
ATOM     39  C   UNL A   1      38.553  29.292  27.848  1.00  0.00     0.029 A 
ATOM     40  N   UNL A   1      39.811  29.105  29.686  1.00  0.00    -0.354 N 
ATOM     41  C   UNL A   1      38.810  31.301  33.292  1.00  0.00     0.074 A 
ATOM     42  C   UNL A   1      37.599  32.067  33.098  1.00  0.00     0.031 C 
ATOM     43  C   UNL A   1      39.583  28.483  27.551  1.00  0.00     0.029 A 
ATOM     44  C   UNL A   1      40.441  28.350  28.724  1.00  0.00     0.049 A 
ATOM     45  H   UNL A   1      40.160  29.210  30.600  1.00  0.00     0.167 HD
ATOM     46  C   UNL A   1      39.518  31.270  34.448  1.00  0.00     0.034 A 
ATOM     47  C   UNL A   1      41.582  27.636  28.781  1.00  0.00     0.034 A 
ATOM     48  C   UNL A   1      40.705  30.473  34.630  1.00  0.00     0.049 A 
ATOM     49  C   UNL A   1      42.356  27.610  30.073  1.00  0.00     0.074 A 
ATOM     50  C   UNL A   1      41.468  30.303  35.772  1.00  0.00     0.029 A 
ATOM     51  N   UNL A   1      41.305  29.708  33.635  1.00  0.00    -0.354 N 
ATOM     52  N   UNL A   1      42.097  28.224  31.204  1.00  0.00    -0.248 NA
ATOM     53  C   UNL A   1      43.571  26.787  30.097  1.00  0.00     0.031 C 
ATOM     54  C   UNL A   1      42.559  29.487  35.452  1.00  0.00     0.029 A 
ATOM     55  C   UNL A   1      42.441  29.087  34.130  1.00  0.00     0.049 A 
ATOM     56  H   UNL A   1      40.971  29.620  32.713  1.00  0.00     0.167 HD
ATOM     57  C   UNL A   1      43.104  27.839  32.084  1.00  0.00     0.074 A 
ATOM     58  C   UNL A   1      43.965  26.930  31.354  1.00  0.00     0.031 C 
ATOM     59  C   UNL A   1      43.296  28.196  33.381  1.00  0.00     0.034 A 
BRANCH  46  60
ATOM     60  C   UNL A   1      39.022  32.140  35.582  1.00  0.00     0.023 A 
ATOM     61  C   UNL A   1      39.428  33.482  35.714  1.00  0.00     0.031 A 
ATOM     62  C   UNL A   1      38.199  31.606  36.589  1.00  0.00     0.131 A 
ATOM     63  C   UNL A   1      39.113  34.200  36.877  1.00  0.00     0.055 A 
ATOM     64  C   UNL A   1      37.803  32.362  37.696  1.00  0.00     0.041 A 
ATOM     65  F   UNL A   1      37.791  30.329  36.532  1.00  0.00    -0.206 F 
ATOM     66  C   UNL A   1      38.281  33.659  37.857  1.00  0.00     0.022 A 
BRANCH  63  67
ATOM     67  S   UNL A   1      39.972  35.771  37.176  1.00  0.00     0.124 S 
ATOM     68  O   UNL A   1      39.677  36.506  35.947  1.00  0.00    -0.237 OA
ATOM     69  O   UNL A   1      39.323  36.261  38.386  1.00  0.00    -0.237 OA
ATOM     70  O   UNL A   1      41.370  35.374  37.333  1.00  0.00    -0.744 OA
ENDBRANCH  63  67
ENDBRANCH  46  60
BRANCH  47  71
ATOM     71  C   UNL A   1      42.053  26.874  27.590  1.00  0.00     0.023 A 
ATOM     72  C   UNL A   1      41.847  25.489  27.498  1.00  0.00     0.031 A 
ATOM     73  C   UNL A   1      42.726  27.514  26.534  1.00  0.00     0.131 A 
ATOM     74  C   UNL A   1      42.337  24.780  26.390  1.00  0.00     0.055 A 
ATOM     75  C   UNL A   1      43.173  26.812  25.414  1.00  0.00     0.041 A 
ATOM     76  F   UNL A   1      42.940  28.838  26.570  1.00  0.00    -0.206 F 
ATOM     77  C   UNL A   1      42.988  25.435  25.341  1.00  0.00     0.022 A 
BRANCH  74  78
ATOM     78  S   UNL A   1      42.157  22.976  26.362  1.00  0.00     0.124 S 
ATOM     79  O   UNL A   1      43.061  22.570  27.433  1.00  0.00    -0.237 OA
ATOM     80  O   UNL A   1      40.732  22.808  26.628  1.00  0.00    -0.237 OA
ATOM     81  O   UNL A   1      42.582  22.611  25.012  1.00  0.00    -0.744 OA
ENDBRANCH  74  78
ENDBRANCH  47  71
BRANCH  59  82
ATOM     82  C   UNL A   1      44.464  27.563  34.096  1.00  0.00     0.023 A 
ATOM     83  C   UNL A   1      44.360  26.306  34.716  1.00  0.00     0.031 A 
ATOM     84  C   UNL A   1      45.698  28.237  34.164  1.00  0.00     0.131 A 
ATOM     85  C   UNL A   1      45.454  25.784  35.423  1.00  0.00     0.055 A 
ATOM     86  C   UNL A   1      46.799  27.685  34.818  1.00  0.00     0.041 A 
ATOM     87  F   UNL A   1      45.852  29.441  33.591  1.00  0.00    -0.206 F 
ATOM     88  C   UNL A   1      46.677  26.458  35.463  1.00  0.00     0.022 A 
BRANCH  85  89
ATOM     89  S   UNL A   1      45.230  24.251  36.366  1.00  0.00     0.124 S 
ATOM     90  O   UNL A   1      43.843  23.910  36.065  1.00  0.00    -0.237 OA
ATOM     91  O   UNL A   1      46.244  23.377  35.786  1.00  0.00    -0.237 OA
ATOM     92  O   UNL A   1      45.482  24.659  37.747  1.00  0.00    -0.744 OA
ENDBRANCH  85  89
ENDBRANCH  59  82
ENDBRANCH  33  34
ENDBRANCH  25  28
ENDBRANCH  23  24
ENDBRANCH  22  23
ENDBRANCH   1  22
TORSDOF 19
ENDMDL
MODEL 3
REMARK VINA RESULT:     -10.8      2.277      7.932
REMARK SMILES CC[C@@H]1CCCN1C(=O)N(CC(=O)NCCCNC(=O)c1ccc(-c2c3nc(c(-c4cc(S(=O)(=O)[O-])ccc4F)c4ccc([nH]4)c(-c4cc(S(=O)(=O)[O-])ccc4F)c4nc(c(-c5cc(S(=O)(=O)[O-])ccc5F)c5ccc2[nH]5)C=C4)C=C3)cc1)CC(F)(F)F
REMARK SMILES IDX 15 1 14 2 12 3 13 4 11 6 10 7 8 8 9 9 7 10 3 11 4 12 5 13
REMARK SMILES IDX 6 14 2 15 1 16 84 17 85 18 86 19 87 20 88 21 16 22 17 23
REMARK SMILES IDX 18 24 19 25 20 27 21 28 22 29 83 30 23 31 82 32 24 33 25 34
REMARK SMILES IDX 26 35 76 36 27 37 81 38 75 39 77 40 28 41 80 42 74 43 73 44
REMARK SMILES IDX 29 46 61 47 41 48 60 49 42 50 45 51 59 52 78 53 43 54 44 55
REMARK SMILES IDX 58 57 79 58 46 59 30 60 31 61 39 62 32 63 38 64 40 65 37 66
REMARK SMILES IDX 33 67 34 68 35 69 36 70 62 71 63 72 71 73 64 74 70 75 72 76
REMARK SMILES IDX 69 77 65 78 66 79 67 80 68 81 47 82 48 83 56 84 49 85 55 86
REMARK SMILES IDX 57 87 54 88 50 89 51 90 52 91 53 92
REMARK H PARENT 14 5 18 26 77 45 45 56
REMARK Flexibility Score: inf
ROOT
ATOM      1  C   UNL A   1      34.856  23.982  25.983  1.00  0.00     0.117 C 
ENDROOT
BRANCH   1   2
ATOM      2  N   UNL A   1      33.633  23.809  26.744  1.00  0.00    -0.354 N 
ATOM      3  C   UNL A   1      32.357  23.562  26.353  1.00  0.00     0.239 C 
ATOM      4  O   UNL A   1      31.547  23.274  27.242  1.00  0.00    -0.273 OA
ATOM      5  H   UNL A   1      33.749  23.885  27.718  1.00  0.00     0.163 HD
BRANCH   3   6
ATOM      6  C   UNL A   1      31.947  23.408  24.885  1.00  0.00     0.221 C 
BRANCH   6   7
ATOM      7  N   UNL A   1      31.897  24.524  23.966  1.00  0.00    -0.306 N 
BRANCH   7   8
ATOM      8  C   UNL A   1      32.918  25.232  23.387  1.00  0.00     0.321 C 
ATOM      9  O   UNL A   1      33.535  24.651  22.480  1.00  0.00    -0.248 OA
BRANCH   8  10
ATOM     10  N   UNL A   1      33.213  26.561  23.640  1.00  0.00    -0.322 N 
ATOM     11  C   UNL A   1      33.896  27.377  24.694  1.00  0.00     0.086 C 
ATOM     12  C   UNL A   1      33.730  28.815  24.151  1.00  0.00     0.027 C 
ATOM     13  C   UNL A   1      33.988  28.651  22.678  1.00  0.00     0.024 C 
ATOM     14  C   UNL A   1      33.308  27.331  22.376  1.00  0.00     0.122 C 
BRANCH  11  15
ATOM     15  C   UNL A   1      33.634  27.431  26.211  1.00  0.00     0.022 C 
ATOM     16  C   UNL A   1      33.695  28.793  26.889  1.00  0.00     0.006 C 
ENDBRANCH  11  15
ENDBRANCH   8  10
ENDBRANCH   7   8
BRANCH   7  17
ATOM     17  C   UNL A   1      30.521  25.049  23.716  1.00  0.00     0.237 C 
BRANCH  17  18
ATOM     18  C   UNL A   1      30.050  26.213  24.601  1.00  0.00     0.406 C 
ATOM     19  F   UNL A   1      30.620  26.227  25.820  1.00  0.00    -0.169 F 
ATOM     20  F   UNL A   1      30.326  27.397  24.003  1.00  0.00    -0.169 F 
ATOM     21  F   UNL A   1      28.709  26.172  24.773  1.00  0.00    -0.169 F 
ENDBRANCH  17  18
ENDBRANCH   7  17
ENDBRANCH   6   7
ENDBRANCH   3   6
ENDBRANCH   1   2
BRANCH   1  22
ATOM     22  C   UNL A   1      35.596  22.682  25.751  1.00  0.00     0.042 C 
BRANCH  22  23
ATOM     23  C   UNL A   1      36.993  22.884  25.197  1.00  0.00     0.118 C 
BRANCH  23  24
ATOM     24  N   UNL A   1      37.994  22.051  25.854  1.00  0.00    -0.352 N 
ATOM     25  C   UNL A   1      39.100  22.438  26.575  1.00  0.00     0.251 C 
ATOM     26  H   UNL A   1      37.860  21.080  25.770  1.00  0.00     0.163 HD
ATOM     27  O   UNL A   1      39.940  21.608  26.911  1.00  0.00    -0.269 OA
BRANCH  25  28
ATOM     28  C   UNL A   1      39.275  23.869  26.898  1.00  0.00     0.039 A 
ATOM     29  C   UNL A   1      39.014  24.321  28.192  1.00  0.00     0.014 A 
ATOM     30  C   UNL A   1      39.789  24.740  25.935  1.00  0.00     0.014 A 
ATOM     31  C   UNL A   1      39.357  25.629  28.541  1.00  0.00     0.010 A 
ATOM     32  C   UNL A   1      40.249  25.988  26.320  1.00  0.00     0.010 A 
ATOM     33  C   UNL A   1      40.026  26.457  27.624  1.00  0.00    -0.014 A 
BRANCH  33  34
ATOM     34  C   UNL A   1      40.475  27.827  27.980  1.00  0.00     0.031 A 
ATOM     35  C   UNL A   1      41.924  28.201  27.809  1.00  0.00     0.074 A 
ATOM     36  C   UNL A   1      39.611  28.700  28.536  1.00  0.00     0.049 A 
ATOM     37  N   UNL A   1      42.551  29.290  28.171  1.00  0.00    -0.248 NA
ATOM     38  C   UNL A   1      42.793  27.183  27.199  1.00  0.00     0.031 C 
ATOM     39  C   UNL A   1      38.196  28.436  28.812  1.00  0.00     0.029 A 
ATOM     40  N   UNL A   1      39.798  29.985  28.977  1.00  0.00    -0.354 N 
ATOM     41  C   UNL A   1      43.891  29.071  27.863  1.00  0.00     0.074 A 
ATOM     42  C   UNL A   1      43.991  27.714  27.374  1.00  0.00     0.031 C 
ATOM     43  C   UNL A   1      37.636  29.541  29.332  1.00  0.00     0.029 A 
ATOM     44  C   UNL A   1      38.657  30.573  29.473  1.00  0.00     0.049 A 
ATOM     45  H   UNL A   1      40.667  30.446  28.941  1.00  0.00     0.167 HD
ATOM     46  C   UNL A   1      44.935  29.933  27.945  1.00  0.00     0.034 A 
ATOM     47  C   UNL A   1      38.460  31.802  29.987  1.00  0.00     0.034 A 
ATOM     48  C   UNL A   1      44.805  31.293  28.405  1.00  0.00     0.049 A 
ATOM     49  C   UNL A   1      39.629  32.749  30.069  1.00  0.00     0.074 A 
ATOM     50  C   UNL A   1      45.772  32.282  28.467  1.00  0.00     0.029 A 
ATOM     51  N   UNL A   1      43.629  31.858  28.886  1.00  0.00    -0.354 N 
ATOM     52  N   UNL A   1      40.881  32.549  29.726  1.00  0.00    -0.248 NA
ATOM     53  C   UNL A   1      39.355  34.090  30.601  1.00  0.00     0.031 C 
ATOM     54  C   UNL A   1      45.196  33.422  29.040  1.00  0.00     0.029 A 
ATOM     55  C   UNL A   1      43.852  33.171  29.270  1.00  0.00     0.049 A 
ATOM     56  H   UNL A   1      42.763  31.393  28.944  1.00  0.00     0.167 HD
ATOM     57  C   UNL A   1      41.539  33.750  29.975  1.00  0.00     0.074 A 
ATOM     58  C   UNL A   1      40.541  34.670  30.484  1.00  0.00     0.031 C 
ATOM     59  C   UNL A   1      42.847  34.068  29.791  1.00  0.00     0.034 A 
BRANCH  46  60
ATOM     60  C   UNL A   1      46.294  29.407  27.542  1.00  0.00     0.023 A 
ATOM     61  C   UNL A   1      46.555  28.967  26.230  1.00  0.00     0.031 A 
ATOM     62  C   UNL A   1      47.320  29.264  28.493  1.00  0.00     0.131 A 
ATOM     63  C   UNL A   1      47.755  28.302  25.937  1.00  0.00     0.055 A 
ATOM     64  C   UNL A   1      48.553  28.694  28.168  1.00  0.00     0.041 A 
ATOM     65  F   UNL A   1      47.129  29.647  29.765  1.00  0.00    -0.206 F 
ATOM     66  C   UNL A   1      48.768  28.186  26.890  1.00  0.00     0.022 A 
BRANCH  63  67
ATOM     67  S   UNL A   1      47.886  27.420  24.356  1.00  0.00     0.124 S 
ATOM     68  O   UNL A   1      46.956  26.311  24.560  1.00  0.00    -0.237 OA
ATOM     69  O   UNL A   1      47.471  28.433  23.393  1.00  0.00    -0.237 OA
ATOM     70  O   UNL A   1      49.295  27.036  24.293  1.00  0.00    -0.744 OA
ENDBRANCH  63  67
ENDBRANCH  46  60
BRANCH  47  71
ATOM     71  C   UNL A   1      37.104  32.217  30.446  1.00  0.00     0.023 A 
ATOM     72  C   UNL A   1      36.206  32.836  29.562  1.00  0.00     0.031 A 
ATOM     73  C   UNL A   1      36.691  32.015  31.774  1.00  0.00     0.131 A 
ATOM     74  C   UNL A   1      34.951  33.261  30.024  1.00  0.00     0.055 A 
ATOM     75  C   UNL A   1      35.424  32.399  32.218  1.00  0.00     0.041 A 
ATOM     76  F   UNL A   1      37.509  31.420  32.656  1.00  0.00    -0.206 F 
ATOM     77  C   UNL A   1      34.549  33.036  31.343  1.00  0.00     0.022 A 
BRANCH  74  78
ATOM     78  S   UNL A   1      33.865  34.162  28.885  1.00  0.00     0.124 S 
ATOM     79  O   UNL A   1      32.828  34.652  29.787  1.00  0.00    -0.237 OA
ATOM     80  O   UNL A   1      34.767  35.171  28.338  1.00  0.00    -0.237 OA
ATOM     81  O   UNL A   1      33.437  33.135  27.938  1.00  0.00    -0.744 OA
ENDBRANCH  74  78
ENDBRANCH  47  71
BRANCH  59  82
ATOM     82  C   UNL A   1      43.255  35.486  30.107  1.00  0.00     0.023 A 
ATOM     83  C   UNL A   1      43.566  35.893  31.415  1.00  0.00     0.031 A 
ATOM     84  C   UNL A   1      43.322  36.445  29.080  1.00  0.00     0.131 A 
ATOM     85  C   UNL A   1      43.881  37.236  31.672  1.00  0.00     0.055 A 
ATOM     86  C   UNL A   1      43.693  37.766  29.333  1.00  0.00     0.041 A 
ATOM     87  F   UNL A   1      43.032  36.111  27.812  1.00  0.00    -0.206 F 
ATOM     88  C   UNL A   1      43.962  38.170  30.637  1.00  0.00     0.022 A 
BRANCH  85  89
ATOM     89  S   UNL A   1      44.095  37.766  33.394  1.00  0.00     0.124 S 
ATOM     90  O   UNL A   1      43.044  38.770  33.534  1.00  0.00    -0.237 OA
ATOM     91  O   UNL A   1      43.892  36.523  34.131  1.00  0.00    -0.237 OA
ATOM     92  O   UNL A   1      45.459  38.288  33.424  1.00  0.00    -0.744 OA
ENDBRANCH  85  89
ENDBRANCH  59  82
ENDBRANCH  33  34
ENDBRANCH  25  28
ENDBRANCH  23  24
ENDBRANCH  22  23
ENDBRANCH   1  22
TORSDOF 19
ENDMDL
