MODEL 1
REMARK VINA RESULT:     -10.4      0.000      0.000
REMARK SMILES C[C@@](O)(c1ccc(Cl)cc1Cl)[C@@H](F)C(=O)NCCCNC(=O)c1ccc(-c2c3nc(c(-c4cc(S(=O)(=O)[O-])ccc4F)c4ccc([nH]4)c(-c4cc(S(=O)(=O)[O-])ccc4F)c4nc(c(-c5cc(S(=O)(=O)[O-])ccc5F)c5ccc2[nH]5)C=C4)C=C3)cc1
REMARK SMILES IDX 18 1 17 2 16 3 14 4 15 5 12 7 13 8 2 9 1 10 3 11 4 13 5 14
REMARK SMILES IDX 10 15 6 16 9 17 11 18 7 19 8 20 19 21 20 22 21 23 22 25
REMARK SMILES IDX 23 26 24 27 85 28 25 29 84 30 26 31 27 32 28 33 78 34 29 35
REMARK SMILES IDX 83 36 77 37 79 38 30 39 82 40 76 41 75 42 31 44 63 45 43 46
REMARK SMILES IDX 62 47 44 48 47 49 61 50 80 51 45 52 46 53 60 55 81 56 48 57
REMARK SMILES IDX 32 58 33 59 41 60 34 61 40 62 42 63 39 64 35 65 36 66 37 67
REMARK SMILES IDX 38 68 64 69 65 70 73 71 66 72 72 73 74 74 71 75 67 76 68 77
REMARK SMILES IDX 69 78 70 79 49 80 50 81 58 82 51 83 57 84 59 85 56 86 52 87
REMARK SMILES IDX 53 88 54 89 55 90
REMARK H PARENT 16 6 3 12 20 24 79 43 47 54
REMARK Flexibility Score: inf
ROOT
ATOM      1  C   UNL A   1      33.314  34.280  28.886  1.00  0.00     0.042 C 
ENDROOT
BRANCH   1   2
ATOM      2  C   UNL A   1      33.903  35.112  30.022  1.00  0.00     0.117 C 
BRANCH   2   3
ATOM      3  N   UNL A   1      33.465  34.644  31.330  1.00  0.00    -0.353 N 
ATOM      4  C   UNL A   1      33.994  33.715  32.174  1.00  0.00     0.257 C 
ATOM      5  O   UNL A   1      33.320  33.407  33.165  1.00  0.00    -0.272 OA
ATOM      6  H   UNL A   1      32.644  35.074  31.662  1.00  0.00     0.163 HD
BRANCH   4   7
ATOM      7  C   UNL A   1      35.327  33.014  31.917  1.00  0.00     0.291 C 
ATOM      8  F   UNL A   1      35.288  31.662  32.083  1.00  0.00    -0.233 F 
BRANCH   7   9
ATOM      9  C   UNL A   1      36.479  33.627  32.771  1.00  0.00     0.128 C 
ATOM     10  C   UNL A   1      36.825  32.727  33.958  1.00  0.00     0.051 C 
BRANCH   9  11
ATOM     11  O   UNL A   1      36.043  34.877  33.361  1.00  0.00    -0.382 OA
ATOM     12  H   UNL A   1      36.179  35.599  32.727  1.00  0.00     0.212 HD
ENDBRANCH   9  11
BRANCH   9  13
ATOM     13  C   UNL A   1      37.641  34.018  31.830  1.00  0.00     0.005 A 
ATOM     14  C   UNL A   1      37.395  33.859  30.439  1.00  0.00     0.010 A 
ATOM     15  C   UNL A   1      38.924  34.484  32.189  1.00  0.00     0.048 A 
ATOM     16  C   UNL A   1      38.356  34.153  29.469  1.00  0.00     0.021 A 
ATOM     17  C   UNL A   1      39.880  34.800  31.207  1.00  0.00     0.041 A 
ATOM     18  Cl  UNL A   1      39.497  34.695  33.805  1.00  0.00    -0.084 Cl
ATOM     19  C   UNL A   1      39.594  34.632  29.859  1.00  0.00     0.042 A 
ATOM     20  Cl  UNL A   1      40.781  35.014  28.675  1.00  0.00    -0.084 Cl
ENDBRANCH   9  13
ENDBRANCH   7   9
ENDBRANCH   4   7
ENDBRANCH   2   3
ENDBRANCH   1   2
BRANCH   1  21
ATOM     21  C   UNL A   1      34.317  33.356  28.208  1.00  0.00     0.118 C 
BRANCH  21  22
ATOM     22  N   UNL A   1      33.691  32.130  27.754  1.00  0.00    -0.352 N 
ATOM     23  C   UNL A   1      34.223  30.874  27.608  1.00  0.00     0.251 C 
ATOM     24  H   UNL A   1      32.738  32.210  27.514  1.00  0.00     0.163 HD
ATOM     25  O   UNL A   1      33.601  30.053  26.928  1.00  0.00    -0.269 OA
BRANCH  23  26
ATOM     26  C   UNL A   1      35.513  30.489  28.234  1.00  0.00     0.039 A 
ATOM     27  C   UNL A   1      36.699  30.771  27.547  1.00  0.00     0.014 A 
ATOM     28  C   UNL A   1      35.573  29.769  29.431  1.00  0.00     0.014 A 
ATOM     29  C   UNL A   1      37.928  30.337  28.056  1.00  0.00     0.010 A 
ATOM     30  C   UNL A   1      36.806  29.416  29.985  1.00  0.00     0.010 A 
ATOM     31  C   UNL A   1      37.995  29.656  29.281  1.00  0.00    -0.014 A 
BRANCH  31  32
ATOM     32  C   UNL A   1      39.287  29.104  29.776  1.00  0.00     0.031 A 
ATOM     33  C   UNL A   1      39.932  29.687  31.009  1.00  0.00     0.074 A 
ATOM     34  C   UNL A   1      39.884  28.086  29.123  1.00  0.00     0.049 A 
ATOM     35  N   UNL A   1      41.048  29.349  31.604  1.00  0.00    -0.248 NA
ATOM     36  C   UNL A   1      39.243  30.826  31.638  1.00  0.00     0.031 C 
ATOM     37  C   UNL A   1      39.387  27.463  27.895  1.00  0.00     0.029 A 
ATOM     38  N   UNL A   1      41.035  27.393  29.405  1.00  0.00    -0.354 N 
ATOM     39  C   UNL A   1      41.203  30.240  32.662  1.00  0.00     0.074 A 
ATOM     40  C   UNL A   1      40.103  31.177  32.581  1.00  0.00     0.031 C 
ATOM     41  C   UNL A   1      40.211  26.459  27.548  1.00  0.00     0.029 A 
ATOM     42  C   UNL A   1      41.306  26.384  28.511  1.00  0.00     0.049 A 
ATOM     43  H   UNL A   1      41.612  27.600  30.176  1.00  0.00     0.167 HD
ATOM     44  C   UNL A   1      42.153  30.262  33.631  1.00  0.00     0.034 A 
ATOM     45  C   UNL A   1      42.318  25.494  28.476  1.00  0.00     0.034 A 
ATOM     46  C   UNL A   1      43.231  29.307  33.716  1.00  0.00     0.049 A 
ATOM     47  C   UNL A   1      43.348  25.515  29.578  1.00  0.00     0.074 A 
ATOM     48  C   UNL A   1      44.227  29.208  34.673  1.00  0.00     0.029 A 
ATOM     49  N   UNL A   1      43.453  28.279  32.808  1.00  0.00    -0.354 N 
ATOM     50  N   UNL A   1      43.451  26.334  30.598  1.00  0.00    -0.248 NA
ATOM     51  C   UNL A   1      44.380  24.472  29.536  1.00  0.00     0.031 C 
ATOM     52  C   UNL A   1      45.079  28.157  34.316  1.00  0.00     0.029 A 
ATOM     53  C   UNL A   1      44.577  27.552  33.174  1.00  0.00     0.049 A 
ATOM     54  H   UNL A   1      42.895  28.093  32.019  1.00  0.00     0.167 HD
ATOM     55  C   UNL A   1      44.540  25.882  31.339  1.00  0.00     0.074 A 
ATOM     56  C   UNL A   1      45.046  24.709  30.655  1.00  0.00     0.031 C 
ATOM     57  C   UNL A   1      45.072  26.386  32.482  1.00  0.00     0.034 A 
BRANCH  44  58
ATOM     58  C   UNL A   1      42.070  31.369  34.658  1.00  0.00     0.023 A 
ATOM     59  C   UNL A   1      41.054  31.399  35.631  1.00  0.00     0.031 A 
ATOM     60  C   UNL A   1      42.990  32.432  34.638  1.00  0.00     0.131 A 
ATOM     61  C   UNL A   1      40.930  32.509  36.482  1.00  0.00     0.055 A 
ATOM     62  C   UNL A   1      42.913  33.491  35.546  1.00  0.00     0.041 A 
ATOM     63  F   UNL A   1      43.971  32.470  33.722  1.00  0.00    -0.206 F 
ATOM     64  C   UNL A   1      41.867  33.543  36.463  1.00  0.00     0.022 A 
BRANCH  61  65
ATOM     65  S   UNL A   1      39.435  32.659  37.499  1.00  0.00     0.124 S 
ATOM     66  O   UNL A   1      38.618  31.562  36.983  1.00  0.00    -0.237 OA
ATOM     67  O   UNL A   1      39.958  32.483  38.852  1.00  0.00    -0.237 OA
ATOM     68  O   UNL A   1      38.940  33.995  37.190  1.00  0.00    -0.744 OA
ENDBRANCH  61  65
ENDBRANCH  44  58
BRANCH  45  69
ATOM     69  C   UNL A   1      42.403  24.491  27.376  1.00  0.00     0.023 A 
ATOM     70  C   UNL A   1      41.615  23.329  27.391  1.00  0.00     0.031 A 
ATOM     71  C   UNL A   1      43.306  24.664  26.312  1.00  0.00     0.131 A 
ATOM     72  C   UNL A   1      41.780  22.360  26.389  1.00  0.00     0.055 A 
ATOM     73  C   UNL A   1      43.430  23.720  25.291  1.00  0.00     0.041 A 
ATOM     74  F   UNL A   1      44.075  25.761  26.245  1.00  0.00    -0.206 F 
ATOM     75  C   UNL A   1      42.673  22.552  25.334  1.00  0.00     0.022 A 
BRANCH  72  76
ATOM     76  S   UNL A   1      40.861  20.802  26.530  1.00  0.00     0.124 S 
ATOM     77  O   UNL A   1      41.665  19.906  25.709  1.00  0.00    -0.237 OA
ATOM     78  O   UNL A   1      40.896  20.559  27.968  1.00  0.00    -0.237 OA
ATOM     79  O   UNL A   1      39.545  21.134  25.988  1.00  0.00    -0.744 OA
ENDBRANCH  72  76
ENDBRANCH  45  69
BRANCH  57  80
ATOM     80  C   UNL A   1      46.229  25.630  33.089  1.00  0.00     0.023 A 
ATOM     81  C   UNL A   1      46.033  24.604  34.029  1.00  0.00     0.031 A 
ATOM     82  C   UNL A   1      47.550  25.966  32.742  1.00  0.00     0.131 A 
ATOM     83  C   UNL A   1      47.139  23.997  34.642  1.00  0.00     0.055 A 
ATOM     84  C   UNL A   1      48.647  25.316  33.309  1.00  0.00     0.041 A 
ATOM     85  F   UNL A   1      47.796  26.938  31.848  1.00  0.00    -0.206 F 
ATOM     86  C   UNL A   1      48.445  24.336  34.277  1.00  0.00     0.022 A 
BRANCH  83  87
ATOM     87  S   UNL A   1      46.852  22.836  36.006  1.00  0.00     0.124 S 
ATOM     88  O   UNL A   1      48.075  22.041  35.993  1.00  0.00    -0.237 OA
ATOM     89  O   UNL A   1      46.688  23.732  37.146  1.00  0.00    -0.237 OA
ATOM     90  O   UNL A   1      45.643  22.122  35.601  1.00  0.00    -0.744 OA
ENDBRANCH  83  87
ENDBRANCH  57  80
ENDBRANCH  31  32
ENDBRANCH  23  26
ENDBRANCH  21  22
ENDBRANCH   1  21
TORSDOF 16
ENDMDL
MODEL 2
REMARK VINA RESULT:     -10.2      5.119     11.901
REMARK SMILES C[C@@](O)(c1ccc(Cl)cc1Cl)[C@@H](F)C(=O)NCCCNC(=O)c1ccc(-c2c3nc(c(-c4cc(S(=O)(=O)[O-])ccc4F)c4ccc([nH]4)c(-c4cc(S(=O)(=O)[O-])ccc4F)c4nc(c(-c5cc(S(=O)(=O)[O-])ccc5F)c5ccc2[nH]5)C=C4)C=C3)cc1
REMARK SMILES IDX 18 1 17 2 16 3 14 4 15 5 12 7 13 8 2 9 1 10 3 11 4 13 5 14
REMARK SMILES IDX 10 15 6 16 9 17 11 18 7 19 8 20 19 21 20 22 21 23 22 25
REMARK SMILES IDX 23 26 24 27 85 28 25 29 84 30 26 31 27 32 28 33 78 34 29 35
REMARK SMILES IDX 83 36 77 37 79 38 30 39 82 40 76 41 75 42 31 44 63 45 43 46
REMARK SMILES IDX 62 47 44 48 47 49 61 50 80 51 45 52 46 53 60 55 81 56 48 57
REMARK SMILES IDX 32 58 33 59 41 60 34 61 40 62 42 63 39 64 35 65 36 66 37 67
REMARK SMILES IDX 38 68 64 69 65 70 73 71 66 72 72 73 74 74 71 75 67 76 68 77
REMARK SMILES IDX 69 78 70 79 49 80 50 81 58 82 51 83 57 84 59 85 56 86 52 87
REMARK SMILES IDX 53 88 54 89 55 90
REMARK H PARENT 16 6 3 12 20 24 79 43 47 54
REMARK Flexibility Score: inf
ROOT
ATOM      1  C   UNL A   1      41.010  19.702  26.126  1.00  0.00     0.042 C 
ENDROOT
BRANCH   1   2
ATOM      2  C   UNL A   1      42.454  19.410  26.527  1.00  0.00     0.117 C 
BRANCH   2   3
ATOM      3  N   UNL A   1      43.394  19.725  25.460  1.00  0.00    -0.353 N 
ATOM      4  C   UNL A   1      43.874  20.917  25.008  1.00  0.00     0.257 C 
ATOM      5  O   UNL A   1      44.554  20.895  23.975  1.00  0.00    -0.272 OA
ATOM      6  H   UNL A   1      43.743  18.939  24.981  1.00  0.00     0.163 HD
BRANCH   4   7
ATOM      7  C   UNL A   1      43.561  22.253  25.680  1.00  0.00     0.291 C 
ATOM      8  F   UNL A   1      42.699  23.042  24.979  1.00  0.00    -0.233 F 
BRANCH   7   9
ATOM      9  C   UNL A   1      44.858  23.048  26.023  1.00  0.00     0.128 C 
ATOM     10  C   UNL A   1      45.121  24.147  24.994  1.00  0.00     0.051 C 
BRANCH   9  11
ATOM     11  O   UNL A   1      46.009  22.171  25.940  1.00  0.00    -0.382 OA
ATOM     12  H   UNL A   1      46.159  21.920  25.015  1.00  0.00     0.212 HD
ENDBRANCH   9  11
BRANCH   9  13
ATOM     13  C   UNL A   1      44.798  23.479  27.506  1.00  0.00     0.005 A 
ATOM     14  C   UNL A   1      43.603  23.150  28.202  1.00  0.00     0.010 A 
ATOM     15  C   UNL A   1      45.774  24.187  28.240  1.00  0.00     0.048 A 
ATOM     16  C   UNL A   1      43.396  23.492  29.540  1.00  0.00     0.021 A 
ATOM     17  C   UNL A   1      45.569  24.509  29.593  1.00  0.00     0.041 A 
ATOM     18  Cl  UNL A   1      47.276  24.765  27.611  1.00  0.00    -0.084 Cl
ATOM     19  C   UNL A   1      44.387  24.164  30.233  1.00  0.00     0.042 A 
ATOM     20  Cl  UNL A   1      44.151  24.577  31.886  1.00  0.00    -0.084 Cl
ENDBRANCH   9  13
ENDBRANCH   7   9
ENDBRANCH   4   7
ENDBRANCH   2   3
ENDBRANCH   1   2
BRANCH   1  21
ATOM     21  C   UNL A   1      40.432  20.961  26.760  1.00  0.00     0.118 C 
BRANCH  21  22
ATOM     22  N   UNL A   1      39.215  21.383  26.095  1.00  0.00    -0.352 N 
ATOM     23  C   UNL A   1      38.572  22.594  26.126  1.00  0.00     0.251 C 
ATOM     24  H   UNL A   1      38.784  20.696  25.535  1.00  0.00     0.163 HD
ATOM     25  O   UNL A   1      37.403  22.643  25.733  1.00  0.00    -0.269 OA
BRANCH  23  26
ATOM     26  C   UNL A   1      39.239  23.826  26.619  1.00  0.00     0.039 A 
ATOM     27  C   UNL A   1      39.149  24.134  27.980  1.00  0.00     0.014 A 
ATOM     28  C   UNL A   1      39.862  24.731  25.754  1.00  0.00     0.014 A 
ATOM     29  C   UNL A   1      39.678  25.334  28.468  1.00  0.00     0.010 A 
ATOM     30  C   UNL A   1      40.470  25.884  26.254  1.00  0.00     0.010 A 
ATOM     31  C   UNL A   1      40.345  26.222  27.610  1.00  0.00    -0.014 A 
BRANCH  31  32
ATOM     32  C   UNL A   1      40.820  27.545  28.103  1.00  0.00     0.031 A 
ATOM     33  C   UNL A   1      42.281  27.905  28.004  1.00  0.00     0.074 A 
ATOM     34  C   UNL A   1      39.947  28.421  28.641  1.00  0.00     0.049 A 
ATOM     35  N   UNL A   1      42.896  29.003  28.369  1.00  0.00    -0.248 NA
ATOM     36  C   UNL A   1      43.178  26.879  27.448  1.00  0.00     0.031 C 
ATOM     37  C   UNL A   1      38.517  28.177  28.836  1.00  0.00     0.029 A 
ATOM     38  N   UNL A   1      40.135  29.695  29.117  1.00  0.00    -0.354 N 
ATOM     39  C   UNL A   1      44.246  28.792  28.103  1.00  0.00     0.074 A 
ATOM     40  C   UNL A   1      44.367  27.435  27.614  1.00  0.00     0.031 C 
ATOM     41  C   UNL A   1      37.951  29.278  29.360  1.00  0.00     0.029 A 
ATOM     42  C   UNL A   1      38.981  30.294  29.564  1.00  0.00     0.049 A 
ATOM     43  H   UNL A   1      41.014  30.137  29.138  1.00  0.00     0.167 HD
ATOM     44  C   UNL A   1      45.287  29.655  28.225  1.00  0.00     0.034 A 
ATOM     45  C   UNL A   1      38.773  31.525  30.072  1.00  0.00     0.034 A 
ATOM     46  C   UNL A   1      45.149  31.014  28.690  1.00  0.00     0.049 A 
ATOM     47  C   UNL A   1      39.937  32.480  30.171  1.00  0.00     0.074 A 
ATOM     48  C   UNL A   1      46.125  31.988  28.817  1.00  0.00     0.029 A 
ATOM     49  N   UNL A   1      43.956  31.594  29.102  1.00  0.00    -0.354 N 
ATOM     50  N   UNL A   1      41.199  32.280  29.869  1.00  0.00    -0.248 NA
ATOM     51  C   UNL A   1      39.639  33.834  30.654  1.00  0.00     0.031 C 
ATOM     52  C   UNL A   1      45.533  33.137  29.355  1.00  0.00     0.029 A 
ATOM     53  C   UNL A   1      44.174  32.906  29.498  1.00  0.00     0.049 A 
ATOM     54  H   UNL A   1      43.083  31.141  29.114  1.00  0.00     0.167 HD
ATOM     55  C   UNL A   1      41.839  33.497  30.093  1.00  0.00     0.074 A 
ATOM     56  C   UNL A   1      40.819  34.425  30.537  1.00  0.00     0.031 C 
ATOM     57  C   UNL A   1      43.149  33.820  29.942  1.00  0.00     0.034 A 
BRANCH  44  58
ATOM     58  C   UNL A   1      46.662  29.137  27.866  1.00  0.00     0.023 A 
ATOM     59  C   UNL A   1      47.024  28.864  26.534  1.00  0.00     0.031 A 
ATOM     60  C   UNL A   1      47.608  28.869  28.870  1.00  0.00     0.131 A 
ATOM     61  C   UNL A   1      48.258  28.260  26.252  1.00  0.00     0.055 A 
ATOM     62  C   UNL A   1      48.870  28.349  28.574  1.00  0.00     0.041 A 
ATOM     63  F   UNL A   1      47.316  29.090  30.162  1.00  0.00    -0.206 F 
ATOM     64  C   UNL A   1      49.195  28.023  27.260  1.00  0.00     0.022 A 
BRANCH  61  65
ATOM     65  S   UNL A   1      48.557  27.638  24.574  1.00  0.00     0.124 S 
ATOM     66  O   UNL A   1      48.546  26.192  24.790  1.00  0.00    -0.237 OA
ATOM     67  O   UNL A   1      47.422  28.181  23.832  1.00  0.00    -0.237 OA
ATOM     68  O   UNL A   1      49.857  28.200  24.225  1.00  0.00    -0.744 OA
ENDBRANCH  61  65
ENDBRANCH  44  58
BRANCH  45  69
ATOM     69  C   UNL A   1      37.410  31.942  30.508  1.00  0.00     0.023 A 
ATOM     70  C   UNL A   1      36.501  32.511  29.601  1.00  0.00     0.031 A 
ATOM     71  C   UNL A   1      37.010  31.813  31.849  1.00  0.00     0.131 A 
ATOM     72  C   UNL A   1      35.257  32.976  30.056  1.00  0.00     0.055 A 
ATOM     73  C   UNL A   1      35.753  32.232  32.287  1.00  0.00     0.041 A 
ATOM     74  F   UNL A   1      37.838  31.268  32.755  1.00  0.00    -0.206 F 
ATOM     75  C   UNL A   1      34.873  32.830  31.390  1.00  0.00     0.022 A 
BRANCH  72  76
ATOM     76  S   UNL A   1      34.176  33.848  28.888  1.00  0.00     0.124 S 
ATOM     77  O   UNL A   1      33.651  32.748  28.090  1.00  0.00    -0.237 OA
ATOM     78  O   UNL A   1      33.228  34.502  29.784  1.00  0.00    -0.237 OA
ATOM     79  O   UNL A   1      35.091  34.748  28.188  1.00  0.00    -0.744 OA
ENDBRANCH  72  76
ENDBRANCH  45  69
BRANCH  57  80
ATOM     80  C   UNL A   1      43.533  35.255  30.206  1.00  0.00     0.023 A 
ATOM     81  C   UNL A   1      43.481  36.236  29.201  1.00  0.00     0.031 A 
ATOM     82  C   UNL A   1      43.991  35.638  31.481  1.00  0.00     0.131 A 
ATOM     83  C   UNL A   1      43.942  37.533  29.465  1.00  0.00     0.055 A 
ATOM     84  C   UNL A   1      44.391  36.946  31.755  1.00  0.00     0.041 A 
ATOM     85  F   UNL A   1      44.062  34.743  32.479  1.00  0.00    -0.206 F 
ATOM     86  C   UNL A   1      44.384  37.899  30.740  1.00  0.00     0.022 A 
BRANCH  83  87
ATOM     87  S   UNL A   1      44.066  38.711  28.091  1.00  0.00     0.124 S 
ATOM     88  O   UNL A   1      45.510  38.813  27.905  1.00  0.00    -0.237 OA
ATOM     89  O   UNL A   1      43.335  38.027  27.030  1.00  0.00    -0.237 OA
ATOM     90  O   UNL A   1      43.421  39.915  28.611  1.00  0.00    -0.744 OA
ENDBRANCH  83  87
ENDBRANCH  57  80
ENDBRANCH  31  32
ENDBRANCH  23  26
ENDBRANCH  21  22
ENDBRANCH   1  21
TORSDOF 16
ENDMDL
MODEL 3
REMARK VINA RESULT:     -10.0      4.385      6.616
REMARK SMILES C[C@@](O)(c1ccc(Cl)cc1Cl)[C@@H](F)C(=O)NCCCNC(=O)c1ccc(-c2c3nc(c(-c4cc(S(=O)(=O)[O-])ccc4F)c4ccc([nH]4)c(-c4cc(S(=O)(=O)[O-])ccc4F)c4nc(c(-c5cc(S(=O)(=O)[O-])ccc5F)c5ccc2[nH]5)C=C4)C=C3)cc1
REMARK SMILES IDX 18 1 17 2 16 3 14 4 15 5 12 7 13 8 2 9 1 10 3 11 4 13 5 14
REMARK SMILES IDX 10 15 6 16 9 17 11 18 7 19 8 20 19 21 20 22 21 23 22 25
REMARK SMILES IDX 23 26 24 27 85 28 25 29 84 30 26 31 27 32 28 33 78 34 29 35
REMARK SMILES IDX 83 36 77 37 79 38 30 39 82 40 76 41 75 42 31 44 63 45 43 46
REMARK SMILES IDX 62 47 44 48 47 49 61 50 80 51 45 52 46 53 60 55 81 56 48 57
REMARK SMILES IDX 32 58 33 59 41 60 34 61 40 62 42 63 39 64 35 65 36 66 37 67
REMARK SMILES IDX 38 68 64 69 65 70 73 71 66 72 72 73 74 74 71 75 67 76 68 77
REMARK SMILES IDX 69 78 70 79 49 80 50 81 58 82 51 83 57 84 59 85 56 86 52 87
REMARK SMILES IDX 53 88 54 89 55 90
REMARK H PARENT 16 6 3 12 20 24 79 43 47 54
REMARK Flexibility Score: inf
ROOT
ATOM      1  C   UNL A   1      31.603  28.711  26.331  1.00  0.00     0.042 C 
ENDROOT
BRANCH   1   2
ATOM      2  C   UNL A   1      31.421  27.427  25.524  1.00  0.00     0.117 C 
BRANCH   2   3
ATOM      3  N   UNL A   1      31.104  26.286  26.372  1.00  0.00    -0.353 N 
ATOM      4  C   UNL A   1      31.760  25.111  26.578  1.00  0.00     0.257 C 
ATOM      5  O   UNL A   1      31.175  24.249  27.247  1.00  0.00    -0.272 OA
ATOM      6  H   UNL A   1      30.269  26.381  26.886  1.00  0.00     0.163 HD
BRANCH   4   7
ATOM      7  C   UNL A   1      33.131  24.803  25.979  1.00  0.00     0.291 C 
ATOM      8  F   UNL A   1      33.997  25.855  25.998  1.00  0.00    -0.233 F 
BRANCH   7   9
ATOM      9  C   UNL A   1      33.018  24.228  24.533  1.00  0.00     0.128 C 
ATOM     10  C   UNL A   1      33.721  25.133  23.522  1.00  0.00     0.051 C 
BRANCH   9  11
ATOM     11  O   UNL A   1      31.629  24.208  24.119  1.00  0.00    -0.382 OA
ATOM     12  H   UNL A   1      31.156  24.946  24.535  1.00  0.00     0.212 HD
ENDBRANCH   9  11
BRANCH   9  13
ATOM     13  C   UNL A   1      33.445  22.742  24.556  1.00  0.00     0.005 A 
ATOM     14  C   UNL A   1      32.419  21.797  24.286  1.00  0.00     0.010 A 
ATOM     15  C   UNL A   1      34.722  22.215  24.843  1.00  0.00     0.048 A 
ATOM     16  C   UNL A   1      32.649  20.419  24.290  1.00  0.00     0.021 A 
ATOM     17  C   UNL A   1      34.954  20.828  24.823  1.00  0.00     0.041 A 
ATOM     18  Cl  UNL A   1      36.115  23.143  25.271  1.00  0.00    -0.084 Cl
ATOM     19  C   UNL A   1      33.921  19.941  24.551  1.00  0.00     0.042 A 
ATOM     20  Cl  UNL A   1      34.223  18.248  24.543  1.00  0.00    -0.084 Cl
ENDBRANCH   9  13
ENDBRANCH   7   9
ENDBRANCH   4   7
ENDBRANCH   2   3
ENDBRANCH   1   2
BRANCH   1  21
ATOM     21  C   UNL A   1      32.724  29.608  25.825  1.00  0.00     0.118 C 
BRANCH  21  22
ATOM     22  N   UNL A   1      32.526  30.988  26.225  1.00  0.00    -0.352 N 
ATOM     23  C   UNL A   1      33.195  31.736  27.159  1.00  0.00     0.251 C 
ATOM     24  H   UNL A   1      31.800  31.460  25.753  1.00  0.00     0.163 HD
ATOM     25  O   UNL A   1      32.672  32.784  27.549  1.00  0.00    -0.269 OA
BRANCH  23  26
ATOM     26  C   UNL A   1      34.509  31.318  27.707  1.00  0.00     0.039 A 
ATOM     27  C   UNL A   1      34.673  29.987  28.106  1.00  0.00     0.014 A 
ATOM     28  C   UNL A   1      35.547  32.229  27.929  1.00  0.00     0.014 A 
ATOM     29  C   UNL A   1      35.862  29.576  28.718  1.00  0.00     0.010 A 
ATOM     30  C   UNL A   1      36.766  31.799  28.456  1.00  0.00     0.010 A 
ATOM     31  C   UNL A   1      36.922  30.478  28.899  1.00  0.00    -0.014 A 
BRANCH  31  32
ATOM     32  C   UNL A   1      38.149  30.072  29.640  1.00  0.00     0.031 A 
ATOM     33  C   UNL A   1      38.373  30.561  31.050  1.00  0.00     0.074 A 
ATOM     34  C   UNL A   1      39.061  29.270  29.055  1.00  0.00     0.049 A 
ATOM     35  N   UNL A   1      39.368  30.320  31.867  1.00  0.00    -0.248 NA
ATOM     36  C   UNL A   1      37.356  31.469  31.603  1.00  0.00     0.031 C 
ATOM     37  C   UNL A   1      38.985  28.765  27.683  1.00  0.00     0.029 A 
ATOM     38  N   UNL A   1      40.228  28.735  29.541  1.00  0.00    -0.354 N 
ATOM     39  C   UNL A   1      39.105  31.058  33.018  1.00  0.00     0.074 A 
ATOM     40  C   UNL A   1      37.895  31.809  32.763  1.00  0.00     0.031 C 
ATOM     41  C   UNL A   1      40.041  27.968  27.449  1.00  0.00     0.029 A 
ATOM     42  C   UNL A   1      40.883  27.926  28.642  1.00  0.00     0.049 A 
ATOM     43  H   UNL A   1      40.565  28.915  30.449  1.00  0.00     0.167 HD
ATOM     44  C   UNL A   1      39.788  31.086  34.190  1.00  0.00     0.034 A 
ATOM     45  C   UNL A   1      42.026  27.223  28.767  1.00  0.00     0.034 A 
ATOM     46  C   UNL A   1      40.981  30.313  34.441  1.00  0.00     0.049 A 
ATOM     47  C   UNL A   1      42.755  27.244  30.088  1.00  0.00     0.074 A 
ATOM     48  C   UNL A   1      41.732  30.234  35.601  1.00  0.00     0.029 A 
ATOM     49  N   UNL A   1      41.595  29.480  33.515  1.00  0.00    -0.354 N 
ATOM     50  N   UNL A   1      42.465  27.909  31.182  1.00  0.00    -0.248 NA
ATOM     51  C   UNL A   1      43.949  26.397  30.196  1.00  0.00     0.031 C 
ATOM     52  C   UNL A   1      42.828  29.396  35.359  1.00  0.00     0.029 A 
ATOM     53  C   UNL A   1      42.723  28.895  34.071  1.00  0.00     0.049 A 
ATOM     54  H   UNL A   1      41.277  29.327  32.596  1.00  0.00     0.167 HD
ATOM     55  C   UNL A   1      43.424  27.531  32.120  1.00  0.00     0.074 A 
ATOM     56  C   UNL A   1      44.286  26.569  31.465  1.00  0.00     0.031 C 
ATOM     57  C   UNL A   1      43.576  27.939  33.406  1.00  0.00     0.034 A 
BRANCH  44  58
ATOM     58  C   UNL A   1      39.265  32.001  35.275  1.00  0.00     0.023 A 
ATOM     59  C   UNL A   1      39.685  33.340  35.377  1.00  0.00     0.031 A 
ATOM     60  C   UNL A   1      38.371  31.519  36.246  1.00  0.00     0.131 A 
ATOM     61  C   UNL A   1      39.283  34.120  36.473  1.00  0.00     0.055 A 
ATOM     62  C   UNL A   1      37.904  32.327  37.285  1.00  0.00     0.041 A 
ATOM     63  F   UNL A   1      37.948  30.245  36.214  1.00  0.00    -0.206 F 
ATOM     64  C   UNL A   1      38.375  33.631  37.414  1.00  0.00     0.022 A 
BRANCH  61  65
ATOM     65  S   UNL A   1      40.088  35.724  36.739  1.00  0.00     0.124 S 
ATOM     66  O   UNL A   1      41.499  35.344  36.758  1.00  0.00    -0.237 OA
ATOM     67  O   UNL A   1      39.650  36.492  35.575  1.00  0.00    -0.237 OA
ATOM     68  O   UNL A   1      39.552  36.171  38.019  1.00  0.00    -0.744 OA
ENDBRANCH  61  65
ENDBRANCH  44  58
BRANCH  45  69
ATOM     69  C   UNL A   1      42.549  26.422  27.624  1.00  0.00     0.023 A 
ATOM     70  C   UNL A   1      42.176  25.079  27.450  1.00  0.00     0.031 A 
ATOM     71  C   UNL A   1      43.462  26.978  26.711  1.00  0.00     0.131 A 
ATOM     72  C   UNL A   1      42.752  24.322  26.417  1.00  0.00     0.055 A 
ATOM     73  C   UNL A   1      43.994  26.235  25.656  1.00  0.00     0.041 A 
ATOM     74  F   UNL A   1      43.844  28.260  26.828  1.00  0.00    -0.206 F 
ATOM     75  C   UNL A   1      43.649  24.894  25.513  1.00  0.00     0.022 A 
BRANCH  72  76
ATOM     76  S   UNL A   1      42.368  22.552  26.321  1.00  0.00     0.124 S 
ATOM     77  O   UNL A   1      42.869  22.069  27.602  1.00  0.00    -0.237 OA
ATOM     78  O   UNL A   1      40.918  22.565  26.162  1.00  0.00    -0.237 OA
ATOM     79  O   UNL A   1      43.118  22.105  25.149  1.00  0.00    -0.744 OA
ENDBRANCH  72  76
ENDBRANCH  45  69
BRANCH  57  80
ATOM     80  C   UNL A   1      44.686  27.295  34.200  1.00  0.00     0.023 A 
ATOM     81  C   UNL A   1      44.491  26.102  34.917  1.00  0.00     0.031 A 
ATOM     82  C   UNL A   1      45.952  27.905  34.264  1.00  0.00     0.131 A 
ATOM     83  C   UNL A   1      45.521  25.593  35.721  1.00  0.00     0.055 A 
ATOM     84  C   UNL A   1      46.993  27.361  35.017  1.00  0.00     0.041 A 
ATOM     85  F   UNL A   1      46.194  29.046  33.599  1.00  0.00    -0.206 F 
ATOM     86  C   UNL A   1      46.775  26.207  35.765  1.00  0.00     0.022 A 
BRANCH  83  87
ATOM     87  S   UNL A   1      45.166  24.179  36.801  1.00  0.00     0.124 S 
ATOM     88  O   UNL A   1      44.370  24.794  37.857  1.00  0.00    -0.237 OA
ATOM     89  O   UNL A   1      44.448  23.278  35.905  1.00  0.00    -0.237 OA
ATOM     90  O   UNL A   1      46.491  23.718  37.210  1.00  0.00    -0.744 OA
ENDBRANCH  83  87
ENDBRANCH  57  80
ENDBRANCH  31  32
ENDBRANCH  23  26
ENDBRANCH  21  22
ENDBRANCH   1  21
TORSDOF 16
ENDMDL
