MODEL 1
REMARK VINA RESULT:     -14.3      0.000      0.000
REMARK SMILES Cc1ccccc1S(=O)(=O)Nc1ccc(N2CCOCC2)cc1C(=O)NCCCNC(=O)c1ccc(-c2c3nc(c(-c4cc(S(=O)(=O)[O-])ccc4F)c4ccc([nH]4)c(-c4cc(S(=O)(=O)[O-])ccc4F)c4nc(c(-c5cc(S(=O)(=O)[O-])ccc5F)c5ccc2[nH]5)C=C4)C=C3)cc1
REMARK SMILES IDX 28 1 27 2 26 3 24 4 25 5 23 7 12 8 13 9 14 10 22 11 15 12
REMARK SMILES IDX 11 13 8 15 9 16 10 17 7 18 1 19 2 20 3 21 4 22 6 23 5 24
REMARK SMILES IDX 16 25 17 26 21 27 18 28 20 29 19 30 29 31 30 32 31 33 32 35
REMARK SMILES IDX 33 36 34 37 95 38 35 39 94 40 36 41 37 42 38 43 88 44 39 45
REMARK SMILES IDX 93 46 87 47 89 48 40 49 92 50 86 51 85 52 41 54 73 55 53 56
REMARK SMILES IDX 72 57 54 58 57 59 71 60 90 61 55 62 56 63 70 65 91 66 58 67
REMARK SMILES IDX 42 68 43 69 51 70 44 71 50 72 52 73 49 74 45 75 46 76 47 77
REMARK SMILES IDX 48 78 74 79 75 80 83 81 76 82 82 83 84 84 81 85 77 86 78 87
REMARK SMILES IDX 79 88 80 89 59 90 60 91 68 92 61 93 67 94 69 95 66 96 62 97
REMARK SMILES IDX 63 98 64 99 65 100
REMARK H PARENT 26 6 11 14 30 34 89 53 57 64
REMARK Flexibility Score: inf
ROOT
ATOM      1  C   UNL A   1      32.613  31.231  27.105  1.00  0.00     0.042 C 
ENDROOT
BRANCH   1   2
ATOM      2  C   UNL A   1      31.947  30.381  26.045  1.00  0.00     0.118 C 
BRANCH   2   3
ATOM      3  N   UNL A   1      32.880  29.777  25.095  1.00  0.00    -0.352 N 
ATOM      4  C   UNL A   1      32.647  28.927  24.036  1.00  0.00     0.253 C 
ATOM      5  O   UNL A   1      33.576  28.385  23.439  1.00  0.00    -0.269 OA
ATOM      6  H   UNL A   1      33.824  30.016  25.235  1.00  0.00     0.163 HD
BRANCH   4   7
ATOM      7  C   UNL A   1      31.259  28.590  23.619  1.00  0.00     0.066 A 
ATOM      8  C   UNL A   1      30.716  27.330  23.895  1.00  0.00     0.062 A 
ATOM      9  C   UNL A   1      29.379  27.099  23.579  1.00  0.00     0.030 A 
ATOM     10  C   UNL A   1      28.573  28.150  23.114  1.00  0.00     0.028 A 
ATOM     11  C   UNL A   1      30.474  29.556  22.973  1.00  0.00     0.042 A 
ATOM     12  C   UNL A   1      29.088  29.430  22.865  1.00  0.00     0.038 A 
BRANCH   8  13
ATOM     13  N   UNL A   1      31.504  26.283  24.468  1.00  0.00    -0.279 N 
ATOM     14  H   UNL A   1      32.079  25.735  23.887  1.00  0.00     0.180 HD
BRANCH  13  15
ATOM     15  S   UNL A   1      31.460  25.975  26.124  1.00  0.00     0.262 S 
ATOM     16  O   UNL A   1      30.095  25.574  26.412  1.00  0.00    -0.201 OA
ATOM     17  O   UNL A   1      32.024  27.097  26.846  1.00  0.00    -0.201 OA
BRANCH  15  18
ATOM     18  C   UNL A   1      32.508  24.535  26.380  1.00  0.00     0.090 A 
ATOM     19  C   UNL A   1      34.601  25.464  25.155  1.00  0.00     0.046 C 
ATOM     20  C   UNL A   1      33.866  24.468  26.002  1.00  0.00    -0.031 A 
ATOM     21  C   UNL A   1      34.611  23.331  26.384  1.00  0.00     0.005 A 
ATOM     22  C   UNL A   1      34.048  22.309  27.144  1.00  0.00     0.000 A 
ATOM     23  C   UNL A   1      31.948  23.487  27.139  1.00  0.00     0.022 A 
ATOM     24  C   UNL A   1      32.714  22.383  27.518  1.00  0.00     0.001 A 
ENDBRANCH  15  18
ENDBRANCH  13  15
ENDBRANCH   8  13
BRANCH  12  25
ATOM     25  N   UNL A   1      28.275  30.514  22.592  1.00  0.00    -0.367 N 
ATOM     26  C   UNL A   1      27.725  30.824  21.256  1.00  0.00     0.145 C 
ATOM     27  C   UNL A   1      28.171  31.634  23.549  1.00  0.00     0.145 C 
ATOM     28  C   UNL A   1      28.269  32.165  20.734  1.00  0.00     0.181 C 
ATOM     29  C   UNL A   1      28.659  32.951  22.913  1.00  0.00     0.181 C 
ATOM     30  O   UNL A   1      28.002  33.226  21.668  1.00  0.00    -0.378 OA
ENDBRANCH  12  25
ENDBRANCH   4   7
ENDBRANCH   2   3
ENDBRANCH   1   2
BRANCH   1  31
ATOM     31  C   UNL A   1      33.979  30.702  27.500  1.00  0.00     0.118 C 
BRANCH  31  32
ATOM     32  N   UNL A   1      34.631  31.572  28.486  1.00  0.00    -0.352 N 
ATOM     33  C   UNL A   1      35.725  31.314  29.297  1.00  0.00     0.251 C 
ATOM     34  H   UNL A   1      34.235  32.469  28.585  1.00  0.00     0.163 HD
ATOM     35  O   UNL A   1      36.180  32.128  30.075  1.00  0.00    -0.269 OA
BRANCH  33  36
ATOM     36  C   UNL A   1      36.390  30.011  29.105  1.00  0.00     0.039 A 
ATOM     37  C   UNL A   1      36.698  29.298  30.268  1.00  0.00     0.014 A 
ATOM     38  C   UNL A   1      37.035  29.765  27.896  1.00  0.00     0.014 A 
ATOM     39  C   UNL A   1      37.842  28.511  30.285  1.00  0.00     0.010 A 
ATOM     40  C   UNL A   1      38.218  29.047  27.943  1.00  0.00     0.010 A 
ATOM     41  C   UNL A   1      38.663  28.497  29.158  1.00  0.00    -0.014 A 
BRANCH  41  42
ATOM     42  C   UNL A   1      40.067  28.094  29.217  1.00  0.00     0.031 A 
ATOM     43  C   UNL A   1      40.479  26.746  28.781  1.00  0.00     0.074 A 
ATOM     44  C   UNL A   1      41.020  28.958  29.640  1.00  0.00     0.049 A 
ATOM     45  N   UNL A   1      41.571  26.163  29.147  1.00  0.00    -0.248 NA
ATOM     46  C   UNL A   1      39.642  25.911  27.933  1.00  0.00     0.031 C 
ATOM     47  C   UNL A   1      42.467  28.812  29.501  1.00  0.00     0.029 A 
ATOM     48  N   UNL A   1      40.865  30.020  30.530  1.00  0.00    -0.354 N 
ATOM     49  C   UNL A   1      41.726  25.035  28.379  1.00  0.00     0.074 A 
ATOM     50  C   UNL A   1      40.459  24.880  27.702  1.00  0.00     0.031 C 
ATOM     51  C   UNL A   1      43.071  29.535  30.455  1.00  0.00     0.029 A 
ATOM     52  C   UNL A   1      42.035  30.066  31.318  1.00  0.00     0.049 A 
ATOM     53  H   UNL A   1      40.088  30.622  30.595  1.00  0.00     0.167 HD
ATOM     54  C   UNL A   1      42.952  24.440  28.308  1.00  0.00     0.034 A 
ATOM     55  C   UNL A   1      41.985  29.948  32.678  1.00  0.00     0.034 A 
ATOM     56  C   UNL A   1      43.916  25.056  29.226  1.00  0.00     0.049 A 
ATOM     57  C   UNL A   1      42.769  28.773  33.231  1.00  0.00     0.074 A 
ATOM     58  C   UNL A   1      44.993  25.916  29.080  1.00  0.00     0.029 A 
ATOM     59  N   UNL A   1      43.687  24.969  30.589  1.00  0.00    -0.354 N 
ATOM     60  N   UNL A   1      43.396  27.899  32.492  1.00  0.00    -0.248 NA
ATOM     61  C   UNL A   1      42.834  28.433  34.653  1.00  0.00     0.031 C 
ATOM     62  C   UNL A   1      45.403  26.341  30.377  1.00  0.00     0.029 A 
ATOM     63  C   UNL A   1      44.585  25.730  31.309  1.00  0.00     0.049 A 
ATOM     64  H   UNL A   1      42.969  24.430  30.995  1.00  0.00     0.167 HD
ATOM     65  C   UNL A   1      43.863  26.879  33.279  1.00  0.00     0.074 A 
ATOM     66  C   UNL A   1      43.496  27.263  34.630  1.00  0.00     0.031 C 
ATOM     67  C   UNL A   1      44.468  25.771  32.759  1.00  0.00     0.034 A 
BRANCH  54  68
ATOM     68  C   UNL A   1      43.366  23.460  27.230  1.00  0.00     0.023 A 
ATOM     69  C   UNL A   1      42.678  22.232  27.131  1.00  0.00     0.031 A 
ATOM     70  C   UNL A   1      44.428  23.617  26.319  1.00  0.00     0.131 A 
ATOM     71  C   UNL A   1      43.109  21.209  26.268  1.00  0.00     0.055 A 
ATOM     72  C   UNL A   1      44.898  22.581  25.500  1.00  0.00     0.041 A 
ATOM     73  F   UNL A   1      45.025  24.798  26.121  1.00  0.00    -0.206 F 
ATOM     74  C   UNL A   1      44.246  21.361  25.482  1.00  0.00     0.022 A 
BRANCH  71  75
ATOM     75  S   UNL A   1      42.158  19.668  26.188  1.00  0.00     0.124 S 
ATOM     76  O   UNL A   1      42.689  19.041  24.982  1.00  0.00    -0.237 OA
ATOM     77  O   UNL A   1      42.500  19.032  27.455  1.00  0.00    -0.237 OA
ATOM     78  O   UNL A   1      40.775  20.131  26.084  1.00  0.00    -0.744 OA
ENDBRANCH  71  75
ENDBRANCH  54  68
BRANCH  55  79
ATOM     79  C   UNL A   1      40.730  30.521  33.249  1.00  0.00     0.023 A 
ATOM     80  C   UNL A   1      40.654  31.931  33.326  1.00  0.00     0.031 A 
ATOM     81  C   UNL A   1      39.534  29.794  33.300  1.00  0.00     0.131 A 
ATOM     82  C   UNL A   1      39.413  32.575  33.242  1.00  0.00     0.055 A 
ATOM     83  C   UNL A   1      38.293  30.444  33.321  1.00  0.00     0.041 A 
ATOM     84  F   UNL A   1      39.537  28.457  33.191  1.00  0.00    -0.206 F 
ATOM     85  C   UNL A   1      38.227  31.837  33.243  1.00  0.00     0.022 A 
BRANCH  82  86
ATOM     86  S   UNL A   1      39.396  34.345  32.817  1.00  0.00     0.124 S 
ATOM     87  O   UNL A   1      38.644  34.920  33.925  1.00  0.00    -0.237 OA
ATOM     88  O   UNL A   1      40.820  34.683  32.763  1.00  0.00    -0.237 OA
ATOM     89  O   UNL A   1      38.733  34.386  31.515  1.00  0.00    -0.744 OA
ENDBRANCH  82  86
ENDBRANCH  55  79
BRANCH  67  90
ATOM     90  C   UNL A   1      44.977  24.619  33.587  1.00  0.00     0.023 A 
ATOM     91  C   UNL A   1      46.347  24.378  33.779  1.00  0.00     0.031 A 
ATOM     92  C   UNL A   1      44.091  23.668  34.144  1.00  0.00     0.131 A 
ATOM     93  C   UNL A   1      46.782  23.276  34.539  1.00  0.00     0.055 A 
ATOM     94  C   UNL A   1      44.529  22.531  34.826  1.00  0.00     0.041 A 
ATOM     95  F   UNL A   1      42.760  23.826  34.088  1.00  0.00    -0.206 F 
ATOM     96  C   UNL A   1      45.884  22.333  35.037  1.00  0.00     0.022 A 
BRANCH  93  97
ATOM     97  S   UNL A   1      48.545  23.133  34.933  1.00  0.00     0.124 S 
ATOM     98  O   UNL A   1      48.857  21.773  34.512  1.00  0.00    -0.237 OA
ATOM     99  O   UNL A   1      49.118  24.198  34.114  1.00  0.00    -0.237 OA
ATOM    100  O   UNL A   1      48.598  23.368  36.375  1.00  0.00    -0.744 OA
ENDBRANCH  93  97
ENDBRANCH  67  90
ENDBRANCH  41  42
ENDBRANCH  33  36
ENDBRANCH  31  32
ENDBRANCH   1  31
TORSDOF 17
ENDMDL
MODEL 2
REMARK VINA RESULT:     -14.0      4.489     11.045
REMARK SMILES Cc1ccccc1S(=O)(=O)Nc1ccc(N2CCOCC2)cc1C(=O)NCCCNC(=O)c1ccc(-c2c3nc(c(-c4cc(S(=O)(=O)[O-])ccc4F)c4ccc([nH]4)c(-c4cc(S(=O)(=O)[O-])ccc4F)c4nc(c(-c5cc(S(=O)(=O)[O-])ccc5F)c5ccc2[nH]5)C=C4)C=C3)cc1
REMARK SMILES IDX 28 1 27 2 26 3 24 4 25 5 23 7 12 8 13 9 14 10 22 11 15 12
REMARK SMILES IDX 11 13 8 15 9 16 10 17 7 18 1 19 2 20 3 21 4 22 6 23 5 24
REMARK SMILES IDX 16 25 17 26 21 27 18 28 20 29 19 30 29 31 30 32 31 33 32 35
REMARK SMILES IDX 33 36 34 37 95 38 35 39 94 40 36 41 37 42 38 43 88 44 39 45
REMARK SMILES IDX 93 46 87 47 89 48 40 49 92 50 86 51 85 52 41 54 73 55 53 56
REMARK SMILES IDX 72 57 54 58 57 59 71 60 90 61 55 62 56 63 70 65 91 66 58 67
REMARK SMILES IDX 42 68 43 69 51 70 44 71 50 72 52 73 49 74 45 75 46 76 47 77
REMARK SMILES IDX 48 78 74 79 75 80 83 81 76 82 82 83 84 84 81 85 77 86 78 87
REMARK SMILES IDX 79 88 80 89 59 90 60 91 68 92 61 93 67 94 69 95 66 96 62 97
REMARK SMILES IDX 63 98 64 99 65 100
REMARK H PARENT 26 6 11 14 30 34 89 53 57 64
REMARK Flexibility Score: inf
ROOT
ATOM      1  C   UNL A   1      38.408  21.457  25.434  1.00  0.00     0.042 C 
ENDROOT
BRANCH   1   2
ATOM      2  C   UNL A   1      36.926  21.200  25.270  1.00  0.00     0.118 C 
BRANCH   2   3
ATOM      3  N   UNL A   1      36.108  21.726  26.360  1.00  0.00    -0.352 N 
ATOM      4  C   UNL A   1      34.738  21.781  26.501  1.00  0.00     0.253 C 
ATOM      5  O   UNL A   1      34.216  22.410  27.420  1.00  0.00    -0.269 OA
ATOM      6  H   UNL A   1      36.616  22.100  27.115  1.00  0.00     0.163 HD
BRANCH   4   7
ATOM      7  C   UNL A   1      33.843  21.130  25.506  1.00  0.00     0.066 A 
ATOM      8  C   UNL A   1      33.173  21.890  24.542  1.00  0.00     0.062 A 
ATOM      9  C   UNL A   1      32.430  21.225  23.568  1.00  0.00     0.030 A 
ATOM     10  C   UNL A   1      32.466  19.824  23.490  1.00  0.00     0.028 A 
ATOM     11  C   UNL A   1      33.696  19.734  25.512  1.00  0.00     0.042 A 
ATOM     12  C   UNL A   1      33.161  19.043  24.424  1.00  0.00     0.038 A 
BRANCH   8  13
ATOM     13  N   UNL A   1      33.217  23.320  24.550  1.00  0.00    -0.279 N 
ATOM     14  H   UNL A   1      32.544  23.824  25.063  1.00  0.00     0.180 HD
BRANCH  13  15
ATOM     15  S   UNL A   1      34.405  24.153  23.694  1.00  0.00     0.262 S 
ATOM     16  O   UNL A   1      34.406  23.576  22.363  1.00  0.00    -0.201 OA
ATOM     17  O   UNL A   1      35.640  24.161  24.452  1.00  0.00    -0.201 OA
BRANCH  15  18
ATOM     18  C   UNL A   1      33.805  25.843  23.547  1.00  0.00     0.090 A 
ATOM     19  C   UNL A   1      33.710  26.352  26.092  1.00  0.00     0.046 C 
ATOM     20  C   UNL A   1      33.633  26.719  24.640  1.00  0.00    -0.031 A 
ATOM     21  C   UNL A   1      33.287  28.062  24.372  1.00  0.00     0.005 A 
ATOM     22  C   UNL A   1      33.148  28.536  23.070  1.00  0.00     0.000 A 
ATOM     23  C   UNL A   1      33.649  26.333  22.235  1.00  0.00     0.022 A 
ATOM     24  C   UNL A   1      33.324  27.671  22.000  1.00  0.00     0.001 A 
ENDBRANCH  15  18
ENDBRANCH  13  15
ENDBRANCH   8  13
BRANCH  12  25
ATOM     25  N   UNL A   1      33.361  17.686  24.251  1.00  0.00    -0.367 N 
ATOM     26  C   UNL A   1      32.355  16.651  24.569  1.00  0.00     0.145 C 
ATOM     27  C   UNL A   1      34.722  17.147  24.052  1.00  0.00     0.145 C 
ATOM     28  C   UNL A   1      32.851  15.730  25.697  1.00  0.00     0.181 C 
ATOM     29  C   UNL A   1      35.100  16.172  25.183  1.00  0.00     0.181 C 
ATOM     30  O   UNL A   1      34.118  15.140  25.359  1.00  0.00    -0.378 OA
ENDBRANCH  12  25
ENDBRANCH   4   7
ENDBRANCH   2   3
ENDBRANCH   1   2
BRANCH   1  31
ATOM     31  C   UNL A   1      38.695  22.764  26.148  1.00  0.00     0.118 C 
BRANCH  31  32
ATOM     32  N   UNL A   1      40.116  22.891  26.494  1.00  0.00    -0.352 N 
ATOM     33  C   UNL A   1      40.831  24.017  26.869  1.00  0.00     0.251 C 
ATOM     34  H   UNL A   1      40.635  22.054  26.456  1.00  0.00     0.163 HD
ATOM     35  O   UNL A   1      42.014  23.990  27.142  1.00  0.00    -0.269 OA
BRANCH  33  36
ATOM     36  C   UNL A   1      40.058  25.265  27.020  1.00  0.00     0.039 A 
ATOM     37  C   UNL A   1      40.531  26.373  26.312  1.00  0.00     0.014 A 
ATOM     38  C   UNL A   1      39.216  25.397  28.121  1.00  0.00     0.014 A 
ATOM     39  C   UNL A   1      40.371  27.637  26.866  1.00  0.00     0.010 A 
ATOM     40  C   UNL A   1      39.133  26.647  28.709  1.00  0.00     0.010 A 
ATOM     41  C   UNL A   1      39.785  27.747  28.126  1.00  0.00    -0.014 A 
BRANCH  41  42
ATOM     42  C   UNL A   1      39.973  28.921  28.977  1.00  0.00     0.031 A 
ATOM     43  C   UNL A   1      38.958  29.992  29.010  1.00  0.00     0.074 A 
ATOM     44  C   UNL A   1      41.061  29.035  29.774  1.00  0.00     0.049 A 
ATOM     45  N   UNL A   1      39.190  31.204  29.392  1.00  0.00    -0.248 NA
ATOM     46  C   UNL A   1      37.594  29.789  28.547  1.00  0.00     0.031 C 
ATOM     47  C   UNL A   1      41.262  29.986  30.864  1.00  0.00     0.029 A 
ATOM     48  N   UNL A   1      42.323  28.476  29.567  1.00  0.00    -0.354 N 
ATOM     49  C   UNL A   1      37.982  31.849  29.505  1.00  0.00     0.074 A 
ATOM     50  C   UNL A   1      37.033  30.952  28.887  1.00  0.00     0.031 C 
ATOM     51  C   UNL A   1      42.577  30.160  31.054  1.00  0.00     0.029 A 
ATOM     52  C   UNL A   1      43.268  29.428  30.010  1.00  0.00     0.049 A 
ATOM     53  H   UNL A   1      42.517  27.589  29.187  1.00  0.00     0.167 HD
ATOM     54  C   UNL A   1      37.910  33.006  30.223  1.00  0.00     0.034 A 
ATOM     55  C   UNL A   1      44.219  29.933  29.171  1.00  0.00     0.034 A 
ATOM     56  C   UNL A   1      39.233  33.468  30.657  1.00  0.00     0.049 A 
ATOM     57  C   UNL A   1      44.161  31.438  28.995  1.00  0.00     0.074 A 
ATOM     58  C   UNL A   1      39.919  33.471  31.861  1.00  0.00     0.029 A 
ATOM     59  N   UNL A   1      40.157  33.840  29.697  1.00  0.00    -0.354 N 
ATOM     60  N   UNL A   1      43.253  32.203  29.537  1.00  0.00    -0.248 NA
ATOM     61  C   UNL A   1      45.061  32.193  28.122  1.00  0.00     0.031 C 
ATOM     62  C   UNL A   1      41.269  33.852  31.604  1.00  0.00     0.029 A 
ATOM     63  C   UNL A   1      41.397  34.092  30.248  1.00  0.00     0.049 A 
ATOM     64  H   UNL A   1      39.954  33.916  28.736  1.00  0.00     0.167 HD
ATOM     65  C   UNL A   1      43.378  33.480  29.055  1.00  0.00     0.074 A 
ATOM     66  C   UNL A   1      44.534  33.428  28.179  1.00  0.00     0.031 C 
ATOM     67  C   UNL A   1      42.493  34.471  29.370  1.00  0.00     0.034 A 
BRANCH  54  68
ATOM     68  C   UNL A   1      36.623  33.603  30.756  1.00  0.00     0.023 A 
ATOM     69  C   UNL A   1      35.675  34.099  29.836  1.00  0.00     0.031 A 
ATOM     70  C   UNL A   1      36.278  33.772  32.110  1.00  0.00     0.131 A 
ATOM     71  C   UNL A   1      34.538  34.812  30.257  1.00  0.00     0.055 A 
ATOM     72  C   UNL A   1      35.179  34.532  32.533  1.00  0.00     0.041 A 
ATOM     73  F   UNL A   1      36.942  33.158  33.095  1.00  0.00    -0.206 F 
ATOM     74  C   UNL A   1      34.307  35.070  31.603  1.00  0.00     0.022 A 
BRANCH  71  75
ATOM     75  S   UNL A   1      33.360  35.400  29.012  1.00  0.00     0.124 S 
ATOM     76  O   UNL A   1      34.197  36.253  28.174  1.00  0.00    -0.237 OA
ATOM     77  O   UNL A   1      32.898  34.153  28.413  1.00  0.00    -0.237 OA
ATOM     78  O   UNL A   1      32.358  36.111  29.805  1.00  0.00    -0.744 OA
ENDBRANCH  71  75
ENDBRANCH  54  68
BRANCH  55  79
ATOM     79  C   UNL A   1      44.652  28.939  28.145  1.00  0.00     0.023 A 
ATOM     80  C   UNL A   1      45.491  27.891  28.589  1.00  0.00     0.031 A 
ATOM     81  C   UNL A   1      43.959  28.759  26.941  1.00  0.00     0.131 A 
ATOM     82  C   UNL A   1      45.457  26.643  27.954  1.00  0.00     0.055 A 
ATOM     83  C   UNL A   1      44.010  27.541  26.251  1.00  0.00     0.041 A 
ATOM     84  F   UNL A   1      43.117  29.699  26.486  1.00  0.00    -0.206 F 
ATOM     85  C   UNL A   1      44.722  26.462  26.781  1.00  0.00     0.022 A 
BRANCH  82  86
ATOM     86  S   UNL A   1      46.125  25.208  28.853  1.00  0.00     0.124 S 
ATOM     87  O   UNL A   1      45.419  24.097  28.227  1.00  0.00    -0.237 OA
ATOM     88  O   UNL A   1      47.561  25.290  28.582  1.00  0.00    -0.237 OA
ATOM     89  O   UNL A   1      45.774  25.473  30.246  1.00  0.00    -0.744 OA
ENDBRANCH  82  86
ENDBRANCH  55  79
BRANCH  67  90
ATOM     90  C   UNL A   1      42.583  35.882  28.847  1.00  0.00     0.023 A 
ATOM     91  C   UNL A   1      43.076  36.943  29.625  1.00  0.00     0.031 A 
ATOM     92  C   UNL A   1      42.091  36.222  27.566  1.00  0.00     0.131 A 
ATOM     93  C   UNL A   1      43.119  38.250  29.107  1.00  0.00     0.055 A 
ATOM     94  C   UNL A   1      42.059  37.534  27.088  1.00  0.00     0.041 A 
ATOM     95  F   UNL A   1      41.661  35.287  26.705  1.00  0.00    -0.206 F 
ATOM     96  C   UNL A   1      42.586  38.559  27.857  1.00  0.00     0.022 A 
BRANCH  93  97
ATOM     97  S   UNL A   1      43.958  39.539  30.068  1.00  0.00     0.124 S 
ATOM     98  O   UNL A   1      42.940  40.578  30.166  1.00  0.00    -0.237 OA
ATOM     99  O   UNL A   1      44.263  38.829  31.308  1.00  0.00    -0.237 OA
ATOM    100  O   UNL A   1      45.121  39.879  29.250  1.00  0.00    -0.744 OA
ENDBRANCH  93  97
ENDBRANCH  67  90
ENDBRANCH  41  42
ENDBRANCH  33  36
ENDBRANCH  31  32
ENDBRANCH   1  31
TORSDOF 17
ENDMDL
MODEL 3
REMARK VINA RESULT:     -13.9      1.830      2.001
REMARK SMILES Cc1ccccc1S(=O)(=O)Nc1ccc(N2CCOCC2)cc1C(=O)NCCCNC(=O)c1ccc(-c2c3nc(c(-c4cc(S(=O)(=O)[O-])ccc4F)c4ccc([nH]4)c(-c4cc(S(=O)(=O)[O-])ccc4F)c4nc(c(-c5cc(S(=O)(=O)[O-])ccc5F)c5ccc2[nH]5)C=C4)C=C3)cc1
REMARK SMILES IDX 28 1 27 2 26 3 24 4 25 5 23 7 12 8 13 9 14 10 22 11 15 12
REMARK SMILES IDX 11 13 8 15 9 16 10 17 7 18 1 19 2 20 3 21 4 22 6 23 5 24
REMARK SMILES IDX 16 25 17 26 21 27 18 28 20 29 19 30 29 31 30 32 31 33 32 35
REMARK SMILES IDX 33 36 34 37 95 38 35 39 94 40 36 41 37 42 38 43 88 44 39 45
REMARK SMILES IDX 93 46 87 47 89 48 40 49 92 50 86 51 85 52 41 54 73 55 53 56
REMARK SMILES IDX 72 57 54 58 57 59 71 60 90 61 55 62 56 63 70 65 91 66 58 67
REMARK SMILES IDX 42 68 43 69 51 70 44 71 50 72 52 73 49 74 45 75 46 76 47 77
REMARK SMILES IDX 48 78 74 79 75 80 83 81 76 82 82 83 84 84 81 85 77 86 78 87
REMARK SMILES IDX 79 88 80 89 59 90 60 91 68 92 61 93 67 94 69 95 66 96 62 97
REMARK SMILES IDX 63 98 64 99 65 100
REMARK H PARENT 26 6 11 14 30 34 89 53 57 64
REMARK Flexibility Score: inf
ROOT
ATOM      1  C   UNL A   1      32.449  31.210  27.165  1.00  0.00     0.042 C 
ENDROOT
BRANCH   1   2
ATOM      2  C   UNL A   1      31.802  30.319  26.128  1.00  0.00     0.118 C 
BRANCH   2   3
ATOM      3  N   UNL A   1      32.750  29.686  25.213  1.00  0.00    -0.352 N 
ATOM      4  C   UNL A   1      32.532  28.837  24.149  1.00  0.00     0.253 C 
ATOM      5  O   UNL A   1      33.466  28.268  23.586  1.00  0.00    -0.269 OA
ATOM      6  H   UNL A   1      33.695  29.901  25.384  1.00  0.00     0.163 HD
BRANCH   4   7
ATOM      7  C   UNL A   1      31.151  28.535  23.686  1.00  0.00     0.066 A 
ATOM      8  C   UNL A   1      30.575  27.282  23.924  1.00  0.00     0.062 A 
ATOM      9  C   UNL A   1      29.244  27.083  23.564  1.00  0.00     0.030 A 
ATOM     10  C   UNL A   1      28.473  28.158  23.094  1.00  0.00     0.028 A 
ATOM     11  C   UNL A   1      30.404  29.528  23.034  1.00  0.00     0.042 A 
ATOM     12  C   UNL A   1      29.020  29.431  22.883  1.00  0.00     0.038 A 
BRANCH   8  13
ATOM     13  N   UNL A   1      31.325  26.210  24.501  1.00  0.00    -0.279 N 
ATOM     14  H   UNL A   1      31.904  25.657  23.927  1.00  0.00     0.180 HD
BRANCH  13  15
ATOM     15  S   UNL A   1      31.231  25.879  26.151  1.00  0.00     0.262 S 
ATOM     16  O   UNL A   1      29.870  25.432  26.383  1.00  0.00    -0.201 OA
ATOM     17  O   UNL A   1      31.734  27.008  26.906  1.00  0.00    -0.201 OA
BRANCH  15  18
ATOM     18  C   UNL A   1      32.315  24.469  26.427  1.00  0.00     0.090 A 
ATOM     19  C   UNL A   1      34.431  25.493  25.324  1.00  0.00     0.046 C 
ATOM     20  C   UNL A   1      33.690  24.455  26.113  1.00  0.00    -0.031 A 
ATOM     21  C   UNL A   1      34.454  23.335  26.507  1.00  0.00     0.005 A 
ATOM     22  C   UNL A   1      33.891  22.278  27.219  1.00  0.00     0.000 A 
ATOM     23  C   UNL A   1      31.755  23.387  27.136  1.00  0.00     0.022 A 
ATOM     24  C   UNL A   1      32.539  22.300  27.530  1.00  0.00     0.001 A 
ENDBRANCH  15  18
ENDBRANCH  13  15
ENDBRANCH   8  13
BRANCH  12  25
ATOM     25  N   UNL A   1      28.236  30.536  22.606  1.00  0.00    -0.367 N 
ATOM     26  C   UNL A   1      27.653  30.828  21.279  1.00  0.00     0.145 C 
ATOM     27  C   UNL A   1      28.203  31.685  23.533  1.00  0.00     0.145 C 
ATOM     28  C   UNL A   1      28.226  32.134  20.702  1.00  0.00     0.181 C 
ATOM     29  C   UNL A   1      28.716  32.965  22.844  1.00  0.00     0.181 C 
ATOM     30  O   UNL A   1      28.027  33.229  21.613  1.00  0.00    -0.378 OA
ENDBRANCH  12  25
ENDBRANCH   4   7
ENDBRANCH   2   3
ENDBRANCH   1   2
BRANCH   1  31
ATOM     31  C   UNL A   1      33.858  30.768  27.512  1.00  0.00     0.118 C 
BRANCH  31  32
ATOM     32  N   UNL A   1      34.461  31.635  28.533  1.00  0.00    -0.352 N 
ATOM     33  C   UNL A   1      35.639  31.467  29.242  1.00  0.00     0.251 C 
ATOM     34  H   UNL A   1      33.955  32.454  28.742  1.00  0.00     0.163 HD
ATOM     35  O   UNL A   1      36.038  32.269  30.063  1.00  0.00    -0.269 OA
BRANCH  33  36
ATOM     36  C   UNL A   1      36.459  30.294  28.884  1.00  0.00     0.039 A 
ATOM     37  C   UNL A   1      36.615  29.324  29.879  1.00  0.00     0.014 A 
ATOM     38  C   UNL A   1      37.341  30.401  27.812  1.00  0.00     0.014 A 
ATOM     39  C   UNL A   1      37.810  28.620  29.942  1.00  0.00     0.010 A 
ATOM     40  C   UNL A   1      38.561  29.758  27.929  1.00  0.00     0.010 A 
ATOM     41  C   UNL A   1      38.825  28.939  29.040  1.00  0.00    -0.014 A 
BRANCH  41  42
ATOM     42  C   UNL A   1      40.227  28.608  29.291  1.00  0.00     0.031 A 
ATOM     43  C   UNL A   1      40.814  27.370  28.742  1.00  0.00     0.074 A 
ATOM     44  C   UNL A   1      41.022  29.443  29.999  1.00  0.00     0.049 A 
ATOM     45  N   UNL A   1      41.873  26.797  29.208  1.00  0.00    -0.248 NA
ATOM     46  C   UNL A   1      40.203  26.636  27.644  1.00  0.00     0.031 C 
ATOM     47  C   UNL A   1      42.479  29.400  30.103  1.00  0.00     0.029 A 
ATOM     48  N   UNL A   1      40.632  30.341  30.994  1.00  0.00    -0.354 N 
ATOM     49  C   UNL A   1      42.247  25.815  28.322  1.00  0.00     0.074 A 
ATOM     50  C   UNL A   1      41.128  25.702  27.414  1.00  0.00     0.031 C 
ATOM     51  C   UNL A   1      42.852  29.993  31.245  1.00  0.00     0.029 A 
ATOM     52  C   UNL A   1      41.645  30.324  31.977  1.00  0.00     0.049 A 
ATOM     53  H   UNL A   1      39.810  30.882  31.007  1.00  0.00     0.167 HD
ATOM     54  C   UNL A   1      43.510  25.306  28.386  1.00  0.00     0.034 A 
ATOM     55  C   UNL A   1      41.376  29.988  33.273  1.00  0.00     0.034 A 
ATOM     56  C   UNL A   1      44.252  25.819  29.543  1.00  0.00     0.049 A 
ATOM     57  C   UNL A   1      42.148  28.785  33.779  1.00  0.00     0.074 A 
ATOM     58  C   UNL A   1      45.265  26.748  29.720  1.00  0.00     0.029 A 
ATOM     59  N   UNL A   1      43.804  25.505  30.814  1.00  0.00    -0.354 N 
ATOM     60  N   UNL A   1      42.960  28.075  33.044  1.00  0.00    -0.248 NA
ATOM     61  C   UNL A   1      41.999  28.227  35.124  1.00  0.00     0.031 C 
ATOM     62  C   UNL A   1      45.415  26.983  31.118  1.00  0.00     0.029 A 
ATOM     63  C   UNL A   1      44.503  26.188  31.788  1.00  0.00     0.049 A 
ATOM     64  H   UNL A   1      43.074  24.870  31.001  1.00  0.00     0.167 HD
ATOM     65  C   UNL A   1      43.368  26.969  33.744  1.00  0.00     0.074 A 
ATOM     66  C   UNL A   1      42.749  27.113  35.048  1.00  0.00     0.031 C 
ATOM     67  C   UNL A   1      44.140  25.992  33.183  1.00  0.00     0.034 A 
BRANCH  54  68
ATOM     68  C   UNL A   1      44.179  24.533  27.267  1.00  0.00     0.023 A 
ATOM     69  C   UNL A   1      45.268  25.125  26.592  1.00  0.00     0.031 A 
ATOM     70  C   UNL A   1      43.791  23.273  26.774  1.00  0.00     0.131 A 
ATOM     71  C   UNL A   1      45.831  24.542  25.443  1.00  0.00     0.055 A 
ATOM     72  C   UNL A   1      44.309  22.717  25.596  1.00  0.00     0.041 A 
ATOM     73  F   UNL A   1      42.944  22.480  27.439  1.00  0.00    -0.206 F 
ATOM     74  C   UNL A   1      45.326  23.360  24.914  1.00  0.00     0.022 A 
BRANCH  71  75
ATOM     75  S   UNL A   1      47.239  25.357  24.645  1.00  0.00     0.124 S 
ATOM     76  O   UNL A   1      48.222  25.399  25.723  1.00  0.00    -0.237 OA
ATOM     77  O   UNL A   1      47.528  24.455  23.537  1.00  0.00    -0.237 OA
ATOM     78  O   UNL A   1      46.697  26.659  24.254  1.00  0.00    -0.744 OA
ENDBRANCH  71  75
ENDBRANCH  54  68
BRANCH  55  79
ATOM     79  C   UNL A   1      40.001  30.395  33.688  1.00  0.00     0.023 A 
ATOM     80  C   UNL A   1      39.829  31.740  34.088  1.00  0.00     0.031 A 
ATOM     81  C   UNL A   1      38.863  29.673  33.307  1.00  0.00     0.131 A 
ATOM     82  C   UNL A   1      38.597  32.379  33.903  1.00  0.00     0.055 A 
ATOM     83  C   UNL A   1      37.608  30.291  33.223  1.00  0.00     0.041 A 
ATOM     84  F   UNL A   1      38.964  28.405  32.879  1.00  0.00    -0.206 F 
ATOM     85  C   UNL A   1      37.480  31.659  33.474  1.00  0.00     0.022 A 
BRANCH  82  86
ATOM     86  S   UNL A   1      38.566  34.199  33.928  1.00  0.00     0.124 S 
ATOM     87  O   UNL A   1      39.265  34.502  35.170  1.00  0.00    -0.237 OA
ATOM     88  O   UNL A   1      39.267  34.556  32.693  1.00  0.00    -0.237 OA
ATOM     89  O   UNL A   1      37.141  34.525  33.910  1.00  0.00    -0.744 OA
ENDBRANCH  82  86
ENDBRANCH  55  79
BRANCH  67  90
ATOM     90  C   UNL A   1      44.594  24.752  33.910  1.00  0.00     0.023 A 
ATOM     91  C   UNL A   1      45.951  24.425  34.064  1.00  0.00     0.031 A 
ATOM     92  C   UNL A   1      43.664  23.808  34.402  1.00  0.00     0.131 A 
ATOM     93  C   UNL A   1      46.333  23.245  34.728  1.00  0.00     0.055 A 
ATOM     94  C   UNL A   1      44.046  22.599  34.986  1.00  0.00     0.041 A 
ATOM     95  F   UNL A   1      42.343  24.041  34.376  1.00  0.00    -0.206 F 
ATOM     96  C   UNL A   1      45.390  22.313  35.162  1.00  0.00     0.022 A 
BRANCH  93  97
ATOM     97  S   UNL A   1      48.089  22.977  35.087  1.00  0.00     0.124 S 
ATOM     98  O   UNL A   1      48.212  21.526  35.018  1.00  0.00    -0.237 OA
ATOM     99  O   UNL A   1      48.728  23.721  34.004  1.00  0.00    -0.237 OA
ATOM    100  O   UNL A   1      48.263  23.556  36.418  1.00  0.00    -0.744 OA
ENDBRANCH  93  97
ENDBRANCH  67  90
ENDBRANCH  41  42
ENDBRANCH  33  36
ENDBRANCH  31  32
ENDBRANCH   1  31
TORSDOF 17
ENDMDL
