MODEL 1
REMARK VINA RESULT:     -12.2      0.000      0.000
REMARK SMILES C[C@H](C(=O)NCCCNC(=O)c1ccc(-c2c3nc(c(-c4cc(S(=O)(=O)[O-])ccc4F)c4ccc([nH]4)c(-c4cc(S(=O)(=O)[O-])ccc4F)c4nc(c(-c5cc(S(=O)(=O)[O-])ccc5F)c5ccc2[nH]5)C=C4)C=C3)cc1)[C@H](C)[NH+]1CCN(c2ccccc2Cl)CC1
REMARK SMILES IDX 7 1 6 2 5 3 3 4 4 5 2 7 1 8 75 9 76 10 77 11 78 12 89 13
REMARK SMILES IDX 79 15 88 16 80 17 81 18 82 19 86 20 83 21 85 22 87 23 84 24
REMARK SMILES IDX 8 25 9 26 10 27 11 29 12 30 13 31 74 32 14 33 73 34 15 35
REMARK SMILES IDX 16 36 17 37 67 38 18 39 72 40 66 41 68 42 19 43 71 44 65 45
REMARK SMILES IDX 64 46 20 48 52 49 32 50 51 51 33 52 36 53 50 54 69 55 34 56
REMARK SMILES IDX 35 57 49 59 70 60 37 61 21 62 22 63 30 64 23 65 29 66 31 67
REMARK SMILES IDX 28 68 24 69 25 70 26 71 27 72 53 73 54 74 62 75 55 76 61 77
REMARK SMILES IDX 63 78 60 79 56 80 57 81 58 82 59 83 38 84 39 85 47 86 40 87
REMARK SMILES IDX 46 88 48 89 45 90 41 91 42 92 43 93 44 94
REMARK H PARENT 5 6 77 14 9 28 68 47 36 58
REMARK Flexibility Score: inf
ROOT
ATOM      1  C   UNL A   1      31.889  31.707  26.511  1.00  0.00     0.042 C 
ENDROOT
BRANCH   1   2
ATOM      2  C   UNL A   1      32.137  30.218  26.342  1.00  0.00     0.117 C 
BRANCH   2   3
ATOM      3  N   UNL A   1      32.625  29.908  25.011  1.00  0.00    -0.356 N 
ATOM      4  C   UNL A   1      32.247  29.032  24.053  1.00  0.00     0.228 C 
ATOM      5  O   UNL A   1      33.037  28.950  23.109  1.00  0.00    -0.275 OA
ATOM      6  H   UNL A   1      33.400  30.455  24.749  1.00  0.00     0.163 HD
BRANCH   4   7
ATOM      7  C   UNL A   1      31.013  28.132  24.142  1.00  0.00     0.133 C 
ATOM      8  C   UNL A   1      30.072  28.069  22.937  1.00  0.00     0.024 C 
BRANCH   7   9
ATOM      9  C   UNL A   1      31.369  26.688  24.672  1.00  0.00     0.193 C 
ATOM     10  C   UNL A   1      30.656  26.413  26.018  1.00  0.00     0.076 C 
BRANCH   9  11
ATOM     11  N   UNL A   1      32.729  26.105  24.577  1.00  0.00    -0.329 N 
ATOM     12  C   UNL A   1      33.298  25.373  25.721  1.00  0.00     0.284 C 
ATOM     13  C   UNL A   1      33.117  25.401  23.337  1.00  0.00     0.284 C 
ATOM     14  H   UNL A   1      33.157  27.030  24.574  1.00  0.00     0.348 HD
ATOM     15  C   UNL A   1      32.970  23.863  25.786  1.00  0.00     0.178 C 
ATOM     16  C   UNL A   1      32.766  23.896  23.283  1.00  0.00     0.178 C 
ATOM     17  N   UNL A   1      33.239  23.231  24.499  1.00  0.00    -0.359 N 
BRANCH  17  18
ATOM     18  C   UNL A   1      33.529  21.879  24.469  1.00  0.00     0.056 A 
ATOM     19  C   UNL A   1      32.542  20.937  24.143  1.00  0.00     0.027 A 
ATOM     20  C   UNL A   1      34.806  21.402  24.827  1.00  0.00     0.064 A 
ATOM     21  C   UNL A   1      32.808  19.566  24.204  1.00  0.00     0.002 A 
ATOM     22  C   UNL A   1      35.071  20.032  24.894  1.00  0.00     0.023 A 
ATOM     23  Cl  UNL A   1      36.085  22.494  25.248  1.00  0.00    -0.082 Cl
ATOM     24  C   UNL A   1      34.068  19.114  24.591  1.00  0.00     0.002 A 
ENDBRANCH  17  18
ENDBRANCH   9  11
ENDBRANCH   7   9
ENDBRANCH   4   7
ENDBRANCH   2   3
ENDBRANCH   1   2
BRANCH   1  25
ATOM     25  C   UNL A   1      32.914  32.410  27.386  1.00  0.00     0.118 C 
BRANCH  25  26
ATOM     26  N   UNL A   1      32.593  33.811  27.616  1.00  0.00    -0.352 N 
ATOM     27  C   UNL A   1      33.098  34.676  28.559  1.00  0.00     0.251 C 
ATOM     28  H   UNL A   1      31.919  34.195  27.010  1.00  0.00     0.163 HD
ATOM     29  O   UNL A   1      32.567  35.769  28.731  1.00  0.00    -0.269 OA
BRANCH  27  30
ATOM     30  C   UNL A   1      34.253  34.261  29.386  1.00  0.00     0.039 A 
ATOM     31  C   UNL A   1      34.028  33.620  30.605  1.00  0.00     0.014 A 
ATOM     32  C   UNL A   1      35.558  34.471  28.935  1.00  0.00     0.014 A 
ATOM     33  C   UNL A   1      35.110  33.112  31.326  1.00  0.00     0.010 A 
ATOM     34  C   UNL A   1      36.621  33.866  29.594  1.00  0.00     0.010 A 
ATOM     35  C   UNL A   1      36.413  33.185  30.803  1.00  0.00    -0.014 A 
BRANCH  35  36
ATOM     36  C   UNL A   1      37.572  32.578  31.510  1.00  0.00     0.031 A 
ATOM     37  C   UNL A   1      38.315  31.428  30.880  1.00  0.00     0.074 A 
ATOM     38  C   UNL A   1      37.912  33.012  32.741  1.00  0.00     0.049 A 
ATOM     39  N   UNL A   1      39.291  30.706  31.367  1.00  0.00    -0.248 NA
ATOM     40  C   UNL A   1      37.875  31.014  29.539  1.00  0.00     0.031 C 
ATOM     41  C   UNL A   1      37.238  34.085  33.477  1.00  0.00     0.029 A 
ATOM     42  N   UNL A   1      38.905  32.602  33.596  1.00  0.00    -0.354 N 
ATOM     43  C   UNL A   1      39.567  29.743  30.401  1.00  0.00     0.074 A 
ATOM     44  C   UNL A   1      38.605  29.928  29.337  1.00  0.00     0.031 C 
ATOM     45  C   UNL A   1      37.859  34.270  34.653  1.00  0.00     0.029 A 
ATOM     46  C   UNL A   1      38.939  33.298  34.782  1.00  0.00     0.049 A 
ATOM     47  H   UNL A   1      39.535  31.876  33.380  1.00  0.00     0.167 HD
ATOM     48  C   UNL A   1      40.552  28.811  30.387  1.00  0.00     0.034 A 
ATOM     49  C   UNL A   1      39.741  33.160  35.858  1.00  0.00     0.034 A 
ATOM     50  C   UNL A   1      41.516  28.654  31.448  1.00  0.00     0.049 A 
ATOM     51  C   UNL A   1      40.814  32.100  35.831  1.00  0.00     0.074 A 
ATOM     52  C   UNL A   1      42.590  27.784  31.514  1.00  0.00     0.029 A 
ATOM     53  N   UNL A   1      41.518  29.377  32.635  1.00  0.00    -0.354 N 
ATOM     54  N   UNL A   1      41.098  31.234  34.885  1.00  0.00    -0.248 NA
ATOM     55  C   UNL A   1      41.681  32.005  37.013  1.00  0.00     0.031 C 
ATOM     56  C   UNL A   1      43.195  27.928  32.767  1.00  0.00     0.029 A 
ATOM     57  C   UNL A   1      42.553  28.949  33.452  1.00  0.00     0.049 A 
ATOM     58  H   UNL A   1      40.878  30.090  32.862  1.00  0.00     0.167 HD
ATOM     59  C   UNL A   1      42.196  30.514  35.346  1.00  0.00     0.074 A 
ATOM     60  C   UNL A   1      42.533  31.060  36.645  1.00  0.00     0.031 C 
ATOM     61  C   UNL A   1      42.869  29.496  34.751  1.00  0.00     0.034 A 
BRANCH  48  62
ATOM     62  C   UNL A   1      40.616  27.884  29.196  1.00  0.00     0.023 A 
ATOM     63  C   UNL A   1      41.553  28.069  28.163  1.00  0.00     0.031 A 
ATOM     64  C   UNL A   1      39.708  26.818  29.072  1.00  0.00     0.131 A 
ATOM     65  C   UNL A   1      41.508  27.258  27.019  1.00  0.00     0.055 A 
ATOM     66  C   UNL A   1      39.726  25.958  27.971  1.00  0.00     0.041 A 
ATOM     67  F   UNL A   1      38.774  26.603  30.012  1.00  0.00    -0.206 F 
ATOM     68  C   UNL A   1      40.619  26.186  26.928  1.00  0.00     0.022 A 
BRANCH  65  69
ATOM     69  S   UNL A   1      42.520  27.725  25.588  1.00  0.00     0.124 S 
ATOM     70  O   UNL A   1      41.915  28.997  25.202  1.00  0.00    -0.237 OA
ATOM     71  O   UNL A   1      43.859  27.803  26.161  1.00  0.00    -0.237 OA
ATOM     72  O   UNL A   1      42.306  26.629  24.645  1.00  0.00    -0.744 OA
ENDBRANCH  65  69
ENDBRANCH  48  62
BRANCH  49  73
ATOM     73  C   UNL A   1      39.564  34.035  37.055  1.00  0.00     0.023 A 
ATOM     74  C   UNL A   1      38.974  33.543  38.231  1.00  0.00     0.031 A 
ATOM     75  C   UNL A   1      39.938  35.391  37.025  1.00  0.00     0.131 A 
ATOM     76  C   UNL A   1      38.729  34.410  39.308  1.00  0.00     0.055 A 
ATOM     77  C   UNL A   1      39.746  36.235  38.120  1.00  0.00     0.041 A 
ATOM     78  F   UNL A   1      40.509  35.913  35.928  1.00  0.00    -0.206 F 
ATOM     79  C   UNL A   1      39.124  35.748  39.266  1.00  0.00     0.022 A 
BRANCH  76  80
ATOM     80  S   UNL A   1      37.799  33.782  40.733  1.00  0.00     0.124 S 
ATOM     81  O   UNL A   1      38.787  32.925  41.377  1.00  0.00    -0.237 OA
ATOM     82  O   UNL A   1      37.460  35.014  41.439  1.00  0.00    -0.237 OA
ATOM     83  O   UNL A   1      36.670  33.086  40.122  1.00  0.00    -0.744 OA
ENDBRANCH  76  80
ENDBRANCH  49  73
BRANCH  61  84
ATOM     84  C   UNL A   1      44.067  28.943  35.484  1.00  0.00     0.023 A 
ATOM     85  C   UNL A   1      43.963  27.837  36.344  1.00  0.00     0.031 A 
ATOM     86  C   UNL A   1      45.332  29.538  35.322  1.00  0.00     0.131 A 
ATOM     87  C   UNL A   1      45.090  27.397  37.056  1.00  0.00     0.055 A 
ATOM     88  C   UNL A   1      46.462  29.053  35.980  1.00  0.00     0.041 A 
ATOM     89  F   UNL A   1      45.489  30.599  34.515  1.00  0.00    -0.206 F 
ATOM     90  C   UNL A   1      46.342  27.985  36.865  1.00  0.00     0.022 A 
BRANCH  87  91
ATOM     91  S   UNL A   1      44.875  26.107  38.313  1.00  0.00     0.124 S 
ATOM     92  O   UNL A   1      43.582  26.459  38.891  1.00  0.00    -0.237 OA
ATOM     93  O   UNL A   1      44.905  24.886  37.516  1.00  0.00    -0.237 OA
ATOM     94  O   UNL A   1      46.022  26.297  39.198  1.00  0.00    -0.744 OA
ENDBRANCH  87  91
ENDBRANCH  61  84
ENDBRANCH  35  36
ENDBRANCH  27  30
ENDBRANCH  25  26
ENDBRANCH   1  25
TORSDOF 16
ENDMDL
MODEL 2
REMARK VINA RESULT:     -12.1      1.420      1.685
REMARK SMILES C[C@H](C(=O)NCCCNC(=O)c1ccc(-c2c3nc(c(-c4cc(S(=O)(=O)[O-])ccc4F)c4ccc([nH]4)c(-c4cc(S(=O)(=O)[O-])ccc4F)c4nc(c(-c5cc(S(=O)(=O)[O-])ccc5F)c5ccc2[nH]5)C=C4)C=C3)cc1)[C@H](C)[NH+]1CCN(c2ccccc2Cl)CC1
REMARK SMILES IDX 7 1 6 2 5 3 3 4 4 5 2 7 1 8 75 9 76 10 77 11 78 12 89 13
REMARK SMILES IDX 79 15 88 16 80 17 81 18 82 19 86 20 83 21 85 22 87 23 84 24
REMARK SMILES IDX 8 25 9 26 10 27 11 29 12 30 13 31 74 32 14 33 73 34 15 35
REMARK SMILES IDX 16 36 17 37 67 38 18 39 72 40 66 41 68 42 19 43 71 44 65 45
REMARK SMILES IDX 64 46 20 48 52 49 32 50 51 51 33 52 36 53 50 54 69 55 34 56
REMARK SMILES IDX 35 57 49 59 70 60 37 61 21 62 22 63 30 64 23 65 29 66 31 67
REMARK SMILES IDX 28 68 24 69 25 70 26 71 27 72 53 73 54 74 62 75 55 76 61 77
REMARK SMILES IDX 63 78 60 79 56 80 57 81 58 82 59 83 38 84 39 85 47 86 40 87
REMARK SMILES IDX 46 88 48 89 45 90 41 91 42 92 43 93 44 94
REMARK H PARENT 5 6 77 14 9 28 68 47 36 58
REMARK Flexibility Score: inf
ROOT
ATOM      1  C   UNL A   1      31.390  31.807  26.467  1.00  0.00     0.042 C 
ENDROOT
BRANCH   1   2
ATOM      2  C   UNL A   1      31.438  30.318  26.168  1.00  0.00     0.117 C 
BRANCH   2   3
ATOM      3  N   UNL A   1      31.795  30.065  24.785  1.00  0.00    -0.356 N 
ATOM      4  C   UNL A   1      31.453  29.115  23.887  1.00  0.00     0.228 C 
ATOM      5  O   UNL A   1      32.116  29.146  22.846  1.00  0.00    -0.275 OA
ATOM      6  H   UNL A   1      32.424  30.730  24.422  1.00  0.00     0.163 HD
BRANCH   4   7
ATOM      7  C   UNL A   1      30.415  28.019  24.138  1.00  0.00     0.133 C 
ATOM      8  C   UNL A   1      29.268  27.862  23.138  1.00  0.00     0.024 C 
BRANCH   7   9
ATOM      9  C   UNL A   1      31.087  26.629  24.468  1.00  0.00     0.193 C 
ATOM     10  C   UNL A   1      30.277  25.877  25.550  1.00  0.00     0.076 C 
BRANCH   9  11
ATOM     11  N   UNL A   1      32.556  26.446  24.575  1.00  0.00    -0.329 N 
ATOM     12  C   UNL A   1      33.142  25.907  25.812  1.00  0.00     0.284 C 
ATOM     13  C   UNL A   1      33.287  25.872  23.425  1.00  0.00     0.284 C 
ATOM     14  H   UNL A   1      32.709  27.454  24.588  1.00  0.00     0.348 HD
ATOM     15  C   UNL A   1      33.236  24.365  25.897  1.00  0.00     0.178 C 
ATOM     16  C   UNL A   1      33.374  24.329  23.390  1.00  0.00     0.178 C 
ATOM     17  N   UNL A   1      33.841  23.827  24.684  1.00  0.00    -0.359 N 
BRANCH  17  18
ATOM     18  C   UNL A   1      34.493  22.609  24.748  1.00  0.00     0.056 A 
ATOM     19  C   UNL A   1      33.792  21.407  24.570  1.00  0.00     0.027 A 
ATOM     20  C   UNL A   1      35.865  22.535  25.058  1.00  0.00     0.064 A 
ATOM     21  C   UNL A   1      34.431  20.172  24.729  1.00  0.00     0.002 A 
ATOM     22  C   UNL A   1      36.502  21.303  25.223  1.00  0.00     0.023 A 
ATOM     23  Cl  UNL A   1      36.808  23.970  25.300  1.00  0.00    -0.082 Cl
ATOM     24  C   UNL A   1      35.781  20.121  25.067  1.00  0.00     0.002 A 
ENDBRANCH  17  18
ENDBRANCH   9  11
ENDBRANCH   7   9
ENDBRANCH   4   7
ENDBRANCH   2   3
ENDBRANCH   1   2
BRANCH   1  25
ATOM     25  C   UNL A   1      32.706  32.381  26.966  1.00  0.00     0.118 C 
BRANCH  25  26
ATOM     26  N   UNL A   1      32.563  33.719  27.521  1.00  0.00    -0.352 N 
ATOM     27  C   UNL A   1      33.260  34.314  28.548  1.00  0.00     0.251 C 
ATOM     28  H   UNL A   1      31.869  34.278  27.101  1.00  0.00     0.163 HD
ATOM     29  O   UNL A   1      32.869  35.382  29.011  1.00  0.00    -0.269 OA
BRANCH  27  30
ATOM     30  C   UNL A   1      34.449  33.639  29.111  1.00  0.00     0.039 A 
ATOM     31  C   UNL A   1      35.704  34.233  28.972  1.00  0.00     0.014 A 
ATOM     32  C   UNL A   1      34.316  32.438  29.812  1.00  0.00     0.014 A 
ATOM     33  C   UNL A   1      36.809  33.667  29.613  1.00  0.00     0.010 A 
ATOM     34  C   UNL A   1      35.390  31.942  30.540  1.00  0.00     0.010 A 
ATOM     35  C   UNL A   1      36.653  32.545  30.444  1.00  0.00    -0.014 A 
BRANCH  35  36
ATOM     36  C   UNL A   1      37.797  31.972  31.204  1.00  0.00     0.031 A 
ATOM     37  C   UNL A   1      38.640  30.889  30.584  1.00  0.00     0.074 A 
ATOM     38  C   UNL A   1      38.033  32.376  32.469  1.00  0.00     0.049 A 
ATOM     39  N   UNL A   1      39.621  30.200  31.108  1.00  0.00    -0.248 NA
ATOM     40  C   UNL A   1      38.309  30.504  29.203  1.00  0.00     0.031 C 
ATOM     41  C   UNL A   1      37.256  33.383  33.196  1.00  0.00     0.029 A 
ATOM     42  N   UNL A   1      38.991  31.985  33.372  1.00  0.00    -0.354 N 
ATOM     43  C   UNL A   1      40.010  29.291  30.129  1.00  0.00     0.074 A 
ATOM     44  C   UNL A   1      39.109  29.467  29.012  1.00  0.00     0.031 C 
ATOM     45  C   UNL A   1      37.790  33.555  34.416  1.00  0.00     0.029 A 
ATOM     46  C   UNL A   1      38.911  32.636  34.582  1.00  0.00     0.049 A 
ATOM     47  H   UNL A   1      39.672  31.303  33.172  1.00  0.00     0.167 HD
ATOM     48  C   UNL A   1      41.044  28.414  30.146  1.00  0.00     0.034 A 
ATOM     49  C   UNL A   1      39.649  32.499  35.702  1.00  0.00     0.034 A 
ATOM     50  C   UNL A   1      41.946  28.266  31.262  1.00  0.00     0.049 A 
ATOM     51  C   UNL A   1      40.779  31.499  35.709  1.00  0.00     0.074 A 
ATOM     52  C   UNL A   1      43.060  27.453  31.368  1.00  0.00     0.029 A 
ATOM     53  N   UNL A   1      41.833  28.942  32.472  1.00  0.00    -0.354 N 
ATOM     54  N   UNL A   1      41.169  30.686  34.753  1.00  0.00    -0.248 NA
ATOM     55  C   UNL A   1      41.572  31.404  36.940  1.00  0.00     0.031 C 
ATOM     56  C   UNL A   1      43.574  27.580  32.662  1.00  0.00     0.029 A 
ATOM     57  C   UNL A   1      42.836  28.538  33.339  1.00  0.00     0.049 A 
ATOM     58  H   UNL A   1      41.141  29.611  32.681  1.00  0.00     0.167 HD
ATOM     59  C   UNL A   1      42.274  30.008  35.260  1.00  0.00     0.074 A 
ATOM     60  C   UNL A   1      42.497  30.520  36.596  1.00  0.00     0.031 C 
ATOM     61  C   UNL A   1      43.038  29.051  34.674  1.00  0.00     0.034 A 
BRANCH  48  62
ATOM     62  C   UNL A   1      41.234  27.538  28.930  1.00  0.00     0.023 A 
ATOM     63  C   UNL A   1      42.250  27.788  27.989  1.00  0.00     0.031 A 
ATOM     64  C   UNL A   1      40.370  26.456  28.688  1.00  0.00     0.131 A 
ATOM     65  C   UNL A   1      42.324  27.024  26.816  1.00  0.00     0.055 A 
ATOM     66  C   UNL A   1      40.505  25.642  27.561  1.00  0.00     0.041 A 
ATOM     67  F   UNL A   1      39.366  26.179  29.536  1.00  0.00    -0.206 F 
ATOM     68  C   UNL A   1      41.477  25.935  26.607  1.00  0.00     0.022 A 
BRANCH  65  69
ATOM     69  S   UNL A   1      43.440  27.574  25.496  1.00  0.00     0.124 S 
ATOM     70  O   UNL A   1      42.494  27.990  24.464  1.00  0.00    -0.237 OA
ATOM     71  O   UNL A   1      44.191  28.644  26.143  1.00  0.00    -0.237 OA
ATOM     72  O   UNL A   1      44.211  26.374  25.176  1.00  0.00    -0.744 OA
ENDBRANCH  65  69
ENDBRANCH  48  62
BRANCH  49  73
ATOM     73  C   UNL A   1      39.349  33.317  36.915  1.00  0.00     0.023 A 
ATOM     74  C   UNL A   1      40.011  34.531  37.152  1.00  0.00     0.031 A 
ATOM     75  C   UNL A   1      38.427  32.871  37.881  1.00  0.00     0.131 A 
ATOM     76  C   UNL A   1      39.783  35.233  38.346  1.00  0.00     0.055 A 
ATOM     77  C   UNL A   1      38.160  33.603  39.039  1.00  0.00     0.041 A 
ATOM     78  F   UNL A   1      37.762  31.718  37.704  1.00  0.00    -0.206 F 
ATOM     79  C   UNL A   1      38.851  34.785  39.285  1.00  0.00     0.022 A 
BRANCH  76  80
ATOM     80  S   UNL A   1      40.794  36.698  38.700  1.00  0.00     0.124 S 
ATOM     81  O   UNL A   1      39.773  37.702  38.974  1.00  0.00    -0.237 OA
ATOM     82  O   UNL A   1      41.581  36.252  39.845  1.00  0.00    -0.237 OA
ATOM     83  O   UNL A   1      41.550  36.895  37.466  1.00  0.00    -0.744 OA
ENDBRANCH  76  80
ENDBRANCH  49  73
BRANCH  61  84
ATOM     84  C   UNL A   1      44.215  28.533  35.464  1.00  0.00     0.023 A 
ATOM     85  C   UNL A   1      44.085  27.477  36.383  1.00  0.00     0.031 A 
ATOM     86  C   UNL A   1      45.487  29.111  35.298  1.00  0.00     0.131 A 
ATOM     87  C   UNL A   1      45.192  27.072  37.143  1.00  0.00     0.055 A 
ATOM     88  C   UNL A   1      46.599  28.658  36.008  1.00  0.00     0.041 A 
ATOM     89  F   UNL A   1      45.670  30.124  34.436  1.00  0.00    -0.206 F 
ATOM     90  C   UNL A   1      46.452  27.642  36.948  1.00  0.00     0.022 A 
BRANCH  87  91
ATOM     91  S   UNL A   1      44.941  25.856  38.466  1.00  0.00     0.124 S 
ATOM     92  O   UNL A   1      44.171  26.623  39.440  1.00  0.00    -0.237 OA
ATOM     93  O   UNL A   1      44.219  24.792  37.779  1.00  0.00    -0.237 OA
ATOM     94  O   UNL A   1      46.301  25.515  38.880  1.00  0.00    -0.744 OA
ENDBRANCH  87  91
ENDBRANCH  61  84
ENDBRANCH  35  36
ENDBRANCH  27  30
ENDBRANCH  25  26
ENDBRANCH   1  25
TORSDOF 16
ENDMDL
MODEL 3
REMARK VINA RESULT:     -12.0      1.736      2.160
REMARK SMILES C[C@H](C(=O)NCCCNC(=O)c1ccc(-c2c3nc(c(-c4cc(S(=O)(=O)[O-])ccc4F)c4ccc([nH]4)c(-c4cc(S(=O)(=O)[O-])ccc4F)c4nc(c(-c5cc(S(=O)(=O)[O-])ccc5F)c5ccc2[nH]5)C=C4)C=C3)cc1)[C@H](C)[NH+]1CCN(c2ccccc2Cl)CC1
REMARK SMILES IDX 7 1 6 2 5 3 3 4 4 5 2 7 1 8 75 9 76 10 77 11 78 12 89 13
REMARK SMILES IDX 79 15 88 16 80 17 81 18 82 19 86 20 83 21 85 22 87 23 84 24
REMARK SMILES IDX 8 25 9 26 10 27 11 29 12 30 13 31 74 32 14 33 73 34 15 35
REMARK SMILES IDX 16 36 17 37 67 38 18 39 72 40 66 41 68 42 19 43 71 44 65 45
REMARK SMILES IDX 64 46 20 48 52 49 32 50 51 51 33 52 36 53 50 54 69 55 34 56
REMARK SMILES IDX 35 57 49 59 70 60 37 61 21 62 22 63 30 64 23 65 29 66 31 67
REMARK SMILES IDX 28 68 24 69 25 70 26 71 27 72 53 73 54 74 62 75 55 76 61 77
REMARK SMILES IDX 63 78 60 79 56 80 57 81 58 82 59 83 38 84 39 85 47 86 40 87
REMARK SMILES IDX 46 88 48 89 45 90 41 91 42 92 43 93 44 94
REMARK H PARENT 5 6 77 14 9 28 68 47 36 58
REMARK Flexibility Score: inf
ROOT
ATOM      1  C   UNL A   1      31.146  32.170  26.388  1.00  0.00     0.042 C 
ENDROOT
BRANCH   1   2
ATOM      2  C   UNL A   1      31.176  30.878  25.590  1.00  0.00     0.117 C 
BRANCH   2   3
ATOM      3  N   UNL A   1      32.382  30.116  25.856  1.00  0.00    -0.356 N 
ATOM      4  C   UNL A   1      33.008  29.100  25.222  1.00  0.00     0.228 C 
ATOM      5  O   UNL A   1      33.933  28.600  25.868  1.00  0.00    -0.275 OA
ATOM      6  H   UNL A   1      32.845  30.403  26.676  1.00  0.00     0.163 HD
BRANCH   4   7
ATOM      7  C   UNL A   1      32.575  28.524  23.873  1.00  0.00     0.133 C 
ATOM      8  C   UNL A   1      33.585  28.532  22.722  1.00  0.00     0.024 C 
BRANCH   7   9
ATOM      9  C   UNL A   1      31.885  27.111  24.023  1.00  0.00     0.193 C 
ATOM     10  C   UNL A   1      30.356  27.231  23.828  1.00  0.00     0.076 C 
BRANCH   9  11
ATOM     11  N   UNL A   1      32.289  26.120  25.051  1.00  0.00    -0.329 N 
ATOM     12  C   UNL A   1      31.303  25.162  25.576  1.00  0.00     0.284 C 
ATOM     13  C   UNL A   1      33.581  25.420  24.894  1.00  0.00     0.284 C 
ATOM     14  H   UNL A   1      32.398  26.851  25.754  1.00  0.00     0.348 HD
ATOM     15  C   UNL A   1      31.155  23.843  24.780  1.00  0.00     0.178 C 
ATOM     16  C   UNL A   1      33.543  24.123  24.054  1.00  0.00     0.178 C 
ATOM     17  N   UNL A   1      32.465  23.253  24.530  1.00  0.00    -0.359 N 
BRANCH  17  18
ATOM     18  C   UNL A   1      32.553  21.887  24.332  1.00  0.00     0.056 A 
ATOM     19  C   UNL A   1      32.157  21.308  23.117  1.00  0.00     0.027 A 
ATOM     20  C   UNL A   1      32.981  21.030  25.365  1.00  0.00     0.064 A 
ATOM     21  C   UNL A   1      32.156  19.919  22.950  1.00  0.00     0.002 A 
ATOM     22  C   UNL A   1      32.974  19.643  25.201  1.00  0.00     0.023 A 
ATOM     23  Cl  UNL A   1      33.483  21.659  26.901  1.00  0.00    -0.082 Cl
ATOM     24  C   UNL A   1      32.553  19.088  23.995  1.00  0.00     0.002 A 
ENDBRANCH  17  18
ENDBRANCH   9  11
ENDBRANCH   7   9
ENDBRANCH   4   7
ENDBRANCH   2   3
ENDBRANCH   1   2
BRANCH   1  25
ATOM     25  C   UNL A   1      32.467  32.513  27.059  1.00  0.00     0.118 C 
BRANCH  25  26
ATOM     26  N   UNL A   1      32.515  33.887  27.538  1.00  0.00    -0.352 N 
ATOM     27  C   UNL A   1      33.373  34.461  28.448  1.00  0.00     0.251 C 
ATOM     28  H   UNL A   1      31.839  34.492  27.156  1.00  0.00     0.163 HD
ATOM     29  O   UNL A   1      33.141  35.587  28.879  1.00  0.00    -0.269 OA
BRANCH  27  30
ATOM     30  C   UNL A   1      34.544  33.697  28.930  1.00  0.00     0.039 A 
ATOM     31  C   UNL A   1      35.827  34.207  28.725  1.00  0.00     0.014 A 
ATOM     32  C   UNL A   1      34.370  32.496  29.622  1.00  0.00     0.014 A 
ATOM     33  C   UNL A   1      36.926  33.556  29.291  1.00  0.00     0.010 A 
ATOM     34  C   UNL A   1      35.449  31.916  30.278  1.00  0.00     0.010 A 
ATOM     35  C   UNL A   1      36.742  32.433  30.115  1.00  0.00    -0.014 A 
BRANCH  35  36
ATOM     36  C   UNL A   1      37.886  31.771  30.798  1.00  0.00     0.031 A 
ATOM     37  C   UNL A   1      38.674  30.708  30.078  1.00  0.00     0.074 A 
ATOM     38  C   UNL A   1      38.172  32.076  32.080  1.00  0.00     0.049 A 
ATOM     39  N   UNL A   1      39.646  29.952  30.522  1.00  0.00    -0.248 NA
ATOM     40  C   UNL A   1      38.292  30.433  28.684  1.00  0.00     0.031 C 
ATOM     41  C   UNL A   1      37.451  33.052  32.900  1.00  0.00     0.029 A 
ATOM     42  N   UNL A   1      39.141  31.591  32.924  1.00  0.00    -0.354 N 
ATOM     43  C   UNL A   1      39.976  29.104  29.470  1.00  0.00     0.074 A 
ATOM     44  C   UNL A   1      39.050  29.387  28.396  1.00  0.00     0.031 C 
ATOM     45  C   UNL A   1      38.024  33.120  34.112  1.00  0.00     0.029 A 
ATOM     46  C   UNL A   1      39.117  32.156  34.179  1.00  0.00     0.049 A 
ATOM     47  H   UNL A   1      39.792  30.903  32.656  1.00  0.00     0.167 HD
ATOM     48  C   UNL A   1      40.979  28.194  29.394  1.00  0.00     0.034 A 
ATOM     49  C   UNL A   1      39.882  31.916  35.264  1.00  0.00     0.034 A 
ATOM     50  C   UNL A   1      41.906  27.938  30.469  1.00  0.00     0.049 A 
ATOM     51  C   UNL A   1      40.975  30.882  35.165  1.00  0.00     0.074 A 
ATOM     52  C   UNL A   1      42.994  27.084  30.483  1.00  0.00     0.029 A 
ATOM     53  N   UNL A   1      41.850  28.530  31.726  1.00  0.00    -0.354 N 
ATOM     54  N   UNL A   1      41.311  30.127  34.144  1.00  0.00    -0.248 NA
ATOM     55  C   UNL A   1      41.799  30.674  36.362  1.00  0.00     0.031 C 
ATOM     56  C   UNL A   1      43.548  27.101  31.767  1.00  0.00     0.029 A 
ATOM     57  C   UNL A   1      42.863  28.032  32.531  1.00  0.00     0.049 A 
ATOM     58  H   UNL A   1      41.188  29.204  32.003  1.00  0.00     0.167 HD
ATOM     59  C   UNL A   1      42.405  29.379  34.567  1.00  0.00     0.074 A 
ATOM     60  C   UNL A   1      42.683  29.787  35.929  1.00  0.00     0.031 C 
ATOM     61  C   UNL A   1      43.120  28.442  33.893  1.00  0.00     0.034 A 
BRANCH  48  62
ATOM     62  C   UNL A   1      41.105  27.401  28.114  1.00  0.00     0.023 A 
ATOM     63  C   UNL A   1      40.710  26.053  28.037  1.00  0.00     0.031 A 
ATOM     64  C   UNL A   1      41.656  27.989  26.963  1.00  0.00     0.131 A 
ATOM     65  C   UNL A   1      40.947  25.318  26.866  1.00  0.00     0.055 A 
ATOM     66  C   UNL A   1      41.807  27.276  25.771  1.00  0.00     0.041 A 
ATOM     67  F   UNL A   1      42.073  29.265  26.979  1.00  0.00    -0.206 F 
ATOM     68  C   UNL A   1      41.467  25.927  25.723  1.00  0.00     0.022 A 
BRANCH  65  69
ATOM     69  S   UNL A   1      40.714  23.520  26.913  1.00  0.00     0.124 S 
ATOM     70  O   UNL A   1      41.632  23.076  25.866  1.00  0.00    -0.237 OA
ATOM     71  O   UNL A   1      41.096  23.188  28.280  1.00  0.00    -0.237 OA
ATOM     72  O   UNL A   1      39.296  23.350  26.601  1.00  0.00    -0.744 OA
ENDBRANCH  65  69
ENDBRANCH  48  62
BRANCH  49  73
ATOM     73  C   UNL A   1      39.643  32.654  36.539  1.00  0.00     0.023 A 
ATOM     74  C   UNL A   1      38.700  32.199  37.474  1.00  0.00     0.031 A 
ATOM     75  C   UNL A   1      40.322  33.854  36.822  1.00  0.00     0.131 A 
ATOM     76  C   UNL A   1      38.423  32.962  38.620  1.00  0.00     0.055 A 
ATOM     77  C   UNL A   1      40.086  34.579  37.991  1.00  0.00     0.041 A 
ATOM     78  F   UNL A   1      41.237  34.334  35.965  1.00  0.00    -0.206 F 
ATOM     79  C   UNL A   1      39.120  34.141  38.892  1.00  0.00     0.022 A 
BRANCH  76  80
ATOM     80  S   UNL A   1      37.068  32.437  39.707  1.00  0.00     0.124 S 
ATOM     81  O   UNL A   1      35.932  32.456  38.793  1.00  0.00    -0.237 OA
ATOM     82  O   UNL A   1      37.522  31.120  40.141  1.00  0.00    -0.237 OA
ATOM     83  O   UNL A   1      37.051  33.463  40.747  1.00  0.00    -0.744 OA
ENDBRANCH  76  80
ENDBRANCH  49  73
BRANCH  61  84
ATOM     84  C   UNL A   1      44.300  27.831  34.609  1.00  0.00     0.023 A 
ATOM     85  C   UNL A   1      44.191  26.627  35.325  1.00  0.00     0.031 A 
ATOM     86  C   UNL A   1      45.553  28.470  34.577  1.00  0.00     0.131 A 
ATOM     87  C   UNL A   1      45.298  26.130  36.029  1.00  0.00     0.055 A 
ATOM     88  C   UNL A   1      46.668  27.935  35.224  1.00  0.00     0.041 A 
ATOM     89  F   UNL A   1      45.715  29.624  33.911  1.00  0.00    -0.206 F 
ATOM     90  C   UNL A   1      46.540  26.766  35.967  1.00  0.00     0.022 A 
BRANCH  87  91
ATOM     91  S   UNL A   1      45.067  24.693  37.111  1.00  0.00     0.124 S 
ATOM     92  O   UNL A   1      44.443  23.731  36.208  1.00  0.00    -0.237 OA
ATOM     93  O   UNL A   1      46.432  24.388  37.522  1.00  0.00    -0.237 OA
ATOM     94  O   UNL A   1      44.199  25.200  38.173  1.00  0.00    -0.744 OA
ENDBRANCH  87  91
ENDBRANCH  61  84
ENDBRANCH  35  36
ENDBRANCH  27  30
ENDBRANCH  25  26
ENDBRANCH   1  25
TORSDOF 16
ENDMDL
