MODEL 1
REMARK VINA RESULT:     -11.4      0.000      0.000
REMARK SMILES CC[C@H](C)[C@@H](C)NC(=O)c1ccncc1/C=C/C(=O)NCCCNC(=O)c1ccc(-c2c3nc(c(-c4cc(S(=O)(=O)[O-])ccc4F)c4ccc([nH]4)c(-c4cc(S(=O)(=O)[O-])ccc4F)c4nc(c(-c5cc(S(=O)(=O)[O-])ccc5F)c5ccc2[nH]5)C=C4)C=C3)cc1
REMARK SMILES IDX 21 1 20 2 18 3 19 4 17 6 16 7 15 8 10 9 11 10 12 11 14 12
REMARK SMILES IDX 13 13 8 14 7 15 9 17 5 18 6 19 3 20 4 21 2 22 1 23 22 24
REMARK SMILES IDX 23 25 24 26 25 27 26 29 27 30 28 31 89 32 29 33 88 34 30 35
REMARK SMILES IDX 31 36 32 37 82 38 33 39 87 40 81 41 83 42 34 43 86 44 80 45
REMARK SMILES IDX 79 46 35 48 67 49 47 50 66 51 48 52 51 53 65 54 84 55 49 56
REMARK SMILES IDX 50 57 64 59 85 60 52 61 36 62 37 63 45 64 38 65 44 66 46 67
REMARK SMILES IDX 43 68 39 69 40 70 41 71 42 72 68 73 69 74 77 75 70 76 76 77
REMARK SMILES IDX 78 78 75 79 71 80 72 81 73 82 74 83 53 84 54 85 62 86 55 87
REMARK SMILES IDX 61 88 63 89 60 90 56 91 57 92 58 93 59 94
REMARK H PARENT 20 5 7 16 24 28 83 47 51 58
REMARK Flexibility Score: inf
ROOT
ATOM      1  C   UNL A   1      31.907  30.531  26.335  1.00  0.00     0.118 C 
ENDROOT
BRANCH   1   2
ATOM      2  N   UNL A   1      33.268  30.120  26.641  1.00  0.00    -0.352 N 
ATOM      3  C   UNL A   1      33.827  28.883  26.667  1.00  0.00     0.244 C 
ATOM      4  O   UNL A   1      35.034  28.760  26.857  1.00  0.00    -0.270 OA
ATOM      5  H   UNL A   1      33.882  30.856  26.865  1.00  0.00     0.163 HD
BRANCH   3   6
ATOM      6  C   UNL A   1      33.022  27.679  26.357  1.00  0.00     0.072 C 
ATOM      7  C   UNL A   1      33.493  26.545  25.814  1.00  0.00     0.016 C 
BRANCH   7   8
ATOM      8  C   UNL A   1      32.649  25.364  25.566  1.00  0.00     0.006 A 
ATOM      9  C   UNL A   1      32.932  24.406  24.578  1.00  0.00     0.050 A 
ATOM     10  C   UNL A   1      32.118  23.278  24.429  1.00  0.00     0.034 A 
ATOM     11  C   UNL A   1      30.990  23.178  25.217  1.00  0.00     0.112 A 
ATOM     12  C   UNL A   1      31.478  25.156  26.292  1.00  0.00     0.119 A 
ATOM     13  N   UNL A   1      30.644  24.097  26.139  1.00  0.00    -0.264 NA
BRANCH   9  14
ATOM     14  C   UNL A   1      34.139  24.512  23.728  1.00  0.00     0.252 C 
ATOM     15  N   UNL A   1      35.349  24.054  24.185  1.00  0.00    -0.349 N 
ATOM     16  H   UNL A   1      36.097  24.169  23.554  1.00  0.00     0.164 HD
ATOM     17  O   UNL A   1      34.053  25.008  22.610  1.00  0.00    -0.269 OA
BRANCH  15  18
ATOM     18  C   UNL A   1      35.711  23.419  25.457  1.00  0.00     0.082 C 
ATOM     19  C   UNL A   1      37.201  23.690  25.698  1.00  0.00     0.031 C 
BRANCH  18  20
ATOM     20  C   UNL A   1      35.380  21.901  25.439  1.00  0.00     0.008 C 
ATOM     21  C   UNL A   1      36.653  21.047  25.341  1.00  0.00     0.010 C 
BRANCH  20  22
ATOM     22  C   UNL A   1      34.514  21.462  26.644  1.00  0.00     0.002 C 
ATOM     23  C   UNL A   1      34.099  22.579  27.593  1.00  0.00     0.004 C 
ENDBRANCH  20  22
ENDBRANCH  18  20
ENDBRANCH  15  18
ENDBRANCH   9  14
ENDBRANCH   7   8
ENDBRANCH   3   6
ENDBRANCH   1   2
BRANCH   1  24
ATOM     24  C   UNL A   1      31.671  31.984  26.733  1.00  0.00     0.042 C 
BRANCH  24  25
ATOM     25  C   UNL A   1      32.873  32.605  27.438  1.00  0.00     0.118 C 
BRANCH  25  26
ATOM     26  N   UNL A   1      32.652  34.010  27.757  1.00  0.00    -0.352 N 
ATOM     27  C   UNL A   1      33.205  34.778  28.753  1.00  0.00     0.251 C 
ATOM     28  H   UNL A   1      32.011  34.477  27.173  1.00  0.00     0.163 HD
ATOM     29  O   UNL A   1      32.721  35.872  29.017  1.00  0.00    -0.269 OA
BRANCH  27  30
ATOM     30  C   UNL A   1      34.371  34.271  29.508  1.00  0.00     0.039 A 
ATOM     31  C   UNL A   1      34.160  33.537  30.678  1.00  0.00     0.014 A 
ATOM     32  C   UNL A   1      35.669  34.536  29.067  1.00  0.00     0.014 A 
ATOM     33  C   UNL A   1      35.254  33.019  31.376  1.00  0.00     0.010 A 
ATOM     34  C   UNL A   1      36.750  33.952  29.715  1.00  0.00     0.010 A 
ATOM     35  C   UNL A   1      36.556  33.197  30.883  1.00  0.00    -0.014 A 
BRANCH  35  36
ATOM     36  C   UNL A   1      37.745  32.649  31.583  1.00  0.00     0.031 A 
ATOM     37  C   UNL A   1      38.493  31.495  30.974  1.00  0.00     0.074 A 
ATOM     38  C   UNL A   1      38.090  33.116  32.798  1.00  0.00     0.049 A 
ATOM     39  N   UNL A   1      39.437  30.752  31.487  1.00  0.00    -0.248 NA
ATOM     40  C   UNL A   1      38.086  31.103  29.616  1.00  0.00     0.031 C 
ATOM     41  C   UNL A   1      37.426  34.217  33.499  1.00  0.00     0.029 A 
ATOM     42  N   UNL A   1      39.069  32.709  33.669  1.00  0.00    -0.354 N 
ATOM     43  C   UNL A   1      39.719  29.785  30.526  1.00  0.00     0.074 A 
ATOM     44  C   UNL A   1      38.794  30.000  29.435  1.00  0.00     0.031 C 
ATOM     45  C   UNL A   1      38.022  34.401  34.689  1.00  0.00     0.029 A 
ATOM     46  C   UNL A   1      39.069  33.398  34.860  1.00  0.00     0.049 A 
ATOM     47  H   UNL A   1      39.711  31.993  33.462  1.00  0.00     0.167 HD
ATOM     48  C   UNL A   1      40.676  28.825  30.545  1.00  0.00     0.034 A 
ATOM     49  C   UNL A   1      39.806  33.221  35.975  1.00  0.00     0.034 A 
ATOM     50  C   UNL A   1      41.589  28.635  31.646  1.00  0.00     0.049 A 
ATOM     51  C   UNL A   1      40.839  32.122  35.999  1.00  0.00     0.074 A 
ATOM     52  C   UNL A   1      42.626  27.726  31.762  1.00  0.00     0.029 A 
ATOM     53  N   UNL A   1      41.568  29.363  32.830  1.00  0.00    -0.354 N 
ATOM     54  N   UNL A   1      41.118  31.232  35.073  1.00  0.00    -0.248 NA
ATOM     55  C   UNL A   1      41.662  32.009  37.210  1.00  0.00     0.031 C 
ATOM     56  C   UNL A   1      43.175  27.848  33.041  1.00  0.00     0.029 A 
ATOM     57  C   UNL A   1      42.551  28.901  33.692  1.00  0.00     0.049 A 
ATOM     58  H   UNL A   1      40.945  30.099  33.029  1.00  0.00     0.167 HD
ATOM     59  C   UNL A   1      42.176  30.479  35.576  1.00  0.00     0.074 A 
ATOM     60  C   UNL A   1      42.482  31.019  36.886  1.00  0.00     0.031 C 
ATOM     61  C   UNL A   1      42.844  29.448  34.998  1.00  0.00     0.034 A 
BRANCH  48  62
ATOM     62  C   UNL A   1      40.744  27.893  29.355  1.00  0.00     0.023 A 
ATOM     63  C   UNL A   1      41.714  28.050  28.348  1.00  0.00     0.031 A 
ATOM     64  C   UNL A   1      39.787  26.876  29.187  1.00  0.00     0.131 A 
ATOM     65  C   UNL A   1      41.636  27.287  27.173  1.00  0.00     0.055 A 
ATOM     66  C   UNL A   1      39.780  26.049  28.061  1.00  0.00     0.041 A 
ATOM     67  F   UNL A   1      38.821  26.686  30.100  1.00  0.00    -0.206 F 
ATOM     68  C   UNL A   1      40.694  26.267  27.035  1.00  0.00     0.022 A 
BRANCH  65  69
ATOM     69  S   UNL A   1      42.652  27.786  25.756  1.00  0.00     0.124 S 
ATOM     70  O   UNL A   1      44.002  27.659  26.302  1.00  0.00    -0.237 OA
ATOM     71  O   UNL A   1      42.280  26.808  24.740  1.00  0.00    -0.237 OA
ATOM     72  O   UNL A   1      42.222  29.157  25.492  1.00  0.00    -0.744 OA
ENDBRANCH  65  69
ENDBRANCH  48  62
BRANCH  49  73
ATOM     73  C   UNL A   1      39.580  34.093  37.163  1.00  0.00     0.023 A 
ATOM     74  C   UNL A   1      38.960  33.597  38.320  1.00  0.00     0.031 A 
ATOM     75  C   UNL A   1      39.981  35.442  37.156  1.00  0.00     0.131 A 
ATOM     76  C   UNL A   1      38.730  34.452  39.411  1.00  0.00     0.055 A 
ATOM     77  C   UNL A   1      39.797  36.273  38.262  1.00  0.00     0.041 A 
ATOM     78  F   UNL A   1      40.586  35.964  36.077  1.00  0.00    -0.206 F 
ATOM     79  C   UNL A   1      39.159  35.781  39.395  1.00  0.00     0.022 A 
BRANCH  76  80
ATOM     80  S   UNL A   1      37.804  33.816  40.835  1.00  0.00     0.124 S 
ATOM     81  O   UNL A   1      37.664  35.015  41.655  1.00  0.00    -0.237 OA
ATOM     82  O   UNL A   1      36.583  33.322  40.207  1.00  0.00    -0.237 OA
ATOM     83  O   UNL A   1      38.684  32.785  41.380  1.00  0.00    -0.744 OA
ENDBRANCH  76  80
ENDBRANCH  49  73
BRANCH  61  84
ATOM     84  C   UNL A   1      44.025  28.877  35.746  1.00  0.00     0.023 A 
ATOM     85  C   UNL A   1      43.906  27.779  36.616  1.00  0.00     0.031 A 
ATOM     86  C   UNL A   1      45.304  29.433  35.554  1.00  0.00     0.131 A 
ATOM     87  C   UNL A   1      45.040  27.297  37.288  1.00  0.00     0.055 A 
ATOM     88  C   UNL A   1      46.436  28.909  36.177  1.00  0.00     0.041 A 
ATOM     89  F   UNL A   1      45.475  30.486  34.739  1.00  0.00    -0.206 F 
ATOM     90  C   UNL A   1      46.307  27.841  37.058  1.00  0.00     0.022 A 
BRANCH  87  91
ATOM     91  S   UNL A   1      44.831  25.992  38.532  1.00  0.00     0.124 S 
ATOM     92  O   UNL A   1      46.209  25.742  38.942  1.00  0.00    -0.237 OA
ATOM     93  O   UNL A   1      43.978  26.638  39.524  1.00  0.00    -0.237 OA
ATOM     94  O   UNL A   1      44.200  24.905  37.786  1.00  0.00    -0.744 OA
ENDBRANCH  87  91
ENDBRANCH  61  84
ENDBRANCH  35  36
ENDBRANCH  27  30
ENDBRANCH  25  26
ENDBRANCH  24  25
ENDBRANCH   1  24
TORSDOF 18
ENDMDL
MODEL 2
REMARK VINA RESULT:     -11.2      1.687      2.326
REMARK SMILES CC[C@H](C)[C@@H](C)NC(=O)c1ccncc1/C=C/C(=O)NCCCNC(=O)c1ccc(-c2c3nc(c(-c4cc(S(=O)(=O)[O-])ccc4F)c4ccc([nH]4)c(-c4cc(S(=O)(=O)[O-])ccc4F)c4nc(c(-c5cc(S(=O)(=O)[O-])ccc5F)c5ccc2[nH]5)C=C4)C=C3)cc1
REMARK SMILES IDX 21 1 20 2 18 3 19 4 17 6 16 7 15 8 10 9 11 10 12 11 14 12
REMARK SMILES IDX 13 13 8 14 7 15 9 17 5 18 6 19 3 20 4 21 2 22 1 23 22 24
REMARK SMILES IDX 23 25 24 26 25 27 26 29 27 30 28 31 89 32 29 33 88 34 30 35
REMARK SMILES IDX 31 36 32 37 82 38 33 39 87 40 81 41 83 42 34 43 86 44 80 45
REMARK SMILES IDX 79 46 35 48 67 49 47 50 66 51 48 52 51 53 65 54 84 55 49 56
REMARK SMILES IDX 50 57 64 59 85 60 52 61 36 62 37 63 45 64 38 65 44 66 46 67
REMARK SMILES IDX 43 68 39 69 40 70 41 71 42 72 68 73 69 74 77 75 70 76 76 77
REMARK SMILES IDX 78 78 75 79 71 80 72 81 73 82 74 83 53 84 54 85 62 86 55 87
REMARK SMILES IDX 61 88 63 89 60 90 56 91 57 92 58 93 59 94
REMARK H PARENT 20 5 7 16 24 28 83 47 51 58
REMARK Flexibility Score: inf
ROOT
ATOM      1  C   UNL A   1      31.788  30.553  26.648  1.00  0.00     0.118 C 
ENDROOT
BRANCH   1   2
ATOM      2  N   UNL A   1      32.998  30.069  27.294  1.00  0.00    -0.352 N 
ATOM      3  C   UNL A   1      33.921  29.170  26.869  1.00  0.00     0.244 C 
ATOM      4  O   UNL A   1      34.935  28.972  27.533  1.00  0.00    -0.270 OA
ATOM      5  H   UNL A   1      33.176  30.457  28.182  1.00  0.00     0.163 HD
BRANCH   3   6
ATOM      6  C   UNL A   1      33.781  28.500  25.555  1.00  0.00     0.072 C 
ATOM      7  C   UNL A   1      33.013  27.428  25.305  1.00  0.00     0.016 C 
BRANCH   7   8
ATOM      8  C   UNL A   1      32.883  26.830  23.965  1.00  0.00     0.006 A 
ATOM      9  C   UNL A   1      31.946  25.831  23.653  1.00  0.00     0.050 A 
ATOM     10  C   UNL A   1      31.838  25.342  22.347  1.00  0.00     0.034 A 
ATOM     11  C   UNL A   1      32.729  25.806  21.400  1.00  0.00     0.112 A 
ATOM     12  C   UNL A   1      33.731  27.210  22.927  1.00  0.00     0.119 A 
ATOM     13  N   UNL A   1      33.681  26.722  21.662  1.00  0.00    -0.264 NA
BRANCH   9  14
ATOM     14  C   UNL A   1      30.993  25.328  24.667  1.00  0.00     0.252 C 
ATOM     15  N   UNL A   1      31.282  24.197  25.388  1.00  0.00    -0.349 N 
ATOM     16  H   UNL A   1      30.589  23.935  26.037  1.00  0.00     0.164 HD
ATOM     17  O   UNL A   1      29.942  25.930  24.865  1.00  0.00    -0.269 OA
BRANCH  15  18
ATOM     18  C   UNL A   1      32.455  23.316  25.352  1.00  0.00     0.082 C 
ATOM     19  C   UNL A   1      31.952  21.877  25.515  1.00  0.00     0.031 C 
BRANCH  18  20
ATOM     20  C   UNL A   1      33.486  23.712  26.445  1.00  0.00     0.008 C 
ATOM     21  C   UNL A   1      33.805  22.531  27.373  1.00  0.00     0.010 C 
BRANCH  20  22
ATOM     22  C   UNL A   1      34.783  24.316  25.855  1.00  0.00     0.002 C 
ATOM     23  C   UNL A   1      35.116  23.886  24.432  1.00  0.00     0.004 C 
ENDBRANCH  20  22
ENDBRANCH  18  20
ENDBRANCH  15  18
ENDBRANCH   9  14
ENDBRANCH   7   8
ENDBRANCH   3   6
ENDBRANCH   1   2
BRANCH   1  24
ATOM     24  C   UNL A   1      31.628  32.057  26.840  1.00  0.00     0.042 C 
BRANCH  24  25
ATOM     25  C   UNL A   1      32.925  32.739  27.265  1.00  0.00     0.118 C 
BRANCH  25  26
ATOM     26  N   UNL A   1      32.684  34.050  27.852  1.00  0.00    -0.352 N 
ATOM     27  C   UNL A   1      33.258  34.633  28.956  1.00  0.00     0.251 C 
ATOM     28  H   UNL A   1      32.010  34.600  27.390  1.00  0.00     0.163 HD
ATOM     29  O   UNL A   1      32.760  35.643  29.439  1.00  0.00    -0.269 OA
BRANCH  27  30
ATOM     30  C   UNL A   1      34.464  34.029  29.561  1.00  0.00     0.039 A 
ATOM     31  C   UNL A   1      35.725  34.393  29.080  1.00  0.00     0.014 A 
ATOM     32  C   UNL A   1      34.347  33.092  30.590  1.00  0.00     0.014 A 
ATOM     33  C   UNL A   1      36.872  33.859  29.673  1.00  0.00     0.010 A 
ATOM     34  C   UNL A   1      35.487  32.626  31.232  1.00  0.00     0.010 A 
ATOM     35  C   UNL A   1      36.762  32.995  30.774  1.00  0.00    -0.014 A 
BRANCH  35  36
ATOM     36  C   UNL A   1      37.955  32.418  31.444  1.00  0.00     0.031 A 
ATOM     37  C   UNL A   1      38.680  31.269  30.798  1.00  0.00     0.074 A 
ATOM     38  C   UNL A   1      38.323  32.853  32.664  1.00  0.00     0.049 A 
ATOM     39  N   UNL A   1      39.623  30.503  31.280  1.00  0.00    -0.248 NA
ATOM     40  C   UNL A   1      38.248  30.912  29.438  1.00  0.00     0.031 C 
ATOM     41  C   UNL A   1      37.683  33.945  33.399  1.00  0.00     0.029 A 
ATOM     42  N   UNL A   1      39.310  32.415  33.511  1.00  0.00    -0.354 N 
ATOM     43  C   UNL A   1      39.879  29.556  30.293  1.00  0.00     0.074 A 
ATOM     44  C   UNL A   1      38.940  29.805  29.221  1.00  0.00     0.031 C 
ATOM     45  C   UNL A   1      38.298  34.096  34.583  1.00  0.00     0.029 A 
ATOM     46  C   UNL A   1      39.335  33.077  34.716  1.00  0.00     0.049 A 
ATOM     47  H   UNL A   1      39.940  31.696  33.278  1.00  0.00     0.167 HD
ATOM     48  C   UNL A   1      40.825  28.584  30.277  1.00  0.00     0.034 A 
ATOM     49  C   UNL A   1      40.087  32.867  35.816  1.00  0.00     0.034 A 
ATOM     50  C   UNL A   1      41.751  28.359  31.360  1.00  0.00     0.049 A 
ATOM     51  C   UNL A   1      41.106  31.755  35.800  1.00  0.00     0.074 A 
ATOM     52  C   UNL A   1      42.778  27.435  31.440  1.00  0.00     0.029 A 
ATOM     53  N   UNL A   1      41.756  29.060  32.560  1.00  0.00    -0.354 N 
ATOM     54  N   UNL A   1      41.361  30.883  34.851  1.00  0.00    -0.248 NA
ATOM     55  C   UNL A   1      41.945  31.605  36.996  1.00  0.00     0.031 C 
ATOM     56  C   UNL A   1      43.348  27.522  32.714  1.00  0.00     0.029 A 
ATOM     57  C   UNL A   1      42.745  28.567  33.397  1.00  0.00     0.049 A 
ATOM     58  H   UNL A   1      41.145  29.799  32.784  1.00  0.00     0.167 HD
ATOM     59  C   UNL A   1      42.417  30.107  35.321  1.00  0.00     0.074 A 
ATOM     60  C   UNL A   1      42.749  30.614  36.638  1.00  0.00     0.031 C 
ATOM     61  C   UNL A   1      43.064  29.081  34.710  1.00  0.00     0.034 A 
BRANCH  48  62
ATOM     62  C   UNL A   1      40.864  27.678  29.066  1.00  0.00     0.023 A 
ATOM     63  C   UNL A   1      41.830  27.837  28.055  1.00  0.00     0.031 A 
ATOM     64  C   UNL A   1      39.884  26.686  28.882  1.00  0.00     0.131 A 
ATOM     65  C   UNL A   1      41.727  27.103  26.864  1.00  0.00     0.055 A 
ATOM     66  C   UNL A   1      39.851  25.885  27.738  1.00  0.00     0.041 A 
ATOM     67  F   UNL A   1      38.921  26.496  29.797  1.00  0.00    -0.206 F 
ATOM     68  C   UNL A   1      40.762  26.107  26.709  1.00  0.00     0.022 A 
BRANCH  65  69
ATOM     69  S   UNL A   1      42.743  27.613  25.450  1.00  0.00     0.124 S 
ATOM     70  O   UNL A   1      42.705  26.414  24.614  1.00  0.00    -0.237 OA
ATOM     71  O   UNL A   1      42.019  28.771  24.941  1.00  0.00    -0.237 OA
ATOM     72  O   UNL A   1      44.044  27.902  26.051  1.00  0.00    -0.744 OA
ENDBRANCH  65  69
ENDBRANCH  48  62
BRANCH  49  73
ATOM     73  C   UNL A   1      39.888  33.714  37.027  1.00  0.00     0.023 A 
ATOM     74  C   UNL A   1      40.721  34.813  37.289  1.00  0.00     0.031 A 
ATOM     75  C   UNL A   1      38.858  33.433  37.943  1.00  0.00     0.131 A 
ATOM     76  C   UNL A   1      40.530  35.572  38.455  1.00  0.00     0.055 A 
ATOM     77  C   UNL A   1      38.640  34.222  39.074  1.00  0.00     0.041 A 
ATOM     78  F   UNL A   1      38.028  32.399  37.735  1.00  0.00    -0.206 F 
ATOM     79  C   UNL A   1      39.485  35.293  39.340  1.00  0.00     0.022 A 
BRANCH  76  80
ATOM     80  S   UNL A   1      41.708  36.898  38.834  1.00  0.00     0.124 S 
ATOM     81  O   UNL A   1      42.407  37.045  37.562  1.00  0.00    -0.237 OA
ATOM     82  O   UNL A   1      40.822  37.993  39.210  1.00  0.00    -0.237 OA
ATOM     83  O   UNL A   1      42.506  36.341  39.925  1.00  0.00    -0.744 OA
ENDBRANCH  76  80
ENDBRANCH  49  73
BRANCH  61  84
ATOM     84  C   UNL A   1      44.249  28.480  35.427  1.00  0.00     0.023 A 
ATOM     85  C   UNL A   1      44.155  27.292  36.174  1.00  0.00     0.031 A 
ATOM     86  C   UNL A   1      45.509  29.102  35.331  1.00  0.00     0.131 A 
ATOM     87  C   UNL A   1      45.291  26.785  36.824  1.00  0.00     0.055 A 
ATOM     88  C   UNL A   1      46.646  28.559  35.928  1.00  0.00     0.041 A 
ATOM     89  F   UNL A   1      45.656  30.241  34.637  1.00  0.00    -0.206 F 
ATOM     90  C   UNL A   1      46.539  27.399  36.688  1.00  0.00     0.022 A 
BRANCH  87  91
ATOM     91  S   UNL A   1      45.105  25.349  37.917  1.00  0.00     0.124 S 
ATOM     92  O   UNL A   1      46.214  25.531  38.847  1.00  0.00    -0.237 OA
ATOM     93  O   UNL A   1      43.770  25.547  38.471  1.00  0.00    -0.237 OA
ATOM     94  O   UNL A   1      45.237  24.209  37.011  1.00  0.00    -0.744 OA
ENDBRANCH  87  91
ENDBRANCH  61  84
ENDBRANCH  35  36
ENDBRANCH  27  30
ENDBRANCH  25  26
ENDBRANCH  24  25
ENDBRANCH   1  24
TORSDOF 18
ENDMDL
MODEL 3
REMARK VINA RESULT:     -11.2      6.360     11.458
REMARK SMILES CC[C@H](C)[C@@H](C)NC(=O)c1ccncc1/C=C/C(=O)NCCCNC(=O)c1ccc(-c2c3nc(c(-c4cc(S(=O)(=O)[O-])ccc4F)c4ccc([nH]4)c(-c4cc(S(=O)(=O)[O-])ccc4F)c4nc(c(-c5cc(S(=O)(=O)[O-])ccc5F)c5ccc2[nH]5)C=C4)C=C3)cc1
REMARK SMILES IDX 21 1 20 2 18 3 19 4 17 6 16 7 15 8 10 9 11 10 12 11 14 12
REMARK SMILES IDX 13 13 8 14 7 15 9 17 5 18 6 19 3 20 4 21 2 22 1 23 22 24
REMARK SMILES IDX 23 25 24 26 25 27 26 29 27 30 28 31 89 32 29 33 88 34 30 35
REMARK SMILES IDX 31 36 32 37 82 38 33 39 87 40 81 41 83 42 34 43 86 44 80 45
REMARK SMILES IDX 79 46 35 48 67 49 47 50 66 51 48 52 51 53 65 54 84 55 49 56
REMARK SMILES IDX 50 57 64 59 85 60 52 61 36 62 37 63 45 64 38 65 44 66 46 67
REMARK SMILES IDX 43 68 39 69 40 70 41 71 42 72 68 73 69 74 77 75 70 76 76 77
REMARK SMILES IDX 78 78 75 79 71 80 72 81 73 82 74 83 53 84 54 85 62 86 55 87
REMARK SMILES IDX 61 88 63 89 60 90 56 91 57 92 58 93 59 94
REMARK H PARENT 20 5 7 16 24 28 83 47 51 58
REMARK Flexibility Score: inf
ROOT
ATOM      1  C   UNL A   1      37.310  21.204  24.588  1.00  0.00     0.118 C 
ENDROOT
BRANCH   1   2
ATOM      2  N   UNL A   1      37.945  22.394  25.131  1.00  0.00    -0.352 N 
ATOM      3  C   UNL A   1      37.400  23.489  25.720  1.00  0.00     0.244 C 
ATOM      4  O   UNL A   1      38.128  24.351  26.205  1.00  0.00    -0.270 OA
ATOM      5  H   UNL A   1      38.927  22.408  25.063  1.00  0.00     0.163 HD
BRANCH   3   6
ATOM      6  C   UNL A   1      35.933  23.611  25.887  1.00  0.00     0.072 C 
ATOM      7  C   UNL A   1      35.072  24.014  24.939  1.00  0.00     0.016 C 
BRANCH   7   8
ATOM      8  C   UNL A   1      33.616  24.077  25.153  1.00  0.00     0.006 A 
ATOM      9  C   UNL A   1      32.689  23.368  24.371  1.00  0.00     0.050 A 
ATOM     10  C   UNL A   1      31.321  23.429  24.660  1.00  0.00     0.034 A 
ATOM     11  C   UNL A   1      30.906  24.266  25.676  1.00  0.00     0.112 A 
ATOM     12  C   UNL A   1      33.073  24.894  26.143  1.00  0.00     0.119 A 
ATOM     13  N   UNL A   1      31.749  25.009  26.418  1.00  0.00    -0.264 NA
BRANCH   9  14
ATOM     14  C   UNL A   1      33.131  22.473  23.279  1.00  0.00     0.252 C 
ATOM     15  N   UNL A   1      33.197  21.117  23.479  1.00  0.00    -0.349 N 
ATOM     16  H   UNL A   1      33.506  20.600  22.700  1.00  0.00     0.164 HD
ATOM     17  O   UNL A   1      33.435  22.947  22.189  1.00  0.00    -0.269 OA
BRANCH  15  18
ATOM     18  C   UNL A   1      32.883  20.310  24.664  1.00  0.00     0.082 C 
ATOM     19  C   UNL A   1      34.111  20.344  25.581  1.00  0.00     0.031 C 
BRANCH  18  20
ATOM     20  C   UNL A   1      32.479  18.864  24.266  1.00  0.00     0.008 C 
ATOM     21  C   UNL A   1      32.336  18.717  22.745  1.00  0.00     0.010 C 
BRANCH  20  22
ATOM     22  C   UNL A   1      33.441  17.794  24.836  1.00  0.00     0.002 C 
ATOM     23  C   UNL A   1      34.331  17.103  23.811  1.00  0.00     0.004 C 
ENDBRANCH  20  22
ENDBRANCH  18  20
ENDBRANCH  15  18
ENDBRANCH   9  14
ENDBRANCH   7   8
ENDBRANCH   3   6
ENDBRANCH   1   2
BRANCH   1  24
ATOM     24  C   UNL A   1      38.101  19.950  24.944  1.00  0.00     0.042 C 
BRANCH  24  25
ATOM     25  C   UNL A   1      39.089  20.180  26.083  1.00  0.00     0.118 C 
BRANCH  25  26
ATOM     26  N   UNL A   1      40.201  19.238  26.039  1.00  0.00    -0.352 N 
ATOM     27  C   UNL A   1      41.553  19.481  26.038  1.00  0.00     0.251 C 
ATOM     28  H   UNL A   1      39.945  18.288  26.004  1.00  0.00     0.163 HD
ATOM     29  O   UNL A   1      42.333  18.579  25.756  1.00  0.00    -0.269 OA
BRANCH  27  30
ATOM     30  C   UNL A   1      42.056  20.832  26.364  1.00  0.00     0.039 A 
ATOM     31  C   UNL A   1      42.205  21.771  25.340  1.00  0.00     0.014 A 
ATOM     32  C   UNL A   1      42.394  21.164  27.678  1.00  0.00     0.014 A 
ATOM     33  C   UNL A   1      42.640  23.064  25.644  1.00  0.00     0.010 A 
ATOM     34  C   UNL A   1      42.747  22.471  27.990  1.00  0.00     0.010 A 
ATOM     35  C   UNL A   1      42.885  23.432  26.976  1.00  0.00    -0.014 A 
BRANCH  35  36
ATOM     36  C   UNL A   1      43.332  24.799  27.346  1.00  0.00     0.031 A 
ATOM     37  C   UNL A   1      42.363  25.736  28.014  1.00  0.00     0.074 A 
ATOM     38  C   UNL A   1      44.560  25.227  26.997  1.00  0.00     0.049 A 
ATOM     39  N   UNL A   1      42.478  27.014  28.261  1.00  0.00    -0.248 NA
ATOM     40  C   UNL A   1      41.074  25.156  28.417  1.00  0.00     0.031 C 
ATOM     41  C   UNL A   1      45.578  24.416  26.326  1.00  0.00     0.029 A 
ATOM     42  N   UNL A   1      45.153  26.457  27.137  1.00  0.00    -0.354 N 
ATOM     43  C   UNL A   1      41.264  27.399  28.824  1.00  0.00     0.074 A 
ATOM     44  C   UNL A   1      40.410  26.231  28.812  1.00  0.00     0.031 C 
ATOM     45  C   UNL A   1      46.671  25.169  26.120  1.00  0.00     0.029 A 
ATOM     46  C   UNL A   1      46.412  26.527  26.589  1.00  0.00     0.049 A 
ATOM     47  H   UNL A   1      44.718  27.217  27.586  1.00  0.00     0.167 HD
ATOM     48  C   UNL A   1      40.908  28.608  29.324  1.00  0.00     0.034 A 
ATOM     49  C   UNL A   1      47.251  27.574  26.451  1.00  0.00     0.034 A 
ATOM     50  C   UNL A   1      41.782  29.756  29.327  1.00  0.00     0.049 A 
ATOM     51  C   UNL A   1      46.825  28.923  26.973  1.00  0.00     0.074 A 
ATOM     52  C   UNL A   1      41.548  31.018  29.843  1.00  0.00     0.029 A 
ATOM     53  N   UNL A   1      43.057  29.784  28.775  1.00  0.00    -0.354 N 
ATOM     54  N   UNL A   1      45.687  29.269  27.531  1.00  0.00    -0.248 NA
ATOM     55  C   UNL A   1      47.797  30.018  26.859  1.00  0.00     0.031 C 
ATOM     56  C   UNL A   1      42.644  31.828  29.532  1.00  0.00     0.029 A 
ATOM     57  C   UNL A   1      43.607  31.050  28.910  1.00  0.00     0.049 A 
ATOM     58  H   UNL A   1      43.505  29.017  28.351  1.00  0.00     0.167 HD
ATOM     59  C   UNL A   1      45.823  30.613  27.870  1.00  0.00     0.074 A 
ATOM     60  C   UNL A   1      47.151  31.013  27.452  1.00  0.00     0.031 C 
ATOM     61  C   UNL A   1      44.935  31.435  28.486  1.00  0.00     0.034 A 
BRANCH  48  62
ATOM     62  C   UNL A   1      39.502  28.743  29.867  1.00  0.00     0.023 A 
ATOM     63  C   UNL A   1      38.440  29.197  29.062  1.00  0.00     0.031 A 
ATOM     64  C   UNL A   1      39.229  28.484  31.222  1.00  0.00     0.131 A 
ATOM     65  C   UNL A   1      37.194  29.484  29.640  1.00  0.00     0.055 A 
ATOM     66  C   UNL A   1      37.957  28.672  31.767  1.00  0.00     0.041 A 
ATOM     67  F   UNL A   1      40.202  28.069  32.049  1.00  0.00    -0.206 F 
ATOM     68  C   UNL A   1      36.936  29.198  30.982  1.00  0.00     0.022 A 
BRANCH  65  69
ATOM     69  S   UNL A   1      35.990  30.425  28.662  1.00  0.00     0.124 S 
ATOM     70  O   UNL A   1      36.858  31.109  27.706  1.00  0.00    -0.237 OA
ATOM     71  O   UNL A   1      35.138  29.375  28.115  1.00  0.00    -0.237 OA
ATOM     72  O   UNL A   1      35.355  31.296  29.648  1.00  0.00    -0.744 OA
ENDBRANCH  65  69
ENDBRANCH  48  62
BRANCH  49  73
ATOM     73  C   UNL A   1      48.567  27.389  25.773  1.00  0.00     0.023 A 
ATOM     74  C   UNL A   1      48.708  27.597  24.392  1.00  0.00     0.031 A 
ATOM     75  C   UNL A   1      49.705  26.999  26.502  1.00  0.00     0.131 A 
ATOM     76  C   UNL A   1      49.952  27.383  23.777  1.00  0.00     0.055 A 
ATOM     77  C   UNL A   1      50.951  26.837  25.894  1.00  0.00     0.041 A 
ATOM     78  F   UNL A   1      49.627  26.795  27.826  1.00  0.00    -0.206 F 
ATOM     79  C   UNL A   1      51.077  27.020  24.521  1.00  0.00     0.022 A 
BRANCH  76  80
ATOM     80  S   UNL A   1      50.067  27.525  21.973  1.00  0.00     0.124 S 
ATOM     81  O   UNL A   1      48.778  26.987  21.551  1.00  0.00    -0.237 OA
ATOM     82  O   UNL A   1      50.254  28.961  21.792  1.00  0.00    -0.237 OA
ATOM     83  O   UNL A   1      51.227  26.701  21.640  1.00  0.00    -0.744 OA
ENDBRANCH  76  80
ENDBRANCH  49  73
BRANCH  61  84
ATOM     84  C   UNL A   1      45.395  32.835  28.816  1.00  0.00     0.023 A 
ATOM     85  C   UNL A   1      45.196  33.919  27.943  1.00  0.00     0.031 A 
ATOM     86  C   UNL A   1      46.021  33.088  30.052  1.00  0.00     0.131 A 
ATOM     87  C   UNL A   1      45.651  35.196  28.303  1.00  0.00     0.055 A 
ATOM     88  C   UNL A   1      46.415  34.371  30.429  1.00  0.00     0.041 A 
ATOM     89  F   UNL A   1      46.242  32.090  30.922  1.00  0.00    -0.206 F 
ATOM     90  C   UNL A   1      46.241  35.433  29.548  1.00  0.00     0.022 A 
BRANCH  87  91
ATOM     91  S   UNL A   1      45.535  36.540  27.090  1.00  0.00     0.124 S 
ATOM     92  O   UNL A   1      46.243  35.978  25.945  1.00  0.00    -0.237 OA
ATOM     93  O   UNL A   1      44.092  36.697  26.933  1.00  0.00    -0.237 OA
ATOM     94  O   UNL A   1      46.210  37.657  27.749  1.00  0.00    -0.744 OA
ENDBRANCH  87  91
ENDBRANCH  61  84
ENDBRANCH  35  36
ENDBRANCH  27  30
ENDBRANCH  25  26
ENDBRANCH  24  25
ENDBRANCH   1  24
TORSDOF 18
ENDMDL
