MODEL 1
REMARK VINA RESULT:     -12.3      0.000      0.000
REMARK SMILES O=C(NCCCNC(=O)c1cc(/C=C/c2cc(O)cc(O)c2)ccc1O)c1ccc(-c2c3nc(c(-c4cc(S(=O)(=O)[O-])ccc4F)c4ccc([nH]4)c(-c4cc(S(=O)(=O)[O-])ccc4F)c4nc(c(-c5cc(S(=O)(=O)[O-])ccc5F)c5ccc2[nH]5)C=C4)C=C3)cc1
REMARK SMILES IDX 5 1 4 2 3 3 1 4 2 5 27 7 28 8 89 9 29 10 88 11 30 12 31 13
REMARK SMILES IDX 32 14 82 15 33 16 87 17 81 18 83 19 34 20 86 21 80 22 79 23
REMARK SMILES IDX 35 25 67 26 47 27 66 28 48 29 51 30 65 31 84 32 49 33 50 34
REMARK SMILES IDX 64 36 85 37 52 38 36 39 37 40 45 41 38 42 44 43 46 44 43 45
REMARK SMILES IDX 39 46 40 47 41 48 42 49 68 50 69 51 77 52 70 53 76 54 78 55
REMARK SMILES IDX 75 56 71 57 72 58 73 59 74 60 53 61 54 62 62 63 55 64 61 65
REMARK SMILES IDX 63 66 60 67 56 68 57 69 58 70 59 71 6 72 7 73 8 74 9 76
REMARK SMILES IDX 10 77 11 78 25 79 12 80 24 81 23 82 26 83 13 85 14 86 15 87
REMARK SMILES IDX 16 88 22 89 17 90 20 91 19 92 18 93 21 95
REMARK H PARENT 3 6 83 24 51 35 7 75 26 84 18 94 21 96
REMARK Flexibility Score: inf
ROOT
ATOM      1  C   UNL A   1      33.429  27.770  26.651  1.00  0.00     0.042 C 
ENDROOT
BRANCH   1   2
ATOM      2  C   UNL A   1      33.896  28.951  25.814  1.00  0.00     0.118 C 
BRANCH   2   3
ATOM      3  N   UNL A   1      33.642  30.240  26.448  1.00  0.00    -0.352 N 
ATOM      4  O   UNL A   1      33.832  31.892  27.964  1.00  0.00    -0.269 OA
ATOM      5  C   UNL A   1      34.313  30.876  27.466  1.00  0.00     0.251 C 
ATOM      6  H   UNL A   1      32.868  30.731  26.092  1.00  0.00     0.163 HD
BRANCH   5   7
ATOM      7  C   UNL A   1      35.592  30.335  27.976  1.00  0.00     0.039 A 
ATOM      8  C   UNL A   1      35.639  29.624  29.176  1.00  0.00     0.014 A 
ATOM      9  C   UNL A   1      36.761  30.525  27.235  1.00  0.00     0.014 A 
ATOM     10  C   UNL A   1      36.866  29.264  29.720  1.00  0.00     0.010 A 
ATOM     11  C   UNL A   1      37.985  30.062  27.731  1.00  0.00     0.010 A 
ATOM     12  C   UNL A   1      38.053  29.457  28.996  1.00  0.00    -0.014 A 
BRANCH  12  13
ATOM     13  C   UNL A   1      39.334  28.961  29.564  1.00  0.00     0.031 A 
ATOM     14  C   UNL A   1      39.925  29.572  30.804  1.00  0.00     0.074 A 
ATOM     15  C   UNL A   1      39.943  27.919  28.964  1.00  0.00     0.049 A 
ATOM     16  N   UNL A   1      41.023  29.250  31.439  1.00  0.00    -0.248 NA
ATOM     17  C   UNL A   1      39.196  30.698  31.404  1.00  0.00     0.031 C 
ATOM     18  C   UNL A   1      39.460  27.251  27.752  1.00  0.00     0.029 A 
ATOM     19  N   UNL A   1      41.076  27.223  29.296  1.00  0.00    -0.354 N 
ATOM     20  C   UNL A   1      41.130  30.140  32.502  1.00  0.00     0.074 A 
ATOM     21  C   UNL A   1      39.999  31.040  32.402  1.00  0.00     0.031 C 
ATOM     22  C   UNL A   1      40.257  26.209  27.476  1.00  0.00     0.029 A 
ATOM     23  C   UNL A   1      41.351  26.183  28.440  1.00  0.00     0.049 A 
ATOM     24  H   UNL A   1      41.638  27.446  30.072  1.00  0.00     0.167 HD
ATOM     25  C   UNL A   1      42.078  30.194  33.473  1.00  0.00     0.034 A 
ATOM     26  C   UNL A   1      42.379  25.314  28.414  1.00  0.00     0.034 A 
ATOM     27  C   UNL A   1      43.198  29.284  33.553  1.00  0.00     0.049 A 
ATOM     28  C   UNL A   1      43.440  25.424  29.473  1.00  0.00     0.074 A 
ATOM     29  C   UNL A   1      44.197  29.227  34.510  1.00  0.00     0.029 A 
ATOM     30  N   UNL A   1      43.475  28.277  32.635  1.00  0.00    -0.354 N 
ATOM     31  N   UNL A   1      43.517  26.266  30.479  1.00  0.00    -0.248 NA
ATOM     32  C   UNL A   1      44.551  24.470  29.393  1.00  0.00     0.031 C 
ATOM     33  C   UNL A   1      45.112  28.236  34.133  1.00  0.00     0.029 A 
ATOM     34  C   UNL A   1      44.647  27.619  32.983  1.00  0.00     0.049 A 
ATOM     35  H   UNL A   1      42.920  28.061  31.851  1.00  0.00     0.167 HD
ATOM     36  C   UNL A   1      44.682  25.931  31.160  1.00  0.00     0.074 A 
ATOM     37  C   UNL A   1      45.259  24.798  30.464  1.00  0.00     0.031 C 
ATOM     38  C   UNL A   1      45.226  26.509  32.262  1.00  0.00     0.034 A 
BRANCH  25  39
ATOM     39  C   UNL A   1      41.966  31.304  34.492  1.00  0.00     0.023 A 
ATOM     40  C   UNL A   1      40.964  31.312  35.479  1.00  0.00     0.031 A 
ATOM     41  C   UNL A   1      42.860  32.391  34.460  1.00  0.00     0.131 A 
ATOM     42  C   UNL A   1      40.833  32.414  36.340  1.00  0.00     0.055 A 
ATOM     43  C   UNL A   1      42.775  33.446  35.370  1.00  0.00     0.041 A 
ATOM     44  F   UNL A   1      43.826  32.452  33.530  1.00  0.00    -0.206 F 
ATOM     45  C   UNL A   1      41.746  33.470  36.307  1.00  0.00     0.022 A 
BRANCH  42  46
ATOM     46  S   UNL A   1      39.362  32.519  37.397  1.00  0.00     0.124 S 
ATOM     47  O   UNL A   1      38.699  31.247  37.113  1.00  0.00    -0.237 OA
ATOM     48  O   UNL A   1      39.941  32.654  38.729  1.00  0.00    -0.237 OA
ATOM     49  O   UNL A   1      38.663  33.701  36.897  1.00  0.00    -0.744 OA
ENDBRANCH  42  46
ENDBRANCH  25  39
BRANCH  26  50
ATOM     50  C   UNL A   1      42.469  24.298  27.329  1.00  0.00     0.023 A 
ATOM     51  C   UNL A   1      41.697  23.128  27.365  1.00  0.00     0.031 A 
ATOM     52  C   UNL A   1      43.341  24.483  26.240  1.00  0.00     0.131 A 
ATOM     53  C   UNL A   1      41.832  22.173  26.346  1.00  0.00     0.055 A 
ATOM     54  C   UNL A   1      43.433  23.556  25.203  1.00  0.00     0.041 A 
ATOM     55  F   UNL A   1      44.099  25.589  26.157  1.00  0.00    -0.206 F 
ATOM     56  C   UNL A   1      42.683  22.386  25.258  1.00  0.00     0.022 A 
BRANCH  53  57
ATOM     57  S   UNL A   1      40.922  20.611  26.493  1.00  0.00     0.124 S 
ATOM     58  O   UNL A   1      41.722  19.722  25.657  1.00  0.00    -0.237 OA
ATOM     59  O   UNL A   1      40.976  20.363  27.929  1.00  0.00    -0.237 OA
ATOM     60  O   UNL A   1      39.598  20.938  25.968  1.00  0.00    -0.744 OA
ENDBRANCH  53  57
ENDBRANCH  26  50
BRANCH  38  61
ATOM     61  C   UNL A   1      46.499  25.893  32.788  1.00  0.00     0.023 A 
ATOM     62  C   UNL A   1      46.477  24.798  33.669  1.00  0.00     0.031 A 
ATOM     63  C   UNL A   1      47.747  26.430  32.429  1.00  0.00     0.131 A 
ATOM     64  C   UNL A   1      47.678  24.314  34.210  1.00  0.00     0.055 A 
ATOM     65  C   UNL A   1      48.941  25.906  32.923  1.00  0.00     0.041 A 
ATOM     66  F   UNL A   1      47.824  27.479  31.593  1.00  0.00    -0.206 F 
ATOM     67  C   UNL A   1      48.911  24.850  33.830  1.00  0.00     0.022 A 
BRANCH  64  68
ATOM     68  S   UNL A   1      47.602  23.035  35.495  1.00  0.00     0.124 S 
ATOM     69  O   UNL A   1      48.218  21.895  34.824  1.00  0.00    -0.237 OA
ATOM     70  O   UNL A   1      48.377  23.633  36.577  1.00  0.00    -0.237 OA
ATOM     71  O   UNL A   1      46.171  22.900  35.759  1.00  0.00    -0.744 OA
ENDBRANCH  64  68
ENDBRANCH  38  61
ENDBRANCH  12  13
ENDBRANCH   5   7
ENDBRANCH   2   3
ENDBRANCH   1   2
BRANCH   1  72
ATOM     72  C   UNL A   1      31.938  27.757  26.944  1.00  0.00     0.118 C 
BRANCH  72  73
ATOM     73  N   UNL A   1      31.409  26.415  27.125  1.00  0.00    -0.352 N 
ATOM     74  C   UNL A   1      31.066  25.478  26.184  1.00  0.00     0.255 C 
ATOM     75  H   UNL A   1      31.279  26.138  28.061  1.00  0.00     0.163 HD
ATOM     76  O   UNL A   1      30.561  24.415  26.539  1.00  0.00    -0.269 OA
BRANCH  74  77
ATOM     77  C   UNL A   1      31.225  25.756  24.742  1.00  0.00     0.082 A 
ATOM     78  C   UNL A   1      30.704  26.974  24.272  1.00  0.00     0.025 A 
ATOM     79  C   UNL A   1      31.807  24.854  23.848  1.00  0.00     0.128 A 
ATOM     80  C   UNL A   1      30.801  27.321  22.920  1.00  0.00    -0.025 A 
ATOM     81  C   UNL A   1      31.943  25.201  22.506  1.00  0.00     0.047 A 
ATOM     82  C   UNL A   1      31.448  26.428  22.051  1.00  0.00     0.012 A 
BRANCH  79  83
ATOM     83  O   UNL A   1      32.236  23.628  24.270  1.00  0.00    -0.507 OA
ATOM     84  H   UNL A   1      33.082  23.315  24.016  1.00  0.00     0.293 HD
ENDBRANCH  79  83
BRANCH  80  85
ATOM     85  C   UNL A   1      30.231  28.558  22.351  1.00  0.00     0.009 C 
ATOM     86  C   UNL A   1      29.763  29.608  23.046  1.00  0.00     0.009 C 
BRANCH  86  87
ATOM     87  C   UNL A   1      29.145  30.776  22.405  1.00  0.00    -0.018 A 
ATOM     88  C   UNL A   1      28.538  30.679  21.143  1.00  0.00     0.054 A 
ATOM     89  C   UNL A   1      29.095  31.993  23.098  1.00  0.00     0.054 A 
ATOM     90  C   UNL A   1      27.913  31.792  20.585  1.00  0.00     0.119 A 
ATOM     91  C   UNL A   1      28.466  33.094  22.519  1.00  0.00     0.119 A 
ATOM     92  C   UNL A   1      27.874  33.003  21.265  1.00  0.00     0.092 A 
BRANCH  90  93
ATOM     93  O   UNL A   1      27.312  31.725  19.362  1.00  0.00    -0.508 OA
ATOM     94  H   UNL A   1      26.471  32.116  19.230  1.00  0.00     0.293 HD
ENDBRANCH  90  93
BRANCH  91  95
ATOM     95  O   UNL A   1      28.405  34.296  23.164  1.00  0.00    -0.508 OA
ATOM     96  H   UNL A   1      27.976  34.360  23.994  1.00  0.00     0.293 HD
ENDBRANCH  91  95
ENDBRANCH  86  87
ENDBRANCH  80  85
ENDBRANCH  74  77
ENDBRANCH  72  73
ENDBRANCH   1  72
TORSDOF 18
ENDMDL
MODEL 2
REMARK VINA RESULT:     -12.2      4.891      9.489
REMARK SMILES O=C(NCCCNC(=O)c1cc(/C=C/c2cc(O)cc(O)c2)ccc1O)c1ccc(-c2c3nc(c(-c4cc(S(=O)(=O)[O-])ccc4F)c4ccc([nH]4)c(-c4cc(S(=O)(=O)[O-])ccc4F)c4nc(c(-c5cc(S(=O)(=O)[O-])ccc5F)c5ccc2[nH]5)C=C4)C=C3)cc1
REMARK SMILES IDX 5 1 4 2 3 3 1 4 2 5 27 7 28 8 89 9 29 10 88 11 30 12 31 13
REMARK SMILES IDX 32 14 82 15 33 16 87 17 81 18 83 19 34 20 86 21 80 22 79 23
REMARK SMILES IDX 35 25 67 26 47 27 66 28 48 29 51 30 65 31 84 32 49 33 50 34
REMARK SMILES IDX 64 36 85 37 52 38 36 39 37 40 45 41 38 42 44 43 46 44 43 45
REMARK SMILES IDX 39 46 40 47 41 48 42 49 68 50 69 51 77 52 70 53 76 54 78 55
REMARK SMILES IDX 75 56 71 57 72 58 73 59 74 60 53 61 54 62 62 63 55 64 61 65
REMARK SMILES IDX 63 66 60 67 56 68 57 69 58 70 59 71 6 72 7 73 8 74 9 76
REMARK SMILES IDX 10 77 11 78 25 79 12 80 24 81 23 82 26 83 13 85 14 86 15 87
REMARK SMILES IDX 16 88 22 89 17 90 20 91 19 92 18 93 21 95
REMARK H PARENT 3 6 83 24 51 35 7 75 26 84 18 94 21 96
REMARK Flexibility Score: inf
ROOT
ATOM      1  C   UNL A   1      36.025  21.133  25.348  1.00  0.00     0.042 C 
ENDROOT
BRANCH   1   2
ATOM      2  C   UNL A   1      37.465  21.216  24.865  1.00  0.00     0.118 C 
BRANCH   2   3
ATOM      3  N   UNL A   1      38.319  20.175  25.424  1.00  0.00    -0.352 N 
ATOM      4  O   UNL A   1      40.158  19.251  26.334  1.00  0.00    -0.269 OA
ATOM      5  C   UNL A   1      39.520  20.271  26.087  1.00  0.00     0.251 C 
ATOM      6  H   UNL A   1      37.982  19.257  25.309  1.00  0.00     0.163 HD
BRANCH   5   7
ATOM      7  C   UNL A   1      40.056  21.593  26.481  1.00  0.00     0.039 A 
ATOM      8  C   UNL A   1      39.613  22.759  25.855  1.00  0.00     0.014 A 
ATOM      9  C   UNL A   1      41.003  21.672  27.505  1.00  0.00     0.014 A 
ATOM     10  C   UNL A   1      40.240  23.970  26.122  1.00  0.00     0.010 A 
ATOM     11  C   UNL A   1      41.555  22.910  27.852  1.00  0.00     0.010 A 
ATOM     12  C   UNL A   1      41.203  24.066  27.139  1.00  0.00    -0.014 A 
BRANCH  12  13
ATOM     13  C   UNL A   1      41.774  25.399  27.469  1.00  0.00     0.031 A 
ATOM     14  C   UNL A   1      43.157  25.786  27.024  1.00  0.00     0.074 A 
ATOM     15  C   UNL A   1      41.008  26.276  28.147  1.00  0.00     0.049 A 
ATOM     16  N   UNL A   1      43.799  26.912  27.212  1.00  0.00    -0.248 NA
ATOM     17  C   UNL A   1      43.924  24.778  26.280  1.00  0.00     0.031 C 
ATOM     18  C   UNL A   1      39.652  26.005  28.633  1.00  0.00     0.029 A 
ATOM     19  N   UNL A   1      41.241  27.572  28.526  1.00  0.00    -0.354 N 
ATOM     20  C   UNL A   1      45.050  26.744  26.629  1.00  0.00     0.074 A 
ATOM     21  C   UNL A   1      45.087  25.392  26.111  1.00  0.00     0.031 C 
ATOM     22  C   UNL A   1      39.154  27.116  29.193  1.00  0.00     0.029 A 
ATOM     23  C   UNL A   1      40.179  28.152  29.179  1.00  0.00     0.049 A 
ATOM     24  H   UNL A   1      42.087  28.043  28.347  1.00  0.00     0.167 HD
ATOM     25  C   UNL A   1      46.067  27.639  26.528  1.00  0.00     0.034 A 
ATOM     26  C   UNL A   1      40.047  29.374  29.729  1.00  0.00     0.034 A 
ATOM     27  C   UNL A   1      46.007  28.985  27.052  1.00  0.00     0.049 A 
ATOM     28  C   UNL A   1      41.204  30.330  29.645  1.00  0.00     0.074 A 
ATOM     29  C   UNL A   1      46.963  29.983  26.979  1.00  0.00     0.029 A 
ATOM     30  N   UNL A   1      44.935  29.519  27.759  1.00  0.00    -0.354 N 
ATOM     31  N   UNL A   1      42.376  30.158  29.078  1.00  0.00    -0.248 NA
ATOM     32  C   UNL A   1      41.021  31.642  30.276  1.00  0.00     0.031 C 
ATOM     33  C   UNL A   1      46.499  31.092  27.698  1.00  0.00     0.029 A 
ATOM     34  C   UNL A   1      45.222  30.818  28.156  1.00  0.00     0.049 A 
ATOM     35  H   UNL A   1      44.093  29.045  27.949  1.00  0.00     0.167 HD
ATOM     36  C   UNL A   1      43.066  31.349  29.274  1.00  0.00     0.074 A 
ATOM     37  C   UNL A   1      42.170  32.235  29.989  1.00  0.00     0.031 C 
ATOM     38  C   UNL A   1      44.327  31.680  28.895  1.00  0.00     0.034 A 
BRANCH  25  39
ATOM     39  C   UNL A   1      47.344  27.169  25.870  1.00  0.00     0.023 A 
ATOM     40  C   UNL A   1      48.314  26.430  26.572  1.00  0.00     0.031 A 
ATOM     41  C   UNL A   1      47.610  27.488  24.527  1.00  0.00     0.131 A 
ATOM     42  C   UNL A   1      49.532  26.103  25.952  1.00  0.00     0.055 A 
ATOM     43  C   UNL A   1      48.789  27.091  23.891  1.00  0.00     0.041 A 
ATOM     44  F   UNL A   1      46.733  28.208  23.809  1.00  0.00    -0.206 F 
ATOM     45  C   UNL A   1      49.766  26.409  24.610  1.00  0.00     0.022 A 
BRANCH  42  46
ATOM     46  S   UNL A   1      50.865  25.411  26.970  1.00  0.00     0.124 S 
ATOM     47  O   UNL A   1      51.372  26.602  27.648  1.00  0.00    -0.237 OA
ATOM     48  O   UNL A   1      50.154  24.453  27.810  1.00  0.00    -0.237 OA
ATOM     49  O   UNL A   1      51.777  24.826  25.991  1.00  0.00    -0.744 OA
ENDBRANCH  42  46
ENDBRANCH  25  39
BRANCH  26  50
ATOM     50  C   UNL A   1      38.789  29.740  30.437  1.00  0.00     0.023 A 
ATOM     51  C   UNL A   1      37.818  30.544  29.822  1.00  0.00     0.031 A 
ATOM     52  C   UNL A   1      38.545  29.294  31.749  1.00  0.00     0.131 A 
ATOM     53  C   UNL A   1      36.659  30.901  30.529  1.00  0.00     0.055 A 
ATOM     54  C   UNL A   1      37.369  29.609  32.429  1.00  0.00     0.041 A 
ATOM     55  F   UNL A   1      39.442  28.518  32.380  1.00  0.00    -0.206 F 
ATOM     56  C   UNL A   1      36.422  30.426  31.822  1.00  0.00     0.022 A 
BRANCH  53  57
ATOM     57  S   UNL A   1      35.490  32.051  29.756  1.00  0.00     0.124 S 
ATOM     58  O   UNL A   1      36.364  33.160  29.387  1.00  0.00    -0.237 OA
ATOM     59  O   UNL A   1      34.964  31.254  28.654  1.00  0.00    -0.237 OA
ATOM     60  O   UNL A   1      34.537  32.337  30.826  1.00  0.00    -0.744 OA
ENDBRANCH  53  57
ENDBRANCH  26  50
BRANCH  38  61
ATOM     61  C   UNL A   1      44.789  33.076  29.233  1.00  0.00     0.023 A 
ATOM     62  C   UNL A   1      44.498  34.169  28.397  1.00  0.00     0.031 A 
ATOM     63  C   UNL A   1      45.556  33.310  30.386  1.00  0.00     0.131 A 
ATOM     64  C   UNL A   1      45.024  35.435  28.696  1.00  0.00     0.055 A 
ATOM     65  C   UNL A   1      46.026  34.583  30.710  1.00  0.00     0.041 A 
ATOM     66  F   UNL A   1      45.866  32.301  31.216  1.00  0.00    -0.206 F 
ATOM     67  C   UNL A   1      45.773  35.652  29.855  1.00  0.00     0.022 A 
BRANCH  64  68
ATOM     68  S   UNL A   1      44.799  36.777  27.496  1.00  0.00     0.124 S 
ATOM     69  O   UNL A   1      46.169  37.026  27.058  1.00  0.00    -0.237 OA
ATOM     70  O   UNL A   1      43.915  36.168  26.508  1.00  0.00    -0.237 OA
ATOM     71  O   UNL A   1      44.198  37.848  28.289  1.00  0.00    -0.744 OA
ENDBRANCH  64  68
ENDBRANCH  38  61
ENDBRANCH  12  13
ENDBRANCH   5   7
ENDBRANCH   2   3
ENDBRANCH   1   2
BRANCH   1  72
ATOM     72  C   UNL A   1      35.001  21.686  24.371  1.00  0.00     0.118 C 
BRANCH  72  73
ATOM     73  N   UNL A   1      33.879  20.785  24.159  1.00  0.00    -0.352 N 
ATOM     74  C   UNL A   1      32.571  20.915  24.548  1.00  0.00     0.255 C 
ATOM     75  H   UNL A   1      34.091  19.960  23.665  1.00  0.00     0.163 HD
ATOM     76  O   UNL A   1      31.778  19.999  24.336  1.00  0.00    -0.269 OA
BRANCH  74  77
ATOM     77  C   UNL A   1      32.112  22.110  25.284  1.00  0.00     0.082 A 
ATOM     78  C   UNL A   1      31.407  23.075  24.544  1.00  0.00     0.025 A 
ATOM     79  C   UNL A   1      32.394  22.335  26.634  1.00  0.00     0.128 A 
ATOM     80  C   UNL A   1      30.940  24.246  25.153  1.00  0.00    -0.025 A 
ATOM     81  C   UNL A   1      31.904  23.476  27.263  1.00  0.00     0.047 A 
ATOM     82  C   UNL A   1      31.178  24.419  26.526  1.00  0.00     0.012 A 
BRANCH  79  83
ATOM     83  O   UNL A   1      33.155  21.451  27.345  1.00  0.00    -0.507 OA
ATOM     84  H   UNL A   1      33.030  21.365  28.270  1.00  0.00     0.293 HD
ENDBRANCH  79  83
BRANCH  80  85
ATOM     85  C   UNL A   1      30.239  25.321  24.426  1.00  0.00     0.009 C 
ATOM     86  C   UNL A   1      30.683  26.576  24.246  1.00  0.00     0.009 C 
BRANCH  86  87
ATOM     87  C   UNL A   1      29.892  27.612  23.568  1.00  0.00    -0.018 A 
ATOM     88  C   UNL A   1      30.500  28.566  22.737  1.00  0.00     0.054 A 
ATOM     89  C   UNL A   1      28.496  27.604  23.697  1.00  0.00     0.054 A 
ATOM     90  C   UNL A   1      29.716  29.503  22.065  1.00  0.00     0.119 A 
ATOM     91  C   UNL A   1      27.733  28.552  23.017  1.00  0.00     0.119 A 
ATOM     92  C   UNL A   1      28.334  29.503  22.202  1.00  0.00     0.092 A 
BRANCH  90  93
ATOM     93  O   UNL A   1      30.280  30.438  21.247  1.00  0.00    -0.508 OA
ATOM     94  H   UNL A   1      30.449  31.302  21.570  1.00  0.00     0.293 HD
ENDBRANCH  90  93
BRANCH  91  95
ATOM     95  O   UNL A   1      26.373  28.576  23.125  1.00  0.00    -0.508 OA
ATOM     96  H   UNL A   1      25.920  27.845  23.496  1.00  0.00     0.293 HD
ENDBRANCH  91  95
ENDBRANCH  86  87
ENDBRANCH  80  85
ENDBRANCH  74  77
ENDBRANCH  72  73
ENDBRANCH   1  72
TORSDOF 18
ENDMDL
MODEL 3
REMARK VINA RESULT:     -12.2      2.723      9.096
REMARK SMILES O=C(NCCCNC(=O)c1cc(/C=C/c2cc(O)cc(O)c2)ccc1O)c1ccc(-c2c3nc(c(-c4cc(S(=O)(=O)[O-])ccc4F)c4ccc([nH]4)c(-c4cc(S(=O)(=O)[O-])ccc4F)c4nc(c(-c5cc(S(=O)(=O)[O-])ccc5F)c5ccc2[nH]5)C=C4)C=C3)cc1
REMARK SMILES IDX 5 1 4 2 3 3 1 4 2 5 27 7 28 8 89 9 29 10 88 11 30 12 31 13
REMARK SMILES IDX 32 14 82 15 33 16 87 17 81 18 83 19 34 20 86 21 80 22 79 23
REMARK SMILES IDX 35 25 67 26 47 27 66 28 48 29 51 30 65 31 84 32 49 33 50 34
REMARK SMILES IDX 64 36 85 37 52 38 36 39 37 40 45 41 38 42 44 43 46 44 43 45
REMARK SMILES IDX 39 46 40 47 41 48 42 49 68 50 69 51 77 52 70 53 76 54 78 55
REMARK SMILES IDX 75 56 71 57 72 58 73 59 74 60 53 61 54 62 62 63 55 64 61 65
REMARK SMILES IDX 63 66 60 67 56 68 57 69 58 70 59 71 6 72 7 73 8 74 9 76
REMARK SMILES IDX 10 77 11 78 25 79 12 80 24 81 23 82 26 83 13 85 14 86 15 87
REMARK SMILES IDX 16 88 22 89 17 90 20 91 19 92 18 93 21 95
REMARK H PARENT 3 6 83 24 51 35 7 75 26 84 18 94 21 96
REMARK Flexibility Score: inf
ROOT
ATOM      1  C   UNL A   1      31.847  28.217  26.808  1.00  0.00     0.042 C 
ENDROOT
BRANCH   1   2
ATOM      2  C   UNL A   1      32.697  29.154  25.963  1.00  0.00     0.118 C 
BRANCH   2   3
ATOM      3  N   UNL A   1      32.428  30.563  26.221  1.00  0.00    -0.352 N 
ATOM      4  O   UNL A   1      32.568  32.559  27.252  1.00  0.00    -0.269 OA
ATOM      5  C   UNL A   1      33.060  31.449  27.061  1.00  0.00     0.251 C 
ATOM      6  H   UNL A   1      31.673  30.940  25.714  1.00  0.00     0.163 HD
BRANCH   5   7
ATOM      7  C   UNL A   1      34.312  31.067  27.751  1.00  0.00     0.039 A 
ATOM      8  C   UNL A   1      34.527  29.752  28.165  1.00  0.00     0.014 A 
ATOM      9  C   UNL A   1      35.297  32.035  27.971  1.00  0.00     0.014 A 
ATOM     10  C   UNL A   1      35.631  29.445  28.951  1.00  0.00     0.010 A 
ATOM     11  C   UNL A   1      36.464  31.697  28.667  1.00  0.00     0.010 A 
ATOM     12  C   UNL A   1      36.625  30.406  29.193  1.00  0.00    -0.014 A 
BRANCH  12  13
ATOM     13  C   UNL A   1      37.844  30.010  29.947  1.00  0.00     0.031 A 
ATOM     14  C   UNL A   1      38.869  29.090  29.344  1.00  0.00     0.074 A 
ATOM     15  C   UNL A   1      38.034  30.525  31.178  1.00  0.00     0.049 A 
ATOM     16  N   UNL A   1      39.993  28.659  29.858  1.00  0.00    -0.248 NA
ATOM     17  C   UNL A   1      38.593  28.580  27.994  1.00  0.00     0.031 C 
ATOM     18  C   UNL A   1      37.102  31.425  31.863  1.00  0.00     0.029 A 
ATOM     19  N   UNL A   1      39.074  30.392  32.060  1.00  0.00    -0.354 N 
ATOM     20  C   UNL A   1      40.552  27.813  28.906  1.00  0.00     0.074 A 
ATOM     21  C   UNL A   1      39.621  27.766  27.797  1.00  0.00     0.031 C 
ATOM     22  C   UNL A   1      37.637  31.807  33.032  1.00  0.00     0.029 A 
ATOM     23  C   UNL A   1      38.909  31.120  33.216  1.00  0.00     0.049 A 
ATOM     24  H   UNL A   1      39.863  29.831  31.884  1.00  0.00     0.167 HD
ATOM     25  C   UNL A   1      41.735  27.147  28.951  1.00  0.00     0.034 A 
ATOM     26  C   UNL A   1      39.681  31.211  34.315  1.00  0.00     0.034 A 
ATOM     27  C   UNL A   1      42.650  27.211  30.069  1.00  0.00     0.049 A 
ATOM     28  C   UNL A   1      40.963  30.427  34.360  1.00  0.00     0.074 A 
ATOM     29  C   UNL A   1      43.886  26.604  30.208  1.00  0.00     0.029 A 
ATOM     30  N   UNL A   1      42.422  27.914  31.248  1.00  0.00    -0.354 N 
ATOM     31  N   UNL A   1      41.482  29.641  33.444  1.00  0.00    -0.248 NA
ATOM     32  C   UNL A   1      41.761  30.541  35.585  1.00  0.00     0.031 C 
ATOM     33  C   UNL A   1      44.372  26.882  31.492  1.00  0.00     0.029 A 
ATOM     34  C   UNL A   1      43.478  27.726  32.129  1.00  0.00     0.049 A 
ATOM     35  H   UNL A   1      41.628  28.465  31.429  1.00  0.00     0.167 HD
ATOM     36  C   UNL A   1      42.677  29.177  33.981  1.00  0.00     0.074 A 
ATOM     37  C   UNL A   1      42.811  29.790  35.288  1.00  0.00     0.031 C 
ATOM     38  C   UNL A   1      43.583  28.321  33.442  1.00  0.00     0.034 A 
BRANCH  25  39
ATOM     39  C   UNL A   1      42.076  26.256  27.779  1.00  0.00     0.023 A 
ATOM     40  C   UNL A   1      41.637  24.922  27.706  1.00  0.00     0.031 A 
ATOM     41  C   UNL A   1      42.879  26.739  26.729  1.00  0.00     0.131 A 
ATOM     42  C   UNL A   1      42.065  24.099  26.651  1.00  0.00     0.055 A 
ATOM     43  C   UNL A   1      43.234  25.940  25.641  1.00  0.00     0.041 A 
ATOM     44  F   UNL A   1      43.345  27.998  26.750  1.00  0.00    -0.206 F 
ATOM     45  C   UNL A   1      42.840  24.605  25.606  1.00  0.00     0.022 A 
BRANCH  42  46
ATOM     46  S   UNL A   1      41.719  22.320  26.744  1.00  0.00     0.124 S 
ATOM     47  O   UNL A   1      42.164  21.861  25.430  1.00  0.00    -0.237 OA
ATOM     48  O   UNL A   1      42.535  21.899  27.877  1.00  0.00    -0.237 OA
ATOM     49  O   UNL A   1      40.275  22.261  26.958  1.00  0.00    -0.744 OA
ENDBRANCH  42  46
ENDBRANCH  25  39
BRANCH  26  50
ATOM     50  C   UNL A   1      39.241  32.042  35.469  1.00  0.00     0.023 A 
ATOM     51  C   UNL A   1      39.691  33.361  35.627  1.00  0.00     0.031 A 
ATOM     52  C   UNL A   1      38.364  31.522  36.438  1.00  0.00     0.131 A 
ATOM     53  C   UNL A   1      39.285  34.107  36.744  1.00  0.00     0.055 A 
ATOM     54  C   UNL A   1      37.923  32.284  37.519  1.00  0.00     0.041 A 
ATOM     55  F   UNL A   1      37.900  30.266  36.330  1.00  0.00    -0.206 F 
ATOM     56  C   UNL A   1      38.392  33.583  37.683  1.00  0.00     0.022 A 
BRANCH  53  57
ATOM     57  S   UNL A   1      39.993  35.758  36.990  1.00  0.00     0.124 S 
ATOM     58  O   UNL A   1      39.260  36.224  38.162  1.00  0.00    -0.237 OA
ATOM     59  O   UNL A   1      41.405  35.455  37.194  1.00  0.00    -0.237 OA
ATOM     60  O   UNL A   1      39.681  36.452  35.742  1.00  0.00    -0.744 OA
ENDBRANCH  53  57
ENDBRANCH  26  50
BRANCH  38  61
ATOM     61  C   UNL A   1      44.811  28.029  34.269  1.00  0.00     0.023 A 
ATOM     62  C   UNL A   1      44.900  26.877  35.071  1.00  0.00     0.031 A 
ATOM     63  C   UNL A   1      45.889  28.930  34.281  1.00  0.00     0.131 A 
ATOM     64  C   UNL A   1      46.019  26.688  35.897  1.00  0.00     0.055 A 
ATOM     65  C   UNL A   1      47.024  28.706  35.059  1.00  0.00     0.041 A 
ATOM     66  F   UNL A   1      45.853  30.048  33.537  1.00  0.00    -0.206 F 
ATOM     67  C   UNL A   1      47.088  27.587  35.885  1.00  0.00     0.022 A 
BRANCH  64  68
ATOM     68  S   UNL A   1      46.014  25.300  37.065  1.00  0.00     0.124 S 
ATOM     69  O   UNL A   1      45.170  25.811  38.141  1.00  0.00    -0.237 OA
ATOM     70  O   UNL A   1      45.443  24.221  36.265  1.00  0.00    -0.237 OA
ATOM     71  O   UNL A   1      47.425  25.136  37.408  1.00  0.00    -0.744 OA
ENDBRANCH  64  68
ENDBRANCH  38  61
ENDBRANCH  12  13
ENDBRANCH   5   7
ENDBRANCH   2   3
ENDBRANCH   1   2
BRANCH   1  72
ATOM     72  C   UNL A   1      31.204  27.080  26.032  1.00  0.00     0.118 C 
BRANCH  72  73
ATOM     73  N   UNL A   1      30.263  27.544  25.026  1.00  0.00    -0.352 N 
ATOM     74  C   UNL A   1      30.264  27.339  23.670  1.00  0.00     0.255 C 
ATOM     75  H   UNL A   1      29.515  28.085  25.368  1.00  0.00     0.163 HD
ATOM     76  O   UNL A   1      29.411  27.882  22.970  1.00  0.00    -0.269 OA
BRANCH  74  77
ATOM     77  C   UNL A   1      31.319  26.531  23.024  1.00  0.00     0.082 A 
ATOM     78  C   UNL A   1      31.230  25.137  23.178  1.00  0.00     0.025 A 
ATOM     79  C   UNL A   1      32.399  27.090  22.336  1.00  0.00     0.128 A 
ATOM     80  C   UNL A   1      32.188  24.290  22.609  1.00  0.00    -0.025 A 
ATOM     81  C   UNL A   1      33.340  26.260  21.734  1.00  0.00     0.047 A 
ATOM     82  C   UNL A   1      33.229  24.871  21.866  1.00  0.00     0.012 A 
BRANCH  79  83
ATOM     83  O   UNL A   1      32.551  28.445  22.255  1.00  0.00    -0.507 OA
ATOM     84  H   UNL A   1      31.799  28.995  22.150  1.00  0.00     0.293 HD
ENDBRANCH  79  83
BRANCH  80  85
ATOM     85  C   UNL A   1      32.183  22.824  22.775  1.00  0.00     0.009 C 
ATOM     86  C   UNL A   1      32.215  22.157  23.940  1.00  0.00     0.009 C 
BRANCH  86  87
ATOM     87  C   UNL A   1      32.280  20.692  24.019  1.00  0.00    -0.018 A 
ATOM     88  C   UNL A   1      32.154  19.894  22.871  1.00  0.00     0.054 A 
ATOM     89  C   UNL A   1      32.545  20.081  25.252  1.00  0.00     0.054 A 
ATOM     90  C   UNL A   1      32.273  18.509  22.970  1.00  0.00     0.119 A 
ATOM     91  C   UNL A   1      32.658  18.694  25.328  1.00  0.00     0.119 A 
ATOM     92  C   UNL A   1      32.523  17.902  24.194  1.00  0.00     0.092 A 
BRANCH  90  93
ATOM     93  O   UNL A   1      32.159  17.710  21.870  1.00  0.00    -0.508 OA
ATOM     94  H   UNL A   1      32.786  17.032  21.716  1.00  0.00     0.293 HD
ENDBRANCH  90  93
BRANCH  91  95
ATOM     95  O   UNL A   1      32.910  18.067  26.514  1.00  0.00    -0.508 OA
ATOM     96  H   UNL A   1      32.229  17.589  26.944  1.00  0.00     0.293 HD
ENDBRANCH  91  95
ENDBRANCH  86  87
ENDBRANCH  80  85
ENDBRANCH  74  77
ENDBRANCH  72  73
ENDBRANCH   1  72
TORSDOF 18
ENDMDL
