MODEL 1
REMARK VINA RESULT:     -10.1      0.000      0.000
REMARK SMILES CC[C@@H](C)C[C@@H](C)[NH2+]Cc1ccc(C(=O)NCCCNC(=O)c2ccc(-c3c4nc(c(-c5cc(S(=O)(=O)[O-])ccc5F)c5ccc([nH]5)c(-c5cc(S(=O)(=O)[O-])ccc5F)c5nc(c(-c6cc(S(=O)(=O)[O-])ccc6F)c6ccc3[nH]6)C=C5)C=C4)cc2)cn1
REMARK SMILES IDX 14 1 15 2 16 3 13 5 10 6 11 7 87 8 12 9 86 10 9 11 8 12 6 15
REMARK SMILES IDX 7 16 5 17 3 18 4 19 2 20 1 21 17 22 18 23 19 24 20 25 21 26
REMARK SMILES IDX 22 28 23 29 24 30 85 31 25 32 84 33 26 34 27 35 28 36 78 37
REMARK SMILES IDX 29 38 83 39 77 40 79 41 30 42 82 43 76 44 75 45 31 47 63 48
REMARK SMILES IDX 43 49 62 50 44 51 47 52 61 53 80 54 45 55 46 56 60 58 81 59
REMARK SMILES IDX 48 60 32 61 33 62 41 63 34 64 40 65 42 66 39 67 35 68 36 69
REMARK SMILES IDX 37 70 38 71 64 72 65 73 73 74 66 75 72 76 74 77 71 78 67 79
REMARK SMILES IDX 68 80 69 81 70 82 49 83 50 84 58 85 51 86 57 87 59 88 56 89
REMARK SMILES IDX 52 90 53 91 54 92 55 93
REMARK H PARENT 16 4 8 13 8 14 20 27 79 46 47 57
REMARK Flexibility Score: inf
ROOT
ATOM      1  C   UNL A   1      33.183  21.944  24.092  1.00  0.00     0.252 C 
ATOM      2  O   UNL A   1      32.015  21.560  23.998  1.00  0.00    -0.269 OA
ATOM      3  N   UNL A   1      34.081  21.043  24.597  1.00  0.00    -0.352 N 
ATOM      4  H   UNL A   1      33.662  20.206  24.898  1.00  0.00     0.163 HD
ENDROOT
BRANCH   1   5
ATOM      5  C   UNL A   1      33.510  23.331  23.670  1.00  0.00     0.058 A 
ATOM      6  C   UNL A   1      33.677  25.915  22.675  1.00  0.00     0.094 A 
ATOM      7  C   UNL A   1      34.164  25.646  23.951  1.00  0.00     0.030 A 
ATOM      8  N   UNL A   1      33.210  24.940  21.858  1.00  0.00    -0.255 NA
ATOM      9  C   UNL A   1      34.039  24.350  24.460  1.00  0.00     0.017 A 
ATOM     10  C   UNL A   1      33.145  23.683  22.370  1.00  0.00     0.125 A 
BRANCH   6  11
ATOM     11  C   UNL A   1      33.393  27.345  22.262  1.00  0.00     0.318 C 
BRANCH  11  12
ATOM     12  N   UNL A   1      31.980  27.734  22.448  1.00  0.00    -0.339 N 
ATOM     13  H   UNL A   1      31.912  28.743  22.317  1.00  0.00     0.346 HD
ATOM     14  H   UNL A   1      31.449  27.194  21.764  1.00  0.00     0.346 HD
BRANCH  12  15
ATOM     15  C   UNL A   1      31.397  27.404  23.765  1.00  0.00     0.179 C 
ATOM     16  C   UNL A   1      29.870  27.260  23.730  1.00  0.00     0.075 C 
BRANCH  15  17
ATOM     17  C   UNL A   1      31.797  28.549  24.731  1.00  0.00     0.068 C 
BRANCH  17  18
ATOM     18  C   UNL A   1      32.435  28.108  26.074  1.00  0.00    -0.009 C 
ATOM     19  C   UNL A   1      31.723  28.815  27.231  1.00  0.00     0.008 C 
BRANCH  18  20
ATOM     20  C   UNL A   1      33.955  28.360  26.102  1.00  0.00    -0.000 C 
ATOM     21  C   UNL A   1      34.424  29.092  27.352  1.00  0.00     0.004 C 
ENDBRANCH  18  20
ENDBRANCH  17  18
ENDBRANCH  15  17
ENDBRANCH  12  15
ENDBRANCH  11  12
ENDBRANCH   6  11
ENDBRANCH   1   5
BRANCH   3  22
ATOM     22  C   UNL A   1      35.517  21.063  24.781  1.00  0.00     0.118 C 
BRANCH  22  23
ATOM     23  C   UNL A   1      35.915  21.817  26.052  1.00  0.00     0.042 C 
BRANCH  23  24
ATOM     24  C   UNL A   1      37.145  22.709  25.861  1.00  0.00     0.118 C 
BRANCH  24  25
ATOM     25  N   UNL A   1      38.377  21.949  26.021  1.00  0.00    -0.352 N 
ATOM     26  C   UNL A   1      39.656  22.358  26.291  1.00  0.00     0.251 C 
ATOM     27  H   UNL A   1      38.272  20.976  25.918  1.00  0.00     0.163 HD
ATOM     28  O   UNL A   1      40.573  21.568  26.085  1.00  0.00    -0.269 OA
BRANCH  26  29
ATOM     29  C   UNL A   1      39.944  23.707  26.828  1.00  0.00     0.039 A 
ATOM     30  C   UNL A   1      40.059  24.768  25.924  1.00  0.00     0.014 A 
ATOM     31  C   UNL A   1      40.207  23.919  28.185  1.00  0.00     0.014 A 
ATOM     32  C   UNL A   1      40.424  26.036  26.378  1.00  0.00     0.010 A 
ATOM     33  C   UNL A   1      40.509  25.201  28.647  1.00  0.00     0.010 A 
ATOM     34  C   UNL A   1      40.644  26.266  27.744  1.00  0.00    -0.014 A 
BRANCH  34  35
ATOM     35  C   UNL A   1      41.061  27.608  28.227  1.00  0.00     0.031 A 
ATOM     36  C   UNL A   1      42.513  28.005  28.197  1.00  0.00     0.074 A 
ATOM     37  C   UNL A   1      40.134  28.456  28.713  1.00  0.00     0.049 A 
ATOM     38  N   UNL A   1      43.078  29.116  28.594  1.00  0.00    -0.248 NA
ATOM     39  C   UNL A   1      43.458  27.005  27.678  1.00  0.00     0.031 C 
ATOM     40  C   UNL A   1      38.703  28.165  28.828  1.00  0.00     0.029 A 
ATOM     41  N   UNL A   1      40.253  29.733  29.200  1.00  0.00    -0.354 N 
ATOM     42  C   UNL A   1      44.444  28.944  28.386  1.00  0.00     0.074 A 
ATOM     43  C   UNL A   1      44.623  27.598  27.887  1.00  0.00     0.031 C 
ATOM     44  C   UNL A   1      38.076  29.242  29.326  1.00  0.00     0.029 A 
ATOM     45  C   UNL A   1      39.059  30.285  29.598  1.00  0.00     0.049 A 
ATOM     46  H   UNL A   1      41.114  30.208  29.260  1.00  0.00     0.167 HD
ATOM     47  C   UNL A   1      45.451  29.836  28.573  1.00  0.00     0.034 A 
ATOM     48  C   UNL A   1      38.788  31.497  30.120  1.00  0.00     0.034 A 
ATOM     49  C   UNL A   1      45.249  31.179  29.060  1.00  0.00     0.049 A 
ATOM     50  C   UNL A   1      39.919  32.476  30.301  1.00  0.00     0.074 A 
ATOM     51  C   UNL A   1      46.187  32.178  29.256  1.00  0.00     0.029 A 
ATOM     52  N   UNL A   1      44.021  31.715  29.427  1.00  0.00    -0.354 N 
ATOM     53  N   UNL A   1      41.201  32.314  30.061  1.00  0.00    -0.248 NA
ATOM     54  C   UNL A   1      39.563  33.809  30.801  1.00  0.00     0.031 C 
ATOM     55  C   UNL A   1      45.535  33.297  29.793  1.00  0.00     0.029 A 
ATOM     56  C   UNL A   1      44.178  33.022  29.864  1.00  0.00     0.049 A 
ATOM     57  H   UNL A   1      43.162  31.235  29.385  1.00  0.00     0.167 HD
ATOM     58  C   UNL A   1      41.797  33.538  30.350  1.00  0.00     0.074 A 
ATOM     59  C   UNL A   1      40.732  34.429  30.762  1.00  0.00     0.031 C 
ATOM     60  C   UNL A   1      43.106  33.895  30.280  1.00  0.00     0.034 A 
BRANCH  47  61
ATOM     61  C   UNL A   1      46.857  29.365  28.273  1.00  0.00     0.023 A 
ATOM     62  C   UNL A   1      47.651  28.740  29.253  1.00  0.00     0.031 A 
ATOM     63  C   UNL A   1      47.428  29.578  27.007  1.00  0.00     0.131 A 
ATOM     64  C   UNL A   1      48.993  28.432  28.978  1.00  0.00     0.055 A 
ATOM     65  C   UNL A   1      48.737  29.190  26.713  1.00  0.00     0.041 A 
ATOM     66  F   UNL A   1      46.729  30.187  26.035  1.00  0.00    -0.206 F 
ATOM     67  C   UNL A   1      49.533  28.629  27.706  1.00  0.00     0.022 A 
BRANCH  64  68
ATOM     68  S   UNL A   1      50.061  27.915  30.350  1.00  0.00     0.124 S 
ATOM     69  O   UNL A   1      51.028  29.010  30.398  1.00  0.00    -0.237 OA
ATOM     70  O   UNL A   1      49.127  27.839  31.467  1.00  0.00    -0.237 OA
ATOM     71  O   UNL A   1      50.603  26.634  29.899  1.00  0.00    -0.744 OA
ENDBRANCH  64  68
ENDBRANCH  47  61
BRANCH  48  72
ATOM     72  C   UNL A   1      37.393  31.862  30.495  1.00  0.00     0.023 A 
ATOM     73  C   UNL A   1      36.518  32.433  29.559  1.00  0.00     0.031 A 
ATOM     74  C   UNL A   1      36.925  31.675  31.808  1.00  0.00     0.131 A 
ATOM     75  C   UNL A   1      35.237  32.844  29.958  1.00  0.00     0.055 A 
ATOM     76  C   UNL A   1      35.632  32.039  32.188  1.00  0.00     0.041 A 
ATOM     77  F   UNL A   1      37.718  31.122  32.740  1.00  0.00    -0.206 F 
ATOM     78  C   UNL A   1      34.784  32.640  31.263  1.00  0.00     0.022 A 
BRANCH  75  79
ATOM     79  S   UNL A   1      34.194  33.721  28.761  1.00  0.00     0.124 S 
ATOM     80  O   UNL A   1      35.160  34.605  28.117  1.00  0.00    -0.237 OA
ATOM     81  O   UNL A   1      33.684  32.625  27.945  1.00  0.00    -0.237 OA
ATOM     82  O   UNL A   1      33.200  34.387  29.599  1.00  0.00    -0.744 OA
ENDBRANCH  75  79
ENDBRANCH  48  72
BRANCH  60  83
ATOM     83  C   UNL A   1      43.436  35.331  30.611  1.00  0.00     0.023 A 
ATOM     84  C   UNL A   1      43.661  35.754  31.933  1.00  0.00     0.031 A 
ATOM     85  C   UNL A   1      43.484  36.297  29.590  1.00  0.00     0.131 A 
ATOM     86  C   UNL A   1      43.849  37.116  32.208  1.00  0.00     0.055 A 
ATOM     87  C   UNL A   1      43.738  37.641  29.864  1.00  0.00     0.041 A 
ATOM     88  F   UNL A   1      43.276  35.950  28.310  1.00  0.00    -0.206 F 
ATOM     89  C   UNL A   1      43.904  38.060  31.181  1.00  0.00     0.022 A 
BRANCH  86  90
ATOM     90  S   UNL A   1      43.899  37.653  33.940  1.00  0.00     0.124 S 
ATOM     91  O   UNL A   1      45.214  38.279  34.027  1.00  0.00    -0.237 OA
ATOM     92  O   UNL A   1      42.756  38.557  34.018  1.00  0.00    -0.237 OA
ATOM     93  O   UNL A   1      43.754  36.406  34.689  1.00  0.00    -0.744 OA
ENDBRANCH  86  90
ENDBRANCH  60  83
ENDBRANCH  34  35
ENDBRANCH  26  29
ENDBRANCH  24  25
ENDBRANCH  23  24
ENDBRANCH  22  23
ENDBRANCH   3  22
TORSDOF 19
ENDMDL
MODEL 2
REMARK VINA RESULT:     -10.0      2.643      3.085
REMARK SMILES CC[C@@H](C)C[C@@H](C)[NH2+]Cc1ccc(C(=O)NCCCNC(=O)c2ccc(-c3c4nc(c(-c5cc(S(=O)(=O)[O-])ccc5F)c5ccc([nH]5)c(-c5cc(S(=O)(=O)[O-])ccc5F)c5nc(c(-c6cc(S(=O)(=O)[O-])ccc6F)c6ccc3[nH]6)C=C5)C=C4)cc2)cn1
REMARK SMILES IDX 14 1 15 2 16 3 13 5 10 6 11 7 87 8 12 9 86 10 9 11 8 12 6 15
REMARK SMILES IDX 7 16 5 17 3 18 4 19 2 20 1 21 17 22 18 23 19 24 20 25 21 26
REMARK SMILES IDX 22 28 23 29 24 30 85 31 25 32 84 33 26 34 27 35 28 36 78 37
REMARK SMILES IDX 29 38 83 39 77 40 79 41 30 42 82 43 76 44 75 45 31 47 63 48
REMARK SMILES IDX 43 49 62 50 44 51 47 52 61 53 80 54 45 55 46 56 60 58 81 59
REMARK SMILES IDX 48 60 32 61 33 62 41 63 34 64 40 65 42 66 39 67 35 68 36 69
REMARK SMILES IDX 37 70 38 71 64 72 65 73 73 74 66 75 72 76 74 77 71 78 67 79
REMARK SMILES IDX 68 80 69 81 70 82 49 83 50 84 58 85 51 86 57 87 59 88 56 89
REMARK SMILES IDX 52 90 53 91 54 92 55 93
REMARK H PARENT 16 4 8 13 8 14 20 27 79 46 47 57
REMARK Flexibility Score: inf
ROOT
ATOM      1  C   UNL A   1      32.678  21.817  23.579  1.00  0.00     0.252 C 
ATOM      2  O   UNL A   1      32.159  20.897  22.943  1.00  0.00    -0.269 OA
ATOM      3  N   UNL A   1      33.706  21.474  24.415  1.00  0.00    -0.352 N 
ATOM      4  H   UNL A   1      33.860  20.504  24.463  1.00  0.00     0.163 HD
ENDROOT
BRANCH   1   5
ATOM      5  C   UNL A   1      32.146  23.192  23.397  1.00  0.00     0.058 A 
ATOM      6  C   UNL A   1      31.204  25.797  23.540  1.00  0.00     0.094 A 
ATOM      7  C   UNL A   1      32.049  25.438  22.495  1.00  0.00     0.030 A 
ATOM      8  N   UNL A   1      30.744  24.895  24.441  1.00  0.00    -0.255 NA
ATOM      9  C   UNL A   1      32.552  24.134  22.453  1.00  0.00     0.017 A 
ATOM     10  C   UNL A   1      31.218  23.626  24.343  1.00  0.00     0.125 A 
BRANCH   6  11
ATOM     11  C   UNL A   1      30.993  27.261  23.871  1.00  0.00     0.318 C 
BRANCH  11  12
ATOM     12  N   UNL A   1      31.644  28.173  22.909  1.00  0.00    -0.339 N 
ATOM     13  H   UNL A   1      31.914  27.627  22.091  1.00  0.00     0.346 HD
ATOM     14  H   UNL A   1      30.960  28.903  22.708  1.00  0.00     0.346 HD
BRANCH  12  15
ATOM     15  C   UNL A   1      32.848  28.870  23.408  1.00  0.00     0.179 C 
ATOM     16  C   UNL A   1      34.117  28.524  22.617  1.00  0.00     0.075 C 
BRANCH  15  17
ATOM     17  C   UNL A   1      33.022  28.457  24.892  1.00  0.00     0.068 C 
BRANCH  17  18
ATOM     18  C   UNL A   1      33.011  29.617  25.921  1.00  0.00    -0.009 C 
ATOM     19  C   UNL A   1      34.330  29.616  26.702  1.00  0.00     0.008 C 
BRANCH  18  20
ATOM     20  C   UNL A   1      31.793  29.543  26.862  1.00  0.00    -0.000 C 
ATOM     21  C   UNL A   1      31.706  28.236  27.638  1.00  0.00     0.004 C 
ENDBRANCH  18  20
ENDBRANCH  17  18
ENDBRANCH  15  17
ENDBRANCH  12  15
ENDBRANCH  11  12
ENDBRANCH   6  11
ENDBRANCH   1   5
BRANCH   3  22
ATOM     22  C   UNL A   1      34.614  22.239  25.244  1.00  0.00     0.118 C 
BRANCH  22  23
ATOM     23  C   UNL A   1      35.758  21.373  25.778  1.00  0.00     0.042 C 
BRANCH  23  24
ATOM     24  C   UNL A   1      37.118  22.075  25.723  1.00  0.00     0.118 C 
BRANCH  24  25
ATOM     25  N   UNL A   1      38.198  21.158  26.057  1.00  0.00    -0.352 N 
ATOM     26  C   UNL A   1      39.497  21.395  26.424  1.00  0.00     0.251 C 
ATOM     27  H   UNL A   1      37.954  20.205  26.012  1.00  0.00     0.163 HD
ATOM     28  O   UNL A   1      40.295  20.464  26.366  1.00  0.00    -0.269 OA
BRANCH  26  29
ATOM     29  C   UNL A   1      39.942  22.726  26.893  1.00  0.00     0.039 A 
ATOM     30  C   UNL A   1      39.527  23.853  26.174  1.00  0.00     0.014 A 
ATOM     31  C   UNL A   1      40.839  22.872  27.954  1.00  0.00     0.014 A 
ATOM     32  C   UNL A   1      40.000  25.118  26.524  1.00  0.00     0.010 A 
ATOM     33  C   UNL A   1      41.262  24.144  28.344  1.00  0.00     0.010 A 
ATOM     34  C   UNL A   1      40.865  25.276  27.617  1.00  0.00    -0.014 A 
BRANCH  34  35
ATOM     35  C   UNL A   1      41.394  26.618  27.974  1.00  0.00     0.031 A 
ATOM     36  C   UNL A   1      42.802  26.999  27.603  1.00  0.00     0.074 A 
ATOM     37  C   UNL A   1      40.612  27.480  28.652  1.00  0.00     0.049 A 
ATOM     38  N   UNL A   1      43.453  28.108  27.845  1.00  0.00    -0.248 NA
ATOM     39  C   UNL A   1      43.593  25.984  26.890  1.00  0.00     0.031 C 
ATOM     40  C   UNL A   1      39.245  27.206  29.101  1.00  0.00     0.029 A 
ATOM     41  N   UNL A   1      40.852  28.760  29.084  1.00  0.00    -0.354 N 
ATOM     42  C   UNL A   1      44.732  27.920  27.327  1.00  0.00     0.074 A 
ATOM     43  C   UNL A   1      44.779  26.567  26.816  1.00  0.00     0.031 C 
ATOM     44  C   UNL A   1      38.760  28.294  29.719  1.00  0.00     0.029 A 
ATOM     45  C   UNL A   1      39.788  29.329  29.742  1.00  0.00     0.049 A 
ATOM     46  H   UNL A   1      41.707  29.227  28.936  1.00  0.00     0.167 HD
ATOM     47  C   UNL A   1      45.762  28.802  27.265  1.00  0.00     0.034 A 
ATOM     48  C   UNL A   1      39.656  30.549  30.299  1.00  0.00     0.034 A 
ATOM     49  C   UNL A   1      45.690  30.152  27.769  1.00  0.00     0.049 A 
ATOM     50  C   UNL A   1      40.806  31.517  30.201  1.00  0.00     0.074 A 
ATOM     51  C   UNL A   1      46.656  31.143  27.731  1.00  0.00     0.029 A 
ATOM     52  N   UNL A   1      44.585  30.704  28.406  1.00  0.00    -0.354 N 
ATOM     53  N   UNL A   1      41.995  31.339  29.672  1.00  0.00    -0.248 NA
ATOM     54  C   UNL A   1      40.586  32.858  30.755  1.00  0.00     0.031 C 
ATOM     55  C   UNL A   1      46.156  32.273  28.392  1.00  0.00     0.029 A 
ATOM     56  C   UNL A   1      44.851  32.014  28.779  1.00  0.00     0.049 A 
ATOM     57  H   UNL A   1      43.737  30.233  28.570  1.00  0.00     0.167 HD
ATOM     58  C   UNL A   1      42.653  32.559  29.800  1.00  0.00     0.074 A 
ATOM     59  C   UNL A   1      41.719  33.466  30.438  1.00  0.00     0.031 C 
ATOM     60  C   UNL A   1      43.912  32.902  29.423  1.00  0.00     0.034 A 
BRANCH  47  61
ATOM     61  C   UNL A   1      47.056  28.313  26.652  1.00  0.00     0.023 A 
ATOM     62  C   UNL A   1      47.258  28.308  25.259  1.00  0.00     0.031 A 
ATOM     63  C   UNL A   1      48.086  27.808  27.463  1.00  0.00     0.131 A 
ATOM     64  C   UNL A   1      48.418  27.730  24.719  1.00  0.00     0.055 A 
ATOM     65  C   UNL A   1      49.276  27.313  26.924  1.00  0.00     0.041 A 
ATOM     66  F   UNL A   1      47.947  27.767  28.798  1.00  0.00    -0.206 F 
ATOM     67  C   UNL A   1      49.440  27.256  25.543  1.00  0.00     0.022 A 
BRANCH  64  68
ATOM     68  S   UNL A   1      48.501  27.468  22.927  1.00  0.00     0.124 S 
ATOM     69  O   UNL A   1      48.400  26.012  22.837  1.00  0.00    -0.237 OA
ATOM     70  O   UNL A   1      47.347  28.218  22.444  1.00  0.00    -0.237 OA
ATOM     71  O   UNL A   1      49.804  28.018  22.558  1.00  0.00    -0.744 OA
ENDBRANCH  64  68
ENDBRANCH  47  61
BRANCH  48  72
ATOM     72  C   UNL A   1      38.389  30.932  30.984  1.00  0.00     0.023 A 
ATOM     73  C   UNL A   1      37.358  31.579  30.287  1.00  0.00     0.031 A 
ATOM     74  C   UNL A   1      38.206  30.685  32.356  1.00  0.00     0.131 A 
ATOM     75  C   UNL A   1      36.209  32.004  30.973  1.00  0.00     0.055 A 
ATOM     76  C   UNL A   1      37.041  31.064  33.024  1.00  0.00     0.041 A 
ATOM     77  F   UNL A   1      39.158  30.058  33.067  1.00  0.00    -0.206 F 
ATOM     78  C   UNL A   1      36.039  31.740  32.334  1.00  0.00     0.022 A 
BRANCH  75  79
ATOM     79  S   UNL A   1      34.970  32.975  30.073  1.00  0.00     0.124 S 
ATOM     80  O   UNL A   1      34.485  32.006  29.096  1.00  0.00    -0.237 OA
ATOM     81  O   UNL A   1      34.038  33.335  31.136  1.00  0.00    -0.237 OA
ATOM     82  O   UNL A   1      35.743  34.085  29.521  1.00  0.00    -0.744 OA
ENDBRANCH  75  79
ENDBRANCH  48  72
BRANCH  60  83
ATOM     83  C   UNL A   1      44.321  34.337  29.652  1.00  0.00     0.023 A 
ATOM     84  C   UNL A   1      44.223  35.306  28.637  1.00  0.00     0.031 A 
ATOM     85  C   UNL A   1      44.856  34.730  30.891  1.00  0.00     0.131 A 
ATOM     86  C   UNL A   1      44.722  36.598  28.855  1.00  0.00     0.055 A 
ATOM     87  C   UNL A   1      45.290  36.035  31.123  1.00  0.00     0.041 A 
ATOM     88  F   UNL A   1      44.974  33.846  31.896  1.00  0.00    -0.206 F 
ATOM     89  C   UNL A   1      45.241  36.973  30.096  1.00  0.00     0.022 A 
BRANCH  86  90
ATOM     90  S   UNL A   1      44.796  37.749  27.454  1.00  0.00     0.124 S 
ATOM     91  O   UNL A   1      43.399  37.813  27.039  1.00  0.00    -0.237 OA
ATOM     92  O   UNL A   1      45.333  38.957  28.072  1.00  0.00    -0.237 OA
ATOM     93  O   UNL A   1      45.694  37.083  26.512  1.00  0.00    -0.744 OA
ENDBRANCH  86  90
ENDBRANCH  60  83
ENDBRANCH  34  35
ENDBRANCH  26  29
ENDBRANCH  24  25
ENDBRANCH  23  24
ENDBRANCH  22  23
ENDBRANCH   3  22
TORSDOF 19
ENDMDL
MODEL 3
REMARK VINA RESULT:     -10.0      1.376      1.686
REMARK SMILES CC[C@@H](C)C[C@@H](C)[NH2+]Cc1ccc(C(=O)NCCCNC(=O)c2ccc(-c3c4nc(c(-c5cc(S(=O)(=O)[O-])ccc5F)c5ccc([nH]5)c(-c5cc(S(=O)(=O)[O-])ccc5F)c5nc(c(-c6cc(S(=O)(=O)[O-])ccc6F)c6ccc3[nH]6)C=C5)C=C4)cc2)cn1
REMARK SMILES IDX 14 1 15 2 16 3 13 5 10 6 11 7 87 8 12 9 86 10 9 11 8 12 6 15
REMARK SMILES IDX 7 16 5 17 3 18 4 19 2 20 1 21 17 22 18 23 19 24 20 25 21 26
REMARK SMILES IDX 22 28 23 29 24 30 85 31 25 32 84 33 26 34 27 35 28 36 78 37
REMARK SMILES IDX 29 38 83 39 77 40 79 41 30 42 82 43 76 44 75 45 31 47 63 48
REMARK SMILES IDX 43 49 62 50 44 51 47 52 61 53 80 54 45 55 46 56 60 58 81 59
REMARK SMILES IDX 48 60 32 61 33 62 41 63 34 64 40 65 42 66 39 67 35 68 36 69
REMARK SMILES IDX 37 70 38 71 64 72 65 73 73 74 66 75 72 76 74 77 71 78 67 79
REMARK SMILES IDX 68 80 69 81 70 82 49 83 50 84 58 85 51 86 57 87 59 88 56 89
REMARK SMILES IDX 52 90 53 91 54 92 55 93
REMARK H PARENT 16 4 8 13 8 14 20 27 79 46 47 57
REMARK Flexibility Score: inf
ROOT
ATOM      1  C   UNL A   1      33.156  22.228  24.140  1.00  0.00     0.252 C 
ATOM      2  O   UNL A   1      31.967  21.902  24.159  1.00  0.00    -0.269 OA
ATOM      3  N   UNL A   1      34.051  21.289  24.576  1.00  0.00    -0.352 N 
ATOM      4  H   UNL A   1      33.621  20.477  24.928  1.00  0.00     0.163 HD
ENDROOT
BRANCH   1   5
ATOM      5  C   UNL A   1      33.510  23.591  23.667  1.00  0.00     0.058 A 
ATOM      6  C   UNL A   1      33.740  26.121  22.554  1.00  0.00     0.094 A 
ATOM      7  C   UNL A   1      34.154  25.917  23.866  1.00  0.00     0.030 A 
ATOM      8  N   UNL A   1      33.316  25.106  21.762  1.00  0.00    -0.255 NA
ATOM      9  C   UNL A   1      33.997  24.648  24.433  1.00  0.00     0.017 A 
ATOM     10  C   UNL A   1      33.219  23.877  22.333  1.00  0.00     0.125 A 
BRANCH   6  11
ATOM     11  C   UNL A   1      33.483  27.529  22.054  1.00  0.00     0.318 C 
BRANCH  11  12
ATOM     12  N   UNL A   1      32.641  28.326  22.969  1.00  0.00    -0.339 N 
ATOM     13  H   UNL A   1      33.118  28.377  23.869  1.00  0.00     0.346 HD
ATOM     14  H   UNL A   1      32.517  29.232  22.518  1.00  0.00     0.346 HD
BRANCH  12  15
ATOM     15  C   UNL A   1      31.281  27.799  23.202  1.00  0.00     0.179 C 
ATOM     16  C   UNL A   1      30.200  28.544  22.406  1.00  0.00     0.075 C 
BRANCH  15  17
ATOM     17  C   UNL A   1      31.002  27.932  24.722  1.00  0.00     0.068 C 
BRANCH  17  18
ATOM     18  C   UNL A   1      31.170  26.636  25.555  1.00  0.00    -0.009 C 
ATOM     19  C   UNL A   1      29.815  25.929  25.672  1.00  0.00     0.008 C 
BRANCH  18  20
ATOM     20  C   UNL A   1      31.788  26.913  26.939  1.00  0.00    -0.000 C 
ATOM     21  C   UNL A   1      31.622  28.357  27.396  1.00  0.00     0.004 C 
ENDBRANCH  18  20
ENDBRANCH  17  18
ENDBRANCH  15  17
ENDBRANCH  12  15
ENDBRANCH  11  12
ENDBRANCH   6  11
ENDBRANCH   1   5
BRANCH   3  22
ATOM     22  C   UNL A   1      35.498  21.239  24.628  1.00  0.00     0.118 C 
BRANCH  22  23
ATOM     23  C   UNL A   1      36.044  21.941  25.874  1.00  0.00     0.042 C 
BRANCH  23  24
ATOM     24  C   UNL A   1      37.342  22.707  25.610  1.00  0.00     0.118 C 
BRANCH  24  25
ATOM     25  N   UNL A   1      38.508  21.898  25.933  1.00  0.00    -0.352 N 
ATOM     26  C   UNL A   1      39.762  22.256  26.351  1.00  0.00     0.251 C 
ATOM     27  H   UNL A   1      38.371  20.928  25.836  1.00  0.00     0.163 HD
ATOM     28  O   UNL A   1      40.660  21.421  26.274  1.00  0.00    -0.269 OA
BRANCH  26  29
ATOM     29  C   UNL A   1      40.046  23.602  26.896  1.00  0.00     0.039 A 
ATOM     30  C   UNL A   1      39.992  24.694  26.023  1.00  0.00     0.014 A 
ATOM     31  C   UNL A   1      40.465  23.790  28.216  1.00  0.00     0.014 A 
ATOM     32  C   UNL A   1      40.345  25.967  26.473  1.00  0.00     0.010 A 
ATOM     33  C   UNL A   1      40.756  25.073  28.682  1.00  0.00     0.010 A 
ATOM     34  C   UNL A   1      40.722  26.170  27.809  1.00  0.00    -0.014 A 
BRANCH  34  35
ATOM     35  C   UNL A   1      41.126  27.519  28.283  1.00  0.00     0.031 A 
ATOM     36  C   UNL A   1      42.580  27.908  28.304  1.00  0.00     0.074 A 
ATOM     37  C   UNL A   1      40.185  28.379  28.716  1.00  0.00     0.049 A 
ATOM     38  N   UNL A   1      43.135  29.024  28.704  1.00  0.00    -0.248 NA
ATOM     39  C   UNL A   1      43.540  26.894  27.842  1.00  0.00     0.031 C 
ATOM     40  C   UNL A   1      38.749  28.097  28.779  1.00  0.00     0.029 A 
ATOM     41  N   UNL A   1      40.292  29.664  29.184  1.00  0.00    -0.354 N 
ATOM     42  C   UNL A   1      44.508  28.842  28.554  1.00  0.00     0.074 A 
ATOM     43  C   UNL A   1      44.699  27.486  28.088  1.00  0.00     0.031 C 
ATOM     44  C   UNL A   1      38.108  29.186  29.232  1.00  0.00     0.029 A 
ATOM     45  C   UNL A   1      39.086  30.230  29.523  1.00  0.00     0.049 A 
ATOM     46  H   UNL A   1      41.152  30.136  29.270  1.00  0.00     0.167 HD
ATOM     47  C   UNL A   1      45.511  29.732  28.765  1.00  0.00     0.034 A 
ATOM     48  C   UNL A   1      38.801  31.452  30.012  1.00  0.00     0.034 A 
ATOM     49  C   UNL A   1      45.297  31.085  29.219  1.00  0.00     0.049 A 
ATOM     50  C   UNL A   1      39.929  32.429  30.221  1.00  0.00     0.074 A 
ATOM     51  C   UNL A   1      46.231  32.083  29.435  1.00  0.00     0.029 A 
ATOM     52  N   UNL A   1      44.058  31.633  29.527  1.00  0.00    -0.354 N 
ATOM     53  N   UNL A   1      41.218  32.256  30.036  1.00  0.00    -0.248 NA
ATOM     54  C   UNL A   1      39.559  33.772  30.682  1.00  0.00     0.031 C 
ATOM     55  C   UNL A   1      45.564  33.214  29.924  1.00  0.00     0.029 A 
ATOM     56  C   UNL A   1      44.205  32.947  29.946  1.00  0.00     0.049 A 
ATOM     57  H   UNL A   1      43.199  31.156  29.458  1.00  0.00     0.167 HD
ATOM     58  C   UNL A   1      41.809  33.483  30.326  1.00  0.00     0.074 A 
ATOM     59  C   UNL A   1      40.732  34.386  30.678  1.00  0.00     0.031 C 
ATOM     60  C   UNL A   1      43.121  33.832  30.302  1.00  0.00     0.034 A 
BRANCH  47  61
ATOM     61  C   UNL A   1      46.925  29.249  28.531  1.00  0.00     0.023 A 
ATOM     62  C   UNL A   1      47.417  29.003  27.235  1.00  0.00     0.031 A 
ATOM     63  C   UNL A   1      47.782  28.991  29.615  1.00  0.00     0.131 A 
ATOM     64  C   UNL A   1      48.689  28.435  27.062  1.00  0.00     0.055 A 
ATOM     65  C   UNL A   1      49.079  28.507  29.432  1.00  0.00     0.041 A 
ATOM     66  F   UNL A   1      47.366  29.185  30.877  1.00  0.00    -0.206 F 
ATOM     67  C   UNL A   1      49.533  28.210  28.150  1.00  0.00     0.022 A 
BRANCH  64  68
ATOM     68  S   UNL A   1      49.160  27.854  25.410  1.00  0.00     0.124 S 
ATOM     69  O   UNL A   1      50.381  28.620  25.166  1.00  0.00    -0.237 OA
ATOM     70  O   UNL A   1      49.337  26.422  25.617  1.00  0.00    -0.237 OA
ATOM     71  O   UNL A   1      48.021  28.230  24.575  1.00  0.00    -0.744 OA
ENDBRANCH  64  68
ENDBRANCH  47  61
BRANCH  48  72
ATOM     72  C   UNL A   1      37.393  31.830  30.324  1.00  0.00     0.023 A 
ATOM     73  C   UNL A   1      36.548  32.351  29.333  1.00  0.00     0.031 A 
ATOM     74  C   UNL A   1      36.884  31.708  31.629  1.00  0.00     0.131 A 
ATOM     75  C   UNL A   1      35.254  32.777  29.670  1.00  0.00     0.055 A 
ATOM     76  C   UNL A   1      35.579  32.085  31.950  1.00  0.00     0.041 A 
ATOM     77  F   UNL A   1      37.648  31.204  32.612  1.00  0.00    -0.206 F 
ATOM     78  C   UNL A   1      34.760  32.637  30.969  1.00  0.00     0.022 A 
BRANCH  75  79
ATOM     79  S   UNL A   1      34.248  33.588  28.398  1.00  0.00     0.124 S 
ATOM     80  O   UNL A   1      33.594  34.644  29.164  1.00  0.00    -0.237 OA
ATOM     81  O   UNL A   1      35.260  34.022  27.442  1.00  0.00    -0.237 OA
ATOM     82  O   UNL A   1      33.367  32.521  27.929  1.00  0.00    -0.744 OA
ENDBRANCH  75  79
ENDBRANCH  48  72
BRANCH  60  83
ATOM     83  C   UNL A   1      43.445  35.273  30.620  1.00  0.00     0.023 A 
ATOM     84  C   UNL A   1      43.560  35.731  31.944  1.00  0.00     0.031 A 
ATOM     85  C   UNL A   1      43.599  36.207  29.581  1.00  0.00     0.131 A 
ATOM     86  C   UNL A   1      43.747  37.098  32.195  1.00  0.00     0.055 A 
ATOM     87  C   UNL A   1      43.851  37.555  29.837  1.00  0.00     0.041 A 
ATOM     88  F   UNL A   1      43.498  35.825  28.297  1.00  0.00    -0.206 F 
ATOM     89  C   UNL A   1      43.908  38.011  31.151  1.00  0.00     0.022 A 
BRANCH  86  90
ATOM     90  S   UNL A   1      43.655  37.686  33.909  1.00  0.00     0.124 S 
ATOM     91  O   UNL A   1      42.887  38.918  33.768  1.00  0.00    -0.237 OA
ATOM     92  O   UNL A   1      42.973  36.583  34.580  1.00  0.00    -0.237 OA
ATOM     93  O   UNL A   1      45.057  37.868  34.285  1.00  0.00    -0.744 OA
ENDBRANCH  86  90
ENDBRANCH  60  83
ENDBRANCH  34  35
ENDBRANCH  26  29
ENDBRANCH  24  25
ENDBRANCH  23  24
ENDBRANCH  22  23
ENDBRANCH   3  22
TORSDOF 19
ENDMDL
