MODEL 1
REMARK VINA RESULT:     -11.4      0.000      0.000
REMARK SMILES CC(C)(CNC(=O)[C@H]1CCC[C@H](C(=O)NCCCNC(=O)c2ccc(-c3c4nc(c(-c5cc(S(=O)(=O)[O-])ccc5F)c5ccc([nH]5)c(-c5cc(S(=O)(=O)[O-])ccc5F)c5nc(c(-c6cc(S(=O)(=O)[O-])ccc6F)c6ccc3[nH]6)C=C5)C=C4)cc2)C1)S(C)(=O)=O
REMARK SMILES IDX 16 1 15 2 13 3 14 4 12 6 8 7 9 8 85 9 10 10 11 11 6 12 5 13
REMARK SMILES IDX 7 15 4 16 2 17 1 18 3 19 86 20 87 21 88 22 89 23 17 24 18 25
REMARK SMILES IDX 19 26 20 27 21 29 22 30 23 31 84 32 24 33 83 34 25 35 26 36
REMARK SMILES IDX 27 37 77 38 28 39 82 40 76 41 78 42 29 43 81 44 75 45 74 46
REMARK SMILES IDX 30 48 62 49 42 50 61 51 43 52 46 53 60 54 79 55 44 56 45 57
REMARK SMILES IDX 59 59 80 60 47 61 31 62 32 63 40 64 33 65 39 66 41 67 38 68
REMARK SMILES IDX 34 69 35 70 36 71 37 72 63 73 64 74 72 75 65 76 71 77 73 78
REMARK SMILES IDX 70 79 66 80 67 81 68 82 69 83 48 84 49 85 57 86 50 87 56 88
REMARK SMILES IDX 58 89 55 90 51 91 52 92 53 93 54 94
REMARK H PARENT 15 5 5 14 19 28 78 47 46 58
REMARK Flexibility Score: inf
ROOT
ATOM      1  C   UNL A   1      31.666  28.471  27.099  1.00  0.00     0.117 C 
ENDROOT
BRANCH   1   2
ATOM      2  N   UNL A   1      31.173  27.113  27.131  1.00  0.00    -0.356 N 
ATOM      3  C   UNL A   1      30.787  26.312  26.112  1.00  0.00     0.223 C 
ATOM      4  O   UNL A   1      30.237  25.245  26.408  1.00  0.00    -0.275 OA
ATOM      5  H   UNL A   1      31.108  26.711  28.028  1.00  0.00     0.163 HD
BRANCH   3   6
ATOM      6  C   UNL A   1      31.194  26.589  24.672  1.00  0.00     0.079 C 
ATOM      7  C   UNL A   1      33.284  26.553  23.204  1.00  0.00     0.079 C 
ATOM      8  C   UNL A   1      32.702  27.759  22.445  1.00  0.00     0.013 C 
ATOM      9  C   UNL A   1      32.721  26.468  24.610  1.00  0.00     0.027 C 
ATOM     10  C   UNL A   1      31.180  27.835  22.488  1.00  0.00     0.002 C 
ATOM     11  C   UNL A   1      30.639  27.790  23.918  1.00  0.00     0.013 C 
BRANCH   7  12
ATOM     12  C   UNL A   1      33.391  25.300  22.319  1.00  0.00     0.223 C 
ATOM     13  N   UNL A   1      33.447  24.001  22.706  1.00  0.00    -0.354 N 
ATOM     14  H   UNL A   1      33.339  23.383  21.947  1.00  0.00     0.163 HD
ATOM     15  O   UNL A   1      33.382  25.455  21.089  1.00  0.00    -0.275 OA
BRANCH  13  16
ATOM     16  C   UNL A   1      33.627  23.302  23.964  1.00  0.00     0.138 C 
BRANCH  16  17
ATOM     17  C   UNL A   1      35.071  23.028  24.473  1.00  0.00     0.084 C 
ATOM     18  C   UNL A   1      36.042  23.023  23.279  1.00  0.00     0.030 C 
ATOM     19  C   UNL A   1      35.483  24.200  25.401  1.00  0.00     0.030 C 
BRANCH  17  20
ATOM     20  S   UNL A   1      35.331  21.500  25.460  1.00  0.00     0.154 S 
ATOM     21  C   UNL A   1      34.437  21.636  26.992  1.00  0.00     0.158 C 
ATOM     22  O   UNL A   1      34.683  20.411  24.738  1.00  0.00    -0.229 OA
ATOM     23  O   UNL A   1      36.734  21.381  25.783  1.00  0.00    -0.229 OA
ENDBRANCH  17  20
ENDBRANCH  16  17
ENDBRANCH  13  16
ENDBRANCH   7  12
ENDBRANCH   3   6
ENDBRANCH   1   2
BRANCH   1  24
ATOM     24  C   UNL A   1      33.156  28.494  27.419  1.00  0.00     0.042 C 
BRANCH  24  25
ATOM     25  C   UNL A   1      33.920  29.435  26.493  1.00  0.00     0.118 C 
BRANCH  25  26
ATOM     26  N   UNL A   1      33.854  30.808  26.973  1.00  0.00    -0.352 N 
ATOM     27  C   UNL A   1      34.539  31.383  28.014  1.00  0.00     0.251 C 
ATOM     28  H   UNL A   1      33.238  31.402  26.486  1.00  0.00     0.163 HD
ATOM     29  O   UNL A   1      34.093  32.390  28.554  1.00  0.00    -0.269 OA
BRANCH  27  30
ATOM     30  C   UNL A   1      35.805  30.775  28.462  1.00  0.00     0.039 A 
ATOM     31  C   UNL A   1      36.998  31.097  27.811  1.00  0.00     0.014 A 
ATOM     32  C   UNL A   1      35.802  29.862  29.520  1.00  0.00     0.014 A 
ATOM     33  C   UNL A   1      38.194  30.533  28.256  1.00  0.00     0.010 A 
ATOM     34  C   UNL A   1      37.001  29.384  30.026  1.00  0.00     0.010 A 
ATOM     35  C   UNL A   1      38.206  29.694  29.383  1.00  0.00    -0.014 A 
BRANCH  35  36
ATOM     36  C   UNL A   1      39.461  29.085  29.887  1.00  0.00     0.031 A 
ATOM     37  C   UNL A   1      40.177  29.720  31.049  1.00  0.00     0.074 A 
ATOM     38  C   UNL A   1      39.985  28.018  29.254  1.00  0.00     0.049 A 
ATOM     39  N   UNL A   1      41.335  29.418  31.575  1.00  0.00    -0.248 NA
ATOM     40  C   UNL A   1      39.520  30.880  31.674  1.00  0.00     0.031 C 
ATOM     41  C   UNL A   1      39.400  27.355  28.087  1.00  0.00     0.029 A 
ATOM     42  N   UNL A   1      41.135  27.313  29.493  1.00  0.00    -0.354 N 
ATOM     43  C   UNL A   1      41.556  30.363  32.572  1.00  0.00     0.074 A 
ATOM     44  C   UNL A   1      40.444  31.287  32.528  1.00  0.00     0.031 C 
ATOM     45  C   UNL A   1      40.180  26.323  27.730  1.00  0.00     0.029 A 
ATOM     46  C   UNL A   1      41.344  26.279  28.610  1.00  0.00     0.049 A 
ATOM     47  H   UNL A   1      41.754  27.525  30.229  1.00  0.00     0.167 HD
ATOM     48  C   UNL A   1      42.578  30.435  33.459  1.00  0.00     0.034 A 
ATOM     49  C   UNL A   1      42.365  25.405  28.516  1.00  0.00     0.034 A 
ATOM     50  C   UNL A   1      43.660  29.483  33.498  1.00  0.00     0.049 A 
ATOM     51  C   UNL A   1      43.489  25.502  29.513  1.00  0.00     0.074 A 
ATOM     52  C   UNL A   1      44.715  29.412  34.391  1.00  0.00     0.029 A 
ATOM     53  N   UNL A   1      43.829  28.436  32.600  1.00  0.00    -0.354 N 
ATOM     54  N   UNL A   1      43.658  26.368  30.488  1.00  0.00    -0.248 NA
ATOM     55  C   UNL A   1      44.556  24.498  29.408  1.00  0.00     0.031 C 
ATOM     56  C   UNL A   1      45.554  28.365  33.994  1.00  0.00     0.029 A 
ATOM     57  C   UNL A   1      44.983  27.731  32.901  1.00  0.00     0.049 A 
ATOM     58  H   UNL A   1      43.216  28.225  31.859  1.00  0.00     0.167 HD
ATOM     59  C   UNL A   1      44.834  25.992  31.130  1.00  0.00     0.074 A 
ATOM     60  C   UNL A   1      45.322  24.814  30.441  1.00  0.00     0.031 C 
ATOM     61  C   UNL A   1      45.455  26.564  32.194  1.00  0.00     0.034 A 
BRANCH  48  62
ATOM     62  C   UNL A   1      42.575  31.590  34.433  1.00  0.00     0.023 A 
ATOM     63  C   UNL A   1      41.843  31.546  35.633  1.00  0.00     0.031 A 
ATOM     64  C   UNL A   1      43.288  32.767  34.144  1.00  0.00     0.131 A 
ATOM     65  C   UNL A   1      41.770  32.681  36.454  1.00  0.00     0.055 A 
ATOM     66  C   UNL A   1      43.283  33.863  35.010  1.00  0.00     0.041 A 
ATOM     67  F   UNL A   1      43.990  32.880  33.005  1.00  0.00    -0.206 F 
ATOM     68  C   UNL A   1      42.507  33.831  36.164  1.00  0.00     0.022 A 
BRANCH  65  69
ATOM     69  S   UNL A   1      40.581  32.685  37.824  1.00  0.00     0.124 S 
ATOM     70  O   UNL A   1      39.490  31.885  37.270  1.00  0.00    -0.237 OA
ATOM     71  O   UNL A   1      41.342  32.067  38.904  1.00  0.00    -0.237 OA
ATOM     72  O   UNL A   1      40.272  34.101  38.008  1.00  0.00    -0.744 OA
ENDBRANCH  65  69
ENDBRANCH  48  62
BRANCH  49  73
ATOM     73  C   UNL A   1      42.372  24.366  27.447  1.00  0.00     0.023 A 
ATOM     74  C   UNL A   1      41.740  23.128  27.640  1.00  0.00     0.031 A 
ATOM     75  C   UNL A   1      43.037  24.583  26.227  1.00  0.00     0.131 A 
ATOM     76  C   UNL A   1      41.824  22.136  26.650  1.00  0.00     0.055 A 
ATOM     77  C   UNL A   1      43.075  23.614  25.224  1.00  0.00     0.041 A 
ATOM     78  F   UNL A   1      43.652  25.753  25.988  1.00  0.00    -0.206 F 
ATOM     79  C   UNL A   1      42.476  22.375  25.437  1.00  0.00     0.022 A 
BRANCH  76  80
ATOM     80  S   UNL A   1      41.134  20.496  27.002  1.00  0.00     0.124 S 
ATOM     81  O   UNL A   1      42.264  19.627  26.691  1.00  0.00    -0.237 OA
ATOM     82  O   UNL A   1      40.783  20.613  28.414  1.00  0.00    -0.237 OA
ATOM     83  O   UNL A   1      40.001  20.400  26.086  1.00  0.00    -0.744 OA
ENDBRANCH  76  80
ENDBRANCH  49  73
BRANCH  61  84
ATOM     84  C   UNL A   1      46.705  25.887  32.699  1.00  0.00     0.023 A 
ATOM     85  C   UNL A   1      47.951  26.074  32.077  1.00  0.00     0.031 A 
ATOM     86  C   UNL A   1      46.642  25.036  33.817  1.00  0.00     0.131 A 
ATOM     87  C   UNL A   1      49.074  25.376  32.542  1.00  0.00     0.055 A 
ATOM     88  C   UNL A   1      47.776  24.393  34.314  1.00  0.00     0.041 A 
ATOM     89  F   UNL A   1      45.477  24.821  34.448  1.00  0.00    -0.206 F 
ATOM     90  C   UNL A   1      48.999  24.550  33.667  1.00  0.00     0.022 A 
BRANCH  87  91
ATOM     91  S   UNL A   1      50.619  25.486  31.599  1.00  0.00     0.124 S 
ATOM     92  O   UNL A   1      51.500  26.172  32.539  1.00  0.00    -0.237 OA
ATOM     93  O   UNL A   1      50.930  24.083  31.343  1.00  0.00    -0.237 OA
ATOM     94  O   UNL A   1      50.246  26.263  30.419  1.00  0.00    -0.744 OA
ENDBRANCH  87  91
ENDBRANCH  61  84
ENDBRANCH  35  36
ENDBRANCH  27  30
ENDBRANCH  25  26
ENDBRANCH  24  25
ENDBRANCH   1  24
TORSDOF 17
ENDMDL
MODEL 2
REMARK VINA RESULT:     -11.4      5.032      8.435
REMARK SMILES CC(C)(CNC(=O)[C@H]1CCC[C@H](C(=O)NCCCNC(=O)c2ccc(-c3c4nc(c(-c5cc(S(=O)(=O)[O-])ccc5F)c5ccc([nH]5)c(-c5cc(S(=O)(=O)[O-])ccc5F)c5nc(c(-c6cc(S(=O)(=O)[O-])ccc6F)c6ccc3[nH]6)C=C5)C=C4)cc2)C1)S(C)(=O)=O
REMARK SMILES IDX 16 1 15 2 13 3 14 4 12 6 8 7 9 8 85 9 10 10 11 11 6 12 5 13
REMARK SMILES IDX 7 15 4 16 2 17 1 18 3 19 86 20 87 21 88 22 89 23 17 24 18 25
REMARK SMILES IDX 19 26 20 27 21 29 22 30 23 31 84 32 24 33 83 34 25 35 26 36
REMARK SMILES IDX 27 37 77 38 28 39 82 40 76 41 78 42 29 43 81 44 75 45 74 46
REMARK SMILES IDX 30 48 62 49 42 50 61 51 43 52 46 53 60 54 79 55 44 56 45 57
REMARK SMILES IDX 59 59 80 60 47 61 31 62 32 63 40 64 33 65 39 66 41 67 38 68
REMARK SMILES IDX 34 69 35 70 36 71 37 72 63 73 64 74 72 75 65 76 71 77 73 78
REMARK SMILES IDX 70 79 66 80 67 81 68 82 69 83 48 84 49 85 57 86 50 87 56 88
REMARK SMILES IDX 58 89 55 90 51 91 52 92 53 93 54 94
REMARK H PARENT 15 5 5 14 19 28 78 47 46 58
REMARK Flexibility Score: inf
ROOT
ATOM      1  C   UNL A   1      36.215  20.446  25.046  1.00  0.00     0.117 C 
ENDROOT
BRANCH   1   2
ATOM      2  N   UNL A   1      35.064  19.574  25.003  1.00  0.00    -0.356 N 
ATOM      3  C   UNL A   1      33.749  19.878  25.094  1.00  0.00     0.223 C 
ATOM      4  O   UNL A   1      32.957  18.936  25.204  1.00  0.00    -0.275 OA
ATOM      5  H   UNL A   1      35.267  18.617  24.891  1.00  0.00     0.163 HD
BRANCH   3   6
ATOM      6  C   UNL A   1      33.231  21.288  24.856  1.00  0.00     0.079 C 
ATOM      7  C   UNL A   1      31.176  22.715  25.374  1.00  0.00     0.079 C 
ATOM      8  C   UNL A   1      31.384  23.406  24.013  1.00  0.00     0.013 C 
ATOM      9  C   UNL A   1      31.791  21.330  25.383  1.00  0.00     0.027 C 
ATOM     10  C   UNL A   1      32.829  23.387  23.530  1.00  0.00     0.002 C 
ATOM     11  C   UNL A   1      33.414  21.974  23.508  1.00  0.00     0.013 C 
BRANCH   7  12
ATOM     12  C   UNL A   1      31.379  23.677  26.556  1.00  0.00     0.223 C 
ATOM     13  N   UNL A   1      31.071  24.996  26.628  1.00  0.00    -0.354 N 
ATOM     14  H   UNL A   1      31.139  25.344  27.547  1.00  0.00     0.163 HD
ATOM     15  O   UNL A   1      31.837  23.214  27.611  1.00  0.00    -0.275 OA
BRANCH  13  16
ATOM     16  C   UNL A   1      30.666  26.019  25.681  1.00  0.00     0.138 C 
BRANCH  16  17
ATOM     17  C   UNL A   1      31.610  27.230  25.433  1.00  0.00     0.084 C 
ATOM     18  C   UNL A   1      32.867  26.754  24.683  1.00  0.00     0.030 C 
ATOM     19  C   UNL A   1      30.872  28.233  24.510  1.00  0.00     0.030 C 
BRANCH  17  20
ATOM     20  S   UNL A   1      32.126  28.199  26.906  1.00  0.00     0.154 S 
ATOM     21  C   UNL A   1      31.817  29.926  26.605  1.00  0.00     0.158 C 
ATOM     22  O   UNL A   1      31.224  27.836  27.993  1.00  0.00    -0.229 OA
ATOM     23  O   UNL A   1      33.549  28.039  27.101  1.00  0.00    -0.229 OA
ENDBRANCH  17  20
ENDBRANCH  16  17
ENDBRANCH  13  16
ENDBRANCH   7  12
ENDBRANCH   3   6
ENDBRANCH   1   2
BRANCH   1  24
ATOM     24  C   UNL A   1      37.497  19.624  24.989  1.00  0.00     0.042 C 
BRANCH  24  25
ATOM     25  C   UNL A   1      38.646  20.313  25.718  1.00  0.00     0.118 C 
BRANCH  25  26
ATOM     26  N   UNL A   1      39.716  19.371  26.015  1.00  0.00    -0.352 N 
ATOM     27  C   UNL A   1      41.060  19.616  26.140  1.00  0.00     0.251 C 
ATOM     28  H   UNL A   1      39.438  18.435  26.143  1.00  0.00     0.163 HD
ATOM     29  O   UNL A   1      41.863  18.703  25.979  1.00  0.00    -0.269 OA
BRANCH  27  30
ATOM     30  C   UNL A   1      41.511  20.980  26.472  1.00  0.00     0.039 A 
ATOM     31  C   UNL A   1      41.859  21.295  27.787  1.00  0.00     0.014 A 
ATOM     32  C   UNL A   1      41.567  21.956  25.472  1.00  0.00     0.014 A 
ATOM     33  C   UNL A   1      42.306  22.583  28.086  1.00  0.00     0.010 A 
ATOM     34  C   UNL A   1      42.107  23.201  25.751  1.00  0.00     0.010 A 
ATOM     35  C   UNL A   1      42.458  23.536  27.065  1.00  0.00    -0.014 A 
BRANCH  35  36
ATOM     36  C   UNL A   1      42.939  24.911  27.347  1.00  0.00     0.031 A 
ATOM     37  C   UNL A   1      42.018  25.892  28.022  1.00  0.00     0.074 A 
ATOM     38  C   UNL A   1      44.161  25.288  26.928  1.00  0.00     0.049 A 
ATOM     39  N   UNL A   1      42.195  27.165  28.261  1.00  0.00    -0.248 NA
ATOM     40  C   UNL A   1      40.703  25.380  28.443  1.00  0.00     0.031 C 
ATOM     41  C   UNL A   1      45.114  24.432  26.219  1.00  0.00     0.029 A 
ATOM     42  N   UNL A   1      44.807  26.493  27.025  1.00  0.00    -0.354 N 
ATOM     43  C   UNL A   1      41.009  27.610  28.837  1.00  0.00     0.074 A 
ATOM     44  C   UNL A   1      40.098  26.486  28.844  1.00  0.00     0.031 C 
ATOM     45  C   UNL A   1      46.233  25.131  25.971  1.00  0.00     0.029 A 
ATOM     46  C   UNL A   1      46.060  26.496  26.458  1.00  0.00     0.049 A 
ATOM     47  H   UNL A   1      44.412  27.283  27.460  1.00  0.00     0.167 HD
ATOM     48  C   UNL A   1      40.717  28.836  29.336  1.00  0.00     0.034 A 
ATOM     49  C   UNL A   1      46.960  27.491  26.335  1.00  0.00     0.034 A 
ATOM     50  C   UNL A   1      41.655  29.931  29.340  1.00  0.00     0.049 A 
ATOM     51  C   UNL A   1      46.617  28.845  26.900  1.00  0.00     0.074 A 
ATOM     52  C   UNL A   1      41.500  31.197  29.878  1.00  0.00     0.029 A 
ATOM     53  N   UNL A   1      42.924  29.892  28.775  1.00  0.00    -0.354 N 
ATOM     54  N   UNL A   1      45.511  29.237  27.492  1.00  0.00    -0.248 NA
ATOM     55  C   UNL A   1      47.645  29.887  26.792  1.00  0.00     0.031 C 
ATOM     56  C   UNL A   1      42.647  31.941  29.581  1.00  0.00     0.029 A 
ATOM     57  C   UNL A   1      43.551  31.118  28.927  1.00  0.00     0.049 A 
ATOM     58  H   UNL A   1      43.320  29.107  28.333  1.00  0.00     0.167 HD
ATOM     59  C   UNL A   1      45.724  30.564  27.854  1.00  0.00     0.074 A 
ATOM     60  C   UNL A   1      47.069  30.897  27.428  1.00  0.00     0.031 C 
ATOM     61  C   UNL A   1      44.890  31.430  28.485  1.00  0.00     0.034 A 
BRANCH  48  62
ATOM     62  C   UNL A   1      39.329  29.050  29.893  1.00  0.00     0.023 A 
ATOM     63  C   UNL A   1      38.370  29.824  29.215  1.00  0.00     0.031 A 
ATOM     64  C   UNL A   1      38.968  28.500  31.136  1.00  0.00     0.131 A 
ATOM     65  C   UNL A   1      37.134  30.097  29.819  1.00  0.00     0.055 A 
ATOM     66  C   UNL A   1      37.703  28.704  31.692  1.00  0.00     0.041 A 
ATOM     67  F   UNL A   1      39.846  27.770  31.842  1.00  0.00    -0.206 F 
ATOM     68  C   UNL A   1      36.783  29.521  31.042  1.00  0.00     0.022 A 
BRANCH  65  69
ATOM     69  S   UNL A   1      36.052  31.337  29.056  1.00  0.00     0.124 S 
ATOM     70  O   UNL A   1      35.481  31.993  30.230  1.00  0.00    -0.237 OA
ATOM     71  O   UNL A   1      36.988  32.133  28.271  1.00  0.00    -0.237 OA
ATOM     72  O   UNL A   1      35.107  30.537  28.279  1.00  0.00    -0.744 OA
ENDBRANCH  65  69
ENDBRANCH  48  62
BRANCH  49  73
ATOM     73  C   UNL A   1      48.265  27.249  25.657  1.00  0.00     0.023 A 
ATOM     74  C   UNL A   1      48.408  27.448  24.275  1.00  0.00     0.031 A 
ATOM     75  C   UNL A   1      49.382  26.787  26.376  1.00  0.00     0.131 A 
ATOM     76  C   UNL A   1      49.625  27.142  23.646  1.00  0.00     0.055 A 
ATOM     77  C   UNL A   1      50.606  26.533  25.754  1.00  0.00     0.041 A 
ATOM     78  F   UNL A   1      49.303  26.588  27.702  1.00  0.00    -0.206 F 
ATOM     79  C   UNL A   1      50.729  26.698  24.378  1.00  0.00     0.022 A 
BRANCH  76  80
ATOM     80  S   UNL A   1      49.720  27.257  21.838  1.00  0.00     0.124 S 
ATOM     81  O   UNL A   1      48.850  26.161  21.425  1.00  0.00    -0.237 OA
ATOM     82  O   UNL A   1      49.215  28.604  21.594  1.00  0.00    -0.237 OA
ATOM     83  O   UNL A   1      51.141  27.065  21.559  1.00  0.00    -0.744 OA
ENDBRANCH  76  80
ENDBRANCH  49  73
BRANCH  61  84
ATOM     84  C   UNL A   1      45.434  32.804  28.787  1.00  0.00     0.023 A 
ATOM     85  C   UNL A   1      45.429  33.830  27.828  1.00  0.00     0.031 A 
ATOM     86  C   UNL A   1      45.973  33.083  30.056  1.00  0.00     0.131 A 
ATOM     87  C   UNL A   1      46.003  35.073  28.134  1.00  0.00     0.055 A 
ATOM     88  C   UNL A   1      46.485  34.341  30.375  1.00  0.00     0.041 A 
ATOM     89  F   UNL A   1      46.004  32.139  31.010  1.00  0.00    -0.206 F 
ATOM     90  C   UNL A   1      46.515  35.341  29.406  1.00  0.00     0.022 A 
BRANCH  87  91
ATOM     91  S   UNL A   1      46.157  36.307  26.814  1.00  0.00     0.124 S 
ATOM     92  O   UNL A   1      45.043  37.203  27.105  1.00  0.00    -0.237 OA
ATOM     93  O   UNL A   1      47.491  36.852  27.051  1.00  0.00    -0.237 OA
ATOM     94  O   UNL A   1      46.019  35.521  25.590  1.00  0.00    -0.744 OA
ENDBRANCH  87  91
ENDBRANCH  61  84
ENDBRANCH  35  36
ENDBRANCH  27  30
ENDBRANCH  25  26
ENDBRANCH  24  25
ENDBRANCH   1  24
TORSDOF 17
ENDMDL
MODEL 3
REMARK VINA RESULT:     -11.3      3.331      8.589
REMARK SMILES CC(C)(CNC(=O)[C@H]1CCC[C@H](C(=O)NCCCNC(=O)c2ccc(-c3c4nc(c(-c5cc(S(=O)(=O)[O-])ccc5F)c5ccc([nH]5)c(-c5cc(S(=O)(=O)[O-])ccc5F)c5nc(c(-c6cc(S(=O)(=O)[O-])ccc6F)c6ccc3[nH]6)C=C5)C=C4)cc2)C1)S(C)(=O)=O
REMARK SMILES IDX 16 1 15 2 13 3 14 4 12 6 8 7 9 8 85 9 10 10 11 11 6 12 5 13
REMARK SMILES IDX 7 15 4 16 2 17 1 18 3 19 86 20 87 21 88 22 89 23 17 24 18 25
REMARK SMILES IDX 19 26 20 27 21 29 22 30 23 31 84 32 24 33 83 34 25 35 26 36
REMARK SMILES IDX 27 37 77 38 28 39 82 40 76 41 78 42 29 43 81 44 75 45 74 46
REMARK SMILES IDX 30 48 62 49 42 50 61 51 43 52 46 53 60 54 79 55 44 56 45 57
REMARK SMILES IDX 59 59 80 60 47 61 31 62 32 63 40 64 33 65 39 66 41 67 38 68
REMARK SMILES IDX 34 69 35 70 36 71 37 72 63 73 64 74 72 75 65 76 71 77 73 78
REMARK SMILES IDX 70 79 66 80 67 81 68 82 69 83 48 84 49 85 57 86 50 87 56 88
REMARK SMILES IDX 58 89 55 90 51 91 52 92 53 93 54 94
REMARK H PARENT 15 5 5 14 19 28 78 47 46 58
REMARK Flexibility Score: inf
ROOT
ATOM      1  C   UNL A   1      31.807  30.411  25.730  1.00  0.00     0.117 C 
ENDROOT
BRANCH   1   2
ATOM      2  N   UNL A   1      30.857  30.237  24.656  1.00  0.00    -0.356 N 
ATOM      3  C   UNL A   1      30.708  29.204  23.796  1.00  0.00     0.223 C 
ATOM      4  O   UNL A   1      29.930  29.363  22.849  1.00  0.00    -0.275 OA
ATOM      5  H   UNL A   1      30.223  30.982  24.531  1.00  0.00     0.163 HD
BRANCH   3   6
ATOM      6  C   UNL A   1      31.292  27.828  24.082  1.00  0.00     0.079 C 
ATOM      7  C   UNL A   1      31.763  25.628  22.872  1.00  0.00     0.079 C 
ATOM      8  C   UNL A   1      31.441  24.901  24.190  1.00  0.00     0.013 C 
ATOM      9  C   UNL A   1      31.088  26.985  22.818  1.00  0.00     0.027 C 
ATOM     10  C   UNL A   1      31.688  25.745  25.434  1.00  0.00     0.002 C 
ATOM     11  C   UNL A   1      30.964  27.091  25.375  1.00  0.00     0.013 C 
BRANCH   7  12
ATOM     12  C   UNL A   1      33.233  25.460  22.455  1.00  0.00     0.223 C 
ATOM     13  N   UNL A   1      34.062  24.414  22.699  1.00  0.00    -0.354 N 
ATOM     14  H   UNL A   1      34.897  24.472  22.181  1.00  0.00     0.163 HD
ATOM     15  O   UNL A   1      33.749  26.354  21.767  1.00  0.00    -0.275 OA
BRANCH  13  16
ATOM     16  C   UNL A   1      34.016  23.231  23.539  1.00  0.00     0.138 C 
BRANCH  16  17
ATOM     17  C   UNL A   1      35.249  22.887  24.422  1.00  0.00     0.084 C 
ATOM     18  C   UNL A   1      36.514  22.857  23.546  1.00  0.00     0.030 C 
ATOM     19  C   UNL A   1      35.431  24.027  25.458  1.00  0.00     0.030 C 
BRANCH  17  20
ATOM     20  S   UNL A   1      35.165  21.336  25.402  1.00  0.00     0.154 S 
ATOM     21  C   UNL A   1      33.791  20.360  24.832  1.00  0.00     0.158 C 
ATOM     22  O   UNL A   1      36.350  20.554  25.067  1.00  0.00    -0.229 OA
ATOM     23  O   UNL A   1      34.920  21.665  26.788  1.00  0.00    -0.229 OA
ENDBRANCH  17  20
ENDBRANCH  16  17
ENDBRANCH  13  16
ENDBRANCH   7  12
ENDBRANCH   3   6
ENDBRANCH   1   2
BRANCH   1  24
ATOM     24  C   UNL A   1      31.496  31.687  26.503  1.00  0.00     0.042 C 
BRANCH  24  25
ATOM     25  C   UNL A   1      32.705  32.186  27.285  1.00  0.00     0.118 C 
BRANCH  25  26
ATOM     26  N   UNL A   1      32.629  33.624  27.505  1.00  0.00    -0.352 N 
ATOM     27  C   UNL A   1      33.169  34.363  28.527  1.00  0.00     0.251 C 
ATOM     28  H   UNL A   1      32.122  34.133  26.830  1.00  0.00     0.163 HD
ATOM     29  O   UNL A   1      32.692  35.458  28.806  1.00  0.00    -0.269 OA
BRANCH  27  30
ATOM     30  C   UNL A   1      34.323  33.822  29.269  1.00  0.00     0.039 A 
ATOM     31  C   UNL A   1      34.116  32.910  30.305  1.00  0.00     0.014 A 
ATOM     32  C   UNL A   1      35.616  34.242  28.945  1.00  0.00     0.014 A 
ATOM     33  C   UNL A   1      35.215  32.388  30.987  1.00  0.00     0.010 A 
ATOM     34  C   UNL A   1      36.710  33.646  29.552  1.00  0.00     0.010 A 
ATOM     35  C   UNL A   1      36.521  32.732  30.597  1.00  0.00    -0.014 A 
BRANCH  35  36
ATOM     36  C   UNL A   1      37.712  32.189  31.294  1.00  0.00     0.031 A 
ATOM     37  C   UNL A   1      38.494  31.070  30.660  1.00  0.00     0.074 A 
ATOM     38  C   UNL A   1      38.034  32.647  32.519  1.00  0.00     0.049 A 
ATOM     39  N   UNL A   1      39.494  30.380  31.142  1.00  0.00    -0.248 NA
ATOM     40  C   UNL A   1      38.063  30.642  29.318  1.00  0.00     0.031 C 
ATOM     41  C   UNL A   1      37.313  33.693  33.247  1.00  0.00     0.029 A 
ATOM     42  N   UNL A   1      39.042  32.284  33.372  1.00  0.00    -0.354 N 
ATOM     43  C   UNL A   1      39.794  29.423  30.177  1.00  0.00     0.074 A 
ATOM     44  C   UNL A   1      38.824  29.579  29.115  1.00  0.00     0.031 C 
ATOM     45  C   UNL A   1      37.919  33.906  34.425  1.00  0.00     0.029 A 
ATOM     46  C   UNL A   1      39.040  32.981  34.559  1.00  0.00     0.049 A 
ATOM     47  H   UNL A   1      39.706  31.589  33.157  1.00  0.00     0.167 HD
ATOM     48  C   UNL A   1      40.801  28.517  30.167  1.00  0.00     0.034 A 
ATOM     49  C   UNL A   1      39.845  32.875  35.633  1.00  0.00     0.034 A 
ATOM     50  C   UNL A   1      41.771  28.401  31.228  1.00  0.00     0.049 A 
ATOM     51  C   UNL A   1      40.961  31.863  35.600  1.00  0.00     0.074 A 
ATOM     52  C   UNL A   1      42.876  27.570  31.300  1.00  0.00     0.029 A 
ATOM     53  N   UNL A   1      41.751  29.139  32.406  1.00  0.00    -0.354 N 
ATOM     54  N   UNL A   1      41.267  31.001  34.656  1.00  0.00    -0.248 NA
ATOM     55  C   UNL A   1      41.847  31.816  36.770  1.00  0.00     0.031 C 
ATOM     56  C   UNL A   1      43.483  27.758  32.547  1.00  0.00     0.029 A 
ATOM     57  C   UNL A   1      42.806  28.762  33.221  1.00  0.00     0.049 A 
ATOM     58  H   UNL A   1      41.085  29.828  32.628  1.00  0.00     0.167 HD
ATOM     59  C   UNL A   1      42.401  30.331  35.108  1.00  0.00     0.074 A 
ATOM     60  C   UNL A   1      42.730  30.901  36.399  1.00  0.00     0.031 C 
ATOM     61  C   UNL A   1      43.109  29.339  34.511  1.00  0.00     0.034 A 
BRANCH  48  62
ATOM     62  C   UNL A   1      40.882  27.576  28.987  1.00  0.00     0.023 A 
ATOM     63  C   UNL A   1      41.838  27.745  27.970  1.00  0.00     0.031 A 
ATOM     64  C   UNL A   1      39.969  26.515  28.859  1.00  0.00     0.131 A 
ATOM     65  C   UNL A   1      41.806  26.924  26.833  1.00  0.00     0.055 A 
ATOM     66  C   UNL A   1      39.999  25.646  27.766  1.00  0.00     0.041 A 
ATOM     67  F   UNL A   1      39.019  26.314  29.786  1.00  0.00    -0.206 F 
ATOM     68  C   UNL A   1      40.910  25.858  26.736  1.00  0.00     0.022 A 
BRANCH  65  69
ATOM     69  S   UNL A   1      42.852  27.364  25.418  1.00  0.00     0.124 S 
ATOM     70  O   UNL A   1      42.893  26.103  24.679  1.00  0.00    -0.237 OA
ATOM     71  O   UNL A   1      42.101  28.446  24.793  1.00  0.00    -0.237 OA
ATOM     72  O   UNL A   1      44.118  27.756  26.034  1.00  0.00    -0.744 OA
ENDBRANCH  65  69
ENDBRANCH  48  62
BRANCH  49  73
ATOM     73  C   UNL A   1      39.632  33.746  36.824  1.00  0.00     0.023 A 
ATOM     74  C   UNL A   1      39.020  33.245  37.984  1.00  0.00     0.031 A 
ATOM     75  C   UNL A   1      40.011  35.100  36.811  1.00  0.00     0.131 A 
ATOM     76  C   UNL A   1      38.762  34.102  39.065  1.00  0.00     0.055 A 
ATOM     77  C   UNL A   1      39.798  35.937  37.907  1.00  0.00     0.041 A 
ATOM     78  F   UNL A   1      40.608  35.628  35.729  1.00  0.00    -0.206 F 
ATOM     79  C   UNL A   1      39.158  35.442  39.040  1.00  0.00     0.022 A 
BRANCH  76  80
ATOM     80  S   UNL A   1      37.825  33.459  40.478  1.00  0.00     0.124 S 
ATOM     81  O   UNL A   1      37.479  34.685  41.188  1.00  0.00    -0.237 OA
ATOM     82  O   UNL A   1      36.723  32.766  39.819  1.00  0.00    -0.237 OA
ATOM     83  O   UNL A   1      38.786  32.594  41.158  1.00  0.00    -0.744 OA
ENDBRANCH  76  80
ENDBRANCH  49  73
BRANCH  61  84
ATOM     84  C   UNL A   1      44.336  28.845  35.236  1.00  0.00     0.023 A 
ATOM     85  C   UNL A   1      44.282  27.761  36.128  1.00  0.00     0.031 A 
ATOM     86  C   UNL A   1      45.576  29.478  35.034  1.00  0.00     0.131 A 
ATOM     87  C   UNL A   1      45.435  27.376  36.828  1.00  0.00     0.055 A 
ATOM     88  C   UNL A   1      46.733  29.051  35.686  1.00  0.00     0.041 A 
ATOM     89  F   UNL A   1      45.683  30.519  34.195  1.00  0.00    -0.206 F 
ATOM     90  C   UNL A   1      46.664  28.002  36.600  1.00  0.00     0.022 A 
BRANCH  87  91
ATOM     91  S   UNL A   1      45.289  26.106  38.114  1.00  0.00     0.124 S 
ATOM     92  O   UNL A   1      45.481  26.884  39.333  1.00  0.00    -0.237 OA
ATOM     93  O   UNL A   1      43.941  25.591  37.892  1.00  0.00    -0.237 OA
ATOM     94  O   UNL A   1      46.368  25.171  37.797  1.00  0.00    -0.744 OA
ENDBRANCH  87  91
ENDBRANCH  61  84
ENDBRANCH  35  36
ENDBRANCH  27  30
ENDBRANCH  25  26
ENDBRANCH  24  25
ENDBRANCH   1  24
TORSDOF 17
ENDMDL
