MODEL 1
REMARK VINA RESULT:     -12.3      0.000      0.000
REMARK SMILES O=C(NCCCNC(=O)c1cccc2c1ccn2Cc1ccncc1)c1ccc(-c2c3nc(c(-c4cc(S(=O)(=O)[O-])ccc4F)c4ccc([nH]4)c(-c4cc(S(=O)(=O)[O-])ccc4F)c4nc(c(-c5cc(S(=O)(=O)[O-])ccc5F)c5ccc2[nH]5)C=C4)C=C3)cc1
REMARK SMILES IDX 4 1 3 2 1 3 2 4 26 6 27 7 88 8 28 9 87 10 29 11 30 12 31 13
REMARK SMILES IDX 81 14 32 15 86 16 80 17 82 18 33 19 85 20 79 21 78 22 34 24
REMARK SMILES IDX 66 25 46 26 65 27 47 28 50 29 64 30 83 31 48 32 49 33 63 35
REMARK SMILES IDX 84 36 51 37 35 38 36 39 44 40 37 41 43 42 45 43 42 44 38 45
REMARK SMILES IDX 39 46 40 47 41 48 67 49 68 50 76 51 69 52 75 53 77 54 74 55
REMARK SMILES IDX 70 56 71 57 72 58 73 59 52 60 53 61 61 62 54 63 60 64 62 65
REMARK SMILES IDX 59 66 55 67 56 68 57 69 58 70 5 71 6 72 7 73 8 74 9 76 10 77
REMARK SMILES IDX 11 78 15 79 12 80 14 81 16 82 13 83 18 84 17 85 19 86 20 87
REMARK SMILES IDX 21 88 25 89 22 90 24 91 23 92
REMARK H PARENT 3 5 82 23 50 34 7 75
REMARK Flexibility Score: inf
ROOT
ATOM      1  C   UNL A   1      38.350  21.462  25.398  1.00  0.00     0.118 C 
ENDROOT
BRANCH   1   2
ATOM      2  N   UNL A   1      39.026  20.157  25.546  1.00  0.00    -0.352 N 
ATOM      3  O   UNL A   1      40.895  18.840  25.642  1.00  0.00    -0.269 OA
ATOM      4  C   UNL A   1      40.366  19.932  25.839  1.00  0.00     0.251 C 
ATOM      5  H   UNL A   1      38.464  19.358  25.421  1.00  0.00     0.163 HD
BRANCH   4   6
ATOM      6  C   UNL A   1      41.124  21.049  26.425  1.00  0.00     0.039 A 
ATOM      7  C   UNL A   1      41.733  22.061  25.682  1.00  0.00     0.014 A 
ATOM      8  C   UNL A   1      41.033  21.136  27.803  1.00  0.00     0.014 A 
ATOM      9  C   UNL A   1      42.142  23.212  26.358  1.00  0.00     0.010 A 
ATOM     10  C   UNL A   1      41.098  22.372  28.365  1.00  0.00     0.010 A 
ATOM     11  C   UNL A   1      41.782  23.376  27.707  1.00  0.00    -0.014 A 
BRANCH  11  12
ATOM     12  C   UNL A   1      42.033  24.595  28.469  1.00  0.00     0.031 A 
ATOM     13  C   UNL A   1      40.985  25.631  28.322  1.00  0.00     0.074 A 
ATOM     14  C   UNL A   1      43.039  24.719  29.368  1.00  0.00     0.049 A 
ATOM     15  N   UNL A   1      41.037  26.670  27.559  1.00  0.00    -0.248 NA
ATOM     16  C   UNL A   1      39.661  25.390  28.912  1.00  0.00     0.031 C 
ATOM     17  C   UNL A   1      43.980  23.697  29.860  1.00  0.00     0.029 A 
ATOM     18  N   UNL A   1      43.383  25.797  30.119  1.00  0.00    -0.354 N 
ATOM     19  C   UNL A   1      39.855  27.362  27.787  1.00  0.00     0.074 A 
ATOM     20  C   UNL A   1      38.967  26.420  28.419  1.00  0.00     0.031 C 
ATOM     21  C   UNL A   1      44.592  24.129  30.984  1.00  0.00     0.029 A 
ATOM     22  C   UNL A   1      44.265  25.528  31.159  1.00  0.00     0.049 A 
ATOM     23  H   UNL A   1      43.035  26.701  29.939  1.00  0.00     0.167 HD
ATOM     24  C   UNL A   1      39.818  28.723  27.689  1.00  0.00     0.034 A 
ATOM     25  C   UNL A   1      44.725  26.393  32.096  1.00  0.00     0.034 A 
ATOM     26  C   UNL A   1      41.033  29.223  27.088  1.00  0.00     0.049 A 
ATOM     27  C   UNL A   1      44.523  27.761  31.568  1.00  0.00     0.074 A 
ATOM     28  C   UNL A   1      41.662  29.040  25.873  1.00  0.00     0.029 A 
ATOM     29  N   UNL A   1      41.995  29.707  27.946  1.00  0.00    -0.354 N 
ATOM     30  N   UNL A   1      45.187  28.251  30.560  1.00  0.00    -0.248 NA
ATOM     31  C   UNL A   1      43.251  28.406  31.855  1.00  0.00     0.031 C 
ATOM     32  C   UNL A   1      43.052  28.987  26.181  1.00  0.00     0.029 A 
ATOM     33  C   UNL A   1      43.215  29.229  27.547  1.00  0.00     0.049 A 
ATOM     34  H   UNL A   1      41.832  30.298  28.716  1.00  0.00     0.167 HD
ATOM     35  C   UNL A   1      44.226  28.905  29.806  1.00  0.00     0.074 A 
ATOM     36  C   UNL A   1      43.083  29.066  30.707  1.00  0.00     0.031 C 
ATOM     37  C   UNL A   1      44.330  28.983  28.445  1.00  0.00     0.034 A 
BRANCH  24  38
ATOM     38  C   UNL A   1      38.893  29.611  28.490  1.00  0.00     0.023 A 
ATOM     39  C   UNL A   1      37.724  30.189  27.961  1.00  0.00     0.031 A 
ATOM     40  C   UNL A   1      39.047  29.715  29.888  1.00  0.00     0.131 A 
ATOM     41  C   UNL A   1      36.779  30.822  28.777  1.00  0.00     0.055 A 
ATOM     42  C   UNL A   1      38.071  30.286  30.713  1.00  0.00     0.041 A 
ATOM     43  F   UNL A   1      40.126  29.208  30.504  1.00  0.00    -0.206 F 
ATOM     44  C   UNL A   1      36.925  30.841  30.159  1.00  0.00     0.022 A 
BRANCH  41  45
ATOM     45  S   UNL A   1      35.323  31.615  28.040  1.00  0.00     0.124 S 
ATOM     46  O   UNL A   1      35.904  32.804  27.428  1.00  0.00    -0.237 OA
ATOM     47  O   UNL A   1      34.864  30.583  27.113  1.00  0.00    -0.237 OA
ATOM     48  O   UNL A   1      34.446  31.851  29.183  1.00  0.00    -0.744 OA
ENDBRANCH  41  45
ENDBRANCH  24  38
BRANCH  25  49
ATOM     49  C   UNL A   1      44.876  26.131  33.546  1.00  0.00     0.023 A 
ATOM     50  C   UNL A   1      43.731  25.955  34.344  1.00  0.00     0.031 A 
ATOM     51  C   UNL A   1      46.089  26.403  34.202  1.00  0.00     0.131 A 
ATOM     52  C   UNL A   1      43.801  26.136  35.733  1.00  0.00     0.055 A 
ATOM     53  C   UNL A   1      46.163  26.555  35.591  1.00  0.00     0.041 A 
ATOM     54  F   UNL A   1      47.212  26.609  33.496  1.00  0.00    -0.206 F 
ATOM     55  C   UNL A   1      45.010  26.443  36.362  1.00  0.00     0.022 A 
BRANCH  52  56
ATOM     56  S   UNL A   1      42.293  26.104  36.741  1.00  0.00     0.124 S 
ATOM     57  O   UNL A   1      41.762  24.773  36.459  1.00  0.00    -0.237 OA
ATOM     58  O   UNL A   1      42.830  26.293  38.084  1.00  0.00    -0.237 OA
ATOM     59  O   UNL A   1      41.504  27.212  36.213  1.00  0.00    -0.744 OA
ENDBRANCH  52  56
ENDBRANCH  25  49
BRANCH  37  60
ATOM     60  C   UNL A   1      45.638  28.581  27.789  1.00  0.00     0.023 A 
ATOM     61  C   UNL A   1      45.727  27.262  27.313  1.00  0.00     0.031 A 
ATOM     62  C   UNL A   1      46.824  29.340  27.807  1.00  0.00     0.131 A 
ATOM     63  C   UNL A   1      46.960  26.726  26.923  1.00  0.00     0.055 A 
ATOM     64  C   UNL A   1      48.043  28.825  27.349  1.00  0.00     0.041 A 
ATOM     65  F   UNL A   1      46.866  30.568  28.336  1.00  0.00    -0.206 F 
ATOM     66  C   UNL A   1      48.119  27.504  26.920  1.00  0.00     0.022 A 
BRANCH  63  67
ATOM     67  S   UNL A   1      47.107  24.958  26.565  1.00  0.00     0.124 S 
ATOM     68  O   UNL A   1      45.783  24.459  26.925  1.00  0.00    -0.237 OA
ATOM     69  O   UNL A   1      47.410  24.954  25.134  1.00  0.00    -0.237 OA
ATOM     70  O   UNL A   1      48.199  24.511  27.425  1.00  0.00    -0.744 OA
ENDBRANCH  63  67
ENDBRANCH  37  60
ENDBRANCH  11  12
ENDBRANCH   4   6
ENDBRANCH   1   2
BRANCH   1  71
ATOM     71  C   UNL A   1      37.135  21.440  24.493  1.00  0.00     0.042 C 
BRANCH  71  72
ATOM     72  C   UNL A   1      36.115  20.378  24.900  1.00  0.00     0.118 C 
BRANCH  72  73
ATOM     73  N   UNL A   1      35.314  20.711  26.072  1.00  0.00    -0.352 N 
ATOM     74  C   UNL A   1      34.116  21.384  26.165  1.00  0.00     0.251 C 
ATOM     75  H   UNL A   1      35.690  20.409  26.930  1.00  0.00     0.163 HD
ATOM     76  O   UNL A   1      33.562  21.505  27.252  1.00  0.00    -0.269 OA
BRANCH  74  77
ATOM     77  C   UNL A   1      33.499  21.945  24.952  1.00  0.00     0.049 A 
ATOM     78  C   UNL A   1      32.716  21.132  24.120  1.00  0.00     0.014 A 
ATOM     79  C   UNL A   1      33.708  23.301  24.618  1.00  0.00     0.012 A 
ATOM     80  C   UNL A   1      32.260  21.612  22.899  1.00  0.00     0.003 A 
ATOM     81  C   UNL A   1      33.189  23.780  23.405  1.00  0.00     0.049 A 
ATOM     82  C   UNL A   1      34.394  24.382  25.236  1.00  0.00     0.029 A 
ATOM     83  C   UNL A   1      32.497  22.936  22.516  1.00  0.00     0.027 A 
ATOM     84  N   UNL A   1      33.511  25.125  23.334  1.00  0.00    -0.343 N 
ATOM     85  C   UNL A   1      34.308  25.466  24.398  1.00  0.00     0.087 A 
BRANCH  84  86
ATOM     86  C   UNL A   1      33.127  26.054  22.275  1.00  0.00     0.157 C 
BRANCH  86  87
ATOM     87  C   UNL A   1      32.002  26.974  22.690  1.00  0.00    -0.025 A 
ATOM     88  C   UNL A   1      32.203  28.355  22.807  1.00  0.00     0.025 A 
ATOM     89  C   UNL A   1      30.722  26.478  22.958  1.00  0.00     0.025 A 
ATOM     90  C   UNL A   1      31.145  29.163  23.197  1.00  0.00     0.111 A 
ATOM     91  C   UNL A   1      29.722  27.370  23.324  1.00  0.00     0.111 A 
ATOM     92  N   UNL A   1      29.902  28.701  23.444  1.00  0.00    -0.265 NA
ENDBRANCH  86  87
ENDBRANCH  84  86
ENDBRANCH  74  77
ENDBRANCH  72  73
ENDBRANCH  71  72
ENDBRANCH   1  71
TORSDOF 15
ENDMDL
MODEL 2
REMARK VINA RESULT:     -12.2      3.274      7.910
REMARK SMILES O=C(NCCCNC(=O)c1cccc2c1ccn2Cc1ccncc1)c1ccc(-c2c3nc(c(-c4cc(S(=O)(=O)[O-])ccc4F)c4ccc([nH]4)c(-c4cc(S(=O)(=O)[O-])ccc4F)c4nc(c(-c5cc(S(=O)(=O)[O-])ccc5F)c5ccc2[nH]5)C=C4)C=C3)cc1
REMARK SMILES IDX 4 1 3 2 1 3 2 4 26 6 27 7 88 8 28 9 87 10 29 11 30 12 31 13
REMARK SMILES IDX 81 14 32 15 86 16 80 17 82 18 33 19 85 20 79 21 78 22 34 24
REMARK SMILES IDX 66 25 46 26 65 27 47 28 50 29 64 30 83 31 48 32 49 33 63 35
REMARK SMILES IDX 84 36 51 37 35 38 36 39 44 40 37 41 43 42 45 43 42 44 38 45
REMARK SMILES IDX 39 46 40 47 41 48 67 49 68 50 76 51 69 52 75 53 77 54 74 55
REMARK SMILES IDX 70 56 71 57 72 58 73 59 52 60 53 61 61 62 54 63 60 64 62 65
REMARK SMILES IDX 59 66 55 67 56 68 57 69 58 70 5 71 6 72 7 73 8 74 9 76 10 77
REMARK SMILES IDX 11 78 15 79 12 80 14 81 16 82 13 83 18 84 17 85 19 86 20 87
REMARK SMILES IDX 21 88 25 89 22 90 24 91 23 92
REMARK H PARENT 3 5 82 23 50 34 7 75
REMARK Flexibility Score: inf
ROOT
ATOM      1  C   UNL A   1      38.666  22.291  26.219  1.00  0.00     0.118 C 
ENDROOT
BRANCH   1   2
ATOM      2  N   UNL A   1      40.070  21.974  25.887  1.00  0.00    -0.352 N 
ATOM      3  O   UNL A   1      42.258  22.558  25.553  1.00  0.00    -0.269 OA
ATOM      4  C   UNL A   1      41.191  22.761  26.129  1.00  0.00     0.251 C 
ATOM      5  H   UNL A   1      40.229  21.109  25.444  1.00  0.00     0.163 HD
BRANCH   4   6
ATOM      6  C   UNL A   1      41.058  23.833  27.127  1.00  0.00     0.039 A 
ATOM      7  C   UNL A   1      41.997  24.100  28.124  1.00  0.00     0.014 A 
ATOM      8  C   UNL A   1      40.007  24.701  26.892  1.00  0.00     0.014 A 
ATOM      9  C   UNL A   1      41.909  25.321  28.795  1.00  0.00     0.010 A 
ATOM     10  C   UNL A   1      40.154  25.995  27.283  1.00  0.00     0.010 A 
ATOM     11  C   UNL A   1      40.997  26.288  28.336  1.00  0.00    -0.014 A 
BRANCH  11  12
ATOM     12  C   UNL A   1      40.919  27.644  28.871  1.00  0.00     0.031 A 
ATOM     13  C   UNL A   1      41.854  28.602  28.237  1.00  0.00     0.074 A 
ATOM     14  C   UNL A   1      39.967  28.047  29.746  1.00  0.00     0.049 A 
ATOM     15  N   UNL A   1      42.987  28.995  28.713  1.00  0.00    -0.248 NA
ATOM     16  C   UNL A   1      41.619  29.008  26.844  1.00  0.00     0.031 C 
ATOM     17  C   UNL A   1      38.787  27.316  30.241  1.00  0.00     0.029 A 
ATOM     18  N   UNL A   1      39.801  29.265  30.324  1.00  0.00    -0.354 N 
ATOM     19  C   UNL A   1      43.479  29.916  27.797  1.00  0.00     0.074 A 
ATOM     20  C   UNL A   1      42.735  29.695  26.583  1.00  0.00     0.031 C 
ATOM     21  C   UNL A   1      37.916  28.172  30.818  1.00  0.00     0.029 A 
ATOM     22  C   UNL A   1      38.569  29.457  30.939  1.00  0.00     0.049 A 
ATOM     23  H   UNL A   1      40.500  29.958  30.309  1.00  0.00     0.167 HD
ATOM     24  C   UNL A   1      44.255  30.960  28.211  1.00  0.00     0.034 A 
ATOM     25  C   UNL A   1      38.111  30.586  31.534  1.00  0.00     0.034 A 
ATOM     26  C   UNL A   1      44.660  30.778  29.586  1.00  0.00     0.049 A 
ATOM     27  C   UNL A   1      39.288  31.427  31.848  1.00  0.00     0.074 A 
ATOM     28  C   UNL A   1      45.386  29.821  30.266  1.00  0.00     0.029 A 
ATOM     29  N   UNL A   1      43.936  31.456  30.540  1.00  0.00    -0.354 N 
ATOM     30  N   UNL A   1      40.175  31.118  32.752  1.00  0.00    -0.248 NA
ATOM     31  C   UNL A   1      39.733  32.360  30.825  1.00  0.00     0.031 C 
ATOM     32  C   UNL A   1      44.720  29.672  31.517  1.00  0.00     0.029 A 
ATOM     33  C   UNL A   1      43.680  30.602  31.582  1.00  0.00     0.049 A 
ATOM     34  H   UNL A   1      43.649  32.396  30.483  1.00  0.00     0.167 HD
ATOM     35  C   UNL A   1      41.389  31.411  32.151  1.00  0.00     0.074 A 
ATOM     36  C   UNL A   1      41.052  32.277  31.020  1.00  0.00     0.031 C 
ATOM     37  C   UNL A   1      42.512  30.687  32.440  1.00  0.00     0.034 A 
BRANCH  24  38
ATOM     38  C   UNL A   1      44.306  32.308  27.530  1.00  0.00     0.023 A 
ATOM     39  C   UNL A   1      43.539  33.413  27.941  1.00  0.00     0.031 A 
ATOM     40  C   UNL A   1      45.311  32.582  26.578  1.00  0.00     0.131 A 
ATOM     41  C   UNL A   1      43.767  34.699  27.436  1.00  0.00     0.055 A 
ATOM     42  C   UNL A   1      45.586  33.877  26.123  1.00  0.00     0.041 A 
ATOM     43  F   UNL A   1      46.100  31.604  26.106  1.00  0.00    -0.206 F 
ATOM     44  C   UNL A   1      44.814  34.947  26.556  1.00  0.00     0.022 A 
BRANCH  41  45
ATOM     45  S   UNL A   1      42.705  36.080  27.943  1.00  0.00     0.124 S 
ATOM     46  O   UNL A   1      41.568  35.384  28.535  1.00  0.00    -0.237 OA
ATOM     47  O   UNL A   1      43.573  36.789  28.880  1.00  0.00    -0.237 OA
ATOM     48  O   UNL A   1      42.440  36.785  26.693  1.00  0.00    -0.744 OA
ENDBRANCH  41  45
ENDBRANCH  24  38
BRANCH  25  49
ATOM     49  C   UNL A   1      36.752  31.162  31.414  1.00  0.00     0.023 A 
ATOM     50  C   UNL A   1      36.201  31.388  30.139  1.00  0.00     0.031 A 
ATOM     51  C   UNL A   1      36.149  31.810  32.507  1.00  0.00     0.131 A 
ATOM     52  C   UNL A   1      35.146  32.298  29.975  1.00  0.00     0.055 A 
ATOM     53  C   UNL A   1      35.077  32.696  32.344  1.00  0.00     0.041 A 
ATOM     54  F   UNL A   1      36.644  31.659  33.745  1.00  0.00    -0.206 F 
ATOM     55  C   UNL A   1      34.585  32.960  31.069  1.00  0.00     0.022 A 
BRANCH  52  56
ATOM     56  S   UNL A   1      34.566  32.739  28.314  1.00  0.00     0.124 S 
ATOM     57  O   UNL A   1      35.803  33.139  27.650  1.00  0.00    -0.237 OA
ATOM     58  O   UNL A   1      33.990  31.478  27.857  1.00  0.00    -0.237 OA
ATOM     59  O   UNL A   1      33.614  33.817  28.558  1.00  0.00    -0.744 OA
ENDBRANCH  52  56
ENDBRANCH  25  49
BRANCH  37  60
ATOM     60  C   UNL A   1      42.480  29.732  33.619  1.00  0.00     0.023 A 
ATOM     61  C   UNL A   1      43.052  30.189  34.819  1.00  0.00     0.031 A 
ATOM     62  C   UNL A   1      42.122  28.371  33.554  1.00  0.00     0.131 A 
ATOM     63  C   UNL A   1      43.292  29.304  35.876  1.00  0.00     0.055 A 
ATOM     64  C   UNL A   1      42.298  27.504  34.640  1.00  0.00     0.041 A 
ATOM     65  F   UNL A   1      41.667  27.816  32.425  1.00  0.00    -0.206 F 
ATOM     66  C   UNL A   1      42.903  27.966  35.803  1.00  0.00     0.022 A 
BRANCH  63  67
ATOM     67  S   UNL A   1      44.263  29.843  37.306  1.00  0.00     0.124 S 
ATOM     68  O   UNL A   1      44.327  28.627  38.111  1.00  0.00    -0.237 OA
ATOM     69  O   UNL A   1      45.524  30.253  36.690  1.00  0.00    -0.237 OA
ATOM     70  O   UNL A   1      43.476  30.932  37.879  1.00  0.00    -0.744 OA
ENDBRANCH  63  67
ENDBRANCH  37  60
ENDBRANCH  11  12
ENDBRANCH   4   6
ENDBRANCH   1   2
BRANCH   1  71
ATOM     71  C   UNL A   1      37.670  21.942  25.131  1.00  0.00     0.042 C 
BRANCH  71  72
ATOM     72  C   UNL A   1      37.212  23.163  24.336  1.00  0.00     0.118 C 
BRANCH  72  73
ATOM     73  N   UNL A   1      36.317  24.064  25.053  1.00  0.00    -0.352 N 
ATOM     74  C   UNL A   1      34.941  24.106  25.083  1.00  0.00     0.251 C 
ATOM     75  H   UNL A   1      36.767  24.748  25.598  1.00  0.00     0.163 HD
ATOM     76  O   UNL A   1      34.366  24.908  25.810  1.00  0.00    -0.269 OA
BRANCH  74  77
ATOM     77  C   UNL A   1      34.164  23.176  24.247  1.00  0.00     0.049 A 
ATOM     78  C   UNL A   1      33.716  23.575  22.979  1.00  0.00     0.014 A 
ATOM     79  C   UNL A   1      33.858  21.884  24.728  1.00  0.00     0.012 A 
ATOM     80  C   UNL A   1      32.857  22.763  22.251  1.00  0.00     0.003 A 
ATOM     81  C   UNL A   1      33.033  21.058  23.949  1.00  0.00     0.049 A 
ATOM     82  C   UNL A   1      34.174  21.164  25.912  1.00  0.00     0.029 A 
ATOM     83  C   UNL A   1      32.492  21.499  22.726  1.00  0.00     0.027 A 
ATOM     84  N   UNL A   1      32.911  19.857  24.628  1.00  0.00    -0.343 N 
ATOM     85  C   UNL A   1      33.531  19.953  25.850  1.00  0.00     0.087 A 
BRANCH  84  86
ATOM     86  C   UNL A   1      32.193  18.671  24.172  1.00  0.00     0.157 C 
BRANCH  86  87
ATOM     87  C   UNL A   1      32.896  17.387  24.546  1.00  0.00    -0.025 A 
ATOM     88  C   UNL A   1      32.233  16.380  25.260  1.00  0.00     0.025 A 
ATOM     89  C   UNL A   1      34.227  17.157  24.181  1.00  0.00     0.025 A 
ATOM     90  C   UNL A   1      32.917  15.220  25.590  1.00  0.00     0.111 A 
ATOM     91  C   UNL A   1      34.820  15.953  24.541  1.00  0.00     0.111 A 
ATOM     92  N   UNL A   1      34.195  14.977  25.232  1.00  0.00    -0.265 NA
ENDBRANCH  86  87
ENDBRANCH  84  86
ENDBRANCH  74  77
ENDBRANCH  72  73
ENDBRANCH  71  72
ENDBRANCH   1  71
TORSDOF 15
ENDMDL
MODEL 3
REMARK VINA RESULT:     -12.1      3.195      7.099
REMARK SMILES O=C(NCCCNC(=O)c1cccc2c1ccn2Cc1ccncc1)c1ccc(-c2c3nc(c(-c4cc(S(=O)(=O)[O-])ccc4F)c4ccc([nH]4)c(-c4cc(S(=O)(=O)[O-])ccc4F)c4nc(c(-c5cc(S(=O)(=O)[O-])ccc5F)c5ccc2[nH]5)C=C4)C=C3)cc1
REMARK SMILES IDX 4 1 3 2 1 3 2 4 26 6 27 7 88 8 28 9 87 10 29 11 30 12 31 13
REMARK SMILES IDX 81 14 32 15 86 16 80 17 82 18 33 19 85 20 79 21 78 22 34 24
REMARK SMILES IDX 66 25 46 26 65 27 47 28 50 29 64 30 83 31 48 32 49 33 63 35
REMARK SMILES IDX 84 36 51 37 35 38 36 39 44 40 37 41 43 42 45 43 42 44 38 45
REMARK SMILES IDX 39 46 40 47 41 48 67 49 68 50 76 51 69 52 75 53 77 54 74 55
REMARK SMILES IDX 70 56 71 57 72 58 73 59 52 60 53 61 61 62 54 63 60 64 62 65
REMARK SMILES IDX 59 66 55 67 56 68 57 69 58 70 5 71 6 72 7 73 8 74 9 76 10 77
REMARK SMILES IDX 11 78 15 79 12 80 14 81 16 82 13 83 18 84 17 85 19 86 20 87
REMARK SMILES IDX 21 88 25 89 22 90 24 91 23 92
REMARK H PARENT 3 5 82 23 50 34 7 75
REMARK Flexibility Score: inf
ROOT
ATOM      1  C   UNL A   1      38.111  22.385  25.534  1.00  0.00     0.118 C 
ENDROOT
BRANCH   1   2
ATOM      2  N   UNL A   1      38.954  21.737  26.560  1.00  0.00    -0.352 N 
ATOM      3  O   UNL A   1      40.849  21.597  27.836  1.00  0.00    -0.269 OA
ATOM      4  C   UNL A   1      40.033  22.295  27.239  1.00  0.00     0.251 C 
ATOM      5  H   UNL A   1      38.728  20.806  26.787  1.00  0.00     0.163 HD
BRANCH   4   6
ATOM      6  C   UNL A   1      40.143  23.762  27.238  1.00  0.00     0.039 A 
ATOM      7  C   UNL A   1      39.073  24.630  27.022  1.00  0.00     0.014 A 
ATOM      8  C   UNL A   1      41.370  24.240  27.661  1.00  0.00     0.014 A 
ATOM      9  C   UNL A   1      39.244  25.975  27.356  1.00  0.00     0.010 A 
ATOM     10  C   UNL A   1      41.396  25.437  28.305  1.00  0.00     0.010 A 
ATOM     11  C   UNL A   1      40.409  26.365  28.040  1.00  0.00    -0.014 A 
BRANCH  11  12
ATOM     12  C   UNL A   1      40.629  27.711  28.560  1.00  0.00     0.031 A 
ATOM     13  C   UNL A   1      41.786  28.414  27.960  1.00  0.00     0.074 A 
ATOM     14  C   UNL A   1      39.763  28.341  29.390  1.00  0.00     0.049 A 
ATOM     15  N   UNL A   1      42.960  28.539  28.481  1.00  0.00    -0.248 NA
ATOM     16  C   UNL A   1      41.709  28.838  26.555  1.00  0.00     0.031 C 
ATOM     17  C   UNL A   1      38.426  27.914  29.839  1.00  0.00     0.029 A 
ATOM     18  N   UNL A   1      39.863  29.574  29.950  1.00  0.00    -0.354 N 
ATOM     19  C   UNL A   1      43.690  29.304  27.581  1.00  0.00     0.074 A 
ATOM     20  C   UNL A   1      42.964  29.241  26.337  1.00  0.00     0.031 C 
ATOM     21  C   UNL A   1      37.757  28.960  30.371  1.00  0.00     0.029 A 
ATOM     22  C   UNL A   1      38.687  30.059  30.510  1.00  0.00     0.049 A 
ATOM     23  H   UNL A   1      40.705  30.085  29.960  1.00  0.00     0.167 HD
ATOM     24  C   UNL A   1      44.672  30.144  28.019  1.00  0.00     0.034 A 
ATOM     25  C   UNL A   1      38.482  31.274  31.076  1.00  0.00     0.034 A 
ATOM     26  C   UNL A   1      44.967  29.897  29.412  1.00  0.00     0.049 A 
ATOM     27  C   UNL A   1      39.810  31.822  31.434  1.00  0.00     0.074 A 
ATOM     28  C   UNL A   1      45.421  28.810  30.130  1.00  0.00     0.029 A 
ATOM     29  N   UNL A   1      44.383  30.742  30.328  1.00  0.00    -0.354 N 
ATOM     30  N   UNL A   1      40.562  31.332  32.378  1.00  0.00    -0.248 NA
ATOM     31  C   UNL A   1      40.502  32.608  30.424  1.00  0.00     0.031 C 
ATOM     32  C   UNL A   1      44.689  28.843  31.352  1.00  0.00     0.029 A 
ATOM     33  C   UNL A   1      43.894  29.991  31.365  1.00  0.00     0.049 A 
ATOM     34  H   UNL A   1      44.327  31.722  30.252  1.00  0.00     0.167 HD
ATOM     35  C   UNL A   1      41.834  31.322  31.828  1.00  0.00     0.074 A 
ATOM     36  C   UNL A   1      41.755  32.222  30.677  1.00  0.00     0.031 C 
ATOM     37  C   UNL A   1      42.744  30.361  32.171  1.00  0.00     0.034 A 
BRANCH  24  38
ATOM     38  C   UNL A   1      45.065  31.431  27.330  1.00  0.00     0.023 A 
ATOM     39  C   UNL A   1      44.232  32.564  27.272  1.00  0.00     0.031 A 
ATOM     40  C   UNL A   1      46.395  31.628  26.905  1.00  0.00     0.131 A 
ATOM     41  C   UNL A   1      44.704  33.804  26.824  1.00  0.00     0.055 A 
ATOM     42  C   UNL A   1      46.886  32.882  26.522  1.00  0.00     0.041 A 
ATOM     43  F   UNL A   1      47.278  30.617  26.909  1.00  0.00    -0.206 F 
ATOM     44  C   UNL A   1      46.039  33.982  26.483  1.00  0.00     0.022 A 
BRANCH  41  45
ATOM     45  S   UNL A   1      43.574  35.218  26.700  1.00  0.00     0.124 S 
ATOM     46  O   UNL A   1      44.495  36.347  26.766  1.00  0.00    -0.237 OA
ATOM     47  O   UNL A   1      42.951  34.983  25.400  1.00  0.00    -0.237 OA
ATOM     48  O   UNL A   1      42.687  35.051  27.848  1.00  0.00    -0.744 OA
ENDBRANCH  41  45
ENDBRANCH  24  38
BRANCH  25  49
ATOM     49  C   UNL A   1      37.301  32.150  30.893  1.00  0.00     0.023 A 
ATOM     50  C   UNL A   1      36.666  32.705  32.019  1.00  0.00     0.031 A 
ATOM     51  C   UNL A   1      36.594  32.155  29.678  1.00  0.00     0.131 A 
ATOM     52  C   UNL A   1      35.342  33.160  31.931  1.00  0.00     0.055 A 
ATOM     53  C   UNL A   1      35.283  32.636  29.587  1.00  0.00     0.041 A 
ATOM     54  F   UNL A   1      37.133  31.615  28.574  1.00  0.00    -0.206 F 
ATOM     55  C   UNL A   1      34.643  33.122  30.723  1.00  0.00     0.022 A 
BRANCH  52  56
ATOM     56  S   UNL A   1      34.455  33.693  33.421  1.00  0.00     0.124 S 
ATOM     57  O   UNL A   1      34.439  35.145  33.268  1.00  0.00    -0.237 OA
ATOM     58  O   UNL A   1      33.166  33.031  33.251  1.00  0.00    -0.237 OA
ATOM     59  O   UNL A   1      35.285  33.192  34.512  1.00  0.00    -0.744 OA
ENDBRANCH  52  56
ENDBRANCH  25  49
BRANCH  37  60
ATOM     60  C   UNL A   1      42.443  29.461  33.355  1.00  0.00     0.023 A 
ATOM     61  C   UNL A   1      43.113  29.749  34.556  1.00  0.00     0.031 A 
ATOM     62  C   UNL A   1      41.720  28.253  33.295  1.00  0.00     0.131 A 
ATOM     63  C   UNL A   1      43.093  28.840  35.619  1.00  0.00     0.055 A 
ATOM     64  C   UNL A   1      41.643  27.379  34.386  1.00  0.00     0.041 A 
ATOM     65  F   UNL A   1      41.134  27.839  32.166  1.00  0.00    -0.206 F 
ATOM     66  C   UNL A   1      42.347  27.662  35.551  1.00  0.00     0.022 A 
BRANCH  63  67
ATOM     67  S   UNL A   1      44.169  29.097  37.053  1.00  0.00     0.124 S 
ATOM     68  O   UNL A   1      44.047  27.826  37.761  1.00  0.00    -0.237 OA
ATOM     69  O   UNL A   1      45.467  29.344  36.427  1.00  0.00    -0.237 OA
ATOM     70  O   UNL A   1      43.585  30.250  37.732  1.00  0.00    -0.744 OA
ENDBRANCH  63  67
ENDBRANCH  37  60
ENDBRANCH  11  12
ENDBRANCH   4   6
ENDBRANCH   1   2
BRANCH   1  71
ATOM     71  C   UNL A   1      37.110  21.461  24.871  1.00  0.00     0.042 C 
BRANCH  71  72
ATOM     72  C   UNL A   1      35.664  21.816  25.211  1.00  0.00     0.118 C 
BRANCH  72  73
ATOM     73  N   UNL A   1      34.690  20.769  24.923  1.00  0.00    -0.352 N 
ATOM     74  C   UNL A   1      33.453  20.851  24.323  1.00  0.00     0.251 C 
ATOM     75  H   UNL A   1      34.958  19.865  25.202  1.00  0.00     0.163 HD
ATOM     76  O   UNL A   1      32.806  19.833  24.108  1.00  0.00    -0.269 OA
BRANCH  74  77
ATOM     77  C   UNL A   1      32.918  22.166  23.931  1.00  0.00     0.049 A 
ATOM     78  C   UNL A   1      33.269  22.727  22.694  1.00  0.00     0.014 A 
ATOM     79  C   UNL A   1      32.063  22.868  24.807  1.00  0.00     0.012 A 
ATOM     80  C   UNL A   1      32.894  24.028  22.384  1.00  0.00     0.003 A 
ATOM     81  C   UNL A   1      31.650  24.161  24.447  1.00  0.00     0.049 A 
ATOM     82  C   UNL A   1      31.494  22.586  26.079  1.00  0.00     0.029 A 
ATOM     83  C   UNL A   1      32.090  24.769  23.256  1.00  0.00     0.027 A 
ATOM     84  N   UNL A   1      30.812  24.609  25.453  1.00  0.00    -0.343 N 
ATOM     85  C   UNL A   1      30.785  23.693  26.475  1.00  0.00     0.087 A 
BRANCH  84  86
ATOM     86  C   UNL A   1      30.096  25.881  25.484  1.00  0.00     0.157 C 
BRANCH  86  87
ATOM     87  C   UNL A   1      31.016  27.061  25.694  1.00  0.00    -0.025 A 
ATOM     88  C   UNL A   1      31.748  27.205  26.880  1.00  0.00     0.025 A 
ATOM     89  C   UNL A   1      31.176  28.040  24.708  1.00  0.00     0.025 A 
ATOM     90  C   UNL A   1      32.576  28.307  27.036  1.00  0.00     0.111 A 
ATOM     91  C   UNL A   1      32.044  29.097  24.950  1.00  0.00     0.111 A 
ATOM     92  N   UNL A   1      32.752  29.251  26.088  1.00  0.00    -0.265 NA
ENDBRANCH  86  87
ENDBRANCH  84  86
ENDBRANCH  74  77
ENDBRANCH  72  73
ENDBRANCH  71  72
ENDBRANCH   1  71
TORSDOF 15
ENDMDL
