MODEL 1
REMARK VINA RESULT:     -12.7      0.000      0.000
REMARK SMILES C[C@H](NC(=O)N1CC[C@@H](C(=O)NCCCNC(=O)c2ccc(-c3c4nc(c(-c5cc(S(=O)(=O)[O-])ccc5F)c5ccc([nH]5)c(-c5cc(S(=O)(=O)[O-])ccc5F)c5nc(c(-c6cc(S(=O)(=O)[O-])ccc6F)c6ccc3[nH]6)C=C5)C=C4)cc2)[C@H]1C)c1ccc(Cl)cc1
REMARK SMILES IDX 14 1 13 2 12 3 10 4 11 5 9 7 6 8 7 9 82 10 8 11 83 12 4 13
REMARK SMILES IDX 3 14 5 16 2 17 1 18 84 19 85 20 90 21 86 22 89 23 87 24
REMARK SMILES IDX 88 25 15 26 16 27 17 28 18 30 19 31 20 32 81 33 21 34 80 35
REMARK SMILES IDX 22 36 23 37 24 38 74 39 25 40 79 41 73 42 75 43 26 44 78 45
REMARK SMILES IDX 72 46 71 47 27 49 59 50 39 51 58 52 40 53 43 54 57 55 76 56
REMARK SMILES IDX 41 57 42 58 56 60 77 61 44 62 28 63 29 64 37 65 30 66 36 67
REMARK SMILES IDX 38 68 35 69 31 70 32 71 33 72 34 73 60 74 61 75 69 76 62 77
REMARK SMILES IDX 68 78 70 79 67 80 63 81 64 82 65 83 66 84 45 85 46 86 54 87
REMARK SMILES IDX 47 88 53 89 55 90 52 91 48 92 49 93 50 94 51 95
REMARK H PARENT 12 6 3 15 16 29 75 48 43 59
REMARK Flexibility Score: inf
ROOT
ATOM      1  C   UNL A   1      33.218  29.135  23.742  1.00  0.00     0.042 C 
ENDROOT
BRANCH   1   2
ATOM      2  C   UNL A   1      32.235  28.521  22.749  1.00  0.00     0.117 C 
BRANCH   2   3
ATOM      3  N   UNL A   1      32.784  27.352  22.081  1.00  0.00    -0.356 N 
ATOM      4  C   UNL A   1      33.188  26.130  22.508  1.00  0.00     0.225 C 
ATOM      5  O   UNL A   1      33.650  25.385  21.633  1.00  0.00    -0.275 OA
ATOM      6  H   UNL A   1      32.887  27.474  21.109  1.00  0.00     0.163 HD
BRANCH   4   7
ATOM      7  C   UNL A   1      33.128  25.620  23.944  1.00  0.00     0.102 C 
ATOM      8  N   UNL A   1      33.089  23.400  24.840  1.00  0.00    -0.321 N 
ATOM      9  C   UNL A   1      34.205  24.094  25.461  1.00  0.00     0.122 C 
ATOM     10  C   UNL A   1      32.209  24.420  24.263  1.00  0.00     0.096 C 
ATOM     11  C   UNL A   1      34.469  25.324  24.615  1.00  0.00     0.037 C 
ATOM     12  C   UNL A   1      31.313  23.942  23.132  1.00  0.00     0.032 C 
BRANCH   8  13
ATOM     13  C   UNL A   1      32.570  22.375  25.600  1.00  0.00     0.318 C 
ATOM     14  N   UNL A   1      33.252  21.205  25.663  1.00  0.00    -0.331 N 
ATOM     15  H   UNL A   1      33.126  20.724  26.513  1.00  0.00     0.165 HD
ATOM     16  O   UNL A   1      31.604  22.539  26.345  1.00  0.00    -0.249 OA
BRANCH  14  17
ATOM     17  C   UNL A   1      34.133  20.511  24.732  1.00  0.00     0.111 C 
ATOM     18  C   UNL A   1      35.630  20.536  25.003  1.00  0.00     0.036 C 
BRANCH  17  19
ATOM     19  C   UNL A   1      33.774  19.035  24.609  1.00  0.00    -0.026 A 
ATOM     20  C   UNL A   1      34.785  18.082  24.404  1.00  0.00     0.007 A 
ATOM     21  C   UNL A   1      32.482  18.598  24.956  1.00  0.00     0.007 A 
ATOM     22  C   UNL A   1      34.524  16.725  24.610  1.00  0.00     0.021 A 
ATOM     23  C   UNL A   1      32.229  17.244  25.173  1.00  0.00     0.021 A 
ATOM     24  C   UNL A   1      33.255  16.316  25.016  1.00  0.00     0.041 A 
ATOM     25  Cl  UNL A   1      32.962  14.660  25.378  1.00  0.00    -0.084 Cl
ENDBRANCH  17  19
ENDBRANCH  14  17
ENDBRANCH   8  13
ENDBRANCH   4   7
ENDBRANCH   2   3
ENDBRANCH   1   2
BRANCH   1  26
ATOM     26  C   UNL A   1      32.772  29.142  25.194  1.00  0.00     0.118 C 
BRANCH  26  27
ATOM     27  N   UNL A   1      32.329  30.455  25.629  1.00  0.00    -0.352 N 
ATOM     28  C   UNL A   1      32.709  31.233  26.699  1.00  0.00     0.251 C 
ATOM     29  H   UNL A   1      31.635  30.859  25.059  1.00  0.00     0.163 HD
ATOM     30  O   UNL A   1      32.015  32.210  26.973  1.00  0.00    -0.269 OA
BRANCH  28  31
ATOM     31  C   UNL A   1      33.903  30.923  27.531  1.00  0.00     0.039 A 
ATOM     32  C   UNL A   1      34.765  31.973  27.878  1.00  0.00     0.014 A 
ATOM     33  C   UNL A   1      34.245  29.623  27.907  1.00  0.00     0.014 A 
ATOM     34  C   UNL A   1      35.926  31.724  28.623  1.00  0.00     0.010 A 
ATOM     35  C   UNL A   1      35.346  29.389  28.734  1.00  0.00     0.010 A 
ATOM     36  C   UNL A   1      36.218  30.431  29.080  1.00  0.00    -0.014 A 
BRANCH  36  37
ATOM     37  C   UNL A   1      37.457  30.135  29.859  1.00  0.00     0.031 A 
ATOM     38  C   UNL A   1      38.528  29.253  29.264  1.00  0.00     0.074 A 
ATOM     39  C   UNL A   1      37.605  30.613  31.111  1.00  0.00     0.049 A 
ATOM     40  N   UNL A   1      39.627  28.794  29.809  1.00  0.00    -0.248 NA
ATOM     41  C   UNL A   1      38.313  28.798  27.882  1.00  0.00     0.031 C 
ATOM     42  C   UNL A   1      36.637  31.456  31.815  1.00  0.00     0.029 A 
ATOM     43  N   UNL A   1      38.624  30.453  32.018  1.00  0.00    -0.354 N 
ATOM     44  C   UNL A   1      40.219  27.979  28.847  1.00  0.00     0.074 A 
ATOM     45  C   UNL A   1      39.321  27.957  27.712  1.00  0.00     0.031 C 
ATOM     46  C   UNL A   1      37.120  31.760  33.031  1.00  0.00     0.029 A 
ATOM     47  C   UNL A   1      38.407  31.097  33.216  1.00  0.00     0.049 A 
ATOM     48  H   UNL A   1      39.435  29.928  31.829  1.00  0.00     0.167 HD
ATOM     49  C   UNL A   1      41.411  27.331  28.891  1.00  0.00     0.034 A 
ATOM     50  C   UNL A   1      39.152  31.139  34.339  1.00  0.00     0.034 A 
ATOM     51  C   UNL A   1      42.313  27.386  30.018  1.00  0.00     0.049 A 
ATOM     52  C   UNL A   1      40.471  30.403  34.372  1.00  0.00     0.074 A 
ATOM     53  C   UNL A   1      43.563  26.808  30.151  1.00  0.00     0.029 A 
ATOM     54  N   UNL A   1      42.061  28.060  31.206  1.00  0.00    -0.354 N 
ATOM     55  N   UNL A   1      41.028  29.663  33.442  1.00  0.00    -0.248 NA
ATOM     56  C   UNL A   1      41.266  30.524  35.602  1.00  0.00     0.031 C 
ATOM     57  C   UNL A   1      44.039  27.078  31.438  1.00  0.00     0.029 A 
ATOM     58  C   UNL A   1      43.122  27.892  32.083  1.00  0.00     0.049 A 
ATOM     59  H   UNL A   1      41.248  28.581  31.397  1.00  0.00     0.167 HD
ATOM     60  C   UNL A   1      42.257  29.262  33.962  1.00  0.00     0.074 A 
ATOM     61  C   UNL A   1      42.361  29.851  35.281  1.00  0.00     0.031 C 
ATOM     62  C   UNL A   1      43.215  28.483  33.397  1.00  0.00     0.034 A 
BRANCH  49  63
ATOM     63  C   UNL A   1      41.791  26.491  27.693  1.00  0.00     0.023 A 
ATOM     64  C   UNL A   1      41.445  25.130  27.603  1.00  0.00     0.031 A 
ATOM     65  C   UNL A   1      42.538  27.047  26.639  1.00  0.00     0.131 A 
ATOM     66  C   UNL A   1      41.920  24.354  26.535  1.00  0.00     0.055 A 
ATOM     67  C   UNL A   1      42.930  26.289  25.534  1.00  0.00     0.041 A 
ATOM     68  F   UNL A   1      42.916  28.334  26.674  1.00  0.00    -0.206 F 
ATOM     69  C   UNL A   1      42.637  24.929  25.485  1.00  0.00     0.022 A 
BRANCH  66  70
ATOM     70  S   UNL A   1      41.720  22.554  26.621  1.00  0.00     0.124 S 
ATOM     71  O   UNL A   1      40.267  22.422  26.705  1.00  0.00    -0.237 OA
ATOM     72  O   UNL A   1      42.331  22.106  25.376  1.00  0.00    -0.237 OA
ATOM     73  O   UNL A   1      42.442  22.187  27.839  1.00  0.00    -0.744 OA
ENDBRANCH  66  70
ENDBRANCH  49  63
BRANCH  50  74
ATOM     74  C   UNL A   1      38.679  31.899  35.532  1.00  0.00     0.023 A 
ATOM     75  C   UNL A   1      38.154  31.235  36.652  1.00  0.00     0.031 A 
ATOM     76  C   UNL A   1      38.704  33.306  35.553  1.00  0.00     0.131 A 
ATOM     77  C   UNL A   1      37.628  31.975  37.724  1.00  0.00     0.055 A 
ATOM     78  C   UNL A   1      38.231  34.036  36.644  1.00  0.00     0.041 A 
ATOM     79  F   UNL A   1      39.202  33.992  34.512  1.00  0.00    -0.206 F 
ATOM     80  C   UNL A   1      37.676  33.370  37.732  1.00  0.00     0.022 A 
BRANCH  77  81
ATOM     81  S   UNL A   1      36.798  31.085  39.068  1.00  0.00     0.124 S 
ATOM     82  O   UNL A   1      35.569  31.854  39.218  1.00  0.00    -0.237 OA
ATOM     83  O   UNL A   1      36.654  29.747  38.501  1.00  0.00    -0.237 OA
ATOM     84  O   UNL A   1      37.742  31.190  40.179  1.00  0.00    -0.744 OA
ENDBRANCH  77  81
ENDBRANCH  50  74
BRANCH  62  85
ATOM     85  C   UNL A   1      44.488  28.279  34.184  1.00  0.00     0.023 A 
ATOM     86  C   UNL A   1      44.682  27.157  35.009  1.00  0.00     0.031 A 
ATOM     87  C   UNL A   1      45.519  29.233  34.113  1.00  0.00     0.131 A 
ATOM     88  C   UNL A   1      45.852  27.046  35.774  1.00  0.00     0.055 A 
ATOM     89  C   UNL A   1      46.707  29.086  34.828  1.00  0.00     0.041 A 
ATOM     90  F   UNL A   1      45.388  30.324  33.341  1.00  0.00    -0.206 F 
ATOM     91  C   UNL A   1      46.874  27.995  35.676  1.00  0.00     0.022 A 
BRANCH  88  92
ATOM     92  S   UNL A   1      45.986  25.691  36.973  1.00  0.00     0.124 S 
ATOM     93  O   UNL A   1      44.652  25.102  36.915  1.00  0.00    -0.237 OA
ATOM     94  O   UNL A   1      47.064  24.884  36.412  1.00  0.00    -0.237 OA
ATOM     95  O   UNL A   1      46.309  26.372  38.226  1.00  0.00    -0.744 OA
ENDBRANCH  88  92
ENDBRANCH  62  85
ENDBRANCH  36  37
ENDBRANCH  28  31
ENDBRANCH  26  27
ENDBRANCH   1  26
TORSDOF 16
ENDMDL
MODEL 2
REMARK VINA RESULT:     -12.7      3.004      8.252
REMARK SMILES C[C@H](NC(=O)N1CC[C@@H](C(=O)NCCCNC(=O)c2ccc(-c3c4nc(c(-c5cc(S(=O)(=O)[O-])ccc5F)c5ccc([nH]5)c(-c5cc(S(=O)(=O)[O-])ccc5F)c5nc(c(-c6cc(S(=O)(=O)[O-])ccc6F)c6ccc3[nH]6)C=C5)C=C4)cc2)[C@H]1C)c1ccc(Cl)cc1
REMARK SMILES IDX 14 1 13 2 12 3 10 4 11 5 9 7 6 8 7 9 82 10 8 11 83 12 4 13
REMARK SMILES IDX 3 14 5 16 2 17 1 18 84 19 85 20 90 21 86 22 89 23 87 24
REMARK SMILES IDX 88 25 15 26 16 27 17 28 18 30 19 31 20 32 81 33 21 34 80 35
REMARK SMILES IDX 22 36 23 37 24 38 74 39 25 40 79 41 73 42 75 43 26 44 78 45
REMARK SMILES IDX 72 46 71 47 27 49 59 50 39 51 58 52 40 53 43 54 57 55 76 56
REMARK SMILES IDX 41 57 42 58 56 60 77 61 44 62 28 63 29 64 37 65 30 66 36 67
REMARK SMILES IDX 38 68 35 69 31 70 32 71 33 72 34 73 60 74 61 75 69 76 62 77
REMARK SMILES IDX 68 78 70 79 67 80 63 81 64 82 65 83 66 84 45 85 46 86 54 87
REMARK SMILES IDX 47 88 53 89 55 90 52 91 48 92 49 93 50 94 51 95
REMARK H PARENT 12 6 3 15 16 29 75 48 43 59
REMARK Flexibility Score: inf
ROOT
ATOM      1  C   UNL A   1      33.332  28.328  27.048  1.00  0.00     0.042 C 
ENDROOT
BRANCH   1   2
ATOM      2  C   UNL A   1      31.922  28.502  27.606  1.00  0.00     0.117 C 
BRANCH   2   3
ATOM      3  N   UNL A   1      31.079  27.347  27.345  1.00  0.00    -0.356 N 
ATOM      4  C   UNL A   1      30.749  26.660  26.224  1.00  0.00     0.225 C 
ATOM      5  O   UNL A   1      29.950  25.727  26.384  1.00  0.00    -0.275 OA
ATOM      6  H   UNL A   1      30.654  26.986  28.156  1.00  0.00     0.163 HD
BRANCH   4   7
ATOM      7  C   UNL A   1      31.264  26.945  24.816  1.00  0.00     0.102 C 
ATOM      8  N   UNL A   1      31.959  25.481  23.053  1.00  0.00    -0.321 N 
ATOM      9  C   UNL A   1      30.920  26.342  22.512  1.00  0.00     0.122 C 
ATOM     10  C   UNL A   1      32.450  26.111  24.281  1.00  0.00     0.096 C 
ATOM     11  C   UNL A   1      30.219  26.966  23.703  1.00  0.00     0.037 C 
ATOM     12  C   UNL A   1      33.111  25.169  25.277  1.00  0.00     0.032 C 
BRANCH   8  13
ATOM     13  C   UNL A   1      32.841  25.002  22.110  1.00  0.00     0.318 C 
ATOM     14  N   UNL A   1      33.044  23.664  22.031  1.00  0.00    -0.331 N 
ATOM     15  H   UNL A   1      33.271  23.355  21.124  1.00  0.00     0.165 HD
ATOM     16  O   UNL A   1      33.323  25.727  21.239  1.00  0.00    -0.249 OA
BRANCH  14  17
ATOM     17  C   UNL A   1      32.994  22.587  23.012  1.00  0.00     0.111 C 
ATOM     18  C   UNL A   1      32.341  21.273  22.608  1.00  0.00     0.036 C 
BRANCH  17  19
ATOM     19  C   UNL A   1      34.385  22.207  23.504  1.00  0.00    -0.026 A 
ATOM     20  C   UNL A   1      35.509  22.916  23.049  1.00  0.00     0.007 A 
ATOM     21  C   UNL A   1      34.526  21.332  24.598  1.00  0.00     0.007 A 
ATOM     22  C   UNL A   1      36.730  22.805  23.718  1.00  0.00     0.021 A 
ATOM     23  C   UNL A   1      35.744  21.233  25.271  1.00  0.00     0.021 A 
ATOM     24  C   UNL A   1      36.834  21.983  24.839  1.00  0.00     0.041 A 
ATOM     25  Cl  UNL A   1      38.305  21.930  25.729  1.00  0.00    -0.084 Cl
ENDBRANCH  17  19
ENDBRANCH  14  17
ENDBRANCH   8  13
ENDBRANCH   4   7
ENDBRANCH   2   3
ENDBRANCH   1   2
BRANCH   1  26
ATOM     26  C   UNL A   1      33.826  29.443  26.143  1.00  0.00     0.118 C 
BRANCH  26  27
ATOM     27  N   UNL A   1      33.783  30.741  26.791  1.00  0.00    -0.352 N 
ATOM     28  C   UNL A   1      34.563  31.286  27.785  1.00  0.00     0.251 C 
ATOM     29  H   UNL A   1      33.072  31.336  26.461  1.00  0.00     0.163 HD
ATOM     30  O   UNL A   1      34.173  32.324  28.317  1.00  0.00    -0.269 OA
BRANCH  28  31
ATOM     31  C   UNL A   1      35.832  30.658  28.243  1.00  0.00     0.039 A 
ATOM     32  C   UNL A   1      35.777  29.738  29.301  1.00  0.00     0.014 A 
ATOM     33  C   UNL A   1      37.079  31.009  27.724  1.00  0.00     0.014 A 
ATOM     34  C   UNL A   1      36.951  29.155  29.797  1.00  0.00     0.010 A 
ATOM     35  C   UNL A   1      38.236  30.353  28.149  1.00  0.00     0.010 A 
ATOM     36  C   UNL A   1      38.194  29.437  29.211  1.00  0.00    -0.014 A 
BRANCH  36  37
ATOM     37  C   UNL A   1      39.459  28.843  29.732  1.00  0.00     0.031 A 
ATOM     38  C   UNL A   1      40.161  29.478  30.910  1.00  0.00     0.074 A 
ATOM     39  C   UNL A   1      40.009  27.771  29.128  1.00  0.00     0.049 A 
ATOM     40  N   UNL A   1      41.316  29.180  31.451  1.00  0.00    -0.248 NA
ATOM     41  C   UNL A   1      39.484  30.622  31.538  1.00  0.00     0.031 C 
ATOM     42  C   UNL A   1      39.450  27.075  27.967  1.00  0.00     0.029 A 
ATOM     43  N   UNL A   1      41.163  27.079  29.402  1.00  0.00    -0.354 N 
ATOM     44  C   UNL A   1      41.514  30.115  32.463  1.00  0.00     0.074 A 
ATOM     45  C   UNL A   1      40.391  31.026  32.415  1.00  0.00     0.031 C 
ATOM     46  C   UNL A   1      40.247  26.043  27.645  1.00  0.00     0.029 A 
ATOM     47  C   UNL A   1      41.398  26.028  28.543  1.00  0.00     0.049 A 
ATOM     48  H   UNL A   1      41.766  27.311  30.144  1.00  0.00     0.167 HD
ATOM     49  C   UNL A   1      42.523  30.194  33.369  1.00  0.00     0.034 A 
ATOM     50  C   UNL A   1      42.428  25.160  28.477  1.00  0.00     0.034 A 
ATOM     51  C   UNL A   1      43.624  29.260  33.427  1.00  0.00     0.049 A 
ATOM     52  C   UNL A   1      43.545  25.270  29.487  1.00  0.00     0.074 A 
ATOM     53  C   UNL A   1      44.672  29.218  34.329  1.00  0.00     0.029 A 
ATOM     54  N   UNL A   1      43.817  28.203  32.547  1.00  0.00    -0.354 N 
ATOM     55  N   UNL A   1      43.701  26.141  30.456  1.00  0.00    -0.248 NA
ATOM     56  C   UNL A   1      44.617  24.268  29.400  1.00  0.00     0.031 C 
ATOM     57  C   UNL A   1      45.531  28.177  33.959  1.00  0.00     0.029 A 
ATOM     58  C   UNL A   1      44.979  27.519  32.873  1.00  0.00     0.049 A 
ATOM     59  H   UNL A   1      43.216  27.972  31.802  1.00  0.00     0.167 HD
ATOM     60  C   UNL A   1      44.868  25.768  31.118  1.00  0.00     0.074 A 
ATOM     61  C   UNL A   1      45.368  24.588  30.444  1.00  0.00     0.031 C 
ATOM     62  C   UNL A   1      45.468  26.343  32.191  1.00  0.00     0.034 A 
BRANCH  49  63
ATOM     63  C   UNL A   1      42.489  31.343  34.351  1.00  0.00     0.023 A 
ATOM     64  C   UNL A   1      41.600  31.360  35.440  1.00  0.00     0.031 A 
ATOM     65  C   UNL A   1      43.335  32.454  34.179  1.00  0.00     0.131 A 
ATOM     66  C   UNL A   1      41.513  32.497  36.258  1.00  0.00     0.055 A 
ATOM     67  C   UNL A   1      43.306  33.544  35.051  1.00  0.00     0.041 A 
ATOM     68  F   UNL A   1      44.193  32.508  33.148  1.00  0.00    -0.206 F 
ATOM     69  C   UNL A   1      42.379  33.579  36.088  1.00  0.00     0.022 A 
BRANCH  66  70
ATOM     70  S   UNL A   1      40.146  32.604  37.444  1.00  0.00     0.124 S 
ATOM     71  O   UNL A   1      39.633  33.948  37.182  1.00  0.00    -0.237 OA
ATOM     72  O   UNL A   1      39.285  31.501  37.038  1.00  0.00    -0.237 OA
ATOM     73  O   UNL A   1      40.803  32.440  38.741  1.00  0.00    -0.744 OA
ENDBRANCH  66  70
ENDBRANCH  49  63
BRANCH  50  74
ATOM     74  C   UNL A   1      42.464  24.108  27.420  1.00  0.00     0.023 A 
ATOM     75  C   UNL A   1      41.930  22.831  27.652  1.00  0.00     0.031 A 
ATOM     76  C   UNL A   1      43.073  24.350  26.175  1.00  0.00     0.131 A 
ATOM     77  C   UNL A   1      42.059  21.828  26.677  1.00  0.00     0.055 A 
ATOM     78  C   UNL A   1      43.150  23.367  25.187  1.00  0.00     0.041 A 
ATOM     79  F   UNL A   1      43.594  25.556  25.897  1.00  0.00    -0.206 F 
ATOM     80  C   UNL A   1      42.654  22.092  25.441  1.00  0.00     0.022 A 
BRANCH  77  81
ATOM     81  S   UNL A   1      41.518  20.146  27.085  1.00  0.00     0.124 S 
ATOM     82  O   UNL A   1      42.760  19.539  27.548  1.00  0.00    -0.237 OA
ATOM     83  O   UNL A   1      40.504  20.394  28.105  1.00  0.00    -0.237 OA
ATOM     84  O   UNL A   1      41.008  19.636  25.814  1.00  0.00    -0.744 OA
ENDBRANCH  77  81
ENDBRANCH  50  74
BRANCH  62  85
ATOM     85  C   UNL A   1      46.700  25.662  32.739  1.00  0.00     0.023 A 
ATOM     86  C   UNL A   1      47.974  25.865  32.180  1.00  0.00     0.031 A 
ATOM     87  C   UNL A   1      46.591  24.786  33.834  1.00  0.00     0.131 A 
ATOM     88  C   UNL A   1      49.077  25.157  32.680  1.00  0.00     0.055 A 
ATOM     89  C   UNL A   1      47.701  24.131  34.366  1.00  0.00     0.041 A 
ATOM     90  F   UNL A   1      45.398  24.553  34.406  1.00  0.00    -0.206 F 
ATOM     91  C   UNL A   1      48.951  24.303  33.780  1.00  0.00     0.022 A 
BRANCH  88  92
ATOM     92  S   UNL A   1      50.666  25.292  31.814  1.00  0.00     0.124 S 
ATOM     93  O   UNL A   1      50.976  23.895  31.530  1.00  0.00    -0.237 OA
ATOM     94  O   UNL A   1      50.322  26.115  30.660  1.00  0.00    -0.237 OA
ATOM     95  O   UNL A   1      51.539  25.934  32.796  1.00  0.00    -0.744 OA
ENDBRANCH  88  92
ENDBRANCH  62  85
ENDBRANCH  36  37
ENDBRANCH  28  31
ENDBRANCH  26  27
ENDBRANCH   1  26
TORSDOF 16
ENDMDL
MODEL 3
REMARK VINA RESULT:     -12.7      2.515      3.486
REMARK SMILES C[C@H](NC(=O)N1CC[C@@H](C(=O)NCCCNC(=O)c2ccc(-c3c4nc(c(-c5cc(S(=O)(=O)[O-])ccc5F)c5ccc([nH]5)c(-c5cc(S(=O)(=O)[O-])ccc5F)c5nc(c(-c6cc(S(=O)(=O)[O-])ccc6F)c6ccc3[nH]6)C=C5)C=C4)cc2)[C@H]1C)c1ccc(Cl)cc1
REMARK SMILES IDX 14 1 13 2 12 3 10 4 11 5 9 7 6 8 7 9 82 10 8 11 83 12 4 13
REMARK SMILES IDX 3 14 5 16 2 17 1 18 84 19 85 20 90 21 86 22 89 23 87 24
REMARK SMILES IDX 88 25 15 26 16 27 17 28 18 30 19 31 20 32 81 33 21 34 80 35
REMARK SMILES IDX 22 36 23 37 24 38 74 39 25 40 79 41 73 42 75 43 26 44 78 45
REMARK SMILES IDX 72 46 71 47 27 49 59 50 39 51 58 52 40 53 43 54 57 55 76 56
REMARK SMILES IDX 41 57 42 58 56 60 77 61 44 62 28 63 29 64 37 65 30 66 36 67
REMARK SMILES IDX 38 68 35 69 31 70 32 71 33 72 34 73 60 74 61 75 69 76 62 77
REMARK SMILES IDX 68 78 70 79 67 80 63 81 64 82 65 83 66 84 45 85 46 86 54 87
REMARK SMILES IDX 47 88 53 89 55 90 52 91 48 92 49 93 50 94 51 95
REMARK H PARENT 12 6 3 15 16 29 75 48 43 59
REMARK Flexibility Score: inf
ROOT
ATOM      1  C   UNL A   1      31.364  31.659  26.384  1.00  0.00     0.042 C 
ENDROOT
BRANCH   1   2
ATOM      2  C   UNL A   1      31.543  30.408  25.529  1.00  0.00     0.117 C 
BRANCH   2   3
ATOM      3  N   UNL A   1      31.479  29.188  26.318  1.00  0.00    -0.356 N 
ATOM      4  C   UNL A   1      31.401  27.871  26.006  1.00  0.00     0.225 C 
ATOM      5  O   UNL A   1      31.323  27.097  26.970  1.00  0.00    -0.275 OA
ATOM      6  H   UNL A   1      31.494  29.353  27.288  1.00  0.00     0.163 HD
BRANCH   4   7
ATOM      7  C   UNL A   1      31.392  27.285  24.597  1.00  0.00     0.102 C 
ATOM      8  N   UNL A   1      32.468  25.354  23.674  1.00  0.00    -0.321 N 
ATOM      9  C   UNL A   1      31.046  25.225  23.402  1.00  0.00     0.122 C 
ATOM     10  C   UNL A   1      32.721  26.759  24.009  1.00  0.00     0.096 C 
ATOM     11  C   UNL A   1      30.344  26.210  24.317  1.00  0.00     0.037 C 
ATOM     12  C   UNL A   1      33.970  27.016  24.837  1.00  0.00     0.032 C 
BRANCH   8  13
ATOM     13  C   UNL A   1      33.275  24.691  22.777  1.00  0.00     0.318 C 
ATOM     14  N   UNL A   1      33.706  23.445  23.090  1.00  0.00    -0.331 N 
ATOM     15  H   UNL A   1      33.852  22.871  22.303  1.00  0.00     0.165 HD
ATOM     16  O   UNL A   1      33.483  25.123  21.643  1.00  0.00    -0.249 OA
BRANCH  14  17
ATOM     17  C   UNL A   1      33.999  22.778  24.352  1.00  0.00     0.111 C 
ATOM     18  C   UNL A   1      33.504  21.351  24.545  1.00  0.00     0.036 C 
BRANCH  17  19
ATOM     19  C   UNL A   1      35.497  22.721  24.627  1.00  0.00    -0.026 A 
ATOM     20  C   UNL A   1      36.147  23.824  25.204  1.00  0.00     0.007 A 
ATOM     21  C   UNL A   1      36.176  21.491  24.550  1.00  0.00     0.007 A 
ATOM     22  C   UNL A   1      37.423  23.681  25.755  1.00  0.00     0.021 A 
ATOM     23  C   UNL A   1      37.445  21.348  25.111  1.00  0.00     0.021 A 
ATOM     24  C   UNL A   1      38.055  22.438  25.726  1.00  0.00     0.041 A 
ATOM     25  Cl  UNL A   1      39.577  22.232  26.500  1.00  0.00    -0.084 Cl
ENDBRANCH  17  19
ENDBRANCH  14  17
ENDBRANCH   8  13
ENDBRANCH   4   7
ENDBRANCH   2   3
ENDBRANCH   1   2
BRANCH   1  26
ATOM     26  C   UNL A   1      32.582  32.094  27.182  1.00  0.00     0.118 C 
BRANCH  26  27
ATOM     27  N   UNL A   1      32.570  33.515  27.478  1.00  0.00    -0.352 N 
ATOM     28  C   UNL A   1      33.259  34.254  28.413  1.00  0.00     0.251 C 
ATOM     29  H   UNL A   1      31.963  34.043  26.910  1.00  0.00     0.163 HD
ATOM     30  O   UNL A   1      32.897  35.412  28.609  1.00  0.00    -0.269 OA
BRANCH  28  31
ATOM     31  C   UNL A   1      34.397  33.697  29.195  1.00  0.00     0.039 A 
ATOM     32  C   UNL A   1      35.692  34.144  28.898  1.00  0.00     0.014 A 
ATOM     33  C   UNL A   1      34.236  32.689  30.147  1.00  0.00     0.014 A 
ATOM     34  C   UNL A   1      36.799  33.616  29.576  1.00  0.00     0.010 A 
ATOM     35  C   UNL A   1      35.327  32.238  30.893  1.00  0.00     0.010 A 
ATOM     36  C   UNL A   1      36.628  32.673  30.600  1.00  0.00    -0.014 A 
BRANCH  36  37
ATOM     37  C   UNL A   1      37.791  32.082  31.324  1.00  0.00     0.031 A 
ATOM     38  C   UNL A   1      38.588  30.968  30.688  1.00  0.00     0.074 A 
ATOM     39  C   UNL A   1      38.106  32.503  32.566  1.00  0.00     0.049 A 
ATOM     40  N   UNL A   1      39.566  30.254  31.187  1.00  0.00    -0.248 NA
ATOM     41  C   UNL A   1      38.208  30.587  29.320  1.00  0.00     0.031 C 
ATOM     42  C   UNL A   1      37.404  33.553  33.307  1.00  0.00     0.029 A 
ATOM     43  N   UNL A   1      39.095  32.096  33.428  1.00  0.00    -0.354 N 
ATOM     44  C   UNL A   1      39.899  29.325  30.204  1.00  0.00     0.074 A 
ATOM     45  C   UNL A   1      38.973  29.526  29.111  1.00  0.00     0.031 C 
ATOM     46  C   UNL A   1      37.999  33.724  34.499  1.00  0.00     0.029 A 
ATOM     47  C   UNL A   1      39.095  32.767  34.630  1.00  0.00     0.049 A 
ATOM     48  H   UNL A   1      39.745  31.391  33.206  1.00  0.00     0.167 HD
ATOM     49  C   UNL A   1      40.899  28.406  30.199  1.00  0.00     0.034 A 
ATOM     50  C   UNL A   1      39.877  32.621  35.719  1.00  0.00     0.034 A 
ATOM     51  C   UNL A   1      41.836  28.235  31.284  1.00  0.00     0.049 A 
ATOM     52  C   UNL A   1      40.977  31.588  35.698  1.00  0.00     0.074 A 
ATOM     53  C   UNL A   1      42.913  27.370  31.366  1.00  0.00     0.029 A 
ATOM     54  N   UNL A   1      41.809  28.944  32.479  1.00  0.00    -0.354 N 
ATOM     55  N   UNL A   1      41.296  30.739  34.749  1.00  0.00    -0.248 NA
ATOM     56  C   UNL A   1      41.831  31.505  36.891  1.00  0.00     0.031 C 
ATOM     57  C   UNL A   1      43.497  27.510  32.629  1.00  0.00     0.029 A 
ATOM     58  C   UNL A   1      42.835  28.519  33.309  1.00  0.00     0.049 A 
ATOM     59  H   UNL A   1      41.156  29.646  32.703  1.00  0.00     0.167 HD
ATOM     60  C   UNL A   1      42.412  30.049  35.216  1.00  0.00     0.074 A 
ATOM     61  C   UNL A   1      42.715  30.589  36.525  1.00  0.00     0.031 C 
ATOM     62  C   UNL A   1      43.127  29.064  34.614  1.00  0.00     0.034 A 
BRANCH  49  63
ATOM     63  C   UNL A   1      41.010  27.505  28.991  1.00  0.00     0.023 A 
ATOM     64  C   UNL A   1      42.021  27.677  28.029  1.00  0.00     0.031 A 
ATOM     65  C   UNL A   1      40.072  26.477  28.778  1.00  0.00     0.131 A 
ATOM     66  C   UNL A   1      42.019  26.900  26.860  1.00  0.00     0.055 A 
ATOM     67  C   UNL A   1      40.130  25.647  27.656  1.00  0.00     0.041 A 
ATOM     68  F   UNL A   1      39.072  26.273  29.649  1.00  0.00    -0.206 F 
ATOM     69  C   UNL A   1      41.097  25.867  26.679  1.00  0.00     0.022 A 
BRANCH  66  70
ATOM     70  S   UNL A   1      43.140  27.364  25.513  1.00  0.00     0.124 S 
ATOM     71  O   UNL A   1      43.488  26.058  24.956  1.00  0.00    -0.237 OA
ATOM     72  O   UNL A   1      42.299  28.211  24.678  1.00  0.00    -0.237 OA
ATOM     73  O   UNL A   1      44.234  28.052  26.199  1.00  0.00    -0.744 OA
ENDBRANCH  66  70
ENDBRANCH  49  63
BRANCH  50  74
ATOM     74  C   UNL A   1      39.656  33.468  36.928  1.00  0.00     0.023 A 
ATOM     75  C   UNL A   1      39.022  32.950  38.067  1.00  0.00     0.031 A 
ATOM     76  C   UNL A   1      40.036  34.823  36.944  1.00  0.00     0.131 A 
ATOM     77  C   UNL A   1      38.740  33.791  39.157  1.00  0.00     0.055 A 
ATOM     78  C   UNL A   1      39.805  35.641  38.050  1.00  0.00     0.041 A 
ATOM     79  F   UNL A   1      40.653  35.368  35.883  1.00  0.00    -0.206 F 
ATOM     80  C   UNL A   1      39.139  35.129  39.160  1.00  0.00     0.022 A 
BRANCH  77  81
ATOM     81  S   UNL A   1      37.762  33.130  40.533  1.00  0.00     0.124 S 
ATOM     82  O   UNL A   1      36.465  32.920  39.901  1.00  0.00    -0.237 OA
ATOM     83  O   UNL A   1      38.509  31.926  40.884  1.00  0.00    -0.237 OA
ATOM     84  O   UNL A   1      37.807  34.201  41.527  1.00  0.00    -0.744 OA
ENDBRANCH  77  81
ENDBRANCH  50  74
BRANCH  62  85
ATOM     85  C   UNL A   1      44.346  28.552  35.345  1.00  0.00     0.023 A 
ATOM     86  C   UNL A   1      44.266  27.520  36.296  1.00  0.00     0.031 A 
ATOM     87  C   UNL A   1      45.607  29.120  35.090  1.00  0.00     0.131 A 
ATOM     88  C   UNL A   1      45.414  27.127  36.998  1.00  0.00     0.055 A 
ATOM     89  C   UNL A   1      46.757  28.682  35.748  1.00  0.00     0.041 A 
ATOM     90  F   UNL A   1      45.743  30.110  34.192  1.00  0.00    -0.206 F 
ATOM     91  C   UNL A   1      46.663  27.690  36.718  1.00  0.00     0.022 A 
BRANCH  88  92
ATOM     92  S   UNL A   1      45.241  25.932  38.353  1.00  0.00     0.124 S 
ATOM     93  O   UNL A   1      44.579  24.814  37.690  1.00  0.00    -0.237 OA
ATOM     94  O   UNL A   1      46.628  25.708  38.749  1.00  0.00    -0.237 OA
ATOM     95  O   UNL A   1      44.424  26.643  39.335  1.00  0.00    -0.744 OA
ENDBRANCH  88  92
ENDBRANCH  62  85
ENDBRANCH  36  37
ENDBRANCH  28  31
ENDBRANCH  26  27
ENDBRANCH   1  26
TORSDOF 16
ENDMDL
