MODEL 1
REMARK VINA RESULT:     -12.8      0.000      0.000
REMARK SMILES Cc1ccc2c(=O)c3cccc(CC(=O)NCCCNC(=O)c4ccc(-c5c6nc(c(-c7cc(S(=O)(=O)[O-])ccc7F)c7ccc([nH]7)c(-c7cc(S(=O)(=O)[O-])ccc7F)c7nc(c(-c8cc(S(=O)(=O)[O-])ccc8F)c8ccc5[nH]8)C=C7)C=C6)cc4)c3oc2c1C
REMARK SMILES IDX 19 1 18 2 17 3 16 4 14 5 15 6 13 8 12 9 1 10 2 11 3 12 89 13
REMARK SMILES IDX 4 14 88 15 90 16 5 17 87 18 6 19 86 20 7 21 8 22 9 23 11 24
REMARK SMILES IDX 10 25 20 26 21 27 22 29 23 30 24 31 85 32 25 33 84 34 26 35
REMARK SMILES IDX 27 36 28 37 78 38 29 39 83 40 77 41 79 42 30 43 82 44 76 45
REMARK SMILES IDX 75 46 31 48 63 49 43 50 62 51 44 52 47 53 61 54 80 55 45 56
REMARK SMILES IDX 46 57 60 59 81 60 48 61 32 62 33 63 41 64 34 65 40 66 42 67
REMARK SMILES IDX 39 68 35 69 36 70 37 71 38 72 64 73 65 74 73 75 66 76 72 77
REMARK SMILES IDX 74 78 71 79 67 80 68 81 69 82 70 83 49 84 50 85 58 86 51 87
REMARK SMILES IDX 57 88 59 89 56 90 52 91 53 92 54 93 55 94
REMARK H PARENT 16 7 20 28 79 47 47 58
REMARK Flexibility Score: inf
ROOT
ATOM      1  C   UNL A   1      32.608  32.873  26.762  1.00  0.00     0.118 C 
ENDROOT
BRANCH   1   2
ATOM      2  C   UNL A   1      31.405  31.943  26.875  1.00  0.00     0.042 C 
BRANCH   2   3
ATOM      3  C   UNL A   1      31.770  30.464  26.877  1.00  0.00     0.117 C 
BRANCH   3   4
ATOM      4  N   UNL A   1      33.169  30.244  27.190  1.00  0.00    -0.356 N 
ATOM      5  C   UNL A   1      33.928  29.119  27.036  1.00  0.00     0.224 C 
ATOM      6  O   UNL A   1      35.123  29.181  27.334  1.00  0.00    -0.275 OA
ATOM      7  H   UNL A   1      33.642  31.019  27.569  1.00  0.00     0.163 HD
BRANCH   5   8
ATOM      8  C   UNL A   1      33.331  27.864  26.423  1.00  0.00     0.139 C 
BRANCH   8   9
ATOM      9  C   UNL A   1      33.439  27.763  24.918  1.00  0.00     0.005 A 
ATOM     10  C   UNL A   1      32.501  20.510  25.391  1.00  0.00     0.045 C 
ATOM     11  C   UNL A   1      32.709  21.773  24.598  1.00  0.00    -0.044 A 
ATOM     12  C   UNL A   1      32.770  21.658  23.197  1.00  0.00     0.005 A 
ATOM     13  C   UNL A   1      32.786  23.053  25.194  1.00  0.00    -0.005 A 
ATOM     14  C   UNL A   1      32.944  22.782  22.394  1.00  0.00     0.016 A 
ATOM     15  C   UNL A   1      32.980  24.186  24.371  1.00  0.00     0.141 A 
ATOM     16  C   UNL A   1      32.669  23.258  26.683  1.00  0.00     0.049 C 
ATOM     17  C   UNL A   1      33.058  24.038  22.988  1.00  0.00     0.066 A 
ATOM     18  O   UNL A   1      33.089  25.410  24.997  1.00  0.00    -0.455 OA
ATOM     19  C   UNL A   1      33.271  25.225  22.155  1.00  0.00     0.200 A 
ATOM     20  C   UNL A   1      33.300  26.538  24.240  1.00  0.00     0.142 A 
ATOM     21  O   UNL A   1      33.371  25.145  20.935  1.00  0.00    -0.288 OA
ATOM     22  C   UNL A   1      33.389  26.512  22.847  1.00  0.00     0.066 A 
ATOM     23  C   UNL A   1      33.605  27.681  22.113  1.00  0.00     0.016 A 
ATOM     24  C   UNL A   1      33.701  28.928  24.170  1.00  0.00     0.008 A 
ATOM     25  C   UNL A   1      33.767  28.891  22.778  1.00  0.00     0.001 A 
ENDBRANCH   8   9
ENDBRANCH   5   8
ENDBRANCH   3   4
ENDBRANCH   2   3
ENDBRANCH   1   2
BRANCH   1  26
ATOM     26  N   UNL A   1      32.511  34.041  27.630  1.00  0.00    -0.352 N 
ATOM     27  C   UNL A   1      33.272  34.402  28.719  1.00  0.00     0.251 C 
ATOM     28  H   UNL A   1      31.788  34.670  27.402  1.00  0.00     0.163 HD
ATOM     29  O   UNL A   1      32.920  35.352  29.413  1.00  0.00    -0.269 OA
BRANCH  27  30
ATOM     30  C   UNL A   1      34.480  33.625  29.069  1.00  0.00     0.039 A 
ATOM     31  C   UNL A   1      34.371  32.373  29.674  1.00  0.00     0.014 A 
ATOM     32  C   UNL A   1      35.743  34.169  28.815  1.00  0.00     0.014 A 
ATOM     33  C   UNL A   1      35.501  31.768  30.213  1.00  0.00     0.010 A 
ATOM     34  C   UNL A   1      36.889  33.504  29.265  1.00  0.00     0.010 A 
ATOM     35  C   UNL A   1      36.774  32.329  30.024  1.00  0.00    -0.014 A 
BRANCH  35  36
ATOM     36  C   UNL A   1      37.961  31.674  30.636  1.00  0.00     0.031 A 
ATOM     37  C   UNL A   1      38.378  31.991  32.049  1.00  0.00     0.074 A 
ATOM     38  C   UNL A   1      38.638  30.747  29.929  1.00  0.00     0.049 A 
ATOM     39  N   UNL A   1      39.368  31.494  32.744  1.00  0.00    -0.248 NA
ATOM     40  C   UNL A   1      37.587  32.999  32.773  1.00  0.00     0.031 C 
ATOM     41  C   UNL A   1      38.321  30.354  28.555  1.00  0.00     0.029 A 
ATOM     42  N   UNL A   1      39.706  29.952  30.263  1.00  0.00    -0.354 N 
ATOM     43  C   UNL A   1      39.331  32.137  33.978  1.00  0.00     0.074 A 
ATOM     44  C   UNL A   1      38.246  33.091  33.921  1.00  0.00     0.031 C 
ATOM     45  C   UNL A   1      39.139  29.360  28.183  1.00  0.00     0.029 A 
ATOM     46  C   UNL A   1      40.092  29.097  29.257  1.00  0.00     0.049 A 
ATOM     47  H   UNL A   1      40.154  29.992  31.139  1.00  0.00     0.167 HD
ATOM     48  C   UNL A   1      40.118  31.934  35.061  1.00  0.00     0.034 A 
ATOM     49  C   UNL A   1      41.108  28.210  29.191  1.00  0.00     0.034 A 
ATOM     50  C   UNL A   1      41.178  30.958  35.108  1.00  0.00     0.049 A 
ATOM     51  C   UNL A   1      41.989  28.026  30.398  1.00  0.00     0.074 A 
ATOM     52  C   UNL A   1      42.006  30.651  36.174  1.00  0.00     0.029 A 
ATOM     53  N   UNL A   1      41.557  30.130  34.061  1.00  0.00    -0.354 N 
ATOM     54  N   UNL A   1      41.908  28.606  31.572  1.00  0.00    -0.248 NA
ATOM     55  C   UNL A   1      43.096  27.067  30.282  1.00  0.00     0.031 C 
ATOM     56  C   UNL A   1      42.935  29.704  35.748  1.00  0.00     0.029 A 
ATOM     57  C   UNL A   1      42.630  29.342  34.445  1.00  0.00     0.049 A 
ATOM     58  H   UNL A   1      41.128  30.108  33.175  1.00  0.00     0.167 HD
ATOM     59  C   UNL A   1      42.934  28.065  32.341  1.00  0.00     0.074 A 
ATOM     60  C   UNL A   1      43.607  27.092  31.506  1.00  0.00     0.031 C 
ATOM     61  C   UNL A   1      43.286  28.355  33.619  1.00  0.00     0.034 A 
BRANCH  48  62
ATOM     62  C   UNL A   1      39.880  32.759  36.306  1.00  0.00     0.023 A 
ATOM     63  C   UNL A   1      38.980  32.300  37.289  1.00  0.00     0.031 A 
ATOM     64  C   UNL A   1      40.413  34.052  36.449  1.00  0.00     0.131 A 
ATOM     65  C   UNL A   1      38.606  33.144  38.342  1.00  0.00     0.055 A 
ATOM     66  C   UNL A   1      40.076  34.870  37.529  1.00  0.00     0.041 A 
ATOM     67  F   UNL A   1      41.273  34.540  35.540  1.00  0.00    -0.206 F 
ATOM     68  C   UNL A   1      39.156  34.424  38.472  1.00  0.00     0.022 A 
BRANCH  65  69
ATOM     69  S   UNL A   1      37.331  32.650  39.533  1.00  0.00     0.124 S 
ATOM     70  O   UNL A   1      36.127  32.664  38.707  1.00  0.00    -0.237 OA
ATOM     71  O   UNL A   1      37.791  31.326  39.942  1.00  0.00    -0.237 OA
ATOM     72  O   UNL A   1      37.391  33.685  40.560  1.00  0.00    -0.744 OA
ENDBRANCH  65  69
ENDBRANCH  48  62
BRANCH  49  73
ATOM     73  C   UNL A   1      41.292  27.417  27.940  1.00  0.00     0.023 A 
ATOM     74  C   UNL A   1      40.930  26.058  27.890  1.00  0.00     0.031 A 
ATOM     75  C   UNL A   1      41.946  27.966  26.825  1.00  0.00     0.131 A 
ATOM     76  C   UNL A   1      41.305  25.274  26.791  1.00  0.00     0.055 A 
ATOM     77  C   UNL A   1      42.242  27.201  25.694  1.00  0.00     0.041 A 
ATOM     78  F   UNL A   1      42.324  29.254  26.827  1.00  0.00    -0.206 F 
ATOM     79  C   UNL A   1      41.941  25.843  25.683  1.00  0.00     0.022 A 
BRANCH  76  80
ATOM     80  S   UNL A   1      41.121  23.470  26.833  1.00  0.00     0.124 S 
ATOM     81  O   UNL A   1      41.948  23.052  25.706  1.00  0.00    -0.237 OA
ATOM     82  O   UNL A   1      41.648  23.148  28.157  1.00  0.00    -0.237 OA
ATOM     83  O   UNL A   1      39.685  23.265  26.672  1.00  0.00    -0.744 OA
ENDBRANCH  76  80
ENDBRANCH  49  73
BRANCH  61  84
ATOM     84  C   UNL A   1      44.447  27.614  34.243  1.00  0.00     0.023 A 
ATOM     85  C   UNL A   1      44.209  26.449  35.000  1.00  0.00     0.031 A 
ATOM     86  C   UNL A   1      45.748  28.146  34.238  1.00  0.00     0.131 A 
ATOM     87  C   UNL A   1      45.238  25.890  35.765  1.00  0.00     0.055 A 
ATOM     88  C   UNL A   1      46.786  27.550  34.956  1.00  0.00     0.041 A 
ATOM     89  F   UNL A   1      46.026  29.262  33.544  1.00  0.00    -0.206 F 
ATOM     90  C   UNL A   1      46.529  26.428  35.739  1.00  0.00     0.022 A 
BRANCH  87  91
ATOM     91  S   UNL A   1      44.918  24.516  36.905  1.00  0.00     0.124 S 
ATOM     92  O   UNL A   1      46.199  24.391  37.596  1.00  0.00    -0.237 OA
ATOM     93  O   UNL A   1      43.820  25.038  37.715  1.00  0.00    -0.237 OA
ATOM     94  O   UNL A   1      44.576  23.401  36.027  1.00  0.00    -0.744 OA
ENDBRANCH  87  91
ENDBRANCH  61  84
ENDBRANCH  35  36
ENDBRANCH  27  30
ENDBRANCH   1  26
TORSDOF 14
ENDMDL
MODEL 2
REMARK VINA RESULT:     -12.8      5.806     11.023
REMARK SMILES Cc1ccc2c(=O)c3cccc(CC(=O)NCCCNC(=O)c4ccc(-c5c6nc(c(-c7cc(S(=O)(=O)[O-])ccc7F)c7ccc([nH]7)c(-c7cc(S(=O)(=O)[O-])ccc7F)c7nc(c(-c8cc(S(=O)(=O)[O-])ccc8F)c8ccc5[nH]8)C=C7)C=C6)cc4)c3oc2c1C
REMARK SMILES IDX 19 1 18 2 17 3 16 4 14 5 15 6 13 8 12 9 1 10 2 11 3 12 89 13
REMARK SMILES IDX 4 14 88 15 90 16 5 17 87 18 6 19 86 20 7 21 8 22 9 23 11 24
REMARK SMILES IDX 10 25 20 26 21 27 22 29 23 30 24 31 85 32 25 33 84 34 26 35
REMARK SMILES IDX 27 36 28 37 78 38 29 39 83 40 77 41 79 42 30 43 82 44 76 45
REMARK SMILES IDX 75 46 31 48 63 49 43 50 62 51 44 52 47 53 61 54 80 55 45 56
REMARK SMILES IDX 46 57 60 59 81 60 48 61 32 62 33 63 41 64 34 65 40 66 42 67
REMARK SMILES IDX 39 68 35 69 36 70 37 71 38 72 64 73 65 74 73 75 66 76 72 77
REMARK SMILES IDX 74 78 71 79 67 80 68 81 69 82 70 83 49 84 50 85 58 86 51 87
REMARK SMILES IDX 57 88 59 89 56 90 52 91 53 92 54 93 55 94
REMARK H PARENT 16 7 20 28 79 47 47 58
REMARK Flexibility Score: inf
ROOT
ATOM      1  C   UNL A   1      39.188  20.252  26.058  1.00  0.00     0.118 C 
ENDROOT
BRANCH   1   2
ATOM      2  C   UNL A   1      38.128  20.092  24.974  1.00  0.00     0.042 C 
BRANCH   2   3
ATOM      3  C   UNL A   1      37.451  21.399  24.580  1.00  0.00     0.117 C 
BRANCH   3   4
ATOM      4  N   UNL A   1      37.906  22.518  25.383  1.00  0.00    -0.356 N 
ATOM      5  C   UNL A   1      37.296  23.714  25.632  1.00  0.00     0.224 C 
ATOM      6  O   UNL A   1      37.861  24.505  26.392  1.00  0.00    -0.275 OA
ATOM      7  H   UNL A   1      38.783  22.397  25.812  1.00  0.00     0.163 HD
BRANCH   5   8
ATOM      8  C   UNL A   1      35.920  24.011  25.063  1.00  0.00     0.139 C 
BRANCH   8   9
ATOM      9  C   UNL A   1      34.755  23.588  25.930  1.00  0.00     0.005 A 
ATOM     10  C   UNL A   1      30.457  28.354  22.390  1.00  0.00     0.045 C 
ATOM     11  C   UNL A   1      30.683  27.287  23.428  1.00  0.00    -0.044 A 
ATOM     12  C   UNL A   1      29.577  26.884  24.198  1.00  0.00     0.005 A 
ATOM     13  C   UNL A   1      31.930  26.645  23.615  1.00  0.00    -0.005 A 
ATOM     14  C   UNL A   1      29.702  25.891  25.166  1.00  0.00     0.016 A 
ATOM     15  C   UNL A   1      32.051  25.651  24.613  1.00  0.00     0.141 A 
ATOM     16  C   UNL A   1      33.144  26.983  22.787  1.00  0.00     0.049 C 
ATOM     17  C   UNL A   1      30.941  25.288  25.373  1.00  0.00     0.066 A 
ATOM     18  O   UNL A   1      33.293  25.079  24.788  1.00  0.00    -0.455 OA
ATOM     19  C   UNL A   1      31.092  24.263  26.410  1.00  0.00     0.200 A 
ATOM     20  C   UNL A   1      33.465  24.123  25.761  1.00  0.00     0.142 A 
ATOM     21  O   UNL A   1      30.152  23.926  27.123  1.00  0.00    -0.288 OA
ATOM     22  C   UNL A   1      32.425  23.677  26.578  1.00  0.00     0.066 A 
ATOM     23  C   UNL A   1      32.640  22.703  27.557  1.00  0.00     0.016 A 
ATOM     24  C   UNL A   1      34.969  22.640  26.950  1.00  0.00     0.008 A 
ATOM     25  C   UNL A   1      33.917  22.188  27.746  1.00  0.00     0.001 A 
ENDBRANCH   8   9
ENDBRANCH   5   8
ENDBRANCH   3   4
ENDBRANCH   2   3
ENDBRANCH   1   2
BRANCH   1  26
ATOM     26  N   UNL A   1      40.244  19.249  25.978  1.00  0.00    -0.352 N 
ATOM     27  C   UNL A   1      41.611  19.394  26.055  1.00  0.00     0.251 C 
ATOM     28  H   UNL A   1      39.930  18.325  25.847  1.00  0.00     0.163 HD
ATOM     29  O   UNL A   1      42.334  18.434  25.800  1.00  0.00    -0.269 OA
BRANCH  27  30
ATOM     30  C   UNL A   1      42.199  20.705  26.402  1.00  0.00     0.039 A 
ATOM     31  C   UNL A   1      42.418  21.057  27.734  1.00  0.00     0.014 A 
ATOM     32  C   UNL A   1      42.509  21.609  25.382  1.00  0.00     0.014 A 
ATOM     33  C   UNL A   1      42.741  22.370  28.055  1.00  0.00     0.010 A 
ATOM     34  C   UNL A   1      42.938  22.901  25.705  1.00  0.00     0.010 A 
ATOM     35  C   UNL A   1      42.996  23.313  27.046  1.00  0.00    -0.014 A 
BRANCH  35  36
ATOM     36  C   UNL A   1      43.311  24.718  27.419  1.00  0.00     0.031 A 
ATOM     37  C   UNL A   1      44.670  25.306  27.140  1.00  0.00     0.074 A 
ATOM     38  C   UNL A   1      42.347  25.486  27.965  1.00  0.00     0.049 A 
ATOM     39  N   UNL A   1      45.106  26.517  27.376  1.00  0.00    -0.248 NA
ATOM     40  C   UNL A   1      45.673  24.421  26.525  1.00  0.00     0.031 C 
ATOM     41  C   UNL A   1      40.993  25.026  28.274  1.00  0.00     0.029 A 
ATOM     42  N   UNL A   1      42.341  26.807  28.336  1.00  0.00    -0.354 N 
ATOM     43  C   UNL A   1      46.432  26.536  26.955  1.00  0.00     0.074 A 
ATOM     44  C   UNL A   1      46.744  25.204  26.489  1.00  0.00     0.031 C 
ATOM     45  C   UNL A   1      40.273  26.058  28.735  1.00  0.00     0.029 A 
ATOM     46  C   UNL A   1      41.132  27.234  28.834  1.00  0.00     0.049 A 
ATOM     47  H   UNL A   1      43.127  27.394  28.253  1.00  0.00     0.167 HD
ATOM     48  C   UNL A   1      47.299  27.576  26.942  1.00  0.00     0.034 A 
ATOM     49  C   UNL A   1      40.753  28.430  29.333  1.00  0.00     0.034 A 
ATOM     50  C   UNL A   1      46.962  28.906  27.386  1.00  0.00     0.049 A 
ATOM     51  C   UNL A   1      41.747  29.561  29.338  1.00  0.00     0.074 A 
ATOM     52  C   UNL A   1      47.761  30.035  27.376  1.00  0.00     0.029 A 
ATOM     53  N   UNL A   1      45.736  29.292  27.910  1.00  0.00    -0.354 N 
ATOM     54  N   UNL A   1      42.980  29.575  28.891  1.00  0.00    -0.248 NA
ATOM     55  C   UNL A   1      41.304  30.841  29.908  1.00  0.00     0.031 C 
ATOM     56  C   UNL A   1      47.052  31.079  27.968  1.00  0.00     0.029 A 
ATOM     57  C   UNL A   1      45.773  30.632  28.261  1.00  0.00     0.049 A 
ATOM     58  H   UNL A   1      44.956  28.701  28.019  1.00  0.00     0.167 HD
ATOM     59  C   UNL A   1      43.451  30.868  29.100  1.00  0.00     0.074 A 
ATOM     60  C   UNL A   1      42.361  31.614  29.691  1.00  0.00     0.031 C 
ATOM     61  C   UNL A   1      44.677  31.382  28.830  1.00  0.00     0.034 A 
BRANCH  48  62
ATOM     62  C   UNL A   1      48.703  27.354  26.426  1.00  0.00     0.023 A 
ATOM     63  C   UNL A   1      49.003  27.619  25.074  1.00  0.00     0.031 A 
ATOM     64  C   UNL A   1      49.693  26.743  27.216  1.00  0.00     0.131 A 
ATOM     65  C   UNL A   1      50.239  27.230  24.544  1.00  0.00     0.055 A 
ATOM     66  C   UNL A   1      50.944  26.404  26.694  1.00  0.00     0.041 A 
ATOM     67  F   UNL A   1      49.460  26.467  28.509  1.00  0.00    -0.206 F 
ATOM     68  C   UNL A   1      51.215  26.633  25.349  1.00  0.00     0.022 A 
BRANCH  65  69
ATOM     69  S   UNL A   1      50.599  27.406  22.775  1.00  0.00     0.124 S 
ATOM     70  O   UNL A   1      51.908  26.765  22.670  1.00  0.00    -0.237 OA
ATOM     71  O   UNL A   1      49.495  26.672  22.164  1.00  0.00    -0.237 OA
ATOM     72  O   UNL A   1      50.596  28.849  22.558  1.00  0.00    -0.744 OA
ENDBRANCH  65  69
ENDBRANCH  48  62
BRANCH  49  73
ATOM     73  C   UNL A   1      39.353  28.595  29.823  1.00  0.00     0.023 A 
ATOM     74  C   UNL A   1      38.345  29.082  28.969  1.00  0.00     0.031 A 
ATOM     75  C   UNL A   1      39.030  28.394  31.174  1.00  0.00     0.131 A 
ATOM     76  C   UNL A   1      37.095  29.436  29.493  1.00  0.00     0.055 A 
ATOM     77  C   UNL A   1      37.755  28.667  31.676  1.00  0.00     0.041 A 
ATOM     78  F   UNL A   1      39.957  27.943  32.033  1.00  0.00    -0.206 F 
ATOM     79  C   UNL A   1      36.787  29.213  30.838  1.00  0.00     0.022 A 
BRANCH  76  80
ATOM     80  S   UNL A   1      35.890  30.341  28.484  1.00  0.00     0.124 S 
ATOM     81  O   UNL A   1      35.309  31.263  29.454  1.00  0.00    -0.237 OA
ATOM     82  O   UNL A   1      36.748  30.950  27.470  1.00  0.00    -0.237 OA
ATOM     83  O   UNL A   1      34.997  29.296  27.992  1.00  0.00    -0.744 OA
ENDBRANCH  76  80
ENDBRANCH  49  73
BRANCH  61  84
ATOM     84  C   UNL A   1      44.945  32.837  29.145  1.00  0.00     0.023 A 
ATOM     85  C   UNL A   1      44.738  33.817  28.154  1.00  0.00     0.031 A 
ATOM     86  C   UNL A   1      45.560  33.230  30.347  1.00  0.00     0.131 A 
ATOM     87  C   UNL A   1      45.195  35.124  28.357  1.00  0.00     0.055 A 
ATOM     88  C   UNL A   1      45.960  34.548  30.568  1.00  0.00     0.041 A 
ATOM     89  F   UNL A   1      45.792  32.332  31.319  1.00  0.00    -0.206 F 
ATOM     90  C   UNL A   1      45.795  35.498  29.563  1.00  0.00     0.022 A 
BRANCH  87  91
ATOM     91  S   UNL A   1      45.128  36.357  27.028  1.00  0.00     0.124 S 
ATOM     92  O   UNL A   1      43.739  36.254  26.589  1.00  0.00    -0.237 OA
ATOM     93  O   UNL A   1      45.470  37.589  27.735  1.00  0.00    -0.237 OA
ATOM     94  O   UNL A   1      46.119  35.891  26.064  1.00  0.00    -0.744 OA
ENDBRANCH  87  91
ENDBRANCH  61  84
ENDBRANCH  35  36
ENDBRANCH  27  30
ENDBRANCH   1  26
TORSDOF 14
ENDMDL
MODEL 3
REMARK VINA RESULT:     -12.7      1.601      7.691
REMARK SMILES Cc1ccc2c(=O)c3cccc(CC(=O)NCCCNC(=O)c4ccc(-c5c6nc(c(-c7cc(S(=O)(=O)[O-])ccc7F)c7ccc([nH]7)c(-c7cc(S(=O)(=O)[O-])ccc7F)c7nc(c(-c8cc(S(=O)(=O)[O-])ccc8F)c8ccc5[nH]8)C=C7)C=C6)cc4)c3oc2c1C
REMARK SMILES IDX 19 1 18 2 17 3 16 4 14 5 15 6 13 8 12 9 1 10 2 11 3 12 89 13
REMARK SMILES IDX 4 14 88 15 90 16 5 17 87 18 6 19 86 20 7 21 8 22 9 23 11 24
REMARK SMILES IDX 10 25 20 26 21 27 22 29 23 30 24 31 85 32 25 33 84 34 26 35
REMARK SMILES IDX 27 36 28 37 78 38 29 39 83 40 77 41 79 42 30 43 82 44 76 45
REMARK SMILES IDX 75 46 31 48 63 49 43 50 62 51 44 52 47 53 61 54 80 55 45 56
REMARK SMILES IDX 46 57 60 59 81 60 48 61 32 62 33 63 41 64 34 65 40 66 42 67
REMARK SMILES IDX 39 68 35 69 36 70 37 71 38 72 64 73 65 74 73 75 66 76 72 77
REMARK SMILES IDX 74 78 71 79 67 80 68 81 69 82 70 83 49 84 50 85 58 86 51 87
REMARK SMILES IDX 57 88 59 89 56 90 52 91 53 92 54 93 55 94
REMARK H PARENT 16 7 20 28 79 47 47 58
REMARK Flexibility Score: inf
ROOT
ATOM      1  C   UNL A   1      33.153  32.672  27.262  1.00  0.00     0.118 C 
ENDROOT
BRANCH   1   2
ATOM      2  C   UNL A   1      31.966  31.781  26.914  1.00  0.00     0.042 C 
BRANCH   2   3
ATOM      3  C   UNL A   1      32.184  30.310  27.247  1.00  0.00     0.117 C 
BRANCH   3   4
ATOM      4  N   UNL A   1      33.585  29.994  27.452  1.00  0.00    -0.356 N 
ATOM      5  C   UNL A   1      34.266  28.845  27.174  1.00  0.00     0.224 C 
ATOM      6  O   UNL A   1      35.479  28.822  27.397  1.00  0.00    -0.275 OA
ATOM      7  H   UNL A   1      34.124  30.715  27.850  1.00  0.00     0.163 HD
BRANCH   5   8
ATOM      8  C   UNL A   1      33.561  27.668  26.521  1.00  0.00     0.139 C 
BRANCH   8   9
ATOM      9  C   UNL A   1      33.608  27.643  25.010  1.00  0.00     0.005 A 
ATOM     10  C   UNL A   1      32.456  20.406  25.150  1.00  0.00     0.045 C 
ATOM     11  C   UNL A   1      32.675  21.702  24.415  1.00  0.00    -0.044 A 
ATOM     12  C   UNL A   1      32.679  21.658  23.009  1.00  0.00     0.005 A 
ATOM     13  C   UNL A   1      32.815  22.947  25.072  1.00  0.00    -0.005 A 
ATOM     14  C   UNL A   1      32.858  22.817  22.258  1.00  0.00     0.016 A 
ATOM     15  C   UNL A   1      33.014  24.114  24.301  1.00  0.00     0.141 A 
ATOM     16  C   UNL A   1      32.761  23.078  26.573  1.00  0.00     0.049 C 
ATOM     17  C   UNL A   1      33.034  24.036  22.909  1.00  0.00     0.066 A 
ATOM     18  O   UNL A   1      33.186  25.300  24.983  1.00  0.00    -0.455 OA
ATOM     19  C   UNL A   1      33.253  25.258  22.130  1.00  0.00     0.200 A 
ATOM     20  C   UNL A   1      33.404  26.459  24.276  1.00  0.00     0.142 A 
ATOM     21  O   UNL A   1      33.305  25.238  20.905  1.00  0.00    -0.288 OA
ATOM     22  C   UNL A   1      33.439  26.503  22.882  1.00  0.00     0.066 A 
ATOM     23  C   UNL A   1      33.664  27.702  22.200  1.00  0.00     0.016 A 
ATOM     24  C   UNL A   1      33.879  28.837  24.312  1.00  0.00     0.008 A 
ATOM     25  C   UNL A   1      33.890  28.870  22.918  1.00  0.00     0.001 A 
ENDBRANCH   8   9
ENDBRANCH   5   8
ENDBRANCH   3   4
ENDBRANCH   2   3
ENDBRANCH   1   2
BRANCH   1  26
ATOM     26  N   UNL A   1      32.759  34.013  27.680  1.00  0.00    -0.352 N 
ATOM     27  C   UNL A   1      33.184  34.770  28.748  1.00  0.00     0.251 C 
ATOM     28  H   UNL A   1      32.081  34.443  27.109  1.00  0.00     0.163 HD
ATOM     29  O   UNL A   1      32.603  35.818  29.014  1.00  0.00    -0.269 OA
BRANCH  27  30
ATOM     30  C   UNL A   1      34.306  34.300  29.589  1.00  0.00     0.039 A 
ATOM     31  C   UNL A   1      35.628  34.535  29.210  1.00  0.00     0.014 A 
ATOM     32  C   UNL A   1      34.033  33.586  30.760  1.00  0.00     0.014 A 
ATOM     33  C   UNL A   1      36.661  33.885  29.875  1.00  0.00     0.010 A 
ATOM     34  C   UNL A   1      35.084  33.020  31.489  1.00  0.00     0.010 A 
ATOM     35  C   UNL A   1      36.403  33.111  31.018  1.00  0.00    -0.014 A 
BRANCH  35  36
ATOM     36  C   UNL A   1      37.525  32.404  31.692  1.00  0.00     0.031 A 
ATOM     37  C   UNL A   1      38.242  31.266  31.013  1.00  0.00     0.074 A 
ATOM     38  C   UNL A   1      37.935  32.827  32.905  1.00  0.00     0.049 A 
ATOM     39  N   UNL A   1      39.254  30.558  31.445  1.00  0.00    -0.248 NA
ATOM     40  C   UNL A   1      37.758  30.864  29.682  1.00  0.00     0.031 C 
ATOM     41  C   UNL A   1      37.321  33.924  33.654  1.00  0.00     0.029 A 
ATOM     42  N   UNL A   1      38.967  32.413  33.709  1.00  0.00    -0.354 N 
ATOM     43  C   UNL A   1      39.518  29.621  30.451  1.00  0.00     0.074 A 
ATOM     44  C   UNL A   1      38.533  29.821  29.412  1.00  0.00     0.031 C 
ATOM     45  C   UNL A   1      38.017  34.130  34.780  1.00  0.00     0.029 A 
ATOM     46  C   UNL A   1      39.078  33.131  34.877  1.00  0.00     0.049 A 
ATOM     47  H   UNL A   1      39.570  31.672  33.473  1.00  0.00     0.167 HD
ATOM     48  C   UNL A   1      40.504  28.693  30.404  1.00  0.00     0.034 A 
ATOM     49  C   UNL A   1      39.923  32.998  35.921  1.00  0.00     0.034 A 
ATOM     50  C   UNL A   1      41.496  28.526  31.438  1.00  0.00     0.049 A 
ATOM     51  C   UNL A   1      40.990  31.937  35.859  1.00  0.00     0.074 A 
ATOM     52  C   UNL A   1      42.558  27.640  31.464  1.00  0.00     0.029 A 
ATOM     53  N   UNL A   1      41.558  29.254  32.618  1.00  0.00    -0.354 N 
ATOM     54  N   UNL A   1      41.256  31.093  34.891  1.00  0.00    -0.248 NA
ATOM     55  C   UNL A   1      41.877  31.809  37.023  1.00  0.00     0.031 C 
ATOM     56  C   UNL A   1      43.209  27.772  32.689  1.00  0.00     0.029 A 
ATOM     57  C   UNL A   1      42.617  28.809  33.393  1.00  0.00     0.049 A 
ATOM     58  H   UNL A   1      40.940  29.978  32.869  1.00  0.00     0.167 HD
ATOM     59  C   UNL A   1      42.355  30.352  35.316  1.00  0.00     0.074 A 
ATOM     60  C   UNL A   1      42.719  30.866  36.619  1.00  0.00     0.031 C 
ATOM     61  C   UNL A   1      42.995  29.338  34.683  1.00  0.00     0.034 A 
BRANCH  48  62
ATOM     62  C   UNL A   1      40.595  27.779  29.204  1.00  0.00     0.023 A 
ATOM     63  C   UNL A   1      41.517  28.063  28.175  1.00  0.00     0.031 A 
ATOM     64  C   UNL A   1      39.679  26.732  29.001  1.00  0.00     0.131 A 
ATOM     65  C   UNL A   1      41.469  27.340  26.977  1.00  0.00     0.055 A 
ATOM     66  C   UNL A   1      39.671  25.980  27.824  1.00  0.00     0.041 A 
ATOM     67  F   UNL A   1      38.778  26.421  29.947  1.00  0.00    -0.206 F 
ATOM     68  C   UNL A   1      40.558  26.294  26.798  1.00  0.00     0.022 A 
BRANCH  65  69
ATOM     69  S   UNL A   1      42.529  27.781  25.572  1.00  0.00     0.124 S 
ATOM     70  O   UNL A   1      41.854  28.966  25.047  1.00  0.00    -0.237 OA
ATOM     71  O   UNL A   1      43.811  28.033  26.224  1.00  0.00    -0.237 OA
ATOM     72  O   UNL A   1      42.478  26.605  24.710  1.00  0.00    -0.744 OA
ENDBRANCH  65  69
ENDBRANCH  48  62
BRANCH  49  73
ATOM     73  C   UNL A   1      39.792  33.933  37.078  1.00  0.00     0.023 A 
ATOM     74  C   UNL A   1      39.251  33.492  38.301  1.00  0.00     0.031 A 
ATOM     75  C   UNL A   1      40.084  35.299  36.941  1.00  0.00     0.131 A 
ATOM     76  C   UNL A   1      38.935  34.421  39.300  1.00  0.00     0.055 A 
ATOM     77  C   UNL A   1      39.847  36.210  37.973  1.00  0.00     0.041 A 
ATOM     78  F   UNL A   1      40.589  35.772  35.791  1.00  0.00    -0.206 F 
ATOM     79  C   UNL A   1      39.248  35.775  39.151  1.00  0.00     0.022 A 
BRANCH  76  80
ATOM     80  S   UNL A   1      37.967  33.928  40.752  1.00  0.00     0.124 S 
ATOM     81  O   UNL A   1      38.925  33.123  41.501  1.00  0.00    -0.237 OA
ATOM     82  O   UNL A   1      37.633  35.223  41.341  1.00  0.00    -0.237 OA
ATOM     83  O   UNL A   1      36.838  33.198  40.183  1.00  0.00    -0.744 OA
ENDBRANCH  76  80
ENDBRANCH  49  73
BRANCH  61  84
ATOM     84  C   UNL A   1      44.184  28.691  35.358  1.00  0.00     0.023 A 
ATOM     85  C   UNL A   1      43.985  27.618  36.249  1.00  0.00     0.031 A 
ATOM     86  C   UNL A   1      45.475  29.239  35.259  1.00  0.00     0.131 A 
ATOM     87  C   UNL A   1      45.042  27.165  37.046  1.00  0.00     0.055 A 
ATOM     88  C   UNL A   1      46.540  28.745  36.013  1.00  0.00     0.041 A 
ATOM     89  F   UNL A   1      45.716  30.271  34.435  1.00  0.00    -0.206 F 
ATOM     90  C   UNL A   1      46.321  27.716  36.926  1.00  0.00     0.022 A 
BRANCH  87  91
ATOM     91  S   UNL A   1      44.773  25.926  38.344  1.00  0.00     0.124 S 
ATOM     92  O   UNL A   1      46.137  25.660  38.795  1.00  0.00    -0.237 OA
ATOM     93  O   UNL A   1      43.932  26.653  39.292  1.00  0.00    -0.237 OA
ATOM     94  O   UNL A   1      44.124  24.821  37.648  1.00  0.00    -0.744 OA
ENDBRANCH  87  91
ENDBRANCH  61  84
ENDBRANCH  35  36
ENDBRANCH  27  30
ENDBRANCH   1  26
TORSDOF 14
ENDMDL
