MODEL 1
REMARK VINA RESULT:     -14.1      0.000      0.000
REMARK SMILES COc1cccc(NC(=O)[C@@H]2[C@@H](C(=O)NCCCNC(=O)c3ccc(-c4c5nc(c(-c6cc(S(=O)(=O)[O-])ccc6F)c6ccc([nH]6)c(-c6cc(S(=O)(=O)[O-])ccc6F)c6nc(c(-c7cc(S(=O)(=O)[O-])ccc7F)c7ccc4[nH]7)C=C6)C=C5)cc3)[C@H]3C=C[C@@H]2C3)c1
REMARK SMILES IDX 17 1 16 2 15 3 13 4 14 5 12 7 11 8 88 9 85 10 87 11 89 12
REMARK SMILES IDX 86 13 9 14 8 15 10 17 7 18 3 19 4 20 90 21 5 22 6 23 2 24
REMARK SMILES IDX 1 25 18 26 19 27 20 28 21 30 22 31 23 32 84 33 24 34 83 35
REMARK SMILES IDX 25 36 26 37 27 38 77 39 28 40 82 41 76 42 78 43 29 44 81 45
REMARK SMILES IDX 75 46 74 47 30 49 62 50 42 51 61 52 43 53 46 54 60 55 79 56
REMARK SMILES IDX 44 57 45 58 59 60 80 61 47 62 31 63 32 64 40 65 33 66 39 67
REMARK SMILES IDX 41 68 38 69 34 70 35 71 36 72 37 73 63 74 64 75 72 76 65 77
REMARK SMILES IDX 71 78 73 79 70 80 66 81 67 82 68 83 69 84 48 85 49 86 57 87
REMARK SMILES IDX 50 88 56 89 58 90 55 91 51 92 52 93 53 94 54 95
REMARK H PARENT 15 6 8 16 19 29 78 48 46 59
REMARK Flexibility Score: inf
ROOT
ATOM      1  C   UNL A   1      31.436  31.824  26.458  1.00  0.00     0.042 C 
ENDROOT
BRANCH   1   2
ATOM      2  C   UNL A   1      31.298  30.091  25.129  1.00  0.00     0.117 C 
BRANCH   2   3
ATOM      3  N   UNL A   1      32.414  29.361  24.258  1.00  0.00    -0.356 N 
ATOM      4  C   UNL A   1      32.792  28.057  24.190  1.00  0.00     0.224 C 
ATOM      5  O   UNL A   1      33.953  27.827  23.857  1.00  0.00    -0.275 OA
ATOM      6  H   UNL A   1      32.919  29.960  23.663  1.00  0.00     0.163 HD
BRANCH   4   7
ATOM      7  C   UNL A   1      31.750  26.994  24.464  1.00  0.00     0.098 C 
ATOM      8  C   UNL A   1      32.224  25.511  24.627  1.00  0.00     0.099 C 
ATOM      9  C   UNL A   1      31.276  24.781  23.605  1.00  0.00     0.025 C 
ATOM     10  C   UNL A   1      30.781  26.925  23.249  1.00  0.00     0.025 C 
ATOM     11  C   UNL A   1      31.773  25.114  22.221  1.00  0.00    -0.027 C 
ATOM     12  C   UNL A   1      30.012  25.662  23.616  1.00  0.00     0.017 C 
ATOM     13  C   UNL A   1      31.480  26.403  22.008  1.00  0.00    -0.027 C 
BRANCH   8  14
ATOM     14  C   UNL A   1      32.017  24.909  26.019  1.00  0.00     0.228 C 
ATOM     15  N   UNL A   1      32.575  23.727  26.412  1.00  0.00    -0.326 N 
ATOM     16  H   UNL A   1      32.272  23.397  27.288  1.00  0.00     0.169 HD
ATOM     17  O   UNL A   1      31.352  25.503  26.875  1.00  0.00    -0.274 OA
BRANCH  15  18
ATOM     18  C   UNL A   1      33.509  22.908  25.767  1.00  0.00     0.044 A 
ATOM     19  C   UNL A   1      33.935  19.978  24.801  1.00  0.00     0.120 A 
ATOM     20  C   UNL A   1      35.713  20.168  25.001  1.00  0.00     0.046 A 
ATOM     21  C   UNL A   1      32.835  21.335  25.205  1.00  0.00     0.072 A 
ATOM     22  C   UNL A   1      36.406  21.787  25.467  1.00  0.00     0.006 A 
ATOM     23  C   UNL A   1      35.285  23.154  25.867  1.00  0.00     0.026 A 
BRANCH  19  24
ATOM     24  O   UNL A   1      33.469  18.817  24.259  1.00  0.00    -0.497 OA
ATOM     25  C   UNL A   1      32.913  17.994  25.289  1.00  0.00     0.278 C 
ENDBRANCH  19  24
ENDBRANCH  15  18
ENDBRANCH   8  14
ENDBRANCH   4   7
ENDBRANCH   2   3
ENDBRANCH   1   2
BRANCH   1  26
ATOM     26  C   UNL A   1      32.716  32.565  27.443  1.00  0.00     0.118 C 
BRANCH  26  27
ATOM     27  N   UNL A   1      32.835  34.016  27.688  1.00  0.00    -0.352 N 
ATOM     28  C   UNL A   1      33.314  34.699  28.784  1.00  0.00     0.251 C 
ATOM     29  H   UNL A   1      32.521  34.586  26.950  1.00  0.00     0.163 HD
ATOM     30  O   UNL A   1      32.863  35.801  29.080  1.00  0.00    -0.269 OA
BRANCH  28  31
ATOM     31  C   UNL A   1      34.429  34.116  29.540  1.00  0.00     0.039 A 
ATOM     32  C   UNL A   1      34.219  33.316  30.667  1.00  0.00     0.014 A 
ATOM     33  C   UNL A   1      35.716  34.452  29.128  1.00  0.00     0.014 A 
ATOM     34  C   UNL A   1      35.325  32.803  31.348  1.00  0.00     0.010 A 
ATOM     35  C   UNL A   1      36.799  33.856  29.728  1.00  0.00     0.010 A 
ATOM     36  C   UNL A   1      36.617  33.054  30.861  1.00  0.00    -0.014 A 
BRANCH  36  37
ATOM     37  C   UNL A   1      37.851  32.567  31.509  1.00  0.00     0.031 A 
ATOM     38  C   UNL A   1      38.602  31.445  30.845  1.00  0.00     0.074 A 
ATOM     39  C   UNL A   1      38.142  32.984  32.753  1.00  0.00     0.049 A 
ATOM     40  N   UNL A   1      39.508  30.647  31.338  1.00  0.00    -0.248 NA
ATOM     41  C   UNL A   1      38.209  31.127  29.459  1.00  0.00     0.031 C 
ATOM     42  C   UNL A   1      37.420  34.022  33.492  1.00  0.00     0.029 A 
ATOM     43  N   UNL A   1      39.099  32.555  33.631  1.00  0.00    -0.354 N 
ATOM     44  C   UNL A   1      39.760  29.708  30.343  1.00  0.00     0.074 A 
ATOM     45  C   UNL A   1      38.851  29.989  29.254  1.00  0.00     0.031 C 
ATOM     46  C   UNL A   1      37.972  34.160  34.707  1.00  0.00     0.029 A 
ATOM     47  C   UNL A   1      39.046  33.185  34.852  1.00  0.00     0.049 A 
ATOM     48  H   UNL A   1      39.762  31.861  33.411  1.00  0.00     0.167 HD
ATOM     49  C   UNL A   1      40.686  28.719  30.335  1.00  0.00     0.034 A 
ATOM     50  C   UNL A   1      39.779  32.979  35.961  1.00  0.00     0.034 A 
ATOM     51  C   UNL A   1      41.596  28.505  31.432  1.00  0.00     0.049 A 
ATOM     52  C   UNL A   1      40.832  31.900  35.919  1.00  0.00     0.074 A 
ATOM     53  C   UNL A   1      42.638  27.602  31.530  1.00  0.00     0.029 A 
ATOM     54  N   UNL A   1      41.570  29.217  32.627  1.00  0.00    -0.354 N 
ATOM     55  N   UNL A   1      41.108  31.054  34.951  1.00  0.00    -0.248 NA
ATOM     56  C   UNL A   1      41.681  31.758  37.106  1.00  0.00     0.031 C 
ATOM     57  C   UNL A   1      43.202  27.728  32.804  1.00  0.00     0.029 A 
ATOM     58  C   UNL A   1      42.564  28.761  33.475  1.00  0.00     0.049 A 
ATOM     59  H   UNL A   1      40.936  29.939  32.839  1.00  0.00     0.167 HD
ATOM     60  C   UNL A   1      42.190  30.304  35.400  1.00  0.00     0.074 A 
ATOM     61  C   UNL A   1      42.519  30.809  36.720  1.00  0.00     0.031 C 
ATOM     62  C   UNL A   1      42.858  29.293  34.785  1.00  0.00     0.034 A 
BRANCH  49  63
ATOM     63  C   UNL A   1      40.742  27.816  29.125  1.00  0.00     0.023 A 
ATOM     64  C   UNL A   1      41.674  28.023  28.090  1.00  0.00     0.031 A 
ATOM     65  C   UNL A   1      39.825  26.762  28.973  1.00  0.00     0.131 A 
ATOM     66  C   UNL A   1      41.607  27.256  26.918  1.00  0.00     0.055 A 
ATOM     67  C   UNL A   1      39.825  25.940  27.843  1.00  0.00     0.041 A 
ATOM     68  F   UNL A   1      38.894  26.522  29.910  1.00  0.00    -0.206 F 
ATOM     69  C   UNL A   1      40.708  26.195  26.798  1.00  0.00     0.022 A 
BRANCH  66  70
ATOM     70  S   UNL A   1      42.604  27.771  25.493  1.00  0.00     0.124 S 
ATOM     71  O   UNL A   1      43.896  28.039  26.120  1.00  0.00    -0.237 OA
ATOM     72  O   UNL A   1      42.546  26.600  24.626  1.00  0.00    -0.237 OA
ATOM     73  O   UNL A   1      41.904  28.953  24.994  1.00  0.00    -0.744 OA
ENDBRANCH  66  70
ENDBRANCH  49  63
BRANCH  50  74
ATOM     74  C   UNL A   1      39.569  33.817  37.174  1.00  0.00     0.023 A 
ATOM     75  C   UNL A   1      39.045  33.249  38.346  1.00  0.00     0.031 A 
ATOM     76  C   UNL A   1      39.876  35.189  37.187  1.00  0.00     0.131 A 
ATOM     77  C   UNL A   1      38.797  34.057  39.466  1.00  0.00     0.055 A 
ATOM     78  C   UNL A   1      39.676  35.979  38.322  1.00  0.00     0.041 A 
ATOM     79  F   UNL A   1      40.396  35.779  36.100  1.00  0.00    -0.206 F 
ATOM     80  C   UNL A   1      39.120  35.415  39.467  1.00  0.00     0.022 A 
BRANCH  77  81
ATOM     81  S   UNL A   1      37.965  33.316  40.896  1.00  0.00     0.124 S 
ATOM     82  O   UNL A   1      38.674  32.047  41.028  1.00  0.00    -0.237 OA
ATOM     83  O   UNL A   1      38.220  34.304  41.939  1.00  0.00    -0.237 OA
ATOM     84  O   UNL A   1      36.574  33.213  40.464  1.00  0.00    -0.744 OA
ENDBRANCH  77  81
ENDBRANCH  50  74
BRANCH  62  85
ATOM     85  C   UNL A   1      44.039  28.716  35.521  1.00  0.00     0.023 A 
ATOM     86  C   UNL A   1      43.899  27.636  36.407  1.00  0.00     0.031 A 
ATOM     87  C   UNL A   1      45.322  29.256  35.323  1.00  0.00     0.131 A 
ATOM     88  C   UNL A   1      45.017  27.165  37.108  1.00  0.00     0.055 A 
ATOM     89  C   UNL A   1      46.441  28.738  35.972  1.00  0.00     0.041 A 
ATOM     90  F   UNL A   1      45.507  30.290  34.486  1.00  0.00    -0.206 F 
ATOM     91  C   UNL A   1      46.290  27.694  36.881  1.00  0.00     0.022 A 
BRANCH  88  92
ATOM     92  S   UNL A   1      44.766  25.908  38.390  1.00  0.00     0.124 S 
ATOM     93  O   UNL A   1      46.124  25.418  38.601  1.00  0.00    -0.237 OA
ATOM     94  O   UNL A   1      44.191  26.686  39.482  1.00  0.00    -0.237 OA
ATOM     95  O   UNL A   1      43.852  24.955  37.760  1.00  0.00    -0.744 OA
ENDBRANCH  88  92
ENDBRANCH  62  85
ENDBRANCH  36  37
ENDBRANCH  28  31
ENDBRANCH  26  27
ENDBRANCH   1  26
TORSDOF 16
ENDMDL
MODEL 2
REMARK VINA RESULT:     -14.0      2.370      4.059
REMARK SMILES COc1cccc(NC(=O)[C@@H]2[C@@H](C(=O)NCCCNC(=O)c3ccc(-c4c5nc(c(-c6cc(S(=O)(=O)[O-])ccc6F)c6ccc([nH]6)c(-c6cc(S(=O)(=O)[O-])ccc6F)c6nc(c(-c7cc(S(=O)(=O)[O-])ccc7F)c7ccc4[nH]7)C=C6)C=C5)cc3)[C@H]3C=C[C@@H]2C3)c1
REMARK SMILES IDX 17 1 16 2 15 3 13 4 14 5 12 7 11 8 88 9 85 10 87 11 89 12
REMARK SMILES IDX 86 13 9 14 8 15 10 17 7 18 3 19 4 20 90 21 5 22 6 23 2 24
REMARK SMILES IDX 1 25 18 26 19 27 20 28 21 30 22 31 23 32 84 33 24 34 83 35
REMARK SMILES IDX 25 36 26 37 27 38 77 39 28 40 82 41 76 42 78 43 29 44 81 45
REMARK SMILES IDX 75 46 74 47 30 49 62 50 42 51 61 52 43 53 46 54 60 55 79 56
REMARK SMILES IDX 44 57 45 58 59 60 80 61 47 62 31 63 32 64 40 65 33 66 39 67
REMARK SMILES IDX 41 68 38 69 34 70 35 71 36 72 37 73 63 74 64 75 72 76 65 77
REMARK SMILES IDX 71 78 73 79 70 80 66 81 67 82 68 83 69 84 48 85 49 86 57 87
REMARK SMILES IDX 50 88 56 89 58 90 55 91 51 92 52 93 53 94 54 95
REMARK H PARENT 15 6 8 16 19 29 78 48 46 59
REMARK Flexibility Score: inf
ROOT
ATOM      1  C   UNL A   1      33.272  27.271  26.112  1.00  0.00     0.042 C 
ENDROOT
BRANCH   1   2
ATOM      2  C   UNL A   1      31.335  26.250  26.112  1.00  0.00     0.117 C 
BRANCH   2   3
ATOM      3  N   UNL A   1      30.876  24.899  26.821  1.00  0.00    -0.356 N 
ATOM      4  C   UNL A   1      31.003  23.599  26.446  1.00  0.00     0.224 C 
ATOM      5  O   UNL A   1      30.162  22.809  26.870  1.00  0.00    -0.275 OA
ATOM      6  H   UNL A   1      30.420  25.029  27.683  1.00  0.00     0.163 HD
BRANCH   4   7
ATOM      7  C   UNL A   1      32.195  23.212  25.596  1.00  0.00     0.098 C 
ATOM      8  C   UNL A   1      32.311  21.729  25.109  1.00  0.00     0.099 C 
ATOM      9  C   UNL A   1      33.773  21.376  25.572  1.00  0.00     0.025 C 
ATOM     10  C   UNL A   1      33.489  23.411  26.436  1.00  0.00     0.025 C 
ATOM     11  C   UNL A   1      33.736  21.206  27.070  1.00  0.00    -0.027 C 
ATOM     12  C   UNL A   1      34.493  22.737  25.511  1.00  0.00     0.017 C 
ATOM     13  C   UNL A   1      33.561  22.428  27.590  1.00  0.00    -0.027 C 
BRANCH   8  14
ATOM     14  C   UNL A   1      32.204  21.530  23.594  1.00  0.00     0.228 C 
ATOM     15  N   UNL A   1      32.190  22.566  22.705  1.00  0.00    -0.326 N 
ATOM     16  H   UNL A   1      32.004  22.308  21.773  1.00  0.00     0.169 HD
ATOM     17  O   UNL A   1      32.164  20.396  23.104  1.00  0.00    -0.274 OA
BRANCH  15  18
ATOM     18  C   UNL A   1      32.398  23.935  22.905  1.00  0.00     0.044 A 
ATOM     19  C   UNL A   1      31.079  26.708  22.388  1.00  0.00     0.120 A 
ATOM     20  C   UNL A   1      32.706  27.474  22.331  1.00  0.00     0.046 A 
ATOM     21  C   UNL A   1      30.927  24.941  22.650  1.00  0.00     0.072 A 
ATOM     22  C   UNL A   1      34.189  26.481  22.693  1.00  0.00     0.006 A 
ATOM     23  C   UNL A   1      34.023  24.697  22.963  1.00  0.00     0.026 A 
BRANCH  19  24
ATOM     24  O   UNL A   1      29.984  27.517  22.313  1.00  0.00    -0.497 OA
ATOM     25  C   UNL A   1      29.298  27.518  23.568  1.00  0.00     0.278 C 
ENDBRANCH  19  24
ENDBRANCH  15  18
ENDBRANCH   8  14
ENDBRANCH   4   7
ENDBRANCH   2   3
ENDBRANCH   1   2
BRANCH   1  26
ATOM     26  C   UNL A   1      33.889  28.812  25.481  1.00  0.00     0.118 C 
BRANCH  26  27
ATOM     27  N   UNL A   1      33.320  30.132  25.821  1.00  0.00    -0.352 N 
ATOM     28  C   UNL A   1      33.450  30.892  26.962  1.00  0.00     0.251 C 
ATOM     29  H   UNL A   1      32.757  30.531  25.119  1.00  0.00     0.163 HD
ATOM     30  O   UNL A   1      32.543  31.633  27.326  1.00  0.00    -0.269 OA
BRANCH  28  31
ATOM     31  C   UNL A   1      34.727  30.856  27.685  1.00  0.00     0.039 A 
ATOM     32  C   UNL A   1      35.593  31.954  27.710  1.00  0.00     0.014 A 
ATOM     33  C   UNL A   1      35.076  29.653  28.292  1.00  0.00     0.014 A 
ATOM     34  C   UNL A   1      36.799  31.848  28.407  1.00  0.00     0.010 A 
ATOM     35  C   UNL A   1      36.206  29.587  29.071  1.00  0.00     0.010 A 
ATOM     36  C   UNL A   1      37.093  30.669  29.109  1.00  0.00    -0.014 A 
BRANCH  36  37
ATOM     37  C   UNL A   1      38.340  30.452  29.869  1.00  0.00     0.031 A 
ATOM     38  C   UNL A   1      39.345  29.480  29.314  1.00  0.00     0.074 A 
ATOM     39  C   UNL A   1      38.442  30.953  31.111  1.00  0.00     0.049 A 
ATOM     40  N   UNL A   1      40.345  28.889  29.909  1.00  0.00    -0.248 NA
ATOM     41  C   UNL A   1      39.136  29.051  27.918  1.00  0.00     0.031 C 
ATOM     42  C   UNL A   1      37.475  31.851  31.747  1.00  0.00     0.029 A 
ATOM     43  N   UNL A   1      39.389  30.746  32.077  1.00  0.00    -0.354 N 
ATOM     44  C   UNL A   1      40.854  27.990  28.977  1.00  0.00     0.074 A 
ATOM     45  C   UNL A   1      40.000  28.055  27.813  1.00  0.00     0.031 C 
ATOM     46  C   UNL A   1      37.888  32.130  32.993  1.00  0.00     0.029 A 
ATOM     47  C   UNL A   1      39.114  31.389  33.261  1.00  0.00     0.049 A 
ATOM     48  H   UNL A   1      40.189  30.190  31.938  1.00  0.00     0.167 HD
ATOM     49  C   UNL A   1      41.951  27.201  29.083  1.00  0.00     0.034 A 
ATOM     50  C   UNL A   1      39.780  31.363  34.430  1.00  0.00     0.034 A 
ATOM     51  C   UNL A   1      42.792  27.202  30.254  1.00  0.00     0.049 A 
ATOM     52  C   UNL A   1      41.022  30.511  34.515  1.00  0.00     0.074 A 
ATOM     53  C   UNL A   1      43.977  26.524  30.469  1.00  0.00     0.029 A 
ATOM     54  N   UNL A   1      42.531  27.929  31.410  1.00  0.00    -0.354 N 
ATOM     55  N   UNL A   1      41.534  29.707  33.609  1.00  0.00    -0.248 NA
ATOM     56  C   UNL A   1      41.781  30.573  35.767  1.00  0.00     0.031 C 
ATOM     57  C   UNL A   1      44.400  26.795  31.775  1.00  0.00     0.029 A 
ATOM     58  C   UNL A   1      43.521  27.703  32.349  1.00  0.00     0.049 A 
ATOM     59  H   UNL A   1      41.754  28.519  31.542  1.00  0.00     0.167 HD
ATOM     60  C   UNL A   1      42.700  29.198  34.170  1.00  0.00     0.074 A 
ATOM     61  C   UNL A   1      42.816  29.795  35.488  1.00  0.00     0.031 C 
ATOM     62  C   UNL A   1      43.598  28.320  33.653  1.00  0.00     0.034 A 
BRANCH  49  63
ATOM     63  C   UNL A   1      42.280  26.292  27.922  1.00  0.00     0.023 A 
ATOM     64  C   UNL A   1      41.740  24.996  27.822  1.00  0.00     0.031 A 
ATOM     65  C   UNL A   1      43.179  26.700  26.923  1.00  0.00     0.131 A 
ATOM     66  C   UNL A   1      42.174  24.127  26.810  1.00  0.00     0.055 A 
ATOM     67  C   UNL A   1      43.535  25.863  25.862  1.00  0.00     0.041 A 
ATOM     68  F   UNL A   1      43.749  27.915  26.968  1.00  0.00    -0.206 F 
ATOM     69  C   UNL A   1      43.047  24.561  25.811  1.00  0.00     0.022 A 
BRANCH  66  70
ATOM     70  S   UNL A   1      41.705  22.378  26.915  1.00  0.00     0.124 S 
ATOM     71  O   UNL A   1      42.619  21.890  27.945  1.00  0.00    -0.237 OA
ATOM     72  O   UNL A   1      40.298  22.450  27.292  1.00  0.00    -0.237 OA
ATOM     73  O   UNL A   1      41.966  21.871  25.569  1.00  0.00    -0.744 OA
ENDBRANCH  66  70
ENDBRANCH  49  63
BRANCH  50  74
ATOM     74  C   UNL A   1      39.313  32.179  35.586  1.00  0.00     0.023 A 
ATOM     75  C   UNL A   1      38.603  31.578  36.637  1.00  0.00     0.031 A 
ATOM     76  C   UNL A   1      39.557  33.561  35.661  1.00  0.00     0.131 A 
ATOM     77  C   UNL A   1      38.118  32.362  37.693  1.00  0.00     0.055 A 
ATOM     78  C   UNL A   1      39.117  34.330  36.741  1.00  0.00     0.041 A 
ATOM     79  F   UNL A   1      40.247  34.183  34.692  1.00  0.00    -0.206 F 
ATOM     80  C   UNL A   1      38.380  33.732  37.760  1.00  0.00     0.022 A 
BRANCH  77  81
ATOM     81  S   UNL A   1      37.064  31.574  38.940  1.00  0.00     0.124 S 
ATOM     82  O   UNL A   1      37.886  31.687  40.139  1.00  0.00    -0.237 OA
ATOM     83  O   UNL A   1      35.870  32.411  38.899  1.00  0.00    -0.237 OA
ATOM     84  O   UNL A   1      36.889  30.217  38.427  1.00  0.00    -0.744 OA
ENDBRANCH  77  81
ENDBRANCH  50  74
BRANCH  62  85
ATOM     85  C   UNL A   1      44.804  28.007  34.500  1.00  0.00     0.023 A 
ATOM     86  C   UNL A   1      44.826  26.910  35.375  1.00  0.00     0.031 A 
ATOM     87  C   UNL A   1      45.949  28.820  34.421  1.00  0.00     0.131 A 
ATOM     88  C   UNL A   1      45.950  26.686  36.181  1.00  0.00     0.055 A 
ATOM     89  C   UNL A   1      47.090  28.553  35.176  1.00  0.00     0.041 A 
ATOM     90  F   UNL A   1      45.977  29.883  33.600  1.00  0.00    -0.206 F 
ATOM     91  C   UNL A   1      47.089  27.488  36.072  1.00  0.00     0.022 A 
BRANCH  88  92
ATOM     92  S   UNL A   1      45.866  25.386  37.440  1.00  0.00     0.124 S 
ATOM     93  O   UNL A   1      47.260  24.968  37.536  1.00  0.00    -0.237 OA
ATOM     94  O   UNL A   1      45.334  26.102  38.595  1.00  0.00    -0.237 OA
ATOM     95  O   UNL A   1      44.961  24.398  36.853  1.00  0.00    -0.744 OA
ENDBRANCH  88  92
ENDBRANCH  62  85
ENDBRANCH  36  37
ENDBRANCH  28  31
ENDBRANCH  26  27
ENDBRANCH   1  26
TORSDOF 16
ENDMDL
MODEL 3
REMARK VINA RESULT:     -13.9      2.780      4.457
REMARK SMILES COc1cccc(NC(=O)[C@@H]2[C@@H](C(=O)NCCCNC(=O)c3ccc(-c4c5nc(c(-c6cc(S(=O)(=O)[O-])ccc6F)c6ccc([nH]6)c(-c6cc(S(=O)(=O)[O-])ccc6F)c6nc(c(-c7cc(S(=O)(=O)[O-])ccc7F)c7ccc4[nH]7)C=C6)C=C5)cc3)[C@H]3C=C[C@@H]2C3)c1
REMARK SMILES IDX 17 1 16 2 15 3 13 4 14 5 12 7 11 8 88 9 85 10 87 11 89 12
REMARK SMILES IDX 86 13 9 14 8 15 10 17 7 18 3 19 4 20 90 21 5 22 6 23 2 24
REMARK SMILES IDX 1 25 18 26 19 27 20 28 21 30 22 31 23 32 84 33 24 34 83 35
REMARK SMILES IDX 25 36 26 37 27 38 77 39 28 40 82 41 76 42 78 43 29 44 81 45
REMARK SMILES IDX 75 46 74 47 30 49 62 50 42 51 61 52 43 53 46 54 60 55 79 56
REMARK SMILES IDX 44 57 45 58 59 60 80 61 47 62 31 63 32 64 40 65 33 66 39 67
REMARK SMILES IDX 41 68 38 69 34 70 35 71 36 72 37 73 63 74 64 75 72 76 65 77
REMARK SMILES IDX 71 78 73 79 70 80 66 81 67 82 68 83 69 84 48 85 49 86 57 87
REMARK SMILES IDX 50 88 56 89 58 90 55 91 51 92 52 93 53 94 54 95
REMARK H PARENT 15 6 8 16 19 29 78 48 46 59
REMARK Flexibility Score: inf
ROOT
ATOM      1  C   UNL A   1      33.484  27.252  26.121  1.00  0.00     0.042 C 
ENDROOT
BRANCH   1   2
ATOM      2  C   UNL A   1      31.613  26.175  26.477  1.00  0.00     0.117 C 
BRANCH   2   3
ATOM      3  N   UNL A   1      31.353  24.694  27.006  1.00  0.00    -0.356 N 
ATOM      4  C   UNL A   1      31.446  23.489  26.384  1.00  0.00     0.224 C 
ATOM      5  O   UNL A   1      30.736  22.582  26.814  1.00  0.00    -0.275 OA
ATOM      6  H   UNL A   1      31.077  24.644  27.948  1.00  0.00     0.163 HD
BRANCH   4   7
ATOM      7  C   UNL A   1      32.454  23.336  25.264  1.00  0.00     0.098 C 
ATOM      8  C   UNL A   1      32.564  21.950  24.547  1.00  0.00     0.099 C 
ATOM      9  C   UNL A   1      34.111  21.683  24.649  1.00  0.00     0.025 C 
ATOM     10  C   UNL A   1      33.880  23.547  25.848  1.00  0.00     0.025 C 
ATOM     11  C   UNL A   1      34.405  21.313  26.081  1.00  0.00    -0.027 C 
ATOM     12  C   UNL A   1      34.707  23.103  24.649  1.00  0.00     0.017 C 
ATOM     13  C   UNL A   1      34.262  22.432  26.802  1.00  0.00    -0.027 C 
BRANCH   8  14
ATOM     14  C   UNL A   1      32.151  21.944  23.072  1.00  0.00     0.228 C 
ATOM     15  N   UNL A   1      31.852  23.080  22.376  1.00  0.00    -0.326 N 
ATOM     16  H   UNL A   1      31.493  22.929  21.472  1.00  0.00     0.169 HD
ATOM     17  O   UNL A   1      32.108  20.889  22.429  1.00  0.00    -0.274 OA
BRANCH  15  18
ATOM     18  C   UNL A   1      31.976  24.425  22.742  1.00  0.00     0.044 A 
ATOM     19  C   UNL A   1      30.270  26.968  23.310  1.00  0.00     0.120 A 
ATOM     20  C   UNL A   1      31.643  28.008  22.788  1.00  0.00     0.046 A 
ATOM     21  C   UNL A   1      30.428  25.183  23.264  1.00  0.00     0.072 A 
ATOM     22  C   UNL A   1      33.243  27.251  22.361  1.00  0.00     0.006 A 
ATOM     23  C   UNL A   1      33.393  25.445  22.324  1.00  0.00     0.026 A 
BRANCH  19  24
ATOM     24  O   UNL A   1      29.158  27.576  23.813  1.00  0.00    -0.497 OA
ATOM     25  C   UNL A   1      28.437  28.214  22.755  1.00  0.00     0.278 C 
ENDBRANCH  19  24
ENDBRANCH  15  18
ENDBRANCH   8  14
ENDBRANCH   4   7
ENDBRANCH   2   3
ENDBRANCH   1   2
BRANCH   1  26
ATOM     26  C   UNL A   1      33.930  28.801  25.372  1.00  0.00     0.118 C 
BRANCH  26  27
ATOM     27  N   UNL A   1      33.330  30.099  25.738  1.00  0.00    -0.352 N 
ATOM     28  C   UNL A   1      33.436  30.836  26.897  1.00  0.00     0.251 C 
ATOM     29  H   UNL A   1      32.762  30.501  25.042  1.00  0.00     0.163 HD
ATOM     30  O   UNL A   1      32.510  31.548  27.272  1.00  0.00    -0.269 OA
BRANCH  28  31
ATOM     31  C   UNL A   1      34.709  30.813  27.627  1.00  0.00     0.039 A 
ATOM     32  C   UNL A   1      35.561  31.920  27.662  1.00  0.00     0.014 A 
ATOM     33  C   UNL A   1      35.069  29.611  28.231  1.00  0.00     0.014 A 
ATOM     34  C   UNL A   1      36.764  31.827  28.365  1.00  0.00     0.010 A 
ATOM     35  C   UNL A   1      36.195  29.555  29.016  1.00  0.00     0.010 A 
ATOM     36  C   UNL A   1      37.069  30.648  29.064  1.00  0.00    -0.014 A 
BRANCH  36  37
ATOM     37  C   UNL A   1      38.314  30.443  29.830  1.00  0.00     0.031 A 
ATOM     38  C   UNL A   1      39.334  29.486  29.276  1.00  0.00     0.074 A 
ATOM     39  C   UNL A   1      38.403  30.940  31.075  1.00  0.00     0.049 A 
ATOM     40  N   UNL A   1      40.338  28.905  29.874  1.00  0.00    -0.248 NA
ATOM     41  C   UNL A   1      39.139  29.061  27.877  1.00  0.00     0.031 C 
ATOM     42  C   UNL A   1      37.421  31.823  31.709  1.00  0.00     0.029 A 
ATOM     43  N   UNL A   1      39.347  30.741  32.045  1.00  0.00    -0.354 N 
ATOM     44  C   UNL A   1      40.863  28.016  28.942  1.00  0.00     0.074 A 
ATOM     45  C   UNL A   1      40.015  28.076  27.772  1.00  0.00     0.031 C 
ATOM     46  C   UNL A   1      37.824  32.102  32.958  1.00  0.00     0.029 A 
ATOM     47  C   UNL A   1      39.058  31.375  33.230  1.00  0.00     0.049 A 
ATOM     48  H   UNL A   1      40.155  30.195  31.908  1.00  0.00     0.167 HD
ATOM     49  C   UNL A   1      41.970  27.241  29.051  1.00  0.00     0.034 A 
ATOM     50  C   UNL A   1      39.717  31.351  34.403  1.00  0.00     0.034 A 
ATOM     51  C   UNL A   1      42.804  27.247  30.226  1.00  0.00     0.049 A 
ATOM     52  C   UNL A   1      40.969  30.514  34.492  1.00  0.00     0.074 A 
ATOM     53  C   UNL A   1      43.996  26.583  30.445  1.00  0.00     0.029 A 
ATOM     54  N   UNL A   1      42.527  27.965  31.384  1.00  0.00    -0.354 N 
ATOM     55  N   UNL A   1      41.496  29.721  33.584  1.00  0.00    -0.248 NA
ATOM     56  C   UNL A   1      41.720  30.580  35.748  1.00  0.00     0.031 C 
ATOM     57  C   UNL A   1      44.408  26.853  31.754  1.00  0.00     0.029 A 
ATOM     58  C   UNL A   1      43.515  27.747  32.327  1.00  0.00     0.049 A 
ATOM     59  H   UNL A   1      41.742  28.545  31.514  1.00  0.00     0.167 HD
ATOM     60  C   UNL A   1      42.665  29.223  34.150  1.00  0.00     0.074 A 
ATOM     61  C   UNL A   1      42.766  29.817  35.471  1.00  0.00     0.031 C 
ATOM     62  C   UNL A   1      43.577  28.359  33.635  1.00  0.00     0.034 A 
BRANCH  49  63
ATOM     63  C   UNL A   1      42.316  26.341  27.887  1.00  0.00     0.023 A 
ATOM     64  C   UNL A   1      41.862  25.010  27.822  1.00  0.00     0.031 A 
ATOM     65  C   UNL A   1      43.147  26.796  26.850  1.00  0.00     0.131 A 
ATOM     66  C   UNL A   1      42.316  24.159  26.802  1.00  0.00     0.055 A 
ATOM     67  C   UNL A   1      43.520  25.971  25.786  1.00  0.00     0.041 A 
ATOM     68  F   UNL A   1      43.635  28.047  26.861  1.00  0.00    -0.206 F 
ATOM     69  C   UNL A   1      43.120  24.638  25.766  1.00  0.00     0.022 A 
BRANCH  66  70
ATOM     70  S   UNL A   1      41.972  22.384  26.943  1.00  0.00     0.124 S 
ATOM     71  O   UNL A   1      41.789  22.234  28.385  1.00  0.00    -0.237 OA
ATOM     72  O   UNL A   1      40.774  22.229  26.128  1.00  0.00    -0.237 OA
ATOM     73  O   UNL A   1      43.178  21.757  26.407  1.00  0.00    -0.744 OA
ENDBRANCH  66  70
ENDBRANCH  49  63
BRANCH  50  74
ATOM     74  C   UNL A   1      39.234  32.156  35.559  1.00  0.00     0.023 A 
ATOM     75  C   UNL A   1      38.546  31.538  36.615  1.00  0.00     0.031 A 
ATOM     76  C   UNL A   1      39.439  33.546  35.630  1.00  0.00     0.131 A 
ATOM     77  C   UNL A   1      38.045  32.311  37.673  1.00  0.00     0.055 A 
ATOM     78  C   UNL A   1      38.983  34.304  36.712  1.00  0.00     0.041 A 
ATOM     79  F   UNL A   1      40.106  34.184  34.657  1.00  0.00    -0.206 F 
ATOM     80  C   UNL A   1      38.269  33.688  37.735  1.00  0.00     0.022 A 
BRANCH  77  81
ATOM     81  S   UNL A   1      37.020  31.496  38.927  1.00  0.00     0.124 S 
ATOM     82  O   UNL A   1      35.823  32.329  38.921  1.00  0.00    -0.237 OA
ATOM     83  O   UNL A   1      36.872  30.155  38.370  1.00  0.00    -0.237 OA
ATOM     84  O   UNL A   1      37.835  31.579  40.137  1.00  0.00    -0.744 OA
ENDBRANCH  77  81
ENDBRANCH  50  74
BRANCH  62  85
ATOM     85  C   UNL A   1      44.782  28.058  34.487  1.00  0.00     0.023 A 
ATOM     86  C   UNL A   1      45.936  28.856  34.440  1.00  0.00     0.031 A 
ATOM     87  C   UNL A   1      44.767  26.956  35.360  1.00  0.00     0.131 A 
ATOM     88  C   UNL A   1      47.052  28.508  35.212  1.00  0.00     0.055 A 
ATOM     89  C   UNL A   1      45.856  26.655  36.176  1.00  0.00     0.041 A 
ATOM     90  F   UNL A   1      43.688  26.161  35.440  1.00  0.00    -0.206 F 
ATOM     91  C   UNL A   1      47.013  27.426  36.095  1.00  0.00     0.022 A 
BRANCH  88  92
ATOM     92  S   UNL A   1      48.589  29.439  34.977  1.00  0.00     0.124 S 
ATOM     93  O   UNL A   1      48.313  30.669  35.712  1.00  0.00    -0.237 OA
ATOM     94  O   UNL A   1      49.585  28.553  35.570  1.00  0.00    -0.237 OA
ATOM     95  O   UNL A   1      48.680  29.590  33.525  1.00  0.00    -0.744 OA
ENDBRANCH  88  92
ENDBRANCH  62  85
ENDBRANCH  36  37
ENDBRANCH  28  31
ENDBRANCH  26  27
ENDBRANCH   1  26
TORSDOF 16
ENDMDL
