MODEL 1
REMARK VINA RESULT:     -13.4      0.000      0.000
REMARK SMILES O=C(NCCCNC(=O)c1cccc(Nc2ccnc3ccc(F)cc23)c1)c1ccc(-c2c3nc(c(-c4cc(S(=O)(=O)[O-])ccc4F)c4ccc([nH]4)c(-c4cc(S(=O)(=O)[O-])ccc4F)c4nc(c(-c5cc(S(=O)(=O)[O-])ccc5F)c5ccc2[nH]5)C=C4)C=C3)cc1
REMARK SMILES IDX 4 1 3 2 1 3 2 4 28 6 29 7 90 8 30 9 89 10 31 11 32 12 33 13
REMARK SMILES IDX 83 14 34 15 88 16 82 17 84 18 35 19 87 20 81 21 80 22 36 24
REMARK SMILES IDX 68 25 48 26 67 27 49 28 52 29 66 30 85 31 50 32 51 33 65 35
REMARK SMILES IDX 86 36 53 37 37 38 38 39 46 40 39 41 45 42 47 43 44 44 40 45
REMARK SMILES IDX 41 46 42 47 43 48 69 49 70 50 78 51 71 52 77 53 79 54 76 55
REMARK SMILES IDX 72 56 73 57 74 58 75 59 54 60 55 61 63 62 56 63 62 64 64 65
REMARK SMILES IDX 61 66 57 67 58 68 59 69 60 70 5 71 6 72 7 73 8 74 9 76 10 77
REMARK SMILES IDX 11 78 27 79 12 80 14 81 13 82 15 83 16 85 17 86 26 87 18 88
REMARK SMILES IDX 20 89 25 90 19 91 21 92 23 93 22 94 24 95
REMARK H PARENT 3 5 84 23 52 34 7 75 15 84
REMARK Flexibility Score: inf
ROOT
ATOM      1  C   UNL A   1      32.384  32.068  26.869  1.00  0.00     0.118 C 
ENDROOT
BRANCH   1   2
ATOM      2  N   UNL A   1      32.224  33.460  27.263  1.00  0.00    -0.352 N 
ATOM      3  O   UNL A   1      32.592  35.337  28.449  1.00  0.00    -0.269 OA
ATOM      4  C   UNL A   1      32.965  34.209  28.141  1.00  0.00     0.251 C 
ATOM      5  H   UNL A   1      31.473  33.934  26.837  1.00  0.00     0.163 HD
BRANCH   4   6
ATOM      6  C   UNL A   1      34.183  33.634  28.745  1.00  0.00     0.039 A 
ATOM      7  C   UNL A   1      35.457  34.112  28.418  1.00  0.00     0.014 A 
ATOM      8  C   UNL A   1      34.035  32.578  29.644  1.00  0.00     0.014 A 
ATOM      9  C   UNL A   1      36.587  33.454  28.890  1.00  0.00     0.010 A 
ATOM     10  C   UNL A   1      35.167  31.996  30.206  1.00  0.00     0.010 A 
ATOM     11  C   UNL A   1      36.452  32.423  29.827  1.00  0.00    -0.014 A 
BRANCH  11  12
ATOM     12  C   UNL A   1      37.646  31.822  30.466  1.00  0.00     0.031 A 
ATOM     13  C   UNL A   1      38.438  30.777  29.751  1.00  0.00     0.074 A 
ATOM     14  C   UNL A   1      37.983  32.177  31.723  1.00  0.00     0.049 A 
ATOM     15  N   UNL A   1      39.434  30.064  30.201  1.00  0.00    -0.248 NA
ATOM     16  C   UNL A   1      38.054  30.487  28.363  1.00  0.00     0.031 C 
ATOM     17  C   UNL A   1      37.300  33.203  32.509  1.00  0.00     0.029 A 
ATOM     18  N   UNL A   1      38.966  31.713  32.564  1.00  0.00    -0.354 N 
ATOM     19  C   UNL A   1      39.796  29.228  29.158  1.00  0.00     0.074 A 
ATOM     20  C   UNL A   1      38.876  29.490  28.070  1.00  0.00     0.031 C 
ATOM     21  C   UNL A   1      37.895  33.307  33.705  1.00  0.00     0.029 A 
ATOM     22  C   UNL A   1      38.954  32.306  33.807  1.00  0.00     0.049 A 
ATOM     23  H   UNL A   1      39.617  31.022  32.303  1.00  0.00     0.167 HD
ATOM     24  C   UNL A   1      40.808  28.328  29.123  1.00  0.00     0.034 A 
ATOM     25  C   UNL A   1      39.671  32.057  34.923  1.00  0.00     0.034 A 
ATOM     26  C   UNL A   1      41.673  28.051  30.237  1.00  0.00     0.049 A 
ATOM     27  C   UNL A   1      40.694  30.957  34.909  1.00  0.00     0.074 A 
ATOM     28  C   UNL A   1      42.727  27.157  30.286  1.00  0.00     0.029 A 
ATOM     29  N   UNL A   1      41.565  28.613  31.503  1.00  0.00    -0.354 N 
ATOM     30  N   UNL A   1      41.017  30.165  33.915  1.00  0.00    -0.248 NA
ATOM     31  C   UNL A   1      41.441  30.703  36.150  1.00  0.00     0.031 C 
ATOM     32  C   UNL A   1      43.175  27.086  31.600  1.00  0.00     0.029 A 
ATOM     33  C   UNL A   1      42.498  28.035  32.348  1.00  0.00     0.049 A 
ATOM     34  H   UNL A   1      40.923  29.313  31.760  1.00  0.00     0.167 HD
ATOM     35  C   UNL A   1      42.032  29.348  34.396  1.00  0.00     0.074 A 
ATOM     36  C   UNL A   1      42.261  29.728  35.774  1.00  0.00     0.031 C 
ATOM     37  C   UNL A   1      42.724  28.394  33.729  1.00  0.00     0.034 A 
BRANCH  24  38
ATOM     38  C   UNL A   1      40.956  27.509  27.870  1.00  0.00     0.023 A 
ATOM     39  C   UNL A   1      40.523  26.176  27.801  1.00  0.00     0.031 A 
ATOM     40  C   UNL A   1      41.615  28.052  26.752  1.00  0.00     0.131 A 
ATOM     41  C   UNL A   1      40.896  25.390  26.706  1.00  0.00     0.055 A 
ATOM     42  C   UNL A   1      41.857  27.300  25.606  1.00  0.00     0.041 A 
ATOM     43  F   UNL A   1      42.061  29.319  26.764  1.00  0.00    -0.206 F 
ATOM     44  C   UNL A   1      41.527  25.950  25.592  1.00  0.00     0.022 A 
BRANCH  41  45
ATOM     45  S   UNL A   1      40.801  23.587  26.880  1.00  0.00     0.124 S 
ATOM     46  O   UNL A   1      41.120  23.414  28.296  1.00  0.00    -0.237 OA
ATOM     47  O   UNL A   1      39.424  23.302  26.497  1.00  0.00    -0.237 OA
ATOM     48  O   UNL A   1      41.824  23.101  25.956  1.00  0.00    -0.744 OA
ENDBRANCH  41  45
ENDBRANCH  24  38
BRANCH  25  49
ATOM     49  C   UNL A   1      39.373  32.817  36.171  1.00  0.00     0.023 A 
ATOM     50  C   UNL A   1      38.551  32.304  37.186  1.00  0.00     0.031 A 
ATOM     51  C   UNL A   1      39.920  34.103  36.346  1.00  0.00     0.131 A 
ATOM     52  C   UNL A   1      38.288  33.086  38.323  1.00  0.00     0.055 A 
ATOM     53  C   UNL A   1      39.730  34.832  37.517  1.00  0.00     0.041 A 
ATOM     54  F   UNL A   1      40.677  34.654  35.385  1.00  0.00    -0.206 F 
ATOM     55  C   UNL A   1      38.907  34.325  38.513  1.00  0.00     0.022 A 
BRANCH  52  56
ATOM     56  S   UNL A   1      37.002  32.551  39.490  1.00  0.00     0.124 S 
ATOM     57  O   UNL A   1      35.797  32.702  38.683  1.00  0.00    -0.237 OA
ATOM     58  O   UNL A   1      37.407  31.183  39.793  1.00  0.00    -0.237 OA
ATOM     59  O   UNL A   1      37.134  33.498  40.595  1.00  0.00    -0.744 OA
ENDBRANCH  52  56
ENDBRANCH  25  49
BRANCH  37  60
ATOM     60  C   UNL A   1      43.885  27.728  34.420  1.00  0.00     0.023 A 
ATOM     61  C   UNL A   1      43.805  26.455  35.007  1.00  0.00     0.031 A 
ATOM     62  C   UNL A   1      45.134  28.380  34.410  1.00  0.00     0.131 A 
ATOM     63  C   UNL A   1      44.951  25.900  35.597  1.00  0.00     0.055 A 
ATOM     64  C   UNL A   1      46.286  27.776  34.900  1.00  0.00     0.041 A 
ATOM     65  F   UNL A   1      45.259  29.607  33.878  1.00  0.00    -0.206 F 
ATOM     66  C   UNL A   1      46.197  26.530  35.507  1.00  0.00     0.022 A 
BRANCH  63  67
ATOM     67  S   UNL A   1      44.777  24.422  36.634  1.00  0.00     0.124 S 
ATOM     68  O   UNL A   1      43.809  23.639  35.873  1.00  0.00    -0.237 OA
ATOM     69  O   UNL A   1      46.137  23.896  36.675  1.00  0.00    -0.237 OA
ATOM     70  O   UNL A   1      44.280  24.954  37.903  1.00  0.00    -0.744 OA
ENDBRANCH  63  67
ENDBRANCH  37  60
ENDBRANCH  11  12
ENDBRANCH   4   6
ENDBRANCH   1   2
BRANCH   1  71
ATOM     71  C   UNL A   1      31.171  31.517  26.141  1.00  0.00     0.042 C 
BRANCH  71  72
ATOM     72  C   UNL A   1      31.427  30.219  25.395  1.00  0.00     0.118 C 
BRANCH  72  73
ATOM     73  N   UNL A   1      30.647  30.086  24.188  1.00  0.00    -0.352 N 
ATOM     74  C   UNL A   1      30.632  29.057  23.283  1.00  0.00     0.251 C 
ATOM     75  H   UNL A   1      30.045  30.838  23.986  1.00  0.00     0.163 HD
ATOM     76  O   UNL A   1      29.982  29.230  22.250  1.00  0.00    -0.269 OA
BRANCH  74  77
ATOM     77  C   UNL A   1      31.513  27.837  23.440  1.00  0.00     0.041 A 
ATOM     78  C   UNL A   1      32.657  27.942  22.649  1.00  0.00     0.014 A 
ATOM     79  C   UNL A   1      31.324  26.635  24.233  1.00  0.00     0.039 A 
ATOM     80  C   UNL A   1      33.701  27.075  22.881  1.00  0.00     0.003 A 
ATOM     81  C   UNL A   1      32.405  25.698  24.402  1.00  0.00     0.039 A 
ATOM     82  C   UNL A   1      33.631  26.151  23.926  1.00  0.00     0.026 A 
BRANCH  81  83
ATOM     83  N   UNL A   1      32.364  24.227  24.865  1.00  0.00    -0.355 N 
ATOM     84  H   UNL A   1      31.575  23.701  24.599  1.00  0.00     0.167 HD
BRANCH  83  85
ATOM     85  C   UNL A   1      33.547  23.420  25.789  1.00  0.00     0.050 A 
ATOM     86  C   UNL A   1      33.007  22.780  26.824  1.00  0.00     0.047 A 
ATOM     87  C   UNL A   1      34.680  22.470  25.224  1.00  0.00     0.027 A 
ATOM     88  C   UNL A   1      32.503  21.871  25.945  1.00  0.00     0.114 A 
ATOM     89  C   UNL A   1      34.326  22.242  24.052  1.00  0.00     0.072 A 
ATOM     90  C   UNL A   1      35.634  21.269  25.367  1.00  0.00     0.051 A 
ATOM     91  N   UNL A   1      33.116  21.514  24.556  1.00  0.00    -0.256 NA
ATOM     92  C   UNL A   1      35.561  23.010  23.554  1.00  0.00     0.032 A 
ATOM     93  C   UNL A   1      36.813  21.367  24.638  1.00  0.00     0.124 A 
ATOM     94  C   UNL A   1      36.852  22.479  23.844  1.00  0.00     0.041 A 
ATOM     95  F   UNL A   1      37.786  20.447  24.646  1.00  0.00    -0.207 F 
ENDBRANCH  83  85
ENDBRANCH  81  83
ENDBRANCH  74  77
ENDBRANCH  72  73
ENDBRANCH  71  72
ENDBRANCH   1  71
TORSDOF 15
ENDMDL
MODEL 2
REMARK VINA RESULT:     -13.3      5.668     11.269
REMARK SMILES O=C(NCCCNC(=O)c1cccc(Nc2ccnc3ccc(F)cc23)c1)c1ccc(-c2c3nc(c(-c4cc(S(=O)(=O)[O-])ccc4F)c4ccc([nH]4)c(-c4cc(S(=O)(=O)[O-])ccc4F)c4nc(c(-c5cc(S(=O)(=O)[O-])ccc5F)c5ccc2[nH]5)C=C4)C=C3)cc1
REMARK SMILES IDX 4 1 3 2 1 3 2 4 28 6 29 7 90 8 30 9 89 10 31 11 32 12 33 13
REMARK SMILES IDX 83 14 34 15 88 16 82 17 84 18 35 19 87 20 81 21 80 22 36 24
REMARK SMILES IDX 68 25 48 26 67 27 49 28 52 29 66 30 85 31 50 32 51 33 65 35
REMARK SMILES IDX 86 36 53 37 37 38 38 39 46 40 39 41 45 42 47 43 44 44 40 45
REMARK SMILES IDX 41 46 42 47 43 48 69 49 70 50 78 51 71 52 77 53 79 54 76 55
REMARK SMILES IDX 72 56 73 57 74 58 75 59 54 60 55 61 63 62 56 63 62 64 64 65
REMARK SMILES IDX 61 66 57 67 58 68 59 69 60 70 5 71 6 72 7 73 8 74 9 76 10 77
REMARK SMILES IDX 11 78 27 79 12 80 14 81 13 82 15 83 16 85 17 86 26 87 18 88
REMARK SMILES IDX 20 89 25 90 19 91 21 92 23 93 22 94 24 95
REMARK H PARENT 3 5 84 23 52 34 7 75 15 84
REMARK Flexibility Score: inf
ROOT
ATOM      1  C   UNL A   1      38.899  20.188  25.807  1.00  0.00     0.118 C 
ENDROOT
BRANCH   1   2
ATOM      2  N   UNL A   1      40.025  19.267  25.823  1.00  0.00    -0.352 N 
ATOM      3  O   UNL A   1      42.180  18.625  25.900  1.00  0.00    -0.269 OA
ATOM      4  C   UNL A   1      41.352  19.516  26.065  1.00  0.00     0.251 C 
ATOM      5  H   UNL A   1      39.802  18.327  25.633  1.00  0.00     0.163 HD
BRANCH   4   6
ATOM      6  C   UNL A   1      41.779  20.867  26.478  1.00  0.00     0.039 A 
ATOM      7  C   UNL A   1      42.015  21.180  27.821  1.00  0.00     0.014 A 
ATOM      8  C   UNL A   1      41.925  21.840  25.489  1.00  0.00     0.014 A 
ATOM      9  C   UNL A   1      42.273  22.496  28.191  1.00  0.00     0.010 A 
ATOM     10  C   UNL A   1      42.297  23.131  25.852  1.00  0.00     0.010 A 
ATOM     11  C   UNL A   1      42.465  23.471  27.206  1.00  0.00    -0.014 A 
BRANCH  11  12
ATOM     12  C   UNL A   1      42.903  24.839  27.572  1.00  0.00     0.031 A 
ATOM     13  C   UNL A   1      41.950  25.785  28.226  1.00  0.00     0.074 A 
ATOM     14  C   UNL A   1      44.148  25.250  27.258  1.00  0.00     0.049 A 
ATOM     15  N   UNL A   1      42.125  27.047  28.508  1.00  0.00    -0.248 NA
ATOM     16  C   UNL A   1      40.632  25.251  28.597  1.00  0.00     0.031 C 
ATOM     17  C   UNL A   1      45.172  24.407  26.643  1.00  0.00     0.029 A 
ATOM     18  N   UNL A   1      44.762  26.472  27.398  1.00  0.00    -0.354 N 
ATOM     19  C   UNL A   1      40.936  27.470  29.080  1.00  0.00     0.074 A 
ATOM     20  C   UNL A   1      40.033  26.338  29.059  1.00  0.00     0.031 C 
ATOM     21  C   UNL A   1      46.290  25.126  26.477  1.00  0.00     0.029 A 
ATOM     22  C   UNL A   1      46.047  26.502  26.903  1.00  0.00     0.049 A 
ATOM     23  H   UNL A   1      44.326  27.250  27.812  1.00  0.00     0.167 HD
ATOM     24  C   UNL A   1      40.640  28.695  29.577  1.00  0.00     0.034 A 
ATOM     25  C   UNL A   1      46.925  27.518  26.758  1.00  0.00     0.034 A 
ATOM     26  C   UNL A   1      41.540  29.815  29.539  1.00  0.00     0.049 A 
ATOM     27  C   UNL A   1      46.526  28.901  27.186  1.00  0.00     0.074 A 
ATOM     28  C   UNL A   1      41.320  31.091  30.025  1.00  0.00     0.029 A 
ATOM     29  N   UNL A   1      42.797  29.822  28.947  1.00  0.00    -0.354 N 
ATOM     30  N   UNL A   1      45.390  29.288  27.717  1.00  0.00    -0.248 NA
ATOM     31  C   UNL A   1      47.502  29.984  26.995  1.00  0.00     0.031 C 
ATOM     32  C   UNL A   1      42.381  31.896  29.623  1.00  0.00     0.029 A 
ATOM     33  C   UNL A   1      43.332  31.098  29.008  1.00  0.00     0.049 A 
ATOM     34  H   UNL A   1      43.239  29.040  28.546  1.00  0.00     0.167 HD
ATOM     35  C   UNL A   1      45.531  30.648  27.961  1.00  0.00     0.074 A 
ATOM     36  C   UNL A   1      46.853  31.023  27.506  1.00  0.00     0.031 C 
ATOM     37  C   UNL A   1      44.642  31.489  28.542  1.00  0.00     0.034 A 
BRANCH  24  38
ATOM     38  C   UNL A   1      39.248  28.902  30.108  1.00  0.00     0.023 A 
ATOM     39  C   UNL A   1      38.223  29.430  29.309  1.00  0.00     0.031 A 
ATOM     40  C   UNL A   1      38.967  28.638  31.460  1.00  0.00     0.131 A 
ATOM     41  C   UNL A   1      37.022  29.825  29.908  1.00  0.00     0.055 A 
ATOM     42  C   UNL A   1      37.718  28.903  32.016  1.00  0.00     0.041 A 
ATOM     43  F   UNL A   1      39.911  28.141  32.276  1.00  0.00    -0.206 F 
ATOM     44  C   UNL A   1      36.747  29.533  31.247  1.00  0.00     0.022 A 
BRANCH  41  45
ATOM     45  S   UNL A   1      35.950  30.970  28.995  1.00  0.00     0.124 S 
ATOM     46  O   UNL A   1      35.143  30.043  28.203  1.00  0.00    -0.237 OA
ATOM     47  O   UNL A   1      35.250  31.672  30.063  1.00  0.00    -0.237 OA
ATOM     48  O   UNL A   1      36.894  31.777  28.223  1.00  0.00    -0.744 OA
ENDBRANCH  41  45
ENDBRANCH  24  38
BRANCH  25  49
ATOM     49  C   UNL A   1      48.237  27.264  26.096  1.00  0.00     0.023 A 
ATOM     50  C   UNL A   1      48.449  27.505  24.730  1.00  0.00     0.031 A 
ATOM     51  C   UNL A   1      49.308  26.753  26.854  1.00  0.00     0.131 A 
ATOM     52  C   UNL A   1      49.703  27.216  24.165  1.00  0.00     0.055 A 
ATOM     53  C   UNL A   1      50.573  26.557  26.306  1.00  0.00     0.041 A 
ATOM     54  F   UNL A   1      49.142  26.466  28.155  1.00  0.00    -0.206 F 
ATOM     55  C   UNL A   1      50.775  26.786  24.952  1.00  0.00     0.022 A 
BRANCH  52  56
ATOM     56  S   UNL A   1      49.889  27.248  22.358  1.00  0.00     0.124 S 
ATOM     57  O   UNL A   1      51.259  26.775  22.199  1.00  0.00    -0.237 OA
ATOM     58  O   UNL A   1      48.837  26.337  21.920  1.00  0.00    -0.237 OA
ATOM     59  O   UNL A   1      49.673  28.654  22.021  1.00  0.00    -0.744 OA
ENDBRANCH  52  56
ENDBRANCH  25  49
BRANCH  37  60
ATOM     60  C   UNL A   1      45.069  32.903  28.833  1.00  0.00     0.023 A 
ATOM     61  C   UNL A   1      44.886  33.964  27.933  1.00  0.00     0.031 A 
ATOM     62  C   UNL A   1      45.611  33.191  30.102  1.00  0.00     0.131 A 
ATOM     63  C   UNL A   1      45.284  35.256  28.307  1.00  0.00     0.055 A 
ATOM     64  C   UNL A   1      45.901  34.490  30.503  1.00  0.00     0.041 A 
ATOM     65  F   UNL A   1      45.825  32.208  30.992  1.00  0.00    -0.206 F 
ATOM     66  C   UNL A   1      45.746  35.533  29.598  1.00  0.00     0.022 A 
BRANCH  63  67
ATOM     67  S   UNL A   1      45.356  36.555  27.043  1.00  0.00     0.124 S 
ATOM     68  O   UNL A   1      45.977  35.847  25.927  1.00  0.00    -0.237 OA
ATOM     69  O   UNL A   1      43.953  36.914  26.871  1.00  0.00    -0.237 OA
ATOM     70  O   UNL A   1      46.189  37.586  27.660  1.00  0.00    -0.744 OA
ENDBRANCH  63  67
ENDBRANCH  37  60
ENDBRANCH  11  12
ENDBRANCH   4   6
ENDBRANCH   1   2
BRANCH   1  71
ATOM     71  C   UNL A   1      37.794  19.756  24.859  1.00  0.00     0.042 C 
BRANCH  71  72
ATOM     72  C   UNL A   1      36.497  20.530  25.016  1.00  0.00     0.118 C 
BRANCH  72  73
ATOM     73  N   UNL A   1      35.320  19.697  24.952  1.00  0.00    -0.352 N 
ATOM     74  C   UNL A   1      34.002  20.064  25.048  1.00  0.00     0.251 C 
ATOM     75  H   UNL A   1      35.485  18.736  24.822  1.00  0.00     0.163 HD
ATOM     76  O   UNL A   1      33.172  19.154  25.102  1.00  0.00    -0.269 OA
BRANCH  74  77
ATOM     77  C   UNL A   1      33.582  21.500  25.266  1.00  0.00     0.041 A 
ATOM     78  C   UNL A   1      33.302  21.740  26.610  1.00  0.00     0.014 A 
ATOM     79  C   UNL A   1      33.414  22.587  24.315  1.00  0.00     0.039 A 
ATOM     80  C   UNL A   1      33.189  23.044  27.038  1.00  0.00     0.003 A 
ATOM     81  C   UNL A   1      33.220  23.935  24.781  1.00  0.00     0.039 A 
ATOM     82  C   UNL A   1      33.410  24.099  26.149  1.00  0.00     0.026 A 
BRANCH  81  83
ATOM     83  N   UNL A   1      32.672  25.164  24.025  1.00  0.00    -0.355 N 
ATOM     84  H   UNL A   1      31.947  24.999  23.379  1.00  0.00     0.167 HD
BRANCH  83  85
ATOM     85  C   UNL A   1      33.192  26.777  24.197  1.00  0.00     0.050 A 
ATOM     86  C   UNL A   1      33.519  27.314  23.023  1.00  0.00     0.047 A 
ATOM     87  C   UNL A   1      32.447  27.913  25.010  1.00  0.00     0.027 A 
ATOM     88  C   UNL A   1      32.193  27.356  22.721  1.00  0.00     0.114 A 
ATOM     89  C   UNL A   1      31.316  27.439  25.225  1.00  0.00     0.072 A 
ATOM     90  C   UNL A   1      32.076  29.390  25.241  1.00  0.00     0.051 A 
ATOM     91  N   UNL A   1      31.028  27.454  23.754  1.00  0.00    -0.256 NA
ATOM     92  C   UNL A   1      31.638  27.410  26.728  1.00  0.00     0.032 A 
ATOM     93  C   UNL A   1      31.817  29.730  26.563  1.00  0.00     0.124 A 
ATOM     94  C   UNL A   1      31.843  28.650  27.401  1.00  0.00     0.041 A 
ATOM     95  F   UNL A   1      31.506  30.964  26.980  1.00  0.00    -0.207 F 
ENDBRANCH  83  85
ENDBRANCH  81  83
ENDBRANCH  74  77
ENDBRANCH  72  73
ENDBRANCH  71  72
ENDBRANCH   1  71
TORSDOF 15
ENDMDL
MODEL 3
REMARK VINA RESULT:     -13.3      1.785      2.048
REMARK SMILES O=C(NCCCNC(=O)c1cccc(Nc2ccnc3ccc(F)cc23)c1)c1ccc(-c2c3nc(c(-c4cc(S(=O)(=O)[O-])ccc4F)c4ccc([nH]4)c(-c4cc(S(=O)(=O)[O-])ccc4F)c4nc(c(-c5cc(S(=O)(=O)[O-])ccc5F)c5ccc2[nH]5)C=C4)C=C3)cc1
REMARK SMILES IDX 4 1 3 2 1 3 2 4 28 6 29 7 90 8 30 9 89 10 31 11 32 12 33 13
REMARK SMILES IDX 83 14 34 15 88 16 82 17 84 18 35 19 87 20 81 21 80 22 36 24
REMARK SMILES IDX 68 25 48 26 67 27 49 28 52 29 66 30 85 31 50 32 51 33 65 35
REMARK SMILES IDX 86 36 53 37 37 38 38 39 46 40 39 41 45 42 47 43 44 44 40 45
REMARK SMILES IDX 41 46 42 47 43 48 69 49 70 50 78 51 71 52 77 53 79 54 76 55
REMARK SMILES IDX 72 56 73 57 74 58 75 59 54 60 55 61 63 62 56 63 62 64 64 65
REMARK SMILES IDX 61 66 57 67 58 68 59 69 60 70 5 71 6 72 7 73 8 74 9 76 10 77
REMARK SMILES IDX 11 78 27 79 12 80 14 81 13 82 15 83 16 85 17 86 26 87 18 88
REMARK SMILES IDX 20 89 25 90 19 91 21 92 23 93 22 94 24 95
REMARK H PARENT 3 5 84 23 52 34 7 75 15 84
REMARK Flexibility Score: inf
ROOT
ATOM      1  C   UNL A   1      32.862  32.599  26.950  1.00  0.00     0.118 C 
ENDROOT
BRANCH   1   2
ATOM      2  N   UNL A   1      32.563  33.855  27.622  1.00  0.00    -0.352 N 
ATOM      3  O   UNL A   1      32.707  35.445  29.207  1.00  0.00    -0.269 OA
ATOM      4  C   UNL A   1      33.191  34.443  28.690  1.00  0.00     0.251 C 
ATOM      5  H   UNL A   1      31.798  34.356  27.257  1.00  0.00     0.163 HD
BRANCH   4   6
ATOM      6  C   UNL A   1      34.420  33.838  29.240  1.00  0.00     0.039 A 
ATOM      7  C   UNL A   1      35.689  34.300  28.873  1.00  0.00     0.014 A 
ATOM      8  C   UNL A   1      34.287  32.771  30.128  1.00  0.00     0.014 A 
ATOM      9  C   UNL A   1      36.824  33.616  29.293  1.00  0.00     0.010 A 
ATOM     10  C   UNL A   1      35.429  32.162  30.638  1.00  0.00     0.010 A 
ATOM     11  C   UNL A   1      36.706  32.573  30.219  1.00  0.00    -0.014 A 
BRANCH  11  12
ATOM     12  C   UNL A   1      37.912  31.942  30.804  1.00  0.00     0.031 A 
ATOM     13  C   UNL A   1      38.651  30.886  30.049  1.00  0.00     0.074 A 
ATOM     14  C   UNL A   1      38.308  32.280  32.048  1.00  0.00     0.049 A 
ATOM     15  N   UNL A   1      39.650  30.149  30.453  1.00  0.00    -0.248 NA
ATOM     16  C   UNL A   1      38.205  30.615  28.676  1.00  0.00     0.031 C 
ATOM     17  C   UNL A   1      37.680  33.314  32.868  1.00  0.00     0.029 A 
ATOM     18  N   UNL A   1      39.315  31.788  32.844  1.00  0.00    -0.354 N 
ATOM     19  C   UNL A   1      39.950  29.313  29.390  1.00  0.00     0.074 A 
ATOM     20  C   UNL A   1      38.993  29.603  28.342  1.00  0.00     0.031 C 
ATOM     21  C   UNL A   1      38.326  33.396  34.040  1.00  0.00     0.029 A 
ATOM     22  C   UNL A   1      39.367  32.373  34.091  1.00  0.00     0.049 A 
ATOM     23  H   UNL A   1      39.940  31.087  32.552  1.00  0.00     0.167 HD
ATOM     24  C   UNL A   1      40.941  28.392  29.307  1.00  0.00     0.034 A 
ATOM     25  C   UNL A   1      40.123  32.100  35.175  1.00  0.00     0.034 A 
ATOM     26  C   UNL A   1      41.846  28.089  30.383  1.00  0.00     0.049 A 
ATOM     27  C   UNL A   1      41.121  30.979  35.111  1.00  0.00     0.074 A 
ATOM     28  C   UNL A   1      42.881  27.173  30.382  1.00  0.00     0.029 A 
ATOM     29  N   UNL A   1      41.801  28.643  31.656  1.00  0.00    -0.354 N 
ATOM     30  N   UNL A   1      41.386  30.187  34.099  1.00  0.00    -0.248 NA
ATOM     31  C   UNL A   1      41.913  30.699  36.318  1.00  0.00     0.031 C 
ATOM     32  C   UNL A   1      43.381  27.082  31.676  1.00  0.00     0.029 A 
ATOM     33  C   UNL A   1      42.756  28.039  32.458  1.00  0.00     0.049 A 
ATOM     34  H   UNL A   1      41.186  29.355  31.944  1.00  0.00     0.167 HD
ATOM     35  C   UNL A   1      42.403  29.346  34.532  1.00  0.00     0.074 A 
ATOM     36  C   UNL A   1      42.696  29.711  35.902  1.00  0.00     0.031 C 
ATOM     37  C   UNL A   1      43.046  28.382  33.831  1.00  0.00     0.034 A 
BRANCH  24  38
ATOM     38  C   UNL A   1      41.020  27.580  28.043  1.00  0.00     0.023 A 
ATOM     39  C   UNL A   1      40.588  26.247  27.993  1.00  0.00     0.031 A 
ATOM     40  C   UNL A   1      41.613  28.131  26.893  1.00  0.00     0.131 A 
ATOM     41  C   UNL A   1      40.900  25.467  26.874  1.00  0.00     0.055 A 
ATOM     42  C   UNL A   1      41.791  27.385  25.731  1.00  0.00     0.041 A 
ATOM     43  F   UNL A   1      42.055  29.399  26.886  1.00  0.00    -0.206 F 
ATOM     44  C   UNL A   1      41.465  26.034  25.728  1.00  0.00     0.022 A 
BRANCH  41  45
ATOM     45  S   UNL A   1      40.820  23.663  27.044  1.00  0.00     0.124 S 
ATOM     46  O   UNL A   1      41.405  23.469  28.370  1.00  0.00    -0.237 OA
ATOM     47  O   UNL A   1      39.392  23.395  26.931  1.00  0.00    -0.237 OA
ATOM     48  O   UNL A   1      41.640  23.180  25.934  1.00  0.00    -0.744 OA
ENDBRANCH  41  45
ENDBRANCH  24  38
BRANCH  25  49
ATOM     49  C   UNL A   1      39.894  32.856  36.439  1.00  0.00     0.023 A 
ATOM     50  C   UNL A   1      40.706  33.932  36.830  1.00  0.00     0.031 A 
ATOM     51  C   UNL A   1      38.834  32.483  37.287  1.00  0.00     0.131 A 
ATOM     52  C   UNL A   1      40.451  34.583  38.049  1.00  0.00     0.055 A 
ATOM     53  C   UNL A   1      38.531  33.192  38.446  1.00  0.00     0.041 A 
ATOM     54  F   UNL A   1      38.055  31.434  36.978  1.00  0.00    -0.206 F 
ATOM     55  C   UNL A   1      39.345  34.248  38.835  1.00  0.00     0.022 A 
BRANCH  52  56
ATOM     56  S   UNL A   1      41.667  35.770  38.692  1.00  0.00     0.124 S 
ATOM     57  O   UNL A   1      41.069  36.133  39.970  1.00  0.00    -0.237 OA
ATOM     58  O   UNL A   1      42.883  34.967  38.754  1.00  0.00    -0.237 OA
ATOM     59  O   UNL A   1      41.671  36.828  37.684  1.00  0.00    -0.744 OA
ENDBRANCH  52  56
ENDBRANCH  25  49
BRANCH  37  60
ATOM     60  C   UNL A   1      44.220  27.687  34.468  1.00  0.00     0.023 A 
ATOM     61  C   UNL A   1      44.104  26.494  35.199  1.00  0.00     0.031 A 
ATOM     62  C   UNL A   1      45.508  28.217  34.257  1.00  0.00     0.131 A 
ATOM     63  C   UNL A   1      45.261  25.899  35.726  1.00  0.00     0.055 A 
ATOM     64  C   UNL A   1      46.656  27.563  34.691  1.00  0.00     0.041 A 
ATOM     65  F   UNL A   1      45.671  29.367  33.582  1.00  0.00    -0.206 F 
ATOM     66  C   UNL A   1      46.535  26.399  35.438  1.00  0.00     0.022 A 
BRANCH  63  67
ATOM     67  S   UNL A   1      45.086  24.558  36.935  1.00  0.00     0.124 S 
ATOM     68  O   UNL A   1      44.064  25.095  37.827  1.00  0.00    -0.237 OA
ATOM     69  O   UNL A   1      44.682  23.428  36.105  1.00  0.00    -0.237 OA
ATOM     70  O   UNL A   1      46.423  24.451  37.520  1.00  0.00    -0.744 OA
ENDBRANCH  63  67
ENDBRANCH  37  60
ENDBRANCH  11  12
ENDBRANCH   4   6
ENDBRANCH   1   2
BRANCH   1  71
ATOM     71  C   UNL A   1      31.663  31.671  26.869  1.00  0.00     0.042 C 
BRANCH  71  72
ATOM     72  C   UNL A   1      31.996  30.202  27.058  1.00  0.00     0.118 C 
BRANCH  72  73
ATOM     73  N   UNL A   1      33.364  29.967  27.451  1.00  0.00    -0.352 N 
ATOM     74  C   UNL A   1      34.230  29.000  27.013  1.00  0.00     0.251 C 
ATOM     75  H   UNL A   1      33.724  30.586  28.126  1.00  0.00     0.163 HD
ATOM     76  O   UNL A   1      35.313  28.912  27.598  1.00  0.00    -0.269 OA
BRANCH  74  77
ATOM     77  C   UNL A   1      33.825  27.961  25.991  1.00  0.00     0.041 A 
ATOM     78  C   UNL A   1      33.895  28.478  24.698  1.00  0.00     0.014 A 
ATOM     79  C   UNL A   1      33.373  26.591  26.169  1.00  0.00     0.039 A 
ATOM     80  C   UNL A   1      33.846  27.605  23.634  1.00  0.00     0.003 A 
ATOM     81  C   UNL A   1      33.254  25.713  25.034  1.00  0.00     0.039 A 
ATOM     82  C   UNL A   1      33.787  26.227  23.856  1.00  0.00     0.026 A 
BRANCH  81  83
ATOM     83  N   UNL A   1      32.480  24.385  24.900  1.00  0.00    -0.355 N 
ATOM     84  H   UNL A   1      31.655  24.405  24.362  1.00  0.00     0.167 HD
BRANCH  83  85
ATOM     85  C   UNL A   1      32.910  22.885  25.585  1.00  0.00     0.050 A 
ATOM     86  C   UNL A   1      31.854  22.084  25.710  1.00  0.00     0.047 A 
ATOM     87  C   UNL A   1      34.113  21.964  25.127  1.00  0.00     0.027 A 
ATOM     88  C   UNL A   1      31.871  21.921  24.359  1.00  0.00     0.114 A 
ATOM     89  C   UNL A   1      34.453  22.436  24.026  1.00  0.00     0.072 A 
ATOM     90  C   UNL A   1      34.763  20.579  24.943  1.00  0.00     0.051 A 
ATOM     91  N   UNL A   1      33.129  22.043  23.445  1.00  0.00    -0.256 NA
ATOM     92  C   UNL A   1      35.798  22.851  24.646  1.00  0.00     0.032 A 
ATOM     93  C   UNL A   1      36.150  20.572  24.992  1.00  0.00     0.124 A 
ATOM     94  C   UNL A   1      36.682  21.827  25.093  1.00  0.00     0.041 A 
ATOM     95  F   UNL A   1      36.906  19.471  24.884  1.00  0.00    -0.207 F 
ENDBRANCH  83  85
ENDBRANCH  81  83
ENDBRANCH  74  77
ENDBRANCH  72  73
ENDBRANCH  71  72
ENDBRANCH   1  71
TORSDOF 15
ENDMDL
