MODEL 1
REMARK VINA RESULT:     -11.6      0.000      0.000
REMARK SMILES CCC[NH2+]CC(=O)N1[C@@H](C(=O)NCCCNC(=O)c2ccc(-c3c4nc(c(-c5cc(S(=O)(=O)[O-])ccc5F)c5ccc([nH]5)c(-c5cc(S(=O)(=O)[O-])ccc5F)c5nc(c(-c6cc(S(=O)(=O)[O-])ccc6F)c6ccc3[nH]6)C=C5)C=C4)cc2)CC[C@@H]2CCCC[C@@H]21
REMARK SMILES IDX 13 1 12 2 10 3 11 4 9 6 8 7 89 8 82 9 84 10 88 11 83 12
REMARK SMILES IDX 85 13 87 14 86 15 6 16 7 17 5 18 4 19 3 22 2 23 1 24 14 25
REMARK SMILES IDX 15 26 16 27 17 28 18 30 19 31 20 32 81 33 21 34 80 35 22 36
REMARK SMILES IDX 23 37 24 38 74 39 25 40 79 41 73 42 75 43 26 44 78 45 72 46
REMARK SMILES IDX 71 47 27 49 59 50 39 51 58 52 40 53 43 54 57 55 76 56 41 57
REMARK SMILES IDX 42 58 56 60 77 61 44 62 28 63 29 64 37 65 30 66 36 67 38 68
REMARK SMILES IDX 35 69 31 70 32 71 33 72 34 73 60 74 61 75 69 76 62 77 68 78
REMARK SMILES IDX 70 79 67 80 63 81 64 82 65 83 66 84 45 85 46 86 54 87 47 88
REMARK SMILES IDX 53 89 55 90 52 91 48 92 49 93 50 94 51 95
REMARK H PARENT 12 5 4 20 4 21 16 29 75 48 43 59
REMARK Flexibility Score: inf
ROOT
ATOM      1  C   UNL A   1      32.366  26.888  25.973  1.00  0.00     0.117 C 
ENDROOT
BRANCH   1   2
ATOM      2  N   UNL A   1      31.795  25.841  26.807  1.00  0.00    -0.354 N 
ATOM      3  C   UNL A   1      31.948  24.495  26.727  1.00  0.00     0.242 C 
ATOM      4  O   UNL A   1      31.019  23.776  27.104  1.00  0.00    -0.273 OA
ATOM      5  H   UNL A   1      31.212  26.156  27.534  1.00  0.00     0.163 HD
BRANCH   3   6
ATOM      6  C   UNL A   1      33.167  23.869  26.068  1.00  0.00     0.175 C 
ATOM      7  N   UNL A   1      33.011  23.244  24.737  1.00  0.00    -0.323 N 
ATOM      8  C   UNL A   1      34.103  22.331  24.321  1.00  0.00     0.089 C 
ATOM      9  C   UNL A   1      33.580  22.842  27.149  1.00  0.00     0.036 C 
ATOM     10  C   UNL A   1      34.481  21.317  25.406  1.00  0.00     0.012 C 
ATOM     11  C   UNL A   1      35.311  23.134  23.774  1.00  0.00     0.025 C 
ATOM     12  C   UNL A   1      34.757  21.990  26.749  1.00  0.00     0.008 C 
ATOM     13  C   UNL A   1      35.677  20.493  24.936  1.00  0.00     0.006 C 
ATOM     14  C   UNL A   1      36.724  22.724  24.208  1.00  0.00     0.002 C 
ATOM     15  C   UNL A   1      36.935  21.337  24.812  1.00  0.00     0.000 C 
BRANCH   7  16
ATOM     16  C   UNL A   1      32.154  23.662  23.712  1.00  0.00     0.278 C 
ATOM     17  O   UNL A   1      31.158  22.972  23.451  1.00  0.00    -0.268 OA
BRANCH  16  18
ATOM     18  C   UNL A   1      32.509  24.823  22.755  1.00  0.00     0.362 C 
BRANCH  18  19
ATOM     19  N   UNL A   1      31.409  25.507  22.052  1.00  0.00    -0.338 N 
ATOM     20  H   UNL A   1      31.513  25.358  21.048  1.00  0.00     0.346 HD
ATOM     21  H   UNL A   1      30.527  25.122  22.385  1.00  0.00     0.346 HD
BRANCH  19  22
ATOM     22  C   UNL A   1      31.416  26.944  22.323  1.00  0.00     0.260 C 
BRANCH  22  23
ATOM     23  C   UNL A   1      30.122  27.583  22.862  1.00  0.00     0.058 C 
ATOM     24  C   UNL A   1      29.246  26.802  23.831  1.00  0.00     0.010 C 
ENDBRANCH  22  23
ENDBRANCH  19  22
ENDBRANCH  18  19
ENDBRANCH  16  18
ENDBRANCH   7  16
ENDBRANCH   3   6
ENDBRANCH   1   2
BRANCH   1  25
ATOM     25  C   UNL A   1      33.209  27.804  26.844  1.00  0.00     0.042 C 
BRANCH  25  26
ATOM     26  C   UNL A   1      34.004  28.818  26.035  1.00  0.00     0.118 C 
BRANCH  26  27
ATOM     27  N   UNL A   1      33.716  30.187  26.428  1.00  0.00    -0.352 N 
ATOM     28  C   UNL A   1      34.344  30.935  27.395  1.00  0.00     0.251 C 
ATOM     29  H   UNL A   1      32.983  30.633  25.944  1.00  0.00     0.163 HD
ATOM     30  O   UNL A   1      33.857  31.985  27.780  1.00  0.00    -0.269 OA
BRANCH  28  31
ATOM     31  C   UNL A   1      35.603  30.417  27.968  1.00  0.00     0.039 A 
ATOM     32  C   UNL A   1      35.551  29.648  29.130  1.00  0.00     0.014 A 
ATOM     33  C   UNL A   1      36.821  30.659  27.325  1.00  0.00     0.014 A 
ATOM     34  C   UNL A   1      36.728  29.098  29.633  1.00  0.00     0.010 A 
ATOM     35  C   UNL A   1      37.972  30.019  27.767  1.00  0.00     0.010 A 
ATOM     36  C   UNL A   1      37.944  29.264  28.947  1.00  0.00    -0.014 A 
BRANCH  36  37
ATOM     37  C   UNL A   1      39.208  28.715  29.498  1.00  0.00     0.031 A 
ATOM     38  C   UNL A   1      39.770  29.286  30.773  1.00  0.00     0.074 A 
ATOM     39  C   UNL A   1      39.849  27.723  28.852  1.00  0.00     0.049 A 
ATOM     40  N   UNL A   1      40.858  28.956  31.420  1.00  0.00    -0.248 NA
ATOM     41  C   UNL A   1      39.028  30.400  31.385  1.00  0.00     0.031 C 
ATOM     42  C   UNL A   1      39.422  27.124  27.584  1.00  0.00     0.029 A 
ATOM     43  N   UNL A   1      40.992  27.036  29.173  1.00  0.00    -0.354 N 
ATOM     44  C   UNL A   1      40.933  29.827  32.503  1.00  0.00     0.074 A 
ATOM     45  C   UNL A   1      39.831  30.753  32.375  1.00  0.00     0.031 C 
ATOM     46  C   UNL A   1      40.266  26.130  27.261  1.00  0.00     0.029 A 
ATOM     47  C   UNL A   1      41.316  26.048  28.272  1.00  0.00     0.049 A 
ATOM     48  H   UNL A   1      41.529  27.231  29.974  1.00  0.00     0.167 HD
ATOM     49  C   UNL A   1      41.818  29.831  33.530  1.00  0.00     0.034 A 
ATOM     50  C   UNL A   1      42.342  25.175  28.265  1.00  0.00     0.034 A 
ATOM     51  C   UNL A   1      42.903  28.890  33.647  1.00  0.00     0.049 A 
ATOM     52  C   UNL A   1      43.322  25.207  29.413  1.00  0.00     0.074 A 
ATOM     53  C   UNL A   1      43.839  28.772  34.659  1.00  0.00     0.029 A 
ATOM     54  N   UNL A   1      43.202  27.903  32.714  1.00  0.00    -0.354 N 
ATOM     55  N   UNL A   1      43.350  26.003  30.459  1.00  0.00    -0.248 NA
ATOM     56  C   UNL A   1      44.394  24.207  29.389  1.00  0.00     0.031 C 
ATOM     57  C   UNL A   1      44.745  27.767  34.304  1.00  0.00     0.029 A 
ATOM     58  C   UNL A   1      44.324  27.192  33.116  1.00  0.00     0.049 A 
ATOM     59  H   UNL A   1      42.694  27.734  31.889  1.00  0.00     0.167 HD
ATOM     60  C   UNL A   1      44.421  25.570  31.235  1.00  0.00     0.074 A 
ATOM     61  C   UNL A   1      44.993  24.431  30.547  1.00  0.00     0.031 C 
ATOM     62  C   UNL A   1      44.890  26.064  32.411  1.00  0.00     0.034 A 
BRANCH  49  63
ATOM     63  C   UNL A   1      41.649  30.902  34.585  1.00  0.00     0.023 A 
ATOM     64  C   UNL A   1      40.549  30.913  35.462  1.00  0.00     0.031 A 
ATOM     65  C   UNL A   1      42.580  31.950  34.691  1.00  0.00     0.131 A 
ATOM     66  C   UNL A   1      40.360  31.990  36.340  1.00  0.00     0.055 A 
ATOM     67  C   UNL A   1      42.435  32.972  35.632  1.00  0.00     0.041 A 
ATOM     68  F   UNL A   1      43.638  32.012  33.867  1.00  0.00    -0.206 F 
ATOM     69  C   UNL A   1      41.312  33.006  36.452  1.00  0.00     0.022 A 
BRANCH  66  70
ATOM     70  S   UNL A   1      38.777  32.129  37.214  1.00  0.00     0.124 S 
ATOM     71  O   UNL A   1      39.218  32.359  38.588  1.00  0.00    -0.237 OA
ATOM     72  O   UNL A   1      38.146  33.262  36.547  1.00  0.00    -0.237 OA
ATOM     73  O   UNL A   1      38.142  30.834  36.980  1.00  0.00    -0.744 OA
ENDBRANCH  66  70
ENDBRANCH  49  63
BRANCH  50  74
ATOM     74  C   UNL A   1      42.500  24.195  27.152  1.00  0.00     0.023 A 
ATOM     75  C   UNL A   1      41.918  22.919  27.219  1.00  0.00     0.031 A 
ATOM     76  C   UNL A   1      43.284  24.502  26.025  1.00  0.00     0.131 A 
ATOM     77  C   UNL A   1      42.175  21.977  26.211  1.00  0.00     0.055 A 
ATOM     78  C   UNL A   1      43.487  23.582  24.994  1.00  0.00     0.041 A 
ATOM     79  F   UNL A   1      43.860  25.708  25.906  1.00  0.00    -0.206 F 
ATOM     80  C   UNL A   1      42.944  22.305  25.092  1.00  0.00     0.022 A 
BRANCH  77  81
ATOM     81  S   UNL A   1      41.573  20.280  26.433  1.00  0.00     0.124 S 
ATOM     82  O   UNL A   1      40.130  20.461  26.319  1.00  0.00    -0.237 OA
ATOM     83  O   UNL A   1      42.223  19.582  25.329  1.00  0.00    -0.237 OA
ATOM     84  O   UNL A   1      42.055  19.921  27.765  1.00  0.00    -0.744 OA
ENDBRANCH  77  81
ENDBRANCH  50  74
BRANCH  62  85
ATOM     85  C   UNL A   1      46.048  25.330  33.048  1.00  0.00     0.023 A 
ATOM     86  C   UNL A   1      45.848  24.262  33.940  1.00  0.00     0.031 A 
ATOM     87  C   UNL A   1      47.369  25.738  32.794  1.00  0.00     0.131 A 
ATOM     88  C   UNL A   1      46.943  23.701  34.614  1.00  0.00     0.055 A 
ATOM     89  C   UNL A   1      48.461  25.120  33.405  1.00  0.00     0.041 A 
ATOM     90  F   UNL A   1      47.623  26.753  31.953  1.00  0.00    -0.206 F 
ATOM     91  C   UNL A   1      48.250  24.109  34.338  1.00  0.00     0.022 A 
BRANCH  88  92
ATOM     92  S   UNL A   1      46.623  22.537  35.969  1.00  0.00     0.124 S 
ATOM     93  O   UNL A   1      47.448  23.085  37.041  1.00  0.00    -0.237 OA
ATOM     94  O   UNL A   1      45.180  22.660  36.149  1.00  0.00    -0.237 OA
ATOM     95  O   UNL A   1      47.074  21.255  35.433  1.00  0.00    -0.744 OA
ENDBRANCH  88  92
ENDBRANCH  62  85
ENDBRANCH  36  37
ENDBRANCH  28  31
ENDBRANCH  26  27
ENDBRANCH  25  26
ENDBRANCH   1  25
TORSDOF 18
ENDMDL
MODEL 2
REMARK VINA RESULT:     -11.1      4.634      9.710
REMARK SMILES CCC[NH2+]CC(=O)N1[C@@H](C(=O)NCCCNC(=O)c2ccc(-c3c4nc(c(-c5cc(S(=O)(=O)[O-])ccc5F)c5ccc([nH]5)c(-c5cc(S(=O)(=O)[O-])ccc5F)c5nc(c(-c6cc(S(=O)(=O)[O-])ccc6F)c6ccc3[nH]6)C=C5)C=C4)cc2)CC[C@@H]2CCCC[C@@H]21
REMARK SMILES IDX 13 1 12 2 10 3 11 4 9 6 8 7 89 8 82 9 84 10 88 11 83 12
REMARK SMILES IDX 85 13 87 14 86 15 6 16 7 17 5 18 4 19 3 22 2 23 1 24 14 25
REMARK SMILES IDX 15 26 16 27 17 28 18 30 19 31 20 32 81 33 21 34 80 35 22 36
REMARK SMILES IDX 23 37 24 38 74 39 25 40 79 41 73 42 75 43 26 44 78 45 72 46
REMARK SMILES IDX 71 47 27 49 59 50 39 51 58 52 40 53 43 54 57 55 76 56 41 57
REMARK SMILES IDX 42 58 56 60 77 61 44 62 28 63 29 64 37 65 30 66 36 67 38 68
REMARK SMILES IDX 35 69 31 70 32 71 33 72 34 73 60 74 61 75 69 76 62 77 68 78
REMARK SMILES IDX 70 79 67 80 63 81 64 82 65 83 66 84 45 85 46 86 54 87 47 88
REMARK SMILES IDX 53 89 55 90 52 91 48 92 49 93 50 94 51 95
REMARK H PARENT 12 5 4 20 4 21 16 29 75 48 43 59
REMARK Flexibility Score: inf
ROOT
ATOM      1  C   UNL A   1      34.463  23.440  24.808  1.00  0.00     0.117 C 
ENDROOT
BRANCH   1   2
ATOM      2  N   UNL A   1      34.434  24.181  23.557  1.00  0.00    -0.354 N 
ATOM      3  C   UNL A   1      33.733  25.296  23.230  1.00  0.00     0.242 C 
ATOM      4  O   UNL A   1      33.394  25.452  22.053  1.00  0.00    -0.273 OA
ATOM      5  H   UNL A   1      35.006  23.819  22.842  1.00  0.00     0.163 HD
BRANCH   3   6
ATOM      6  C   UNL A   1      33.249  26.272  24.291  1.00  0.00     0.175 C 
ATOM      7  N   UNL A   1      31.794  26.469  24.462  1.00  0.00    -0.323 N 
ATOM      8  C   UNL A   1      31.391  27.682  25.214  1.00  0.00     0.089 C 
ATOM      9  C   UNL A   1      33.961  27.567  23.832  1.00  0.00     0.036 C 
ATOM     10  C   UNL A   1      32.101  28.949  24.729  1.00  0.00     0.012 C 
ATOM     11  C   UNL A   1      31.514  27.447  26.741  1.00  0.00     0.025 C 
ATOM     12  C   UNL A   1      33.617  28.771  24.670  1.00  0.00     0.008 C 
ATOM     13  C   UNL A   1      31.711  30.124  25.622  1.00  0.00     0.006 C 
ATOM     14  C   UNL A   1      32.137  28.549  27.607  1.00  0.00     0.002 C 
ATOM     15  C   UNL A   1      32.240  29.963  27.038  1.00  0.00     0.000 C 
BRANCH   7  16
ATOM     16  C   UNL A   1      30.795  25.501  24.303  1.00  0.00     0.278 C 
ATOM     17  O   UNL A   1      31.032  24.338  24.657  1.00  0.00    -0.268 OA
BRANCH  16  18
ATOM     18  C   UNL A   1      29.495  25.773  23.511  1.00  0.00     0.362 C 
BRANCH  18  19
ATOM     19  N   UNL A   1      28.339  26.324  24.239  1.00  0.00    -0.338 N 
ATOM     20  H   UNL A   1      27.627  25.600  24.329  1.00  0.00     0.346 HD
ATOM     21  H   UNL A   1      28.656  26.636  25.156  1.00  0.00     0.346 HD
BRANCH  19  22
ATOM     22  C   UNL A   1      27.764  27.471  23.536  1.00  0.00     0.260 C 
BRANCH  22  23
ATOM     23  C   UNL A   1      28.729  28.446  22.836  1.00  0.00     0.058 C 
ATOM     24  C   UNL A   1      28.765  29.905  23.266  1.00  0.00     0.010 C 
ENDBRANCH  22  23
ENDBRANCH  19  22
ENDBRANCH  18  19
ENDBRANCH  16  18
ENDBRANCH   7  16
ENDBRANCH   3   6
ENDBRANCH   1   2
BRANCH   1  25
ATOM     25  C   UNL A   1      35.662  23.896  25.622  1.00  0.00     0.042 C 
BRANCH  25  26
ATOM     26  C   UNL A   1      36.983  23.669  24.903  1.00  0.00     0.118 C 
BRANCH  26  27
ATOM     27  N   UNL A   1      37.748  22.578  25.483  1.00  0.00    -0.352 N 
ATOM     28  C   UNL A   1      38.891  22.662  26.242  1.00  0.00     0.251 C 
ATOM     29  H   UNL A   1      37.408  21.670  25.312  1.00  0.00     0.163 HD
ATOM     30  O   UNL A   1      39.557  21.667  26.472  1.00  0.00    -0.269 OA
BRANCH  28  31
ATOM     31  C   UNL A   1      39.299  23.991  26.743  1.00  0.00     0.039 A 
ATOM     32  C   UNL A   1      39.009  24.335  28.062  1.00  0.00     0.014 A 
ATOM     33  C   UNL A   1      40.006  24.868  25.914  1.00  0.00     0.014 A 
ATOM     34  C   UNL A   1      39.455  25.557  28.558  1.00  0.00     0.010 A 
ATOM     35  C   UNL A   1      40.542  26.034  26.443  1.00  0.00     0.010 A 
ATOM     36  C   UNL A   1      40.239  26.409  27.760  1.00  0.00    -0.014 A 
BRANCH  36  37
ATOM     37  C   UNL A   1      40.684  27.730  28.268  1.00  0.00     0.031 A 
ATOM     38  C   UNL A   1      42.149  28.081  28.238  1.00  0.00     0.074 A 
ATOM     39  C   UNL A   1      39.784  28.599  28.764  1.00  0.00     0.049 A 
ATOM     40  N   UNL A   1      42.749  29.174  28.635  1.00  0.00    -0.248 NA
ATOM     41  C   UNL A   1      43.067  27.051  27.724  1.00  0.00     0.031 C 
ATOM     42  C   UNL A   1      38.345  28.349  28.887  1.00  0.00     0.029 A 
ATOM     43  N   UNL A   1      39.940  29.872  29.250  1.00  0.00    -0.354 N 
ATOM     44  C   UNL A   1      44.107  28.957  28.427  1.00  0.00     0.074 A 
ATOM     45  C   UNL A   1      44.249  27.598  27.954  1.00  0.00     0.031 C 
ATOM     46  C   UNL A   1      37.747  29.450  29.370  1.00  0.00     0.029 A 
ATOM     47  C   UNL A   1      38.760  30.467  29.632  1.00  0.00     0.049 A 
ATOM     48  H   UNL A   1      40.814  30.319  29.318  1.00  0.00     0.167 HD
ATOM     49  C   UNL A   1      45.139  29.822  28.582  1.00  0.00     0.034 A 
ATOM     50  C   UNL A   1      38.525  31.695  30.135  1.00  0.00     0.034 A 
ATOM     51  C   UNL A   1      44.976  31.178  29.043  1.00  0.00     0.049 A 
ATOM     52  C   UNL A   1      39.690  32.637  30.311  1.00  0.00     0.074 A 
ATOM     53  C   UNL A   1      45.940  32.158  29.204  1.00  0.00     0.029 A 
ATOM     54  N   UNL A   1      43.765  31.747  29.423  1.00  0.00    -0.354 N 
ATOM     55  N   UNL A   1      40.965  32.435  30.061  1.00  0.00    -0.248 NA
ATOM     56  C   UNL A   1      39.381  33.979  30.814  1.00  0.00     0.031 C 
ATOM     57  C   UNL A   1      45.326  33.291  29.749  1.00  0.00     0.029 A 
ATOM     58  C   UNL A   1      43.964  33.055  29.843  1.00  0.00     0.049 A 
ATOM     59  H   UNL A   1      42.894  31.289  29.400  1.00  0.00     0.167 HD
ATOM     60  C   UNL A   1      41.601  33.642  30.341  1.00  0.00     0.074 A 
ATOM     61  C   UNL A   1      40.565  34.566  30.753  1.00  0.00     0.031 C 
ATOM     62  C   UNL A   1      42.920  33.961  30.263  1.00  0.00     0.034 A 
BRANCH  49  63
ATOM     63  C   UNL A   1      46.527  29.309  28.270  1.00  0.00     0.023 A 
ATOM     64  C   UNL A   1      46.919  28.982  26.958  1.00  0.00     0.031 A 
ATOM     65  C   UNL A   1      47.460  29.104  29.301  1.00  0.00     0.131 A 
ATOM     66  C   UNL A   1      48.168  28.389  26.725  1.00  0.00     0.055 A 
ATOM     67  C   UNL A   1      48.738  28.600  29.049  1.00  0.00     0.041 A 
ATOM     68  F   UNL A   1      47.139  29.372  30.577  1.00  0.00    -0.206 F 
ATOM     69  C   UNL A   1      49.093  28.223  27.758  1.00  0.00     0.022 A 
BRANCH  66  70
ATOM     70  S   UNL A   1      48.504  27.690  25.085  1.00  0.00     0.124 S 
ATOM     71  O   UNL A   1      48.458  26.255  25.362  1.00  0.00    -0.237 OA
ATOM     72  O   UNL A   1      47.407  28.222  24.285  1.00  0.00    -0.237 OA
ATOM     73  O   UNL A   1      49.829  28.210  24.755  1.00  0.00    -0.744 OA
ENDBRANCH  66  70
ENDBRANCH  49  63
BRANCH  50  74
ATOM     74  C   UNL A   1      37.141  32.115  30.502  1.00  0.00     0.023 A 
ATOM     75  C   UNL A   1      36.284  32.699  29.555  1.00  0.00     0.031 A 
ATOM     76  C   UNL A   1      36.673  31.987  31.822  1.00  0.00     0.131 A 
ATOM     77  C   UNL A   1      35.029  33.187  29.952  1.00  0.00     0.055 A 
ATOM     78  C   UNL A   1      35.400  32.419  32.199  1.00  0.00     0.041 A 
ATOM     79  F   UNL A   1      37.448  31.431  32.767  1.00  0.00    -0.206 F 
ATOM     80  C   UNL A   1      34.576  33.038  31.265  1.00  0.00     0.022 A 
BRANCH  77  81
ATOM     81  S   UNL A   1      34.036  34.113  28.749  1.00  0.00     0.124 S 
ATOM     82  O   UNL A   1      34.944  35.195  28.386  1.00  0.00    -0.237 OA
ATOM     83  O   UNL A   1      33.790  33.107  27.721  1.00  0.00    -0.237 OA
ATOM     84  O   UNL A   1      32.860  34.516  29.518  1.00  0.00    -0.744 OA
ENDBRANCH  77  81
ENDBRANCH  50  74
BRANCH  62  85
ATOM     85  C   UNL A   1      43.297  35.390  30.580  1.00  0.00     0.023 A 
ATOM     86  C   UNL A   1      43.425  35.848  31.903  1.00  0.00     0.031 A 
ATOM     87  C   UNL A   1      43.483  36.319  29.541  1.00  0.00     0.131 A 
ATOM     88  C   UNL A   1      43.640  37.211  32.153  1.00  0.00     0.055 A 
ATOM     89  C   UNL A   1      43.778  37.660  29.795  1.00  0.00     0.041 A 
ATOM     90  F   UNL A   1      43.371  35.944  28.257  1.00  0.00    -0.206 F 
ATOM     91  C   UNL A   1      43.836  38.117  31.108  1.00  0.00     0.022 A 
BRANCH  88  92
ATOM     92  S   UNL A   1      43.503  37.810  33.861  1.00  0.00     0.124 S 
ATOM     93  O   UNL A   1      42.956  39.150  33.669  1.00  0.00    -0.237 OA
ATOM     94  O   UNL A   1      42.602  36.833  34.461  1.00  0.00    -0.237 OA
ATOM     95  O   UNL A   1      44.880  37.767  34.349  1.00  0.00    -0.744 OA
ENDBRANCH  88  92
ENDBRANCH  62  85
ENDBRANCH  36  37
ENDBRANCH  28  31
ENDBRANCH  26  27
ENDBRANCH  25  26
ENDBRANCH   1  25
TORSDOF 18
ENDMDL
MODEL 3
REMARK VINA RESULT:     -10.9      2.083      2.325
REMARK SMILES CCC[NH2+]CC(=O)N1[C@@H](C(=O)NCCCNC(=O)c2ccc(-c3c4nc(c(-c5cc(S(=O)(=O)[O-])ccc5F)c5ccc([nH]5)c(-c5cc(S(=O)(=O)[O-])ccc5F)c5nc(c(-c6cc(S(=O)(=O)[O-])ccc6F)c6ccc3[nH]6)C=C5)C=C4)cc2)CC[C@@H]2CCCC[C@@H]21
REMARK SMILES IDX 13 1 12 2 10 3 11 4 9 6 8 7 89 8 82 9 84 10 88 11 83 12
REMARK SMILES IDX 85 13 87 14 86 15 6 16 7 17 5 18 4 19 3 22 2 23 1 24 14 25
REMARK SMILES IDX 15 26 16 27 17 28 18 30 19 31 20 32 81 33 21 34 80 35 22 36
REMARK SMILES IDX 23 37 24 38 74 39 25 40 79 41 73 42 75 43 26 44 78 45 72 46
REMARK SMILES IDX 71 47 27 49 59 50 39 51 58 52 40 53 43 54 57 55 76 56 41 57
REMARK SMILES IDX 42 58 56 60 77 61 44 62 28 63 29 64 37 65 30 66 36 67 38 68
REMARK SMILES IDX 35 69 31 70 32 71 33 72 34 73 60 74 61 75 69 76 62 77 68 78
REMARK SMILES IDX 70 79 67 80 63 81 64 82 65 83 66 84 45 85 46 86 54 87 47 88
REMARK SMILES IDX 53 89 55 90 52 91 48 92 49 93 50 94 51 95
REMARK H PARENT 12 5 4 20 4 21 16 29 75 48 43 59
REMARK Flexibility Score: inf
ROOT
ATOM      1  C   UNL A   1      33.112  27.152  26.039  1.00  0.00     0.117 C 
ENDROOT
BRANCH   1   2
ATOM      2  N   UNL A   1      32.166  26.251  26.677  1.00  0.00    -0.354 N 
ATOM      3  C   UNL A   1      31.983  24.918  26.493  1.00  0.00     0.242 C 
ATOM      4  O   UNL A   1      30.853  24.452  26.661  1.00  0.00    -0.273 OA
ATOM      5  H   UNL A   1      31.568  26.670  27.338  1.00  0.00     0.163 HD
BRANCH   3   6
ATOM      6  C   UNL A   1      33.096  24.028  25.962  1.00  0.00     0.175 C 
ATOM      7  N   UNL A   1      33.004  23.530  24.574  1.00  0.00    -0.323 N 
ATOM      8  C   UNL A   1      33.884  22.384  24.240  1.00  0.00     0.089 C 
ATOM      9  C   UNL A   1      33.059  22.878  26.997  1.00  0.00     0.036 C 
ATOM     10  C   UNL A   1      33.816  21.256  25.274  1.00  0.00     0.012 C 
ATOM     11  C   UNL A   1      35.326  22.869  23.942  1.00  0.00     0.025 C 
ATOM     12  C   UNL A   1      34.032  21.768  26.696  1.00  0.00     0.008 C 
ATOM     13  C   UNL A   1      34.826  20.171  24.910  1.00  0.00     0.006 C 
ATOM     14  C   UNL A   1      36.502  22.083  24.536  1.00  0.00     0.002 C 
ATOM     15  C   UNL A   1      36.259  20.661  25.041  1.00  0.00     0.000 C 
BRANCH   7  16
ATOM     16  C   UNL A   1      32.455  24.206  23.477  1.00  0.00     0.278 C 
ATOM     17  O   UNL A   1      31.404  23.777  22.980  1.00  0.00    -0.268 OA
BRANCH  16  18
ATOM     18  C   UNL A   1      33.212  25.328  22.731  1.00  0.00     0.362 C 
BRANCH  18  19
ATOM     19  N   UNL A   1      32.444  26.204  21.828  1.00  0.00    -0.338 N 
ATOM     20  H   UNL A   1      33.054  26.523  21.076  1.00  0.00     0.346 HD
ATOM     21  H   UNL A   1      31.658  25.671  21.455  1.00  0.00     0.346 HD
BRANCH  19  22
ATOM     22  C   UNL A   1      31.915  27.369  22.537  1.00  0.00     0.260 C 
BRANCH  22  23
ATOM     23  C   UNL A   1      30.391  27.454  22.748  1.00  0.00     0.058 C 
ATOM     24  C   UNL A   1      29.775  26.882  24.016  1.00  0.00     0.010 C 
ENDBRANCH  22  23
ENDBRANCH  19  22
ENDBRANCH  18  19
ENDBRANCH  16  18
ENDBRANCH   7  16
ENDBRANCH   3   6
ENDBRANCH   1   2
BRANCH   1  25
ATOM     25  C   UNL A   1      32.834  28.570  26.508  1.00  0.00     0.042 C 
BRANCH  25  26
ATOM     26  C   UNL A   1      34.092  29.422  26.587  1.00  0.00     0.118 C 
BRANCH  26  27
ATOM     27  N   UNL A   1      33.821  30.765  27.071  1.00  0.00    -0.352 N 
ATOM     28  C   UNL A   1      34.479  31.450  28.065  1.00  0.00     0.251 C 
ATOM     29  H   UNL A   1      33.077  31.241  26.637  1.00  0.00     0.163 HD
ATOM     30  O   UNL A   1      34.007  32.475  28.528  1.00  0.00    -0.269 OA
BRANCH  28  31
ATOM     31  C   UNL A   1      35.751  30.894  28.571  1.00  0.00     0.039 A 
ATOM     32  C   UNL A   1      35.713  29.856  29.500  1.00  0.00     0.014 A 
ATOM     33  C   UNL A   1      36.971  31.375  28.085  1.00  0.00     0.014 A 
ATOM     34  C   UNL A   1      36.909  29.281  29.925  1.00  0.00     0.010 A 
ATOM     35  C   UNL A   1      38.151  30.727  28.426  1.00  0.00     0.010 A 
ATOM     36  C   UNL A   1      38.135  29.699  29.379  1.00  0.00    -0.014 A 
BRANCH  36  37
ATOM     37  C   UNL A   1      39.416  29.119  29.855  1.00  0.00     0.031 A 
ATOM     38  C   UNL A   1      40.079  29.694  31.080  1.00  0.00     0.074 A 
ATOM     39  C   UNL A   1      39.982  28.097  29.187  1.00  0.00     0.049 A 
ATOM     40  N   UNL A   1      41.198  29.341  31.659  1.00  0.00    -0.248 NA
ATOM     41  C   UNL A   1      39.414  30.841  31.717  1.00  0.00     0.031 C 
ATOM     42  C   UNL A   1      39.453  27.491  27.961  1.00  0.00     0.029 A 
ATOM     43  N   UNL A   1      41.121  27.379  29.445  1.00  0.00    -0.354 N 
ATOM     44  C   UNL A   1      41.371  30.226  32.718  1.00  0.00     0.074 A 
ATOM     45  C   UNL A   1      40.292  31.185  32.646  1.00  0.00     0.031 C 
ATOM     46  C   UNL A   1      40.242  26.465  27.603  1.00  0.00     0.029 A 
ATOM     47  C   UNL A   1      41.354  26.367  28.543  1.00  0.00     0.049 A 
ATOM     48  H   UNL A   1      41.717  27.570  30.205  1.00  0.00     0.167 HD
ATOM     49  C   UNL A   1      42.322  30.220  33.684  1.00  0.00     0.034 A 
ATOM     50  C   UNL A   1      42.350  25.462  28.485  1.00  0.00     0.034 A 
ATOM     51  C   UNL A   1      43.384  29.247  33.746  1.00  0.00     0.049 A 
ATOM     52  C   UNL A   1      43.405  25.481  29.564  1.00  0.00     0.074 A 
ATOM     53  C   UNL A   1      44.381  29.116  34.696  1.00  0.00     0.029 A 
ATOM     54  N   UNL A   1      43.589  28.235  32.814  1.00  0.00    -0.354 N 
ATOM     55  N   UNL A   1      43.527  26.294  30.591  1.00  0.00    -0.248 NA
ATOM     56  C   UNL A   1      44.442  24.447  29.488  1.00  0.00     0.031 C 
ATOM     57  C   UNL A   1      45.230  28.077  34.301  1.00  0.00     0.029 A 
ATOM     58  C   UNL A   1      44.713  27.495  33.154  1.00  0.00     0.049 A 
ATOM     59  H   UNL A   1      43.022  28.069  32.028  1.00  0.00     0.167 HD
ATOM     60  C   UNL A   1      44.634  25.840  31.302  1.00  0.00     0.074 A 
ATOM     61  C   UNL A   1      45.124  24.671  30.600  1.00  0.00     0.031 C 
ATOM     62  C   UNL A   1      45.195  26.338  32.435  1.00  0.00     0.034 A 
BRANCH  49  63
ATOM     63  C   UNL A   1      42.258  31.313  34.727  1.00  0.00     0.023 A 
ATOM     64  C   UNL A   1      42.928  32.538  34.560  1.00  0.00     0.031 A 
ATOM     65  C   UNL A   1      41.551  31.113  35.925  1.00  0.00     0.131 A 
ATOM     66  C   UNL A   1      42.950  33.476  35.603  1.00  0.00     0.055 A 
ATOM     67  C   UNL A   1      41.500  32.089  36.923  1.00  0.00     0.041 A 
ATOM     68  F   UNL A   1      40.911  29.955  36.158  1.00  0.00    -0.206 F 
ATOM     69  C   UNL A   1      42.216  33.272  36.773  1.00  0.00     0.022 A 
BRANCH  66  70
ATOM     70  S   UNL A   1      44.083  34.887  35.475  1.00  0.00     0.124 S 
ATOM     71  O   UNL A   1      45.268  34.377  36.162  1.00  0.00    -0.237 OA
ATOM     72  O   UNL A   1      44.206  35.064  34.033  1.00  0.00    -0.237 OA
ATOM     73  O   UNL A   1      43.378  35.957  36.179  1.00  0.00    -0.744 OA
ENDBRANCH  66  70
ENDBRANCH  49  63
BRANCH  50  74
ATOM     74  C   UNL A   1      42.404  24.458  27.382  1.00  0.00     0.023 A 
ATOM     75  C   UNL A   1      41.648  23.276  27.438  1.00  0.00     0.031 A 
ATOM     76  C   UNL A   1      43.256  24.642  26.278  1.00  0.00     0.131 A 
ATOM     77  C   UNL A   1      41.801  22.298  26.444  1.00  0.00     0.055 A 
ATOM     78  C   UNL A   1      43.359  23.693  25.259  1.00  0.00     0.041 A 
ATOM     79  F   UNL A   1      43.998  25.756  26.170  1.00  0.00    -0.206 F 
ATOM     80  C   UNL A   1      42.641  22.504  25.347  1.00  0.00     0.022 A 
BRANCH  77  81
ATOM     81  S   UNL A   1      40.962  20.703  26.656  1.00  0.00     0.124 S 
ATOM     82  O   UNL A   1      40.884  20.600  28.108  1.00  0.00    -0.237 OA
ATOM     83  O   UNL A   1      39.701  20.930  25.958  1.00  0.00    -0.237 OA
ATOM     84  O   UNL A   1      41.867  19.755  26.009  1.00  0.00    -0.744 OA
ENDBRANCH  77  81
ENDBRANCH  50  74
BRANCH  62  85
ATOM     85  C   UNL A   1      46.370  25.578  33.008  1.00  0.00     0.023 A 
ATOM     86  C   UNL A   1      47.674  25.741  32.508  1.00  0.00     0.031 A 
ATOM     87  C   UNL A   1      46.172  24.641  34.037  1.00  0.00     0.131 A 
ATOM     88  C   UNL A   1      48.709  24.916  32.973  1.00  0.00     0.055 A 
ATOM     89  C   UNL A   1      47.223  23.881  34.554  1.00  0.00     0.041 A 
ATOM     90  F   UNL A   1      44.950  24.439  34.554  1.00  0.00    -0.206 F 
ATOM     91  C   UNL A   1      48.496  24.001  34.006  1.00  0.00     0.022 A 
BRANCH  88  92
ATOM     92  S   UNL A   1      50.300  24.948  32.101  1.00  0.00     0.124 S 
ATOM     93  O   UNL A   1      51.067  25.896  32.904  1.00  0.00    -0.237 OA
ATOM     94  O   UNL A   1      50.726  23.555  32.179  1.00  0.00    -0.237 OA
ATOM     95  O   UNL A   1      49.947  25.415  30.762  1.00  0.00    -0.744 OA
ENDBRANCH  88  92
ENDBRANCH  62  85
ENDBRANCH  36  37
ENDBRANCH  28  31
ENDBRANCH  26  27
ENDBRANCH  25  26
ENDBRANCH   1  25
TORSDOF 18
ENDMDL
