MODEL 1
REMARK VINA RESULT:     -11.8      0.000      0.000
REMARK SMILES CC1(C)CCC[C@H]1NS(=O)(=O)c1ccc(CC(=O)NCCCNC(=O)c2ccc(-c3c4nc(c(-c5cc(S(=O)(=O)[O-])ccc5F)c5ccc([nH]5)c(-c5cc(S(=O)(=O)[O-])ccc5F)c5nc(c(-c6cc(S(=O)(=O)[O-])ccc6F)c6ccc3[nH]6)C=C5)C=C4)cc2)cc1
REMARK SMILES IDX 20 1 19 2 17 3 18 4 16 6 15 7 12 8 13 9 90 10 14 11 89 12
REMARK SMILES IDX 9 13 10 14 11 15 8 16 7 18 1 19 2 20 3 21 4 22 5 23 6 24
REMARK SMILES IDX 21 25 22 26 23 27 24 28 25 30 26 31 27 32 88 33 28 34 87 35
REMARK SMILES IDX 29 36 30 37 31 38 81 39 32 40 86 41 80 42 82 43 33 44 85 45
REMARK SMILES IDX 79 46 78 47 34 49 66 50 46 51 65 52 47 53 50 54 64 55 83 56
REMARK SMILES IDX 48 57 49 58 63 60 84 61 51 62 35 63 36 64 44 65 37 66 43 67
REMARK SMILES IDX 45 68 42 69 38 70 39 71 40 72 41 73 67 74 68 75 76 76 69 77
REMARK SMILES IDX 75 78 77 79 74 80 70 81 71 82 72 83 73 84 52 85 53 86 61 87
REMARK SMILES IDX 54 88 60 89 62 90 59 91 55 92 56 93 57 94 58 95
REMARK H PARENT 19 5 8 17 23 29 82 48 50 59
REMARK Flexibility Score: inf
ROOT
ATOM      1  C   UNL A   1      31.366  29.728  25.040  1.00  0.00     0.117 C 
ENDROOT
BRANCH   1   2
ATOM      2  N   UNL A   1      30.788  30.075  23.753  1.00  0.00    -0.356 N 
ATOM      3  C   UNL A   1      29.944  29.346  22.965  1.00  0.00     0.224 C 
ATOM      4  O   UNL A   1      29.588  29.819  21.884  1.00  0.00    -0.275 OA
ATOM      5  H   UNL A   1      31.040  30.958  23.400  1.00  0.00     0.163 HD
BRANCH   3   6
ATOM      6  C   UNL A   1      29.433  28.000  23.443  1.00  0.00     0.135 C 
BRANCH   6   7
ATOM      7  C   UNL A   1      30.353  26.840  23.143  1.00  0.00    -0.039 A 
ATOM      8  C   UNL A   1      32.020  24.661  22.596  1.00  0.00     0.082 A 
ATOM      9  C   UNL A   1      32.220  25.864  21.921  1.00  0.00     0.022 A 
ATOM     10  C   UNL A   1      31.002  24.540  23.547  1.00  0.00     0.022 A 
ATOM     11  C   UNL A   1      31.372  26.944  22.181  1.00  0.00     0.005 A 
ATOM     12  C   UNL A   1      30.172  25.624  23.818  1.00  0.00     0.005 A 
BRANCH   8  13
ATOM     13  S   UNL A   1      32.955  23.200  22.242  1.00  0.00     0.240 S 
ATOM     14  O   UNL A   1      33.491  23.359  20.909  1.00  0.00    -0.207 OA
ATOM     15  O   UNL A   1      32.111  22.078  22.587  1.00  0.00    -0.207 OA
BRANCH  13  16
ATOM     16  N   UNL A   1      34.230  23.159  23.329  1.00  0.00    -0.208 NA
ATOM     17  H   UNL A   1      35.078  23.175  22.763  1.00  0.00     0.141 HD
BRANCH  16  18
ATOM     18  C   UNL A   1      34.422  22.084  24.311  1.00  0.00     0.075 C 
ATOM     19  C   UNL A   1      36.944  22.412  23.660  1.00  0.00     0.013 C 
ATOM     20  C   UNL A   1      35.924  21.956  24.715  1.00  0.00    -0.019 C 
ATOM     21  C   UNL A   1      36.246  20.487  25.064  1.00  0.00     0.013 C 
ATOM     22  C   UNL A   1      36.015  22.842  25.968  1.00  0.00     0.008 C 
ATOM     23  C   UNL A   1      34.723  22.563  26.716  1.00  0.00     0.002 C 
ATOM     24  C   UNL A   1      33.675  22.364  25.627  1.00  0.00     0.020 C 
ENDBRANCH  16  18
ENDBRANCH  13  16
ENDBRANCH   8  13
ENDBRANCH   6   7
ENDBRANCH   3   6
ENDBRANCH   1   2
BRANCH   1  25
ATOM     25  C   UNL A   1      32.714  29.019  24.914  1.00  0.00     0.042 C 
BRANCH  25  26
ATOM     26  C   UNL A   1      33.675  29.253  26.079  1.00  0.00     0.118 C 
BRANCH  26  27
ATOM     27  N   UNL A   1      33.529  30.575  26.666  1.00  0.00    -0.352 N 
ATOM     28  C   UNL A   1      34.238  31.204  27.656  1.00  0.00     0.251 C 
ATOM     29  H   UNL A   1      32.796  31.110  26.286  1.00  0.00     0.163 HD
ATOM     30  O   UNL A   1      33.794  32.261  28.103  1.00  0.00    -0.269 OA
BRANCH  28  31
ATOM     31  C   UNL A   1      35.498  30.644  28.204  1.00  0.00     0.039 A 
ATOM     32  C   UNL A   1      36.702  31.028  27.604  1.00  0.00     0.014 A 
ATOM     33  C   UNL A   1      35.514  29.698  29.234  1.00  0.00     0.014 A 
ATOM     34  C   UNL A   1      37.914  30.503  28.061  1.00  0.00     0.010 A 
ATOM     35  C   UNL A   1      36.730  29.219  29.731  1.00  0.00     0.010 A 
ATOM     36  C   UNL A   1      37.943  29.612  29.145  1.00  0.00    -0.014 A 
BRANCH  36  37
ATOM     37  C   UNL A   1      39.241  29.106  29.667  1.00  0.00     0.031 A 
ATOM     38  C   UNL A   1      39.895  29.745  30.863  1.00  0.00     0.074 A 
ATOM     39  C   UNL A   1      39.845  28.076  29.041  1.00  0.00     0.049 A 
ATOM     40  N   UNL A   1      41.014  29.425  31.463  1.00  0.00    -0.248 NA
ATOM     41  C   UNL A   1      39.214  30.910  31.444  1.00  0.00     0.031 C 
ATOM     42  C   UNL A   1      39.340  27.410  27.839  1.00  0.00     0.029 A 
ATOM     43  N   UNL A   1      41.009  27.410  29.326  1.00  0.00    -0.354 N 
ATOM     44  C   UNL A   1      41.177  30.352  32.488  1.00  0.00     0.074 A 
ATOM     45  C   UNL A   1      40.067  31.277  32.389  1.00  0.00     0.031 C 
ATOM     46  C   UNL A   1      40.176  26.412  27.506  1.00  0.00     0.029 A 
ATOM     47  C   UNL A   1      41.286  26.384  28.453  1.00  0.00     0.049 A 
ATOM     48  H   UNL A   1      41.592  27.643  30.085  1.00  0.00     0.167 HD
ATOM     49  C   UNL A   1      42.149  30.415  33.433  1.00  0.00     0.034 A 
ATOM     50  C   UNL A   1      42.315  25.516  28.419  1.00  0.00     0.034 A 
ATOM     51  C   UNL A   1      43.247  29.481  33.525  1.00  0.00     0.049 A 
ATOM     52  C   UNL A   1      43.367  25.588  29.492  1.00  0.00     0.074 A 
ATOM     53  C   UNL A   1      44.257  29.422  34.472  1.00  0.00     0.029 A 
ATOM     54  N   UNL A   1      43.487  28.443  32.633  1.00  0.00    -0.354 N 
ATOM     55  N   UNL A   1      43.475  26.437  30.489  1.00  0.00    -0.248 NA
ATOM     56  C   UNL A   1      44.426  24.572  29.445  1.00  0.00     0.031 C 
ATOM     57  C   UNL A   1      45.133  28.387  34.123  1.00  0.00     0.029 A 
ATOM     58  C   UNL A   1      44.637  27.755  32.994  1.00  0.00     0.049 A 
ATOM     59  H   UNL A   1      42.921  28.226  31.857  1.00  0.00     0.167 HD
ATOM     60  C   UNL A   1      44.604  26.042  31.199  1.00  0.00     0.074 A 
ATOM     61  C   UNL A   1      45.124  24.865  30.532  1.00  0.00     0.031 C 
ATOM     62  C   UNL A   1      45.164  26.602  32.303  1.00  0.00     0.034 A 
BRANCH  49  63
ATOM     63  C   UNL A   1      42.078  31.553  34.425  1.00  0.00     0.023 A 
ATOM     64  C   UNL A   1      41.169  31.541  35.498  1.00  0.00     0.031 A 
ATOM     65  C   UNL A   1      42.910  32.678  34.282  1.00  0.00     0.131 A 
ATOM     66  C   UNL A   1      41.061  32.660  36.338  1.00  0.00     0.055 A 
ATOM     67  C   UNL A   1      42.852  33.755  35.168  1.00  0.00     0.041 A 
ATOM     68  F   UNL A   1      43.785  32.755  33.267  1.00  0.00    -0.206 F 
ATOM     69  C   UNL A   1      41.913  33.757  36.195  1.00  0.00     0.022 A 
BRANCH  66  70
ATOM     70  S   UNL A   1      39.699  32.718  37.535  1.00  0.00     0.124 S 
ATOM     71  O   UNL A   1      40.408  32.524  38.798  1.00  0.00    -0.237 OA
ATOM     72  O   UNL A   1      39.140  34.048  37.314  1.00  0.00    -0.237 OA
ATOM     73  O   UNL A   1      38.841  31.605  37.133  1.00  0.00    -0.744 OA
ENDBRANCH  66  70
ENDBRANCH  49  63
BRANCH  50  74
ATOM     74  C   UNL A   1      42.401  24.496  27.337  1.00  0.00     0.023 A 
ATOM     75  C   UNL A   1      41.624  23.329  27.380  1.00  0.00     0.031 A 
ATOM     76  C   UNL A   1      43.291  24.661  26.261  1.00  0.00     0.131 A 
ATOM     77  C   UNL A   1      41.781  22.348  26.388  1.00  0.00     0.055 A 
ATOM     78  C   UNL A   1      43.410  23.705  25.252  1.00  0.00     0.041 A 
ATOM     79  F   UNL A   1      44.049  25.766  26.171  1.00  0.00    -0.206 F 
ATOM     80  C   UNL A   1      42.661  22.534  25.320  1.00  0.00     0.022 A 
BRANCH  77  81
ATOM     81  S   UNL A   1      40.866  20.792  26.555  1.00  0.00     0.124 S 
ATOM     82  O   UNL A   1      39.573  21.141  25.978  1.00  0.00    -0.237 OA
ATOM     83  O   UNL A   1      41.689  19.873  25.774  1.00  0.00    -0.237 OA
ATOM     84  O   UNL A   1      40.863  20.551  27.995  1.00  0.00    -0.744 OA
ENDBRANCH  77  81
ENDBRANCH  50  74
BRANCH  62  85
ATOM     85  C   UNL A   1      46.390  25.919  32.856  1.00  0.00     0.023 A 
ATOM     86  C   UNL A   1      47.680  26.230  32.386  1.00  0.00     0.031 A 
ATOM     87  C   UNL A   1      46.265  24.908  33.824  1.00  0.00     0.131 A 
ATOM     88  C   UNL A   1      48.784  25.488  32.830  1.00  0.00     0.055 A 
ATOM     89  C   UNL A   1      47.376  24.212  34.306  1.00  0.00     0.041 A 
ATOM     90  F   UNL A   1      45.059  24.568  34.306  1.00  0.00    -0.206 F 
ATOM     91  C   UNL A   1      48.642  24.488  33.796  1.00  0.00     0.022 A 
BRANCH  88  92
ATOM     92  S   UNL A   1      50.392  25.763  32.037  1.00  0.00     0.124 S 
ATOM     93  O   UNL A   1      51.018  24.449  32.150  1.00  0.00    -0.237 OA
ATOM     94  O   UNL A   1      50.008  26.172  30.690  1.00  0.00    -0.237 OA
ATOM     95  O   UNL A   1      51.002  26.811  32.853  1.00  0.00    -0.744 OA
ENDBRANCH  88  92
ENDBRANCH  62  85
ENDBRANCH  36  37
ENDBRANCH  28  31
ENDBRANCH  26  27
ENDBRANCH  25  26
ENDBRANCH   1  25
TORSDOF 17
ENDMDL
MODEL 2
REMARK VINA RESULT:     -11.7      4.643      9.651
REMARK SMILES CC1(C)CCC[C@H]1NS(=O)(=O)c1ccc(CC(=O)NCCCNC(=O)c2ccc(-c3c4nc(c(-c5cc(S(=O)(=O)[O-])ccc5F)c5ccc([nH]5)c(-c5cc(S(=O)(=O)[O-])ccc5F)c5nc(c(-c6cc(S(=O)(=O)[O-])ccc6F)c6ccc3[nH]6)C=C5)C=C4)cc2)cc1
REMARK SMILES IDX 20 1 19 2 17 3 18 4 16 6 15 7 12 8 13 9 90 10 14 11 89 12
REMARK SMILES IDX 9 13 10 14 11 15 8 16 7 18 1 19 2 20 3 21 4 22 5 23 6 24
REMARK SMILES IDX 21 25 22 26 23 27 24 28 25 30 26 31 27 32 88 33 28 34 87 35
REMARK SMILES IDX 29 36 30 37 31 38 81 39 32 40 86 41 80 42 82 43 33 44 85 45
REMARK SMILES IDX 79 46 78 47 34 49 66 50 46 51 65 52 47 53 50 54 64 55 83 56
REMARK SMILES IDX 48 57 49 58 63 60 84 61 51 62 35 63 36 64 44 65 37 66 43 67
REMARK SMILES IDX 45 68 42 69 38 70 39 71 40 72 41 73 67 74 68 75 76 76 69 77
REMARK SMILES IDX 75 78 77 79 74 80 70 81 71 82 72 83 73 84 52 85 53 86 61 87
REMARK SMILES IDX 54 88 60 89 62 90 59 91 55 92 56 93 57 94 58 95
REMARK H PARENT 19 5 8 17 23 29 82 48 50 59
REMARK Flexibility Score: inf
ROOT
ATOM      1  C   UNL A   1      35.227  22.383  23.974  1.00  0.00     0.117 C 
ENDROOT
BRANCH   1   2
ATOM      2  N   UNL A   1      34.141  21.607  24.546  1.00  0.00    -0.356 N 
ATOM      3  C   UNL A   1      32.880  21.407  24.062  1.00  0.00     0.224 C 
ATOM      4  O   UNL A   1      32.092  20.728  24.724  1.00  0.00    -0.275 OA
ATOM      5  H   UNL A   1      34.341  21.163  25.401  1.00  0.00     0.163 HD
BRANCH   3   6
ATOM      6  C   UNL A   1      32.482  21.986  22.717  1.00  0.00     0.135 C 
BRANCH   6   7
ATOM      7  C   UNL A   1      31.926  23.388  22.779  1.00  0.00    -0.039 A 
ATOM      8  C   UNL A   1      30.878  25.977  22.936  1.00  0.00     0.082 A 
ATOM      9  C   UNL A   1      32.056  25.757  22.225  1.00  0.00     0.022 A 
ATOM     10  C   UNL A   1      30.214  24.916  23.561  1.00  0.00     0.022 A 
ATOM     11  C   UNL A   1      32.588  24.466  22.166  1.00  0.00     0.005 A 
ATOM     12  C   UNL A   1      30.737  23.628  23.483  1.00  0.00     0.005 A 
BRANCH   8  13
ATOM     13  S   UNL A   1      30.197  27.594  23.179  1.00  0.00     0.240 S 
ATOM     14  O   UNL A   1      28.817  27.413  23.568  1.00  0.00    -0.207 OA
ATOM     15  O   UNL A   1      30.557  28.371  22.014  1.00  0.00    -0.207 OA
BRANCH  13  16
ATOM     16  N   UNL A   1      31.027  28.286  24.460  1.00  0.00    -0.208 NA
ATOM     17  H   UNL A   1      31.710  28.918  24.040  1.00  0.00     0.141 HD
BRANCH  16  18
ATOM     18  C   UNL A   1      31.764  27.507  25.463  1.00  0.00     0.075 C 
ATOM     19  C   UNL A   1      33.803  28.097  23.918  1.00  0.00     0.013 C 
ATOM     20  C   UNL A   1      33.303  27.725  25.323  1.00  0.00    -0.019 C 
ATOM     21  C   UNL A   1      34.051  26.447  25.758  1.00  0.00     0.013 C 
ATOM     22  C   UNL A   1      33.573  28.873  26.310  1.00  0.00     0.008 C 
ATOM     23  C   UNL A   1      32.685  28.558  27.500  1.00  0.00     0.002 C 
ATOM     24  C   UNL A   1      31.426  27.947  26.899  1.00  0.00     0.020 C 
ENDBRANCH  16  18
ENDBRANCH  13  16
ENDBRANCH   8  13
ENDBRANCH   6   7
ENDBRANCH   3   6
ENDBRANCH   1   2
BRANCH   1  25
ATOM     25  C   UNL A   1      36.602  21.781  24.262  1.00  0.00     0.042 C 
BRANCH  25  26
ATOM     26  C   UNL A   1      37.272  22.290  25.538  1.00  0.00     0.118 C 
BRANCH  26  27
ATOM     27  N   UNL A   1      38.279  21.372  26.044  1.00  0.00    -0.352 N 
ATOM     28  C   UNL A   1      39.521  21.601  26.575  1.00  0.00     0.251 C 
ATOM     29  H   UNL A   1      38.023  20.423  25.998  1.00  0.00     0.163 HD
ATOM     30  O   UNL A   1      40.259  20.634  26.759  1.00  0.00    -0.269 OA
BRANCH  28  31
ATOM     31  C   UNL A   1      39.996  22.965  26.915  1.00  0.00     0.039 A 
ATOM     32  C   UNL A   1      40.926  23.097  27.952  1.00  0.00     0.014 A 
ATOM     33  C   UNL A   1      39.493  24.111  26.292  1.00  0.00     0.014 A 
ATOM     34  C   UNL A   1      41.380  24.362  28.333  1.00  0.00     0.010 A 
ATOM     35  C   UNL A   1      39.992  25.373  26.632  1.00  0.00     0.010 A 
ATOM     36  C   UNL A   1      40.937  25.512  27.660  1.00  0.00    -0.014 A 
BRANCH  36  37
ATOM     37  C   UNL A   1      41.471  26.850  28.029  1.00  0.00     0.031 A 
ATOM     38  C   UNL A   1      42.878  27.247  27.667  1.00  0.00     0.074 A 
ATOM     39  C   UNL A   1      40.688  27.705  28.716  1.00  0.00     0.049 A 
ATOM     40  N   UNL A   1      43.503  28.375  27.892  1.00  0.00    -0.248 NA
ATOM     41  C   UNL A   1      43.695  26.233  26.986  1.00  0.00     0.031 C 
ATOM     42  C   UNL A   1      39.328  27.417  29.175  1.00  0.00     0.029 A 
ATOM     43  N   UNL A   1      40.920  28.986  29.148  1.00  0.00    -0.354 N 
ATOM     44  C   UNL A   1      44.789  28.208  27.387  1.00  0.00     0.074 A 
ATOM     45  C   UNL A   1      44.865  26.847  26.894  1.00  0.00     0.031 C 
ATOM     46  C   UNL A   1      38.836  28.499  29.799  1.00  0.00     0.029 A 
ATOM     47  C   UNL A   1      39.851  29.547  29.809  1.00  0.00     0.049 A 
ATOM     48  H   UNL A   1      41.770  29.460  28.999  1.00  0.00     0.167 HD
ATOM     49  C   UNL A   1      45.803  29.107  27.324  1.00  0.00     0.034 A 
ATOM     50  C   UNL A   1      39.704  30.768  30.358  1.00  0.00     0.034 A 
ATOM     51  C   UNL A   1      45.712  30.463  27.812  1.00  0.00     0.049 A 
ATOM     52  C   UNL A   1      40.832  31.758  30.252  1.00  0.00     0.074 A 
ATOM     53  C   UNL A   1      46.659  31.472  27.751  1.00  0.00     0.029 A 
ATOM     54  N   UNL A   1      44.607  31.003  28.461  1.00  0.00    -0.354 N 
ATOM     55  N   UNL A   1      42.022  31.601  29.719  1.00  0.00    -0.248 NA
ATOM     56  C   UNL A   1      40.588  33.096  30.804  1.00  0.00     0.031 C 
ATOM     57  C   UNL A   1      46.151  32.599  28.408  1.00  0.00     0.029 A 
ATOM     58  C   UNL A   1      44.859  32.319  28.824  1.00  0.00     0.049 A 
ATOM     59  H   UNL A   1      43.767  30.521  28.636  1.00  0.00     0.167 HD
ATOM     60  C   UNL A   1      42.661  32.829  29.856  1.00  0.00     0.074 A 
ATOM     61  C   UNL A   1      41.715  33.721  30.496  1.00  0.00     0.031 C 
ATOM     62  C   UNL A   1      43.918  33.189  29.488  1.00  0.00     0.034 A 
BRANCH  49  63
ATOM     63  C   UNL A   1      47.109  28.637  26.726  1.00  0.00     0.023 A 
ATOM     64  C   UNL A   1      47.264  28.452  25.341  1.00  0.00     0.031 A 
ATOM     65  C   UNL A   1      48.208  28.342  27.554  1.00  0.00     0.131 A 
ATOM     66  C   UNL A   1      48.458  27.918  24.833  1.00  0.00     0.055 A 
ATOM     67  C   UNL A   1      49.420  27.884  27.035  1.00  0.00     0.041 A 
ATOM     68  F   UNL A   1      48.115  28.482  28.885  1.00  0.00    -0.206 F 
ATOM     69  C   UNL A   1      49.545  27.654  25.667  1.00  0.00     0.022 A 
BRANCH  66  70
ATOM     70  S   UNL A   1      48.520  27.443  23.083  1.00  0.00     0.124 S 
ATOM     71  O   UNL A   1      47.370  28.161  22.541  1.00  0.00    -0.237 OA
ATOM     72  O   UNL A   1      49.832  27.931  22.670  1.00  0.00    -0.237 OA
ATOM     73  O   UNL A   1      48.378  25.988  23.117  1.00  0.00    -0.744 OA
ENDBRANCH  66  70
ENDBRANCH  49  63
BRANCH  50  74
ATOM     74  C   UNL A   1      38.436  31.131  31.051  1.00  0.00     0.023 A 
ATOM     75  C   UNL A   1      37.374  31.723  30.352  1.00  0.00     0.031 A 
ATOM     76  C   UNL A   1      38.286  30.921  32.433  1.00  0.00     0.131 A 
ATOM     77  C   UNL A   1      36.221  32.126  31.043  1.00  0.00     0.055 A 
ATOM     78  C   UNL A   1      37.120  31.282  33.108  1.00  0.00     0.041 A 
ATOM     79  F   UNL A   1      39.271  30.350  33.143  1.00  0.00    -0.206 F 
ATOM     80  C   UNL A   1      36.083  31.899  32.415  1.00  0.00     0.022 A 
BRANCH  77  81
ATOM     81  S   UNL A   1      34.930  33.018  30.134  1.00  0.00     0.124 S 
ATOM     82  O   UNL A   1      34.427  31.982  29.237  1.00  0.00    -0.237 OA
ATOM     83  O   UNL A   1      34.031  33.426  31.208  1.00  0.00    -0.237 OA
ATOM     84  O   UNL A   1      35.659  34.105  29.486  1.00  0.00    -0.744 OA
ENDBRANCH  77  81
ENDBRANCH  50  74
BRANCH  62  85
ATOM     85  C   UNL A   1      44.315  34.620  29.759  1.00  0.00     0.023 A 
ATOM     86  C   UNL A   1      44.081  35.638  28.816  1.00  0.00     0.031 A 
ATOM     87  C   UNL A   1      44.982  34.960  30.947  1.00  0.00     0.131 A 
ATOM     88  C   UNL A   1      44.576  36.930  29.044  1.00  0.00     0.055 A 
ATOM     89  C   UNL A   1      45.419  36.263  31.197  1.00  0.00     0.041 A 
ATOM     90  F   UNL A   1      45.233  34.030  31.882  1.00  0.00    -0.206 F 
ATOM     91  C   UNL A   1      45.233  37.252  30.235  1.00  0.00     0.022 A 
BRANCH  88  92
ATOM     92  S   UNL A   1      44.456  38.156  27.712  1.00  0.00     0.124 S 
ATOM     93  O   UNL A   1      45.800  38.125  27.146  1.00  0.00    -0.237 OA
ATOM     94  O   UNL A   1      43.398  37.601  26.874  1.00  0.00    -0.237 OA
ATOM     95  O   UNL A   1      44.108  39.391  28.413  1.00  0.00    -0.744 OA
ENDBRANCH  88  92
ENDBRANCH  62  85
ENDBRANCH  36  37
ENDBRANCH  28  31
ENDBRANCH  26  27
ENDBRANCH  25  26
ENDBRANCH   1  25
TORSDOF 17
ENDMDL
MODEL 3
REMARK VINA RESULT:     -11.7      4.194      9.321
REMARK SMILES CC1(C)CCC[C@H]1NS(=O)(=O)c1ccc(CC(=O)NCCCNC(=O)c2ccc(-c3c4nc(c(-c5cc(S(=O)(=O)[O-])ccc5F)c5ccc([nH]5)c(-c5cc(S(=O)(=O)[O-])ccc5F)c5nc(c(-c6cc(S(=O)(=O)[O-])ccc6F)c6ccc3[nH]6)C=C5)C=C4)cc2)cc1
REMARK SMILES IDX 20 1 19 2 17 3 18 4 16 6 15 7 12 8 13 9 90 10 14 11 89 12
REMARK SMILES IDX 9 13 10 14 11 15 8 16 7 18 1 19 2 20 3 21 4 22 5 23 6 24
REMARK SMILES IDX 21 25 22 26 23 27 24 28 25 30 26 31 27 32 88 33 28 34 87 35
REMARK SMILES IDX 29 36 30 37 31 38 81 39 32 40 86 41 80 42 82 43 33 44 85 45
REMARK SMILES IDX 79 46 78 47 34 49 66 50 46 51 65 52 47 53 50 54 64 55 83 56
REMARK SMILES IDX 48 57 49 58 63 60 84 61 51 62 35 63 36 64 44 65 37 66 43 67
REMARK SMILES IDX 45 68 42 69 38 70 39 71 40 72 41 73 67 74 68 75 76 76 69 77
REMARK SMILES IDX 75 78 77 79 74 80 70 81 71 82 72 83 73 84 52 85 53 86 61 87
REMARK SMILES IDX 54 88 60 89 62 90 59 91 55 92 56 93 57 94 58 95
REMARK H PARENT 19 5 8 17 23 29 82 48 50 59
REMARK Flexibility Score: inf
ROOT
ATOM      1  C   UNL A   1      35.546  22.517  23.803  1.00  0.00     0.117 C 
ENDROOT
BRANCH   1   2
ATOM      2  N   UNL A   1      34.583  21.769  24.592  1.00  0.00    -0.356 N 
ATOM      3  C   UNL A   1      33.281  21.474  24.306  1.00  0.00     0.224 C 
ATOM      4  O   UNL A   1      32.621  20.843  25.134  1.00  0.00    -0.275 OA
ATOM      5  H   UNL A   1      34.915  21.426  25.453  1.00  0.00     0.163 HD
BRANCH   3   6
ATOM      6  C   UNL A   1      32.683  21.890  22.975  1.00  0.00     0.135 C 
BRANCH   6   7
ATOM      7  C   UNL A   1      32.077  23.274  22.967  1.00  0.00    -0.039 A 
ATOM      8  C   UNL A   1      30.940  25.830  22.994  1.00  0.00     0.082 A 
ATOM      9  C   UNL A   1      32.106  25.607  22.265  1.00  0.00     0.022 A 
ATOM     10  C   UNL A   1      30.332  24.787  23.702  1.00  0.00     0.022 A 
ATOM     11  C   UNL A   1      32.684  24.333  22.270  1.00  0.00     0.005 A 
ATOM     12  C   UNL A   1      30.900  23.516  23.688  1.00  0.00     0.005 A 
BRANCH   8  13
ATOM     13  S   UNL A   1      30.207  27.433  23.157  1.00  0.00     0.240 S 
ATOM     14  O   UNL A   1      28.829  27.227  23.540  1.00  0.00    -0.207 OA
ATOM     15  O   UNL A   1      30.556  28.168  21.963  1.00  0.00    -0.207 OA
BRANCH  13  16
ATOM     16  N   UNL A   1      31.000  28.208  24.414  1.00  0.00    -0.208 NA
ATOM     17  H   UNL A   1      31.649  28.860  23.974  1.00  0.00     0.141 HD
BRANCH  16  18
ATOM     18  C   UNL A   1      31.776  27.500  25.440  1.00  0.00     0.075 C 
ATOM     19  C   UNL A   1      33.783  28.149  23.878  1.00  0.00     0.013 C 
ATOM     20  C   UNL A   1      33.302  27.795  25.293  1.00  0.00    -0.019 C 
ATOM     21  C   UNL A   1      34.116  26.572  25.766  1.00  0.00     0.013 C 
ATOM     22  C   UNL A   1      33.510  28.985  26.244  1.00  0.00     0.008 C 
ATOM     23  C   UNL A   1      32.638  28.660  27.444  1.00  0.00     0.002 C 
ATOM     24  C   UNL A   1      31.413  27.965  26.862  1.00  0.00     0.020 C 
ENDBRANCH  16  18
ENDBRANCH  13  16
ENDBRANCH   8  13
ENDBRANCH   6   7
ENDBRANCH   3   6
ENDBRANCH   1   2
BRANCH   1  25
ATOM     25  C   UNL A   1      36.358  23.505  24.639  1.00  0.00     0.042 C 
BRANCH  25  26
ATOM     26  C   UNL A   1      36.675  23.038  26.059  1.00  0.00     0.118 C 
BRANCH  26  27
ATOM     27  N   UNL A   1      37.857  22.195  26.118  1.00  0.00    -0.352 N 
ATOM     28  C   UNL A   1      39.175  22.506  26.336  1.00  0.00     0.251 C 
ATOM     29  H   UNL A   1      37.682  21.237  25.979  1.00  0.00     0.163 HD
ATOM     30  O   UNL A   1      40.015  21.626  26.151  1.00  0.00    -0.269 OA
BRANCH  28  31
ATOM     31  C   UNL A   1      39.607  23.858  26.767  1.00  0.00     0.039 A 
ATOM     32  C   UNL A   1      39.567  24.156  28.133  1.00  0.00     0.014 A 
ATOM     33  C   UNL A   1      39.974  24.854  25.856  1.00  0.00     0.014 A 
ATOM     34  C   UNL A   1      39.932  25.426  28.587  1.00  0.00     0.010 A 
ATOM     35  C   UNL A   1      40.396  26.105  26.316  1.00  0.00     0.010 A 
ATOM     36  C   UNL A   1      40.375  26.407  27.686  1.00  0.00    -0.014 A 
BRANCH  36  37
ATOM     37  C   UNL A   1      40.821  27.736  28.182  1.00  0.00     0.031 A 
ATOM     38  C   UNL A   1      42.283  28.094  28.222  1.00  0.00     0.074 A 
ATOM     39  C   UNL A   1      39.901  28.617  28.622  1.00  0.00     0.049 A 
ATOM     40  N   UNL A   1      42.851  29.209  28.606  1.00  0.00    -0.248 NA
ATOM     41  C   UNL A   1      43.230  27.053  27.799  1.00  0.00     0.031 C 
ATOM     42  C   UNL A   1      38.460  28.367  28.687  1.00  0.00     0.029 A 
ATOM     43  N   UNL A   1      40.038  29.897  29.095  1.00  0.00    -0.354 N 
ATOM     44  C   UNL A   1      44.221  29.005  28.478  1.00  0.00     0.074 A 
ATOM     45  C   UNL A   1      44.396  27.638  28.032  1.00  0.00     0.031 C 
ATOM     46  C   UNL A   1      37.843  29.468  29.146  1.00  0.00     0.029 A 
ATOM     47  C   UNL A   1      38.843  30.491  29.432  1.00  0.00     0.049 A 
ATOM     48  H   UNL A   1      40.908  30.349  29.185  1.00  0.00     0.167 HD
ATOM     49  C   UNL A   1      45.237  29.879  28.694  1.00  0.00     0.034 A 
ATOM     50  C   UNL A   1      38.582  31.722  29.912  1.00  0.00     0.034 A 
ATOM     51  C   UNL A   1      45.050  31.243  29.132  1.00  0.00     0.049 A 
ATOM     52  C   UNL A   1      39.721  32.683  30.119  1.00  0.00     0.074 A 
ATOM     53  C   UNL A   1      46.003  32.227  29.332  1.00  0.00     0.029 A 
ATOM     54  N   UNL A   1      43.823  31.817  29.447  1.00  0.00    -0.354 N 
ATOM     55  N   UNL A   1      41.008  32.491  29.937  1.00  0.00    -0.248 NA
ATOM     56  C   UNL A   1      39.369  34.032  30.576  1.00  0.00     0.031 C 
ATOM     57  C   UNL A   1      45.363  33.374  29.817  1.00  0.00     0.029 A 
ATOM     58  C   UNL A   1      44.000  33.130  29.860  1.00  0.00     0.049 A 
ATOM     59  H   UNL A   1      42.955  31.357  29.385  1.00  0.00     0.167 HD
ATOM     60  C   UNL A   1      41.616  33.705  30.241  1.00  0.00     0.074 A 
ATOM     61  C   UNL A   1      40.553  34.626  30.589  1.00  0.00     0.031 C 
ATOM     62  C   UNL A   1      42.935  34.031  30.234  1.00  0.00     0.034 A 
BRANCH  49  63
ATOM     63  C   UNL A   1      46.645  29.370  28.484  1.00  0.00     0.023 A 
ATOM     64  C   UNL A   1      47.378  28.775  29.525  1.00  0.00     0.031 A 
ATOM     65  C   UNL A   1      47.273  29.506  27.233  1.00  0.00     0.131 A 
ATOM     66  C   UNL A   1      48.717  28.408  29.320  1.00  0.00     0.055 A 
ATOM     67  C   UNL A   1      48.580  29.068  27.013  1.00  0.00     0.041 A 
ATOM     68  F   UNL A   1      46.630  30.082  26.205  1.00  0.00    -0.206 F 
ATOM     69  C   UNL A   1      49.316  28.528  28.064  1.00  0.00     0.022 A 
BRANCH  66  70
ATOM     70  S   UNL A   1      49.707  27.898  30.752  1.00  0.00     0.124 S 
ATOM     71  O   UNL A   1      48.723  27.162  31.543  1.00  0.00    -0.237 OA
ATOM     72  O   UNL A   1      50.761  27.098  30.139  1.00  0.00    -0.237 OA
ATOM     73  O   UNL A   1      50.144  29.165  31.336  1.00  0.00    -0.744 OA
ENDBRANCH  66  70
ENDBRANCH  49  63
BRANCH  50  74
ATOM     74  C   UNL A   1      37.182  32.123  30.226  1.00  0.00     0.023 A 
ATOM     75  C   UNL A   1      36.372  32.737  29.259  1.00  0.00     0.031 A 
ATOM     76  C   UNL A   1      36.648  31.928  31.511  1.00  0.00     0.131 A 
ATOM     77  C   UNL A   1      35.084  33.175  29.602  1.00  0.00     0.055 A 
ATOM     78  C   UNL A   1      35.350  32.325  31.836  1.00  0.00     0.041 A 
ATOM     79  F   UNL A   1      37.382  31.338  32.468  1.00  0.00    -0.206 F 
ATOM     80  C   UNL A   1      34.565  32.963  30.881  1.00  0.00     0.022 A 
BRANCH  77  81
ATOM     81  S   UNL A   1      34.122  34.092  28.369  1.00  0.00     0.124 S 
ATOM     82  O   UNL A   1      33.654  35.236  29.145  1.00  0.00    -0.237 OA
ATOM     83  O   UNL A   1      35.128  34.377  27.351  1.00  0.00    -0.237 OA
ATOM     84  O   UNL A   1      33.086  33.143  27.970  1.00  0.00    -0.744 OA
ENDBRANCH  77  81
ENDBRANCH  50  74
BRANCH  62  85
ATOM     85  C   UNL A   1      43.279  35.454  30.597  1.00  0.00     0.023 A 
ATOM     86  C   UNL A   1      43.382  36.458  29.616  1.00  0.00     0.031 A 
ATOM     87  C   UNL A   1      43.559  35.800  31.930  1.00  0.00     0.131 A 
ATOM     88  C   UNL A   1      43.827  37.740  29.972  1.00  0.00     0.055 A 
ATOM     89  C   UNL A   1      43.944  37.094  32.287  1.00  0.00     0.041 A 
ATOM     90  F   UNL A   1      43.478  34.882  32.906  1.00  0.00    -0.206 F 
ATOM     91  C   UNL A   1      44.097  38.068  31.303  1.00  0.00     0.022 A 
BRANCH  88  92
ATOM     92  S   UNL A   1      44.165  38.939  28.654  1.00  0.00     0.124 S 
ATOM     93  O   UNL A   1      43.635  38.258  27.477  1.00  0.00    -0.237 OA
ATOM     94  O   UNL A   1      43.420  40.111  29.101  1.00  0.00    -0.237 OA
ATOM     95  O   UNL A   1      45.620  39.081  28.684  1.00  0.00    -0.744 OA
ENDBRANCH  88  92
ENDBRANCH  62  85
ENDBRANCH  36  37
ENDBRANCH  28  31
ENDBRANCH  26  27
ENDBRANCH  25  26
ENDBRANCH   1  25
TORSDOF 17
ENDMDL
