MODEL 1
REMARK VINA RESULT:     -10.8      0.000      0.000
REMARK SMILES Cc1cccc2nc([C@@H]3CCCC[C@@H]3C(=O)NCCCNC(=O)c3ccc(-c4c5nc(c(-c6cc(S(=O)(=O)[O-])ccc6F)c6ccc([nH]6)c(-c6cc(S(=O)(=O)[O-])ccc6F)c6nc(c(-c7cc(S(=O)(=O)[O-])ccc7F)c7ccc4[nH]7)C=C6)C=C5)cc3)oc12
REMARK SMILES IDX 20 1 19 2 18 3 17 4 15 5 16 6 14 8 9 9 10 10 11 11 13 12
REMARK SMILES IDX 12 13 8 14 1 15 2 16 3 17 88 18 4 19 6 20 87 21 5 22 7 23
REMARK SMILES IDX 21 24 22 25 23 27 24 28 25 29 86 30 26 31 85 32 27 33 28 34
REMARK SMILES IDX 29 35 79 36 30 37 84 38 78 39 80 40 31 41 83 42 77 43 76 44
REMARK SMILES IDX 32 46 64 47 44 48 63 49 45 50 48 51 62 52 81 53 46 54 47 55
REMARK SMILES IDX 61 57 82 58 49 59 33 60 34 61 42 62 35 63 41 64 43 65 40 66
REMARK SMILES IDX 36 67 37 68 38 69 39 70 65 71 66 72 74 73 67 74 73 75 75 76
REMARK SMILES IDX 72 77 68 78 69 79 70 80 71 81 50 82 51 83 59 84 52 85 58 86
REMARK SMILES IDX 60 87 57 88 53 89 54 90 55 91 56 92
REMARK H PARENT 17 7 21 26 80 45 48 56
REMARK Flexibility Score: inf
ROOT
ATOM      1  C   UNL A   1      43.186  23.786  25.075  1.00  0.00     0.118 C 
ENDROOT
BRANCH   1   2
ATOM      2  C   UNL A   1      44.628  23.322  25.057  1.00  0.00     0.042 C 
BRANCH   2   3
ATOM      3  C   UNL A   1      45.259  23.438  26.441  1.00  0.00     0.117 C 
BRANCH   3   4
ATOM      4  N   UNL A   1      46.679  23.743  26.427  1.00  0.00    -0.356 N 
ATOM      5  C   UNL A   1      47.417  24.700  27.040  1.00  0.00     0.223 C 
ATOM      6  O   UNL A   1      48.589  24.380  27.291  1.00  0.00    -0.275 OA
ATOM      7  H   UNL A   1      47.210  23.137  25.861  1.00  0.00     0.163 HD
BRANCH   5   8
ATOM      8  C   UNL A   1      47.028  26.175  27.261  1.00  0.00     0.091 C 
ATOM      9  C   UNL A   1      45.710  26.635  27.904  1.00  0.00     0.088 C 
ATOM     10  C   UNL A   1      44.510  26.642  26.933  1.00  0.00     0.014 C 
ATOM     11  C   UNL A   1      44.821  27.182  25.530  1.00  0.00     0.001 C 
ATOM     12  C   UNL A   1      47.278  26.924  25.943  1.00  0.00     0.014 C 
ATOM     13  C   UNL A   1      46.144  26.694  24.955  1.00  0.00     0.001 C 
BRANCH   9  14
ATOM     14  C   UNL A   1      45.470  25.918  29.204  1.00  0.00     0.199 A 
ATOM     15  C   UNL A   1      46.246  26.848  33.431  1.00  0.00     0.048 C 
ATOM     16  C   UNL A   1      45.504  25.754  32.737  1.00  0.00    -0.006 A 
ATOM     17  C   UNL A   1      44.907  24.698  33.460  1.00  0.00     0.007 A 
ATOM     18  C   UNL A   1      45.401  25.644  31.348  1.00  0.00     0.157 A 
ATOM     19  C   UNL A   1      44.263  23.627  32.827  1.00  0.00     0.003 A 
ATOM     20  C   UNL A   1      44.822  24.566  30.701  1.00  0.00     0.110 A 
ATOM     21  O   UNL A   1      45.821  26.533  30.383  1.00  0.00    -0.440 OA
ATOM     22  C   UNL A   1      44.225  23.538  31.435  1.00  0.00     0.032 A 
ATOM     23  N   UNL A   1      44.948  24.719  29.357  1.00  0.00    -0.213 NA
ENDBRANCH   9  14
ENDBRANCH   5   8
ENDBRANCH   3   4
ENDBRANCH   2   3
ENDBRANCH   1   2
BRANCH   1  24
ATOM     24  N   UNL A   1      42.246  22.673  25.249  1.00  0.00    -0.352 N 
ATOM     25  C   UNL A   1      41.287  22.534  26.235  1.00  0.00     0.251 C 
ATOM     26  H   UNL A   1      42.305  21.944  24.591  1.00  0.00     0.163 HD
ATOM     27  O   UNL A   1      40.722  21.475  26.435  1.00  0.00    -0.269 OA
BRANCH  25  28
ATOM     28  C   UNL A   1      41.002  23.723  27.053  1.00  0.00     0.039 A 
ATOM     29  C   UNL A   1      41.754  23.975  28.201  1.00  0.00     0.014 A 
ATOM     30  C   UNL A   1      40.099  24.657  26.549  1.00  0.00     0.014 A 
ATOM     31  C   UNL A   1      41.663  25.230  28.791  1.00  0.00     0.010 A 
ATOM     32  C   UNL A   1      40.107  25.935  27.063  1.00  0.00     0.010 A 
ATOM     33  C   UNL A   1      40.863  26.220  28.201  1.00  0.00    -0.014 A 
BRANCH  33  34
ATOM     34  C   UNL A   1      40.848  27.566  28.766  1.00  0.00     0.031 A 
ATOM     35  C   UNL A   1      41.785  28.575  28.184  1.00  0.00     0.074 A 
ATOM     36  C   UNL A   1      39.924  27.975  29.656  1.00  0.00     0.049 A 
ATOM     37  N   UNL A   1      42.823  29.114  28.737  1.00  0.00    -0.248 NA
ATOM     38  C   UNL A   1      41.570  28.993  26.793  1.00  0.00     0.031 C 
ATOM     39  C   UNL A   1      38.705  27.293  30.105  1.00  0.00     0.029 A 
ATOM     40  N   UNL A   1      39.849  29.178  30.280  1.00  0.00    -0.354 N 
ATOM     41  C   UNL A   1      43.308  30.064  27.834  1.00  0.00     0.074 A 
ATOM     42  C   UNL A   1      42.574  29.854  26.609  1.00  0.00     0.031 C 
ATOM     43  C   UNL A   1      37.905  28.178  30.737  1.00  0.00     0.029 A 
ATOM     44  C   UNL A   1      38.640  29.417  30.903  1.00  0.00     0.049 A 
ATOM     45  H   UNL A   1      40.593  29.823  30.288  1.00  0.00     0.167 HD
ATOM     46  C   UNL A   1      44.168  31.061  28.204  1.00  0.00     0.034 A 
ATOM     47  C   UNL A   1      38.249  30.577  31.475  1.00  0.00     0.034 A 
ATOM     48  C   UNL A   1      44.687  30.848  29.527  1.00  0.00     0.049 A 
ATOM     49  C   UNL A   1      39.469  31.360  31.790  1.00  0.00     0.074 A 
ATOM     50  C   UNL A   1      45.463  29.879  30.131  1.00  0.00     0.029 A 
ATOM     51  N   UNL A   1      44.123  31.565  30.555  1.00  0.00    -0.354 N 
ATOM     52  N   UNL A   1      40.354  31.013  32.686  1.00  0.00    -0.248 NA
ATOM     53  C   UNL A   1      39.928  32.334  30.811  1.00  0.00     0.031 C 
ATOM     54  C   UNL A   1      44.934  29.755  31.447  1.00  0.00     0.029 A 
ATOM     55  C   UNL A   1      43.894  30.681  31.576  1.00  0.00     0.049 A 
ATOM     56  H   UNL A   1      43.921  32.529  30.557  1.00  0.00     0.167 HD
ATOM     57  C   UNL A   1      41.576  31.381  32.141  1.00  0.00     0.074 A 
ATOM     58  C   UNL A   1      41.241  32.293  31.051  1.00  0.00     0.031 C 
ATOM     59  C   UNL A   1      42.728  30.708  32.439  1.00  0.00     0.034 A 
BRANCH  46  60
ATOM     60  C   UNL A   1      44.340  32.383  27.494  1.00  0.00     0.023 A 
ATOM     61  C   UNL A   1      43.635  33.540  27.866  1.00  0.00     0.031 A 
ATOM     62  C   UNL A   1      45.383  32.572  26.559  1.00  0.00     0.131 A 
ATOM     63  C   UNL A   1      43.939  34.794  27.314  1.00  0.00     0.055 A 
ATOM     64  C   UNL A   1      45.730  33.834  26.058  1.00  0.00     0.041 A 
ATOM     65  F   UNL A   1      46.133  31.540  26.141  1.00  0.00    -0.206 F 
ATOM     66  C   UNL A   1      45.003  34.955  26.433  1.00  0.00     0.022 A 
BRANCH  63  67
ATOM     67  S   UNL A   1      42.943  36.246  27.743  1.00  0.00     0.124 S 
ATOM     68  O   UNL A   1      43.453  37.244  26.808  1.00  0.00    -0.237 OA
ATOM     69  O   UNL A   1      41.587  35.767  27.483  1.00  0.00    -0.237 OA
ATOM     70  O   UNL A   1      43.259  36.469  29.151  1.00  0.00    -0.744 OA
ENDBRANCH  63  67
ENDBRANCH  46  60
BRANCH  47  71
ATOM     71  C   UNL A   1      36.905  31.178  31.343  1.00  0.00     0.023 A 
ATOM     72  C   UNL A   1      36.370  31.445  30.067  1.00  0.00     0.031 A 
ATOM     73  C   UNL A   1      36.253  31.741  32.448  1.00  0.00     0.131 A 
ATOM     74  C   UNL A   1      35.258  32.283  29.919  1.00  0.00     0.055 A 
ATOM     75  C   UNL A   1      35.136  32.572  32.300  1.00  0.00     0.041 A 
ATOM     76  F   UNL A   1      36.724  31.545  33.688  1.00  0.00    -0.206 F 
ATOM     77  C   UNL A   1      34.641  32.856  31.030  1.00  0.00     0.022 A 
BRANCH  74  78
ATOM     78  S   UNL A   1      34.631  32.662  28.259  1.00  0.00     0.124 S 
ATOM     79  O   UNL A   1      35.831  33.114  27.560  1.00  0.00    -0.237 OA
ATOM     80  O   UNL A   1      34.108  31.367  27.836  1.00  0.00    -0.237 OA
ATOM     81  O   UNL A   1      33.636  33.701  28.508  1.00  0.00    -0.744 OA
ENDBRANCH  74  78
ENDBRANCH  47  71
BRANCH  59  82
ATOM     82  C   UNL A   1      42.726  29.697  33.564  1.00  0.00     0.023 A 
ATOM     83  C   UNL A   1      43.254  30.098  34.805  1.00  0.00     0.031 A 
ATOM     84  C   UNL A   1      42.464  28.325  33.385  1.00  0.00     0.131 A 
ATOM     85  C   UNL A   1      43.535  29.148  35.796  1.00  0.00     0.055 A 
ATOM     86  C   UNL A   1      42.686  27.388  34.399  1.00  0.00     0.041 A 
ATOM     87  F   UNL A   1      42.074  27.838  32.201  1.00  0.00    -0.206 F 
ATOM     88  C   UNL A   1      43.238  27.796  35.607  1.00  0.00     0.022 A 
BRANCH  85  89
ATOM     89  S   UNL A   1      44.417  29.623  37.304  1.00  0.00     0.124 S 
ATOM     90  O   UNL A   1      45.664  30.170  36.775  1.00  0.00    -0.237 OA
ATOM     91  O   UNL A   1      43.508  30.601  37.899  1.00  0.00    -0.237 OA
ATOM     92  O   UNL A   1      44.551  28.373  38.046  1.00  0.00    -0.744 OA
ENDBRANCH  85  89
ENDBRANCH  59  82
ENDBRANCH  33  34
ENDBRANCH  25  28
ENDBRANCH   1  24
TORSDOF 14
ENDMDL
MODEL 2
REMARK VINA RESULT:     -10.6      3.232     10.216
REMARK SMILES Cc1cccc2nc([C@@H]3CCCC[C@@H]3C(=O)NCCCNC(=O)c3ccc(-c4c5nc(c(-c6cc(S(=O)(=O)[O-])ccc6F)c6ccc([nH]6)c(-c6cc(S(=O)(=O)[O-])ccc6F)c6nc(c(-c7cc(S(=O)(=O)[O-])ccc7F)c7ccc4[nH]7)C=C6)C=C5)cc3)oc12
REMARK SMILES IDX 20 1 19 2 18 3 17 4 15 5 16 6 14 8 9 9 10 10 11 11 13 12
REMARK SMILES IDX 12 13 8 14 1 15 2 16 3 17 88 18 4 19 6 20 87 21 5 22 7 23
REMARK SMILES IDX 21 24 22 25 23 27 24 28 25 29 86 30 26 31 85 32 27 33 28 34
REMARK SMILES IDX 29 35 79 36 30 37 84 38 78 39 80 40 31 41 83 42 77 43 76 44
REMARK SMILES IDX 32 46 64 47 44 48 63 49 45 50 48 51 62 52 81 53 46 54 47 55
REMARK SMILES IDX 61 57 82 58 49 59 33 60 34 61 42 62 35 63 41 64 43 65 40 66
REMARK SMILES IDX 36 67 37 68 38 69 39 70 65 71 66 72 74 73 67 74 73 75 75 76
REMARK SMILES IDX 72 77 68 78 69 79 70 80 71 81 50 82 51 83 59 84 52 85 58 86
REMARK SMILES IDX 60 87 57 88 53 89 54 90 55 91 56 92
REMARK H PARENT 17 7 21 26 80 45 48 56
REMARK Flexibility Score: inf
ROOT
ATOM      1  C   UNL A   1      35.303  32.276  31.898  1.00  0.00     0.118 C 
ENDROOT
BRANCH   1   2
ATOM      2  C   UNL A   1      35.448  33.556  32.694  1.00  0.00     0.042 C 
BRANCH   2   3
ATOM      3  C   UNL A   1      36.844  34.149  32.530  1.00  0.00     0.117 C 
BRANCH   3   4
ATOM      4  N   UNL A   1      37.403  34.706  33.748  1.00  0.00    -0.356 N 
ATOM      5  C   UNL A   1      38.628  34.612  34.322  1.00  0.00     0.223 C 
ATOM      6  O   UNL A   1      38.969  35.595  34.999  1.00  0.00    -0.275 OA
ATOM      7  H   UNL A   1      36.770  35.261  34.259  1.00  0.00     0.163 HD
BRANCH   5   8
ATOM      8  C   UNL A   1      39.527  33.362  34.395  1.00  0.00     0.091 C 
ATOM      9  C   UNL A   1      39.944  32.525  33.175  1.00  0.00     0.088 C 
ATOM     10  C   UNL A   1      38.871  31.517  32.713  1.00  0.00     0.014 C 
ATOM     11  C   UNL A   1      38.154  30.775  33.849  1.00  0.00     0.001 C 
ATOM     12  C   UNL A   1      38.977  32.459  35.509  1.00  0.00     0.014 C 
ATOM     13  C   UNL A   1      37.776  31.660  35.029  1.00  0.00     0.001 C 
BRANCH   9  14
ATOM     14  C   UNL A   1      40.500  33.403  32.089  1.00  0.00     0.199 A 
ATOM     15  C   UNL A   1      44.410  35.261  31.319  1.00  0.00     0.048 C 
ATOM     16  C   UNL A   1      43.155  35.137  30.521  1.00  0.00    -0.006 A 
ATOM     17  C   UNL A   1      43.033  35.729  29.244  1.00  0.00     0.007 A 
ATOM     18  C   UNL A   1      41.998  34.504  30.984  1.00  0.00     0.157 A 
ATOM     19  C   UNL A   1      41.844  35.682  28.505  1.00  0.00     0.003 A 
ATOM     20  C   UNL A   1      40.795  34.496  30.298  1.00  0.00     0.110 A 
ATOM     21  O   UNL A   1      41.818  33.790  32.148  1.00  0.00    -0.440 OA
ATOM     22  C   UNL A   1      40.701  35.077  29.031  1.00  0.00     0.032 A 
ATOM     23  N   UNL A   1      39.848  33.871  31.045  1.00  0.00    -0.213 NA
ENDBRANCH   9  14
ENDBRANCH   5   8
ENDBRANCH   3   4
ENDBRANCH   2   3
ENDBRANCH   1   2
BRANCH   1  24
ATOM     24  N   UNL A   1      34.451  32.448  30.716  1.00  0.00    -0.352 N 
ATOM     25  C   UNL A   1      34.790  32.209  29.398  1.00  0.00     0.251 C 
ATOM     26  H   UNL A   1      33.536  32.772  30.880  1.00  0.00     0.163 HD
ATOM     27  O   UNL A   1      34.101  32.605  28.476  1.00  0.00    -0.269 OA
BRANCH  25  28
ATOM     28  C   UNL A   1      36.043  31.475  29.159  1.00  0.00     0.039 A 
ATOM     29  C   UNL A   1      37.258  32.159  29.148  1.00  0.00     0.014 A 
ATOM     30  C   UNL A   1      35.985  30.083  29.129  1.00  0.00     0.014 A 
ATOM     31  C   UNL A   1      38.435  31.421  29.207  1.00  0.00     0.010 A 
ATOM     32  C   UNL A   1      37.145  29.364  29.312  1.00  0.00     0.010 A 
ATOM     33  C   UNL A   1      38.375  30.024  29.322  1.00  0.00    -0.014 A 
BRANCH  33  34
ATOM     34  C   UNL A   1      39.609  29.261  29.484  1.00  0.00     0.031 A 
ATOM     35  C   UNL A   1      39.987  28.835  30.866  1.00  0.00     0.074 A 
ATOM     36  C   UNL A   1      40.317  28.786  28.442  1.00  0.00     0.049 A 
ATOM     37  N   UNL A   1      40.978  29.250  31.587  1.00  0.00    -0.248 NA
ATOM     38  C   UNL A   1      39.120  27.868  31.551  1.00  0.00     0.031 C 
ATOM     39  C   UNL A   1      39.967  28.763  27.017  1.00  0.00     0.029 A 
ATOM     40  N   UNL A   1      41.497  28.116  28.478  1.00  0.00    -0.354 N 
ATOM     41  C   UNL A   1      40.968  28.486  32.757  1.00  0.00     0.074 A 
ATOM     42  C   UNL A   1      39.730  27.743  32.732  1.00  0.00     0.031 C 
ATOM     43  C   UNL A   1      40.791  27.913  26.369  1.00  0.00     0.029 A 
ATOM     44  C   UNL A   1      41.833  27.498  27.289  1.00  0.00     0.049 A 
ATOM     45  H   UNL A   1      42.064  28.074  29.281  1.00  0.00     0.167 HD
ATOM     46  C   UNL A   1      42.050  28.397  33.589  1.00  0.00     0.034 A 
ATOM     47  C   UNL A   1      42.872  26.658  27.087  1.00  0.00     0.034 A 
ATOM     48  C   UNL A   1      43.059  29.362  33.249  1.00  0.00     0.049 A 
ATOM     49  C   UNL A   1      43.869  26.908  28.157  1.00  0.00     0.074 A 
ATOM     50  C   UNL A   1      43.126  30.740  33.219  1.00  0.00     0.029 A 
ATOM     51  N   UNL A   1      44.142  28.923  32.526  1.00  0.00    -0.354 N 
ATOM     52  N   UNL A   1      44.556  28.012  28.277  1.00  0.00    -0.248 NA
ATOM     53  C   UNL A   1      43.808  26.081  29.353  1.00  0.00     0.031 C 
ATOM     54  C   UNL A   1      43.936  31.043  32.088  1.00  0.00     0.029 A 
ATOM     55  C   UNL A   1      44.342  29.832  31.521  1.00  0.00     0.049 A 
ATOM     56  H   UNL A   1      44.672  28.111  32.697  1.00  0.00     0.167 HD
ATOM     57  C   UNL A   1      44.647  28.227  29.645  1.00  0.00     0.074 A 
ATOM     58  C   UNL A   1      44.277  26.951  30.251  1.00  0.00     0.031 C 
ATOM     59  C   UNL A   1      44.745  29.486  30.170  1.00  0.00     0.034 A 
BRANCH  46  60
ATOM     60  C   UNL A   1      42.337  27.260  34.541  1.00  0.00     0.023 A 
ATOM     61  C   UNL A   1      43.154  26.171  34.197  1.00  0.00     0.031 A 
ATOM     62  C   UNL A   1      41.970  27.348  35.903  1.00  0.00     0.131 A 
ATOM     63  C   UNL A   1      43.551  25.221  35.149  1.00  0.00     0.055 A 
ATOM     64  C   UNL A   1      42.421  26.436  36.868  1.00  0.00     0.041 A 
ATOM     65  F   UNL A   1      41.202  28.354  36.350  1.00  0.00    -0.206 F 
ATOM     66  C   UNL A   1      43.215  25.362  36.492  1.00  0.00     0.022 A 
BRANCH  63  67
ATOM     67  S   UNL A   1      44.524  23.776  34.648  1.00  0.00     0.124 S 
ATOM     68  O   UNL A   1      43.508  22.728  34.617  1.00  0.00    -0.237 OA
ATOM     69  O   UNL A   1      45.039  24.199  33.348  1.00  0.00    -0.237 OA
ATOM     70  O   UNL A   1      45.527  23.661  35.702  1.00  0.00    -0.744 OA
ENDBRANCH  63  67
ENDBRANCH  46  60
BRANCH  47  71
ATOM     71  C   UNL A   1      42.813  25.407  26.301  1.00  0.00     0.023 A 
ATOM     72  C   UNL A   1      41.926  24.378  26.674  1.00  0.00     0.031 A 
ATOM     73  C   UNL A   1      43.800  25.100  25.357  1.00  0.00     0.131 A 
ATOM     74  C   UNL A   1      42.068  23.087  26.150  1.00  0.00     0.055 A 
ATOM     75  C   UNL A   1      43.937  23.811  24.826  1.00  0.00     0.041 A 
ATOM     76  F   UNL A   1      44.690  26.028  24.976  1.00  0.00    -0.206 F 
ATOM     77  C   UNL A   1      43.076  22.795  25.232  1.00  0.00     0.022 A 
BRANCH  74  78
ATOM     78  S   UNL A   1      40.953  21.765  26.698  1.00  0.00     0.124 S 
ATOM     79  O   UNL A   1      39.649  22.238  26.241  1.00  0.00    -0.237 OA
ATOM     80  O   UNL A   1      41.488  20.610  25.985  1.00  0.00    -0.237 OA
ATOM     81  O   UNL A   1      41.132  21.759  28.147  1.00  0.00    -0.744 OA
ENDBRANCH  74  78
ENDBRANCH  47  71
BRANCH  59  82
ATOM     82  C   UNL A   1      45.002  30.656  29.247  1.00  0.00     0.023 A 
ATOM     83  C   UNL A   1      46.318  31.147  29.165  1.00  0.00     0.031 A 
ATOM     84  C   UNL A   1      43.983  31.433  28.663  1.00  0.00     0.131 A 
ATOM     85  C   UNL A   1      46.577  32.381  28.554  1.00  0.00     0.055 A 
ATOM     86  C   UNL A   1      44.253  32.633  27.998  1.00  0.00     0.041 A 
ATOM     87  F   UNL A   1      42.693  31.104  28.795  1.00  0.00    -0.206 F 
ATOM     88  C   UNL A   1      45.554  33.120  27.954  1.00  0.00     0.022 A 
BRANCH  85  89
ATOM     89  S   UNL A   1      48.226  33.124  28.640  1.00  0.00     0.124 S 
ATOM     90  O   UNL A   1      49.031  32.183  27.865  1.00  0.00    -0.237 OA
ATOM     91  O   UNL A   1      48.010  34.427  28.012  1.00  0.00    -0.237 OA
ATOM     92  O   UNL A   1      48.522  33.168  30.069  1.00  0.00    -0.744 OA
ENDBRANCH  85  89
ENDBRANCH  59  82
ENDBRANCH  33  34
ENDBRANCH  25  28
ENDBRANCH   1  24
TORSDOF 14
ENDMDL
MODEL 3
REMARK VINA RESULT:     -10.4      4.874     10.959
REMARK SMILES Cc1cccc2nc([C@@H]3CCCC[C@@H]3C(=O)NCCCNC(=O)c3ccc(-c4c5nc(c(-c6cc(S(=O)(=O)[O-])ccc6F)c6ccc([nH]6)c(-c6cc(S(=O)(=O)[O-])ccc6F)c6nc(c(-c7cc(S(=O)(=O)[O-])ccc7F)c7ccc4[nH]7)C=C6)C=C5)cc3)oc12
REMARK SMILES IDX 20 1 19 2 18 3 17 4 15 5 16 6 14 8 9 9 10 10 11 11 13 12
REMARK SMILES IDX 12 13 8 14 1 15 2 16 3 17 88 18 4 19 6 20 87 21 5 22 7 23
REMARK SMILES IDX 21 24 22 25 23 27 24 28 25 29 86 30 26 31 85 32 27 33 28 34
REMARK SMILES IDX 29 35 79 36 30 37 84 38 78 39 80 40 31 41 83 42 77 43 76 44
REMARK SMILES IDX 32 46 64 47 44 48 63 49 45 50 48 51 62 52 81 53 46 54 47 55
REMARK SMILES IDX 61 57 82 58 49 59 33 60 34 61 42 62 35 63 41 64 43 65 40 66
REMARK SMILES IDX 36 67 37 68 38 69 39 70 65 71 66 72 74 73 67 74 73 75 75 76
REMARK SMILES IDX 72 77 68 78 69 79 70 80 71 81 50 82 51 83 59 84 52 85 58 86
REMARK SMILES IDX 60 87 57 88 53 89 54 90 55 91 56 92
REMARK H PARENT 17 7 21 26 80 45 48 56
REMARK Flexibility Score: inf
ROOT
ATOM      1  C   UNL A   1      33.723  29.582  26.756  1.00  0.00     0.118 C 
ENDROOT
BRANCH   1   2
ATOM      2  C   UNL A   1      32.371  28.967  27.057  1.00  0.00     0.042 C 
BRANCH   2   3
ATOM      3  C   UNL A   1      32.406  27.453  26.883  1.00  0.00     0.117 C 
BRANCH   3   4
ATOM      4  N   UNL A   1      31.097  26.828  26.817  1.00  0.00    -0.356 N 
ATOM      5  C   UNL A   1      30.545  25.944  25.950  1.00  0.00     0.223 C 
ATOM      6  O   UNL A   1      29.683  25.197  26.439  1.00  0.00    -0.275 OA
ATOM      7  H   UNL A   1      30.491  27.100  27.544  1.00  0.00     0.163 HD
BRANCH   5   8
ATOM      8  C   UNL A   1      30.717  25.912  24.419  1.00  0.00     0.091 C 
ATOM      9  C   UNL A   1      32.076  25.878  23.702  1.00  0.00     0.088 C 
ATOM     10  C   UNL A   1      32.751  27.260  23.578  1.00  0.00     0.014 C 
ATOM     11  C   UNL A   1      31.802  28.409  23.209  1.00  0.00     0.001 C 
ATOM     12  C   UNL A   1      29.820  27.011  23.828  1.00  0.00     0.014 C 
ATOM     13  C   UNL A   1      30.472  28.379  23.949  1.00  0.00     0.001 C 
BRANCH   9  14
ATOM     14  C   UNL A   1      32.950  24.793  24.265  1.00  0.00     0.199 A 
ATOM     15  C   UNL A   1      32.862  20.398  24.170  1.00  0.00     0.048 C 
ATOM     16  C   UNL A   1      33.860  21.396  24.652  1.00  0.00    -0.006 A 
ATOM     17  C   UNL A   1      35.063  20.993  25.274  1.00  0.00     0.007 A 
ATOM     18  C   UNL A   1      33.665  22.779  24.600  1.00  0.00     0.157 A 
ATOM     19  C   UNL A   1      35.984  21.911  25.794  1.00  0.00     0.003 A 
ATOM     20  C   UNL A   1      34.532  23.702  25.159  1.00  0.00     0.110 A 
ATOM     21  O   UNL A   1      32.635  23.479  24.010  1.00  0.00    -0.440 OA
ATOM     22  C   UNL A   1      35.722  23.282  25.757  1.00  0.00     0.032 A 
ATOM     23  N   UNL A   1      34.024  24.954  25.009  1.00  0.00    -0.213 NA
ENDBRANCH   9  14
ENDBRANCH   5   8
ENDBRANCH   3   4
ENDBRANCH   2   3
ENDBRANCH   1   2
BRANCH   1  24
ATOM     24  N   UNL A   1      33.895  30.889  27.398  1.00  0.00    -0.352 N 
ATOM     25  C   UNL A   1      34.891  31.263  28.281  1.00  0.00     0.251 C 
ATOM     26  H   UNL A   1      33.227  31.577  27.177  1.00  0.00     0.163 HD
ATOM     27  O   UNL A   1      34.814  32.285  28.939  1.00  0.00    -0.269 OA
BRANCH  25  28
ATOM     28  C   UNL A   1      36.037  30.351  28.411  1.00  0.00     0.039 A 
ATOM     29  C   UNL A   1      37.034  30.343  27.435  1.00  0.00     0.014 A 
ATOM     30  C   UNL A   1      36.176  29.647  29.606  1.00  0.00     0.014 A 
ATOM     31  C   UNL A   1      38.231  29.693  27.715  1.00  0.00     0.010 A 
ATOM     32  C   UNL A   1      37.405  29.114  29.926  1.00  0.00     0.010 A 
ATOM     33  C   UNL A   1      38.427  29.106  28.974  1.00  0.00    -0.014 A 
BRANCH  33  34
ATOM     34  C   UNL A   1      39.720  28.513  29.300  1.00  0.00     0.031 A 
ATOM     35  C   UNL A   1      40.164  28.554  30.727  1.00  0.00     0.074 A 
ATOM     36  C   UNL A   1      40.437  27.794  28.416  1.00  0.00     0.049 A 
ATOM     37  N   UNL A   1      41.137  29.233  31.242  1.00  0.00    -0.248 NA
ATOM     38  C   UNL A   1      39.393  27.783  31.710  1.00  0.00     0.031 C 
ATOM     39  C   UNL A   1      40.055  27.317  27.083  1.00  0.00     0.029 A 
ATOM     40  N   UNL A   1      41.666  27.247  28.596  1.00  0.00    -0.354 N 
ATOM     41  C   UNL A   1      41.216  28.861  32.587  1.00  0.00     0.074 A 
ATOM     42  C   UNL A   1      40.040  28.064  32.844  1.00  0.00     0.031 C 
ATOM     43  C   UNL A   1      40.927  26.368  26.681  1.00  0.00     0.029 A 
ATOM     44  C   UNL A   1      42.020  26.323  27.633  1.00  0.00     0.049 A 
ATOM     45  H   UNL A   1      42.255  27.490  29.347  1.00  0.00     0.167 HD
ATOM     46  C   UNL A   1      42.322  29.101  33.354  1.00  0.00     0.034 A 
ATOM     47  C   UNL A   1      43.117  25.533  27.644  1.00  0.00     0.034 A 
ATOM     48  C   UNL A   1      43.243  29.984  32.693  1.00  0.00     0.049 A 
ATOM     49  C   UNL A   1      44.117  26.162  28.542  1.00  0.00     0.074 A 
ATOM     50  C   UNL A   1      43.201  31.289  32.248  1.00  0.00     0.029 A 
ATOM     51  N   UNL A   1      44.339  29.420  32.085  1.00  0.00    -0.354 N 
ATOM     52  N   UNL A   1      44.719  27.294  28.292  1.00  0.00    -0.248 NA
ATOM     53  C   UNL A   1      44.152  25.735  29.932  1.00  0.00     0.031 C 
ATOM     54  C   UNL A   1      43.956  31.289  31.041  1.00  0.00     0.029 A 
ATOM     55  C   UNL A   1      44.443  29.993  30.845  1.00  0.00     0.049 A 
ATOM     56  H   UNL A   1      44.935  28.736  32.468  1.00  0.00     0.167 HD
ATOM     57  C   UNL A   1      44.826  27.920  29.526  1.00  0.00     0.074 A 
ATOM     58  C   UNL A   1      44.573  26.865  30.504  1.00  0.00     0.031 C 
ATOM     59  C   UNL A   1      44.838  29.282  29.644  1.00  0.00     0.034 A 
BRANCH  46  60
ATOM     60  C   UNL A   1      42.720  28.329  34.590  1.00  0.00     0.023 A 
ATOM     61  C   UNL A   1      42.958  26.944  34.574  1.00  0.00     0.031 A 
ATOM     62  C   UNL A   1      43.085  29.001  35.778  1.00  0.00     0.131 A 
ATOM     63  C   UNL A   1      43.498  26.279  35.685  1.00  0.00     0.055 A 
ATOM     64  C   UNL A   1      43.686  28.348  36.863  1.00  0.00     0.041 A 
ATOM     65  F   UNL A   1      42.915  30.328  35.902  1.00  0.00    -0.206 F 
ATOM     66  C   UNL A   1      43.892  26.977  36.822  1.00  0.00     0.022 A 
BRANCH  63  67
ATOM     67  S   UNL A   1      43.698  24.477  35.662  1.00  0.00     0.124 S 
ATOM     68  O   UNL A   1      44.522  24.284  34.473  1.00  0.00    -0.237 OA
ATOM     69  O   UNL A   1      44.362  24.235  36.941  1.00  0.00    -0.237 OA
ATOM     70  O   UNL A   1      42.327  23.986  35.576  1.00  0.00    -0.744 OA
ENDBRANCH  63  67
ENDBRANCH  46  60
BRANCH  47  71
ATOM     71  C   UNL A   1      43.137  24.102  27.274  1.00  0.00     0.023 A 
ATOM     72  C   UNL A   1      44.052  23.631  26.312  1.00  0.00     0.031 A 
ATOM     73  C   UNL A   1      42.096  23.244  27.650  1.00  0.00     0.131 A 
ATOM     74  C   UNL A   1      43.886  22.370  25.725  1.00  0.00     0.055 A 
ATOM     75  C   UNL A   1      41.935  21.980  27.070  1.00  0.00     0.041 A 
ATOM     76  F   UNL A   1      41.177  23.640  28.545  1.00  0.00    -0.206 F 
ATOM     77  C   UNL A   1      42.826  21.543  26.093  1.00  0.00     0.022 A 
BRANCH  74  78
ATOM     78  S   UNL A   1      45.042  21.817  24.441  1.00  0.00     0.124 S 
ATOM     79  O   UNL A   1      46.285  21.635  25.187  1.00  0.00    -0.237 OA
ATOM     80  O   UNL A   1      44.404  20.591  23.974  1.00  0.00    -0.237 OA
ATOM     81  O   UNL A   1      45.049  22.931  23.497  1.00  0.00    -0.744 OA
ENDBRANCH  74  78
ENDBRANCH  47  71
BRANCH  59  82
ATOM     82  C   UNL A   1      44.980  30.131  28.400  1.00  0.00     0.023 A 
ATOM     83  C   UNL A   1      46.242  30.692  28.132  1.00  0.00     0.031 A 
ATOM     84  C   UNL A   1      43.889  30.596  27.640  1.00  0.00     0.131 A 
ATOM     85  C   UNL A   1      46.380  31.697  27.166  1.00  0.00     0.055 A 
ATOM     86  C   UNL A   1      44.041  31.555  26.634  1.00  0.00     0.041 A 
ATOM     87  F   UNL A   1      42.637  30.208  27.906  1.00  0.00    -0.206 F 
ATOM     88  C   UNL A   1      45.290  32.122  26.402  1.00  0.00     0.022 A 
BRANCH  85  89
ATOM     89  S   UNL A   1      47.950  32.577  26.970  1.00  0.00     0.124 S 
ATOM     90  O   UNL A   1      47.621  33.578  25.959  1.00  0.00    -0.237 OA
ATOM     91  O   UNL A   1      48.182  33.100  28.315  1.00  0.00    -0.237 OA
ATOM     92  O   UNL A   1      48.886  31.542  26.540  1.00  0.00    -0.744 OA
ENDBRANCH  85  89
ENDBRANCH  59  82
ENDBRANCH  33  34
ENDBRANCH  25  28
ENDBRANCH   1  24
TORSDOF 14
ENDMDL
