MODEL 1
REMARK VINA RESULT:     -13.8      0.000      0.000
REMARK SMILES Cc1c(-c2nn(-c3ccccc3)cc2/C=N/O)nnn1-c1ccc(C(=O)NCCCNC(=O)c2ccc(-c3c4nc(c(-c5cc(S(=O)(=O)[O-])ccc5F)c5ccc([nH]5)c(-c5cc(S(=O)(=O)[O-])ccc5F)c5nc(c(-c6cc(S(=O)(=O)[O-])ccc6F)c6ccc3[nH]6)C=C5)C=C4)cc2)cc1
REMARK SMILES IDX 28 1 27 2 25 3 26 4 24 6 21 7 22 8 98 9 23 10 97 11 20 12
REMARK SMILES IDX 1 13 2 14 3 15 18 16 19 17 4 18 5 19 14 20 6 21 13 22 15 23
REMARK SMILES IDX 16 24 17 25 7 27 8 28 12 29 9 30 11 31 10 32 29 33 30 34
REMARK SMILES IDX 31 35 32 36 33 38 34 39 35 40 96 41 36 42 95 43 37 44 38 45
REMARK SMILES IDX 39 46 89 47 40 48 94 49 88 50 90 51 41 52 93 53 87 54 86 55
REMARK SMILES IDX 42 57 74 58 54 59 73 60 55 61 58 62 72 63 91 64 56 65 57 66
REMARK SMILES IDX 71 68 92 69 59 70 43 71 44 72 52 73 45 74 51 75 53 76 50 77
REMARK SMILES IDX 46 78 47 79 48 80 49 81 75 82 76 83 84 84 77 85 83 86 85 87
REMARK SMILES IDX 82 88 78 89 79 90 80 91 81 92 60 93 61 94 69 95 62 96 68 97
REMARK SMILES IDX 70 98 67 99 63 100 64 101 65 102 66 103
REMARK H PARENT 27 5 17 26 31 37 90 56 58 67
REMARK Flexibility Score: inf
ROOT
ATOM      1  C   UNL A   1      33.132  30.980  27.704  1.00  0.00     0.118 C 
ENDROOT
BRANCH   1   2
ATOM      2  N   UNL A   1      32.155  31.155  26.642  1.00  0.00    -0.352 N 
ATOM      3  C   UNL A   1      31.709  30.339  25.634  1.00  0.00     0.251 C 
ATOM      4  O   UNL A   1      30.813  30.773  24.912  1.00  0.00    -0.269 OA
ATOM      5  H   UNL A   1      31.726  32.041  26.648  1.00  0.00     0.163 HD
BRANCH   3   6
ATOM      6  C   UNL A   1      32.203  28.949  25.404  1.00  0.00     0.039 A 
ATOM      7  C   UNL A   1      33.129  26.390  24.712  1.00  0.00     0.067 A 
ATOM      8  C   UNL A   1      33.654  27.509  24.066  1.00  0.00     0.029 A 
ATOM      9  C   UNL A   1      32.217  26.543  25.757  1.00  0.00     0.029 A 
ATOM     10  C   UNL A   1      33.165  28.777  24.391  1.00  0.00     0.016 A 
ATOM     11  C   UNL A   1      31.795  27.825  26.125  1.00  0.00     0.016 A 
BRANCH   7  12
ATOM     12  N   UNL A   1      33.538  25.103  24.307  1.00  0.00    -0.217 N 
ATOM     13  C   UNL A   1      33.552  23.852  26.535  1.00  0.00     0.069 C 
ATOM     14  C   UNL A   1      33.833  23.999  25.087  1.00  0.00     0.071 A 
ATOM     15  C   UNL A   1      34.289  23.081  24.162  1.00  0.00     0.137 A 
ATOM     16  N   UNL A   1      34.188  23.585  22.899  1.00  0.00    -0.128 NA
ATOM     17  N   UNL A   1      33.657  24.796  22.993  1.00  0.00    -0.061 NA
BRANCH  15  18
ATOM     18  C   UNL A   1      34.713  21.706  24.384  1.00  0.00     0.124 A 
ATOM     19  N   UNL A   1      33.861  20.680  24.273  1.00  0.00    -0.165 NA
ATOM     20  C   UNL A   1      36.019  21.292  24.731  1.00  0.00     0.044 A 
ATOM     21  N   UNL A   1      34.584  19.602  24.636  1.00  0.00    -0.240 N 
ATOM     22  C   UNL A   1      35.886  19.932  24.935  1.00  0.00     0.125 A 
BRANCH  20  23
ATOM     23  C   UNL A   1      37.250  22.031  24.856  1.00  0.00     0.166 C 
ATOM     24  N   UNL A   1      38.220  21.557  25.565  1.00  0.00    -0.097 NA
BRANCH  24  25
ATOM     25  O   UNL A   1      39.283  22.469  25.563  1.00  0.00    -0.411 OA
ATOM     26  H   UNL A   1      40.134  22.194  25.283  1.00  0.00     0.330 HD
ENDBRANCH  24  25
ENDBRANCH  20  23
BRANCH  21  27
ATOM     27  C   UNL A   1      33.991  18.320  24.690  1.00  0.00     0.065 A 
ATOM     28  C   UNL A   1      33.039  18.048  25.681  1.00  0.00     0.028 A 
ATOM     29  C   UNL A   1      34.360  17.329  23.773  1.00  0.00     0.028 A 
ATOM     30  C   UNL A   1      32.433  16.793  25.733  1.00  0.00     0.002 A 
ATOM     31  C   UNL A   1      33.788  16.059  23.868  1.00  0.00     0.002 A 
ATOM     32  C   UNL A   1      32.817  15.796  24.836  1.00  0.00     0.000 A 
ENDBRANCH  21  27
ENDBRANCH  15  18
ENDBRANCH   7  12
ENDBRANCH   3   6
ENDBRANCH   1   2
BRANCH   1  33
ATOM     33  C   UNL A   1      34.545  30.770  27.144  1.00  0.00     0.042 C 
BRANCH  33  34
ATOM     34  C   UNL A   1      35.308  29.692  27.902  1.00  0.00     0.118 C 
BRANCH  34  35
ATOM     35  N   UNL A   1      35.506  30.047  29.308  1.00  0.00    -0.352 N 
ATOM     36  C   UNL A   1      36.483  29.606  30.180  1.00  0.00     0.251 C 
ATOM     37  H   UNL A   1      34.855  30.683  29.682  1.00  0.00     0.163 HD
ATOM     38  O   UNL A   1      36.301  29.684  31.388  1.00  0.00    -0.269 OA
BRANCH  36  39
ATOM     39  C   UNL A   1      37.727  29.028  29.635  1.00  0.00     0.039 A 
ATOM     40  C   UNL A   1      38.303  29.535  28.468  1.00  0.00     0.014 A 
ATOM     41  C   UNL A   1      38.335  27.984  30.327  1.00  0.00     0.014 A 
ATOM     42  C   UNL A   1      39.544  29.044  28.066  1.00  0.00     0.010 A 
ATOM     43  C   UNL A   1      39.623  27.616  30.021  1.00  0.00     0.010 A 
ATOM     44  C   UNL A   1      40.222  28.107  28.869  1.00  0.00    -0.014 A 
BRANCH  44  45
ATOM     45  C   UNL A   1      41.619  27.763  28.595  1.00  0.00     0.031 A 
ATOM     46  C   UNL A   1      41.783  26.469  27.884  1.00  0.00     0.074 A 
ATOM     47  C   UNL A   1      42.670  28.595  28.773  1.00  0.00     0.049 A 
ATOM     48  N   UNL A   1      42.225  25.361  28.375  1.00  0.00    -0.248 NA
ATOM     49  C   UNL A   1      41.224  26.333  26.527  1.00  0.00     0.031 C 
ATOM     50  C   UNL A   1      42.656  29.997  29.203  1.00  0.00     0.029 A 
ATOM     51  N   UNL A   1      43.992  28.384  28.508  1.00  0.00    -0.354 N 
ATOM     52  C   UNL A   1      42.267  24.468  27.313  1.00  0.00     0.074 A 
ATOM     53  C   UNL A   1      41.433  25.036  26.287  1.00  0.00     0.031 C 
ATOM     54  C   UNL A   1      43.857  30.566  28.953  1.00  0.00     0.029 A 
ATOM     55  C   UNL A   1      44.780  29.536  28.512  1.00  0.00     0.049 A 
ATOM     56  H   UNL A   1      44.361  27.489  28.327  1.00  0.00     0.167 HD
ATOM     57  C   UNL A   1      43.209  23.486  27.268  1.00  0.00     0.034 A 
ATOM     58  C   UNL A   1      46.097  29.647  28.184  1.00  0.00     0.034 A 
ATOM     59  C   UNL A   1      43.800  23.272  28.573  1.00  0.00     0.049 A 
ATOM     60  C   UNL A   1      46.692  28.302  28.363  1.00  0.00     0.074 A 
ATOM     61  C   UNL A   1      43.289  22.990  29.827  1.00  0.00     0.029 A 
ATOM     62  N   UNL A   1      45.066  23.766  28.802  1.00  0.00    -0.354 N 
ATOM     63  N   UNL A   1      46.790  27.717  29.525  1.00  0.00    -0.248 NA
ATOM     64  C   UNL A   1      46.722  27.409  27.216  1.00  0.00     0.031 C 
ATOM     65  C   UNL A   1      44.037  23.815  30.720  1.00  0.00     0.029 A 
ATOM     66  C   UNL A   1      45.028  24.468  29.985  1.00  0.00     0.049 A 
ATOM     67  H   UNL A   1      45.854  23.638  28.226  1.00  0.00     0.167 HD
ATOM     68  C   UNL A   1      46.429  26.400  29.290  1.00  0.00     0.074 A 
ATOM     69  C   UNL A   1      46.503  26.245  27.838  1.00  0.00     0.031 C 
ATOM     70  C   UNL A   1      45.832  25.645  30.261  1.00  0.00     0.034 A 
BRANCH  57  71
ATOM     71  C   UNL A   1      43.862  22.996  25.993  1.00  0.00     0.023 A 
ATOM     72  C   UNL A   1      43.878  21.610  25.757  1.00  0.00     0.031 A 
ATOM     73  C   UNL A   1      44.700  23.771  25.156  1.00  0.00     0.131 A 
ATOM     74  C   UNL A   1      44.747  21.051  24.803  1.00  0.00     0.055 A 
ATOM     75  C   UNL A   1      45.507  23.217  24.159  1.00  0.00     0.041 A 
ATOM     76  F   UNL A   1      44.867  25.089  25.313  1.00  0.00    -0.206 F 
ATOM     77  C   UNL A   1      45.558  21.845  23.997  1.00  0.00     0.022 A 
BRANCH  74  78
ATOM     78  S   UNL A   1      44.930  19.249  24.756  1.00  0.00     0.124 S 
ATOM     79  O   UNL A   1      45.185  19.020  23.338  1.00  0.00    -0.237 OA
ATOM     80  O   UNL A   1      46.060  19.040  25.656  1.00  0.00    -0.237 OA
ATOM     81  O   UNL A   1      43.644  18.764  25.248  1.00  0.00    -0.744 OA
ENDBRANCH  74  78
ENDBRANCH  57  71
BRANCH  58  82
ATOM     82  C   UNL A   1      46.781  30.755  27.456  1.00  0.00     0.023 A 
ATOM     83  C   UNL A   1      46.103  31.903  26.986  1.00  0.00     0.031 A 
ATOM     84  C   UNL A   1      48.192  30.809  27.453  1.00  0.00     0.131 A 
ATOM     85  C   UNL A   1      46.834  33.037  26.552  1.00  0.00     0.055 A 
ATOM     86  C   UNL A   1      48.907  31.931  27.026  1.00  0.00     0.041 A 
ATOM     87  F   UNL A   1      48.926  29.803  27.953  1.00  0.00    -0.206 F 
ATOM     88  C   UNL A   1      48.229  33.056  26.583  1.00  0.00     0.022 A 
BRANCH  85  89
ATOM     89  S   UNL A   1      45.972  34.558  26.026  1.00  0.00     0.124 S 
ATOM     90  O   UNL A   1      46.929  35.598  26.383  1.00  0.00    -0.237 OA
ATOM     91  O   UNL A   1      45.765  34.328  24.601  1.00  0.00    -0.237 OA
ATOM     92  O   UNL A   1      44.747  34.553  26.828  1.00  0.00    -0.744 OA
ENDBRANCH  85  89
ENDBRANCH  58  82
BRANCH  70  93
ATOM     93  C   UNL A   1      45.845  26.166  31.691  1.00  0.00     0.023 A 
ATOM     94  C   UNL A   1      44.768  26.820  32.338  1.00  0.00     0.031 A 
ATOM     95  C   UNL A   1      46.992  25.900  32.460  1.00  0.00     0.131 A 
ATOM     96  C   UNL A   1      44.878  27.197  33.694  1.00  0.00     0.055 A 
ATOM     97  C   UNL A   1      47.088  26.251  33.806  1.00  0.00     0.041 A 
ATOM     98  F   UNL A   1      48.043  25.264  31.916  1.00  0.00    -0.206 F 
ATOM     99  C   UNL A   1      46.035  26.910  34.427  1.00  0.00     0.022 A 
BRANCH  96 100
ATOM    100  S   UNL A   1      43.532  28.100  34.531  1.00  0.00     0.124 S 
ATOM    101  O   UNL A   1      43.988  28.196  35.911  1.00  0.00    -0.237 OA
ATOM    102  O   UNL A   1      43.480  29.355  33.784  1.00  0.00    -0.237 OA
ATOM    103  O   UNL A   1      42.367  27.232  34.334  1.00  0.00    -0.744 OA
ENDBRANCH  96 100
ENDBRANCH  70  93
ENDBRANCH  44  45
ENDBRANCH  36  39
ENDBRANCH  34  35
ENDBRANCH  33  34
ENDBRANCH   1  33
TORSDOF 18
ENDMDL
MODEL 2
REMARK VINA RESULT:     -13.7      2.510      6.680
REMARK SMILES Cc1c(-c2nn(-c3ccccc3)cc2/C=N/O)nnn1-c1ccc(C(=O)NCCCNC(=O)c2ccc(-c3c4nc(c(-c5cc(S(=O)(=O)[O-])ccc5F)c5ccc([nH]5)c(-c5cc(S(=O)(=O)[O-])ccc5F)c5nc(c(-c6cc(S(=O)(=O)[O-])ccc6F)c6ccc3[nH]6)C=C5)C=C4)cc2)cc1
REMARK SMILES IDX 28 1 27 2 25 3 26 4 24 6 21 7 22 8 98 9 23 10 97 11 20 12
REMARK SMILES IDX 1 13 2 14 3 15 18 16 19 17 4 18 5 19 14 20 6 21 13 22 15 23
REMARK SMILES IDX 16 24 17 25 7 27 8 28 12 29 9 30 11 31 10 32 29 33 30 34
REMARK SMILES IDX 31 35 32 36 33 38 34 39 35 40 96 41 36 42 95 43 37 44 38 45
REMARK SMILES IDX 39 46 89 47 40 48 94 49 88 50 90 51 41 52 93 53 87 54 86 55
REMARK SMILES IDX 42 57 74 58 54 59 73 60 55 61 58 62 72 63 91 64 56 65 57 66
REMARK SMILES IDX 71 68 92 69 59 70 43 71 44 72 52 73 45 74 51 75 53 76 50 77
REMARK SMILES IDX 46 78 47 79 48 80 49 81 75 82 76 83 84 84 77 85 83 86 85 87
REMARK SMILES IDX 82 88 78 89 79 90 80 91 81 92 60 93 61 94 69 95 62 96 68 97
REMARK SMILES IDX 70 98 67 99 63 100 64 101 65 102 66 103
REMARK H PARENT 27 5 17 26 31 37 90 56 58 67
REMARK Flexibility Score: inf
ROOT
ATOM      1  C   UNL A   1      31.671  30.920  26.608  1.00  0.00     0.118 C 
ENDROOT
BRANCH   1   2
ATOM      2  N   UNL A   1      30.906  30.985  25.374  1.00  0.00    -0.352 N 
ATOM      3  C   UNL A   1      30.705  30.099  24.347  1.00  0.00     0.251 C 
ATOM      4  O   UNL A   1      29.939  30.443  23.447  1.00  0.00    -0.269 OA
ATOM      5  H   UNL A   1      30.435  31.841  25.251  1.00  0.00     0.163 HD
BRANCH   3   6
ATOM      6  C   UNL A   1      31.309  28.735  24.289  1.00  0.00     0.039 A 
ATOM      7  C   UNL A   1      32.571  26.248  23.963  1.00  0.00     0.067 A 
ATOM      8  C   UNL A   1      33.301  27.421  23.766  1.00  0.00     0.029 A 
ATOM      9  C   UNL A   1      31.250  26.307  24.407  1.00  0.00     0.029 A 
ATOM     10  C   UNL A   1      32.659  28.655  23.897  1.00  0.00     0.016 A 
ATOM     11  C   UNL A   1      30.643  27.550  24.610  1.00  0.00     0.016 A 
BRANCH   7  12
ATOM     12  N   UNL A   1      33.187  25.004  23.721  1.00  0.00    -0.217 N 
ATOM     13  C   UNL A   1      32.807  23.810  25.949  1.00  0.00     0.069 C 
ATOM     14  C   UNL A   1      33.399  23.954  24.597  1.00  0.00     0.071 A 
ATOM     15  C   UNL A   1      34.145  23.070  23.843  1.00  0.00     0.137 A 
ATOM     16  N   UNL A   1      34.290  23.532  22.569  1.00  0.00    -0.128 NA
ATOM     17  N   UNL A   1      33.636  24.682  22.484  1.00  0.00    -0.061 NA
BRANCH  15  18
ATOM     18  C   UNL A   1      34.638  21.752  24.219  1.00  0.00     0.124 A 
ATOM     19  N   UNL A   1      33.854  20.669  24.177  1.00  0.00    -0.165 NA
ATOM     20  C   UNL A   1      35.949  21.457  24.657  1.00  0.00     0.044 A 
ATOM     21  N   UNL A   1      34.621  19.679  24.675  1.00  0.00    -0.240 N 
ATOM     22  C   UNL A   1      35.887  20.117  24.991  1.00  0.00     0.125 A 
BRANCH  20  23
ATOM     23  C   UNL A   1      37.127  22.280  24.757  1.00  0.00     0.166 C 
ATOM     24  N   UNL A   1      37.941  22.129  25.748  1.00  0.00    -0.097 NA
BRANCH  24  25
ATOM     25  O   UNL A   1      38.979  23.063  25.641  1.00  0.00    -0.411 OA
ATOM     26  H   UNL A   1      39.707  22.890  25.077  1.00  0.00     0.330 HD
ENDBRANCH  24  25
ENDBRANCH  20  23
BRANCH  21  27
ATOM     27  C   UNL A   1      34.102  18.373  24.833  1.00  0.00     0.065 A 
ATOM     28  C   UNL A   1      34.850  17.281  24.374  1.00  0.00     0.028 A 
ATOM     29  C   UNL A   1      32.851  18.174  25.427  1.00  0.00     0.028 A 
ATOM     30  C   UNL A   1      34.357  15.987  24.541  1.00  0.00     0.002 A 
ATOM     31  C   UNL A   1      32.343  16.879  25.539  1.00  0.00     0.002 A 
ATOM     32  C   UNL A   1      33.100  15.787  25.110  1.00  0.00     0.000 A 
ENDBRANCH  21  27
ENDBRANCH  15  18
ENDBRANCH   7  12
ENDBRANCH   3   6
ENDBRANCH   1   2
BRANCH   1  33
ATOM     33  C   UNL A   1      33.180  31.000  26.343  1.00  0.00     0.042 C 
BRANCH  33  34
ATOM     34  C   UNL A   1      33.999  30.551  27.545  1.00  0.00     0.118 C 
BRANCH  34  35
ATOM     35  N   UNL A   1      34.119  31.606  28.551  1.00  0.00    -0.352 N 
ATOM     36  C   UNL A   1      35.077  31.757  29.535  1.00  0.00     0.251 C 
ATOM     37  H   UNL A   1      33.423  32.302  28.524  1.00  0.00     0.163 HD
ATOM     38  O   UNL A   1      34.841  32.450  30.515  1.00  0.00    -0.269 OA
BRANCH  36  39
ATOM     39  C   UNL A   1      36.370  31.058  29.393  1.00  0.00     0.039 A 
ATOM     40  C   UNL A   1      37.576  31.759  29.457  1.00  0.00     0.014 A 
ATOM     41  C   UNL A   1      36.364  29.675  29.224  1.00  0.00     0.014 A 
ATOM     42  C   UNL A   1      38.770  31.039  29.449  1.00  0.00     0.010 A 
ATOM     43  C   UNL A   1      37.528  28.961  29.376  1.00  0.00     0.010 A 
ATOM     44  C   UNL A   1      38.741  29.632  29.446  1.00  0.00    -0.014 A 
BRANCH  44  45
ATOM     45  C   UNL A   1      39.964  28.861  29.680  1.00  0.00     0.031 A 
ATOM     46  C   UNL A   1      40.289  28.685  31.120  1.00  0.00     0.074 A 
ATOM     47  C   UNL A   1      40.650  28.190  28.728  1.00  0.00     0.049 A 
ATOM     48  N   UNL A   1      41.234  29.263  31.781  1.00  0.00    -0.248 NA
ATOM     49  C   UNL A   1      39.352  27.928  31.968  1.00  0.00     0.031 C 
ATOM     50  C   UNL A   1      40.314  28.029  27.309  1.00  0.00     0.029 A 
ATOM     51  N   UNL A   1      41.766  27.413  28.853  1.00  0.00    -0.354 N 
ATOM     52  C   UNL A   1      41.186  28.723  33.058  1.00  0.00     0.074 A 
ATOM     53  C   UNL A   1      39.891  28.106  33.177  1.00  0.00     0.031 C 
ATOM     54  C   UNL A   1      41.061  27.040  26.769  1.00  0.00     0.029 A 
ATOM     55  C   UNL A   1      42.050  26.616  27.744  1.00  0.00     0.049 A 
ATOM     56  H   UNL A   1      42.326  27.416  29.663  1.00  0.00     0.167 HD
ATOM     57  C   UNL A   1      42.321  28.587  33.798  1.00  0.00     0.034 A 
ATOM     58  C   UNL A   1      43.027  25.675  27.620  1.00  0.00     0.034 A 
ATOM     59  C   UNL A   1      43.387  29.415  33.273  1.00  0.00     0.049 A 
ATOM     60  C   UNL A   1      44.070  26.017  28.616  1.00  0.00     0.074 A 
ATOM     61  C   UNL A   1      43.506  30.763  32.985  1.00  0.00     0.029 A 
ATOM     62  N   UNL A   1      44.394  28.803  32.558  1.00  0.00    -0.354 N 
ATOM     63  N   UNL A   1      44.786  27.106  28.550  1.00  0.00    -0.248 NA
ATOM     64  C   UNL A   1      43.980  25.415  29.936  1.00  0.00     0.031 C 
ATOM     65  C   UNL A   1      44.198  30.810  31.737  1.00  0.00     0.029 A 
ATOM     66  C   UNL A   1      44.556  29.507  31.387  1.00  0.00     0.049 A 
ATOM     67  H   UNL A   1      44.905  28.009  32.835  1.00  0.00     0.167 HD
ATOM     68  C   UNL A   1      44.841  27.572  29.852  1.00  0.00     0.074 A 
ATOM     69  C   UNL A   1      44.422  26.438  30.674  1.00  0.00     0.031 C 
ATOM     70  C   UNL A   1      44.946  28.909  30.122  1.00  0.00     0.034 A 
BRANCH  57  71
ATOM     71  C   UNL A   1      42.582  27.434  34.744  1.00  0.00     0.023 A 
ATOM     72  C   UNL A   1      43.380  26.374  34.278  1.00  0.00     0.031 A 
ATOM     73  C   UNL A   1      41.874  27.188  35.945  1.00  0.00     0.131 A 
ATOM     74  C   UNL A   1      43.387  25.132  34.937  1.00  0.00     0.055 A 
ATOM     75  C   UNL A   1      41.942  25.976  36.636  1.00  0.00     0.041 A 
ATOM     76  F   UNL A   1      41.004  28.058  36.467  1.00  0.00    -0.206 F 
ATOM     77  C   UNL A   1      42.678  24.927  36.118  1.00  0.00     0.022 A 
BRANCH  74  78
ATOM     78  S   UNL A   1      44.199  23.730  34.128  1.00  0.00     0.124 S 
ATOM     79  O   UNL A   1      43.834  22.631  35.014  1.00  0.00    -0.237 OA
ATOM     80  O   UNL A   1      43.565  23.736  32.813  1.00  0.00    -0.237 OA
ATOM     81  O   UNL A   1      45.611  24.103  34.140  1.00  0.00    -0.744 OA
ENDBRANCH  74  78
ENDBRANCH  57  71
BRANCH  58  82
ATOM     82  C   UNL A   1      42.966  24.362  26.916  1.00  0.00     0.023 A 
ATOM     83  C   UNL A   1      43.951  23.934  25.996  1.00  0.00     0.031 A 
ATOM     84  C   UNL A   1      42.049  23.384  27.359  1.00  0.00     0.131 A 
ATOM     85  C   UNL A   1      43.992  22.583  25.570  1.00  0.00     0.055 A 
ATOM     86  C   UNL A   1      42.096  22.053  26.937  1.00  0.00     0.041 A 
ATOM     87  F   UNL A   1      41.127  23.670  28.292  1.00  0.00    -0.206 F 
ATOM     88  C   UNL A   1      43.077  21.644  26.048  1.00  0.00     0.022 A 
BRANCH  85  89
ATOM     89  S   UNL A   1      45.310  21.997  24.451  1.00  0.00     0.124 S 
ATOM     90  O   UNL A   1      45.546  23.163  23.608  1.00  0.00    -0.237 OA
ATOM     91  O   UNL A   1      46.377  21.641  25.379  1.00  0.00    -0.237 OA
ATOM     92  O   UNL A   1      44.696  20.859  23.764  1.00  0.00    -0.744 OA
ENDBRANCH  85  89
ENDBRANCH  58  82
BRANCH  70  93
ATOM     93  C   UNL A   1      45.305  29.850  28.982  1.00  0.00     0.023 A 
ATOM     94  C   UNL A   1      46.618  30.249  28.628  1.00  0.00     0.031 A 
ATOM     95  C   UNL A   1      44.254  30.291  28.159  1.00  0.00     0.131 A 
ATOM     96  C   UNL A   1      46.829  31.076  27.503  1.00  0.00     0.055 A 
ATOM     97  C   UNL A   1      44.468  31.086  27.034  1.00  0.00     0.041 A 
ATOM     98  F   UNL A   1      42.987  29.932  28.423  1.00  0.00    -0.206 F 
ATOM     99  C   UNL A   1      45.756  31.490  26.706  1.00  0.00     0.022 A 
BRANCH  96 100
ATOM    100  S   UNL A   1      48.501  31.660  27.067  1.00  0.00     0.124 S 
ATOM    101  O   UNL A   1      49.047  32.120  28.337  1.00  0.00    -0.237 OA
ATOM    102  O   UNL A   1      49.117  30.462  26.501  1.00  0.00    -0.237 OA
ATOM    103  O   UNL A   1      48.245  32.725  26.093  1.00  0.00    -0.744 OA
ENDBRANCH  96 100
ENDBRANCH  70  93
ENDBRANCH  44  45
ENDBRANCH  36  39
ENDBRANCH  34  35
ENDBRANCH  33  34
ENDBRANCH   1  33
TORSDOF 18
ENDMDL
MODEL 3
REMARK VINA RESULT:     -13.2      4.007      5.361
REMARK SMILES Cc1c(-c2nn(-c3ccccc3)cc2/C=N/O)nnn1-c1ccc(C(=O)NCCCNC(=O)c2ccc(-c3c4nc(c(-c5cc(S(=O)(=O)[O-])ccc5F)c5ccc([nH]5)c(-c5cc(S(=O)(=O)[O-])ccc5F)c5nc(c(-c6cc(S(=O)(=O)[O-])ccc6F)c6ccc3[nH]6)C=C5)C=C4)cc2)cc1
REMARK SMILES IDX 28 1 27 2 25 3 26 4 24 6 21 7 22 8 98 9 23 10 97 11 20 12
REMARK SMILES IDX 1 13 2 14 3 15 18 16 19 17 4 18 5 19 14 20 6 21 13 22 15 23
REMARK SMILES IDX 16 24 17 25 7 27 8 28 12 29 9 30 11 31 10 32 29 33 30 34
REMARK SMILES IDX 31 35 32 36 33 38 34 39 35 40 96 41 36 42 95 43 37 44 38 45
REMARK SMILES IDX 39 46 89 47 40 48 94 49 88 50 90 51 41 52 93 53 87 54 86 55
REMARK SMILES IDX 42 57 74 58 54 59 73 60 55 61 58 62 72 63 91 64 56 65 57 66
REMARK SMILES IDX 71 68 92 69 59 70 43 71 44 72 52 73 45 74 51 75 53 76 50 77
REMARK SMILES IDX 46 78 47 79 48 80 49 81 75 82 76 83 84 84 77 85 83 86 85 87
REMARK SMILES IDX 82 88 78 89 79 90 80 91 81 92 60 93 61 94 69 95 62 96 68 97
REMARK SMILES IDX 70 98 67 99 63 100 64 101 65 102 66 103
REMARK H PARENT 27 5 17 26 31 37 90 56 58 67
REMARK Flexibility Score: inf
ROOT
ATOM      1  C   UNL A   1      30.542  31.115  25.535  1.00  0.00     0.118 C 
ENDROOT
BRANCH   1   2
ATOM      2  N   UNL A   1      30.152  30.948  24.145  1.00  0.00    -0.352 N 
ATOM      3  C   UNL A   1      30.342  29.942  23.232  1.00  0.00     0.251 C 
ATOM      4  O   UNL A   1      29.829  30.083  22.122  1.00  0.00    -0.269 OA
ATOM      5  H   UNL A   1      29.649  31.714  23.785  1.00  0.00     0.163 HD
BRANCH   3   6
ATOM      6  C   UNL A   1      31.075  28.675  23.525  1.00  0.00     0.039 A 
ATOM      7  C   UNL A   1      32.325  26.284  24.306  1.00  0.00     0.067 A 
ATOM      8  C   UNL A   1      30.956  26.449  24.525  1.00  0.00     0.029 A 
ATOM      9  C   UNL A   1      33.051  27.260  23.623  1.00  0.00     0.029 A 
ATOM     10  C   UNL A   1      30.347  27.654  24.165  1.00  0.00     0.016 A 
ATOM     11  C   UNL A   1      32.411  28.429  23.198  1.00  0.00     0.016 A 
BRANCH   7  12
ATOM     12  N   UNL A   1      32.962  25.117  24.771  1.00  0.00    -0.217 N 
ATOM     13  C   UNL A   1      33.268  23.808  22.597  1.00  0.00     0.069 C 
ATOM     14  C   UNL A   1      33.296  23.971  24.070  1.00  0.00     0.071 A 
ATOM     15  C   UNL A   1      33.776  23.134  25.059  1.00  0.00     0.137 A 
ATOM     16  N   UNL A   1      33.805  23.780  26.259  1.00  0.00    -0.128 NA
ATOM     17  N   UNL A   1      33.374  25.018  26.058  1.00  0.00    -0.061 NA
BRANCH  15  18
ATOM     18  C   UNL A   1      34.320  21.791  24.923  1.00  0.00     0.124 A 
ATOM     19  N   UNL A   1      33.528  20.716  24.840  1.00  0.00    -0.165 NA
ATOM     20  C   UNL A   1      35.692  21.460  24.863  1.00  0.00     0.044 A 
ATOM     21  N   UNL A   1      34.379  19.671  24.819  1.00  0.00    -0.240 N 
ATOM     22  C   UNL A   1      35.694  20.078  24.847  1.00  0.00     0.125 A 
BRANCH  20  23
ATOM     23  C   UNL A   1      36.870  22.289  24.816  1.00  0.00     0.166 C 
ATOM     24  N   UNL A   1      36.874  23.443  25.396  1.00  0.00    -0.097 NA
BRANCH  24  25
ATOM     25  O   UNL A   1      38.108  24.066  25.178  1.00  0.00    -0.411 OA
ATOM     26  H   UNL A   1      38.349  24.336  24.313  1.00  0.00     0.330 HD
ENDBRANCH  24  25
ENDBRANCH  20  23
BRANCH  21  27
ATOM     27  C   UNL A   1      33.894  18.344  24.785  1.00  0.00     0.065 A 
ATOM     28  C   UNL A   1      32.932  17.944  25.721  1.00  0.00     0.028 A 
ATOM     29  C   UNL A   1      34.379  17.435  23.837  1.00  0.00     0.028 A 
ATOM     30  C   UNL A   1      32.431  16.643  25.686  1.00  0.00     0.002 A 
ATOM     31  C   UNL A   1      33.911  16.120  23.846  1.00  0.00     0.002 A 
ATOM     32  C   UNL A   1      32.930  15.729  24.758  1.00  0.00     0.000 A 
ENDBRANCH  21  27
ENDBRANCH  15  18
ENDBRANCH   7  12
ENDBRANCH   3   6
ENDBRANCH   1   2
BRANCH   1  33
ATOM     33  C   UNL A   1      31.988  30.665  25.776  1.00  0.00     0.042 C 
BRANCH  33  34
ATOM     34  C   UNL A   1      32.568  31.256  27.054  1.00  0.00     0.118 C 
BRANCH  34  35
ATOM     35  N   UNL A   1      32.265  32.681  27.185  1.00  0.00    -0.352 N 
ATOM     36  C   UNL A   1      32.873  33.622  27.994  1.00  0.00     0.251 C 
ATOM     37  H   UNL A   1      31.530  33.014  26.622  1.00  0.00     0.163 HD
ATOM     38  O   UNL A   1      32.282  34.656  28.276  1.00  0.00    -0.269 OA
BRANCH  36  39
ATOM     39  C   UNL A   1      34.224  33.352  28.523  1.00  0.00     0.039 A 
ATOM     40  C   UNL A   1      34.406  32.567  29.663  1.00  0.00     0.014 A 
ATOM     41  C   UNL A   1      35.322  33.870  27.840  1.00  0.00     0.014 A 
ATOM     42  C   UNL A   1      35.704  32.231  30.046  1.00  0.00     0.010 A 
ATOM     43  C   UNL A   1      36.586  33.412  28.124  1.00  0.00     0.010 A 
ATOM     44  C   UNL A   1      36.795  32.626  29.249  1.00  0.00    -0.014 A 
BRANCH  44  45
ATOM     45  C   UNL A   1      38.133  32.085  29.497  1.00  0.00     0.031 A 
ATOM     46  C   UNL A   1      38.277  30.658  29.110  1.00  0.00     0.074 A 
ATOM     47  C   UNL A   1      39.211  32.820  29.852  1.00  0.00     0.049 A 
ATOM     48  N   UNL A   1      38.367  29.642  29.900  1.00  0.00    -0.248 NA
ATOM     49  C   UNL A   1      38.120  30.291  27.692  1.00  0.00     0.031 C 
ATOM     50  C   UNL A   1      39.308  34.275  30.005  1.00  0.00     0.029 A 
ATOM     51  N   UNL A   1      40.499  32.419  30.060  1.00  0.00    -0.354 N 
ATOM     52  C   UNL A   1      38.565  28.541  29.079  1.00  0.00     0.074 A 
ATOM     53  C   UNL A   1      38.171  28.958  27.759  1.00  0.00     0.031 C 
ATOM     54  C   UNL A   1      40.607  34.647  30.053  1.00  0.00     0.029 A 
ATOM     55  C   UNL A   1      41.432  33.454  30.114  1.00  0.00     0.049 A 
ATOM     56  H   UNL A   1      40.749  31.472  30.164  1.00  0.00     0.167 HD
ATOM     57  C   UNL A   1      39.302  27.479  29.506  1.00  0.00     0.034 A 
ATOM     58  C   UNL A   1      42.787  33.353  30.207  1.00  0.00     0.034 A 
ATOM     59  C   UNL A   1      39.445  27.492  30.948  1.00  0.00     0.049 A 
ATOM     60  C   UNL A   1      43.071  32.023  30.796  1.00  0.00     0.074 A 
ATOM     61  C   UNL A   1      38.553  27.544  32.004  1.00  0.00     0.029 A 
ATOM     62  N   UNL A   1      40.654  27.887  31.477  1.00  0.00    -0.354 N 
ATOM     63  N   UNL A   1      42.730  31.696  32.012  1.00  0.00    -0.248 NA
ATOM     64  C   UNL A   1      43.283  30.905  29.892  1.00  0.00     0.031 C 
ATOM     65  C   UNL A   1      39.137  28.459  32.931  1.00  0.00     0.029 A 
ATOM     66  C   UNL A   1      40.393  28.829  32.446  1.00  0.00     0.049 A 
ATOM     67  H   UNL A   1      41.543  27.556  31.212  1.00  0.00     0.167 HD
ATOM     68  C   UNL A   1      42.237  30.406  31.907  1.00  0.00     0.074 A 
ATOM     69  C   UNL A   1      42.702  29.933  30.604  1.00  0.00     0.031 C 
ATOM     70  C   UNL A   1      41.267  29.947  32.755  1.00  0.00     0.034 A 
BRANCH  57  71
ATOM     71  C   UNL A   1      40.204  26.659  28.610  1.00  0.00     0.023 A 
ATOM     72  C   UNL A   1      41.279  27.316  27.985  1.00  0.00     0.031 A 
ATOM     73  C   UNL A   1      39.909  25.364  28.121  1.00  0.00     0.131 A 
ATOM     74  C   UNL A   1      41.941  26.736  26.889  1.00  0.00     0.055 A 
ATOM     75  C   UNL A   1      40.619  24.761  27.079  1.00  0.00     0.041 A 
ATOM     76  F   UNL A   1      38.863  24.647  28.545  1.00  0.00    -0.206 F 
ATOM     77  C   UNL A   1      41.623  25.458  26.435  1.00  0.00     0.022 A 
BRANCH  74  78
ATOM     78  S   UNL A   1      43.110  27.752  25.951  1.00  0.00     0.124 S 
ATOM     79  O   UNL A   1      44.273  26.874  25.886  1.00  0.00    -0.237 OA
ATOM     80  O   UNL A   1      42.389  27.960  24.699  1.00  0.00    -0.237 OA
ATOM     81  O   UNL A   1      43.269  28.942  26.783  1.00  0.00    -0.744 OA
ENDBRANCH  74  78
ENDBRANCH  57  71
BRANCH  58  82
ATOM     82  C   UNL A   1      43.827  34.198  29.553  1.00  0.00     0.023 A 
ATOM     83  C   UNL A   1      44.391  33.890  28.293  1.00  0.00     0.031 A 
ATOM     84  C   UNL A   1      44.086  35.490  30.061  1.00  0.00     0.131 A 
ATOM     85  C   UNL A   1      45.161  34.856  27.599  1.00  0.00     0.055 A 
ATOM     86  C   UNL A   1      44.845  36.439  29.371  1.00  0.00     0.041 A 
ATOM     87  F   UNL A   1      43.532  35.906  31.210  1.00  0.00    -0.206 F 
ATOM     88  C   UNL A   1      45.377  36.129  28.130  1.00  0.00     0.022 A 
BRANCH  85  89
ATOM     89  S   UNL A   1      45.821  34.504  25.933  1.00  0.00     0.124 S 
ATOM     90  O   UNL A   1      44.631  34.067  25.213  1.00  0.00    -0.237 OA
ATOM     91  O   UNL A   1      46.384  35.789  25.538  1.00  0.00    -0.237 OA
ATOM     92  O   UNL A   1      46.811  33.453  26.173  1.00  0.00    -0.744 OA
ENDBRANCH  85  89
ENDBRANCH  58  82
BRANCH  70  93
ATOM     93  C   UNL A   1      40.953  30.761  34.001  1.00  0.00     0.023 A 
ATOM     94  C   UNL A   1      39.883  31.680  34.135  1.00  0.00     0.031 A 
ATOM     95  C   UNL A   1      41.738  30.515  35.142  1.00  0.00     0.131 A 
ATOM     96  C   UNL A   1      39.653  32.326  35.369  1.00  0.00     0.055 A 
ATOM     97  C   UNL A   1      41.491  31.136  36.366  1.00  0.00     0.041 A 
ATOM     98  F   UNL A   1      42.755  29.639  35.092  1.00  0.00    -0.206 F 
ATOM     99  C   UNL A   1      40.453  32.051  36.482  1.00  0.00     0.022 A 
BRANCH  96 100
ATOM    100  S   UNL A   1      38.325  33.564  35.547  1.00  0.00     0.124 S 
ATOM    101  O   UNL A   1      38.741  34.349  36.703  1.00  0.00    -0.237 OA
ATOM    102  O   UNL A   1      38.359  34.253  34.260  1.00  0.00    -0.237 OA
ATOM    103  O   UNL A   1      37.127  32.749  35.766  1.00  0.00    -0.744 OA
ENDBRANCH  96 100
ENDBRANCH  70  93
ENDBRANCH  44  45
ENDBRANCH  36  39
ENDBRANCH  34  35
ENDBRANCH  33  34
ENDBRANCH   1  33
TORSDOF 18
ENDMDL
