MODEL 1
REMARK VINA RESULT:     -12.4      0.000      0.000
REMARK SMILES CC(C)CN(C)c1cc2c(cc1Cl)C=C(C(=O)NCCCNC(=O)c1ccc(-c3c4nc(c(-c5cc(S(=O)(=O)[O-])ccc5F)c5ccc([nH]5)c(-c5cc(S(=O)(=O)[O-])ccc5F)c5nc(c(-c6cc(S(=O)(=O)[O-])ccc6F)c6ccc3[nH]6)C=C5)C=C4)cc1)[C@@H](C(F)(F)F)O2
REMARK SMILES IDX 20 1 19 2 18 3 16 4 17 5 15 7 7 8 8 9 12 10 9 11 11 12 13 13
REMARK SMILES IDX 10 14 93 15 14 16 88 17 5 18 6 19 4 20 2 21 1 22 3 23 89 24
REMARK SMILES IDX 90 25 91 26 92 27 21 28 22 29 23 30 24 32 25 33 26 34 87 35
REMARK SMILES IDX 27 36 86 37 28 38 29 39 30 40 80 41 31 42 85 43 79 44 81 45
REMARK SMILES IDX 32 46 84 47 78 48 77 49 33 51 65 52 45 53 64 54 46 55 49 56
REMARK SMILES IDX 63 57 82 58 47 59 48 60 62 62 83 63 50 64 34 65 35 66 43 67
REMARK SMILES IDX 36 68 42 69 44 70 41 71 37 72 38 73 39 74 40 75 66 76 67 77
REMARK SMILES IDX 75 78 68 79 74 80 76 81 73 82 69 83 70 84 71 85 72 86 51 87
REMARK SMILES IDX 52 88 60 89 53 90 59 91 61 92 58 93 54 94 55 95 56 96 57 97
REMARK H PARENT 18 6 22 31 81 50 49 61
REMARK Flexibility Score: inf
ROOT
ATOM      1  C   UNL A   1      36.059  21.859  24.521  1.00  0.00     0.042 C 
ENDROOT
BRANCH   1   2
ATOM      2  C   UNL A   1      35.045  21.094  25.351  1.00  0.00     0.118 C 
BRANCH   2   3
ATOM      3  N   UNL A   1      33.961  20.587  24.525  1.00  0.00    -0.352 N 
ATOM      4  C   UNL A   1      32.811  21.069  24.006  1.00  0.00     0.251 C 
ATOM      5  O   UNL A   1      32.144  20.260  23.353  1.00  0.00    -0.270 OA
ATOM      6  H   UNL A   1      34.103  19.644  24.280  1.00  0.00     0.163 HD
BRANCH   4   7
ATOM      7  C   UNL A   1      32.335  22.469  24.151  1.00  0.00     0.067 C 
ATOM      8  C   UNL A   1      31.535  27.409  23.660  1.00  0.00     0.059 A 
ATOM      9  C   UNL A   1      30.814  26.358  24.250  1.00  0.00     0.074 A 
ATOM     10  C   UNL A   1      32.728  27.076  22.974  1.00  0.00     0.065 A 
ATOM     11  C   UNL A   1      31.263  25.044  24.143  1.00  0.00     0.130 A 
ATOM     12  C   UNL A   1      33.101  25.743  22.764  1.00  0.00     0.034 A 
ATOM     13  Cl  UNL A   1      33.847  28.276  22.421  1.00  0.00    -0.082 Cl
ATOM     14  C   UNL A   1      32.363  24.723  23.347  1.00  0.00     0.019 A 
ATOM     15  O   UNL A   1      30.613  24.084  24.875  1.00  0.00    -0.475 OA
ATOM     16  C   UNL A   1      32.740  23.325  23.197  1.00  0.00     0.025 C 
ATOM     17  C   UNL A   1      31.492  22.988  25.284  1.00  0.00     0.314 C 
BRANCH   8  18
ATOM     18  N   UNL A   1      31.071  28.732  23.761  1.00  0.00    -0.373 N 
ATOM     19  C   UNL A   1      31.472  29.445  24.974  1.00  0.00     0.143 C 
BRANCH  18  20
ATOM     20  C   UNL A   1      29.687  28.974  23.293  1.00  0.00     0.119 C 
BRANCH  20  21
ATOM     21  C   UNL A   1      29.493  30.393  22.719  1.00  0.00     0.002 C 
ATOM     22  C   UNL A   1      29.024  30.364  21.261  1.00  0.00     0.009 C 
ATOM     23  C   UNL A   1      28.488  31.199  23.546  1.00  0.00     0.009 C 
ENDBRANCH  20  21
ENDBRANCH  18  20
ENDBRANCH   8  18
BRANCH  17  24
ATOM     24  C   UNL A   1      32.353  23.396  26.506  1.00  0.00     0.429 C 
ATOM     25  F   UNL A   1      33.552  23.885  26.105  1.00  0.00    -0.167 F 
ATOM     26  F   UNL A   1      31.767  24.368  27.249  1.00  0.00    -0.167 F 
ATOM     27  F   UNL A   1      32.600  22.373  27.354  1.00  0.00    -0.167 F 
ENDBRANCH  17  24
ENDBRANCH   4   7
ENDBRANCH   2   3
ENDBRANCH   1   2
BRANCH   1  28
ATOM     28  C   UNL A   1      37.205  22.385  25.370  1.00  0.00     0.118 C 
BRANCH  28  29
ATOM     29  N   UNL A   1      38.147  21.327  25.731  1.00  0.00    -0.352 N 
ATOM     30  C   UNL A   1      39.416  21.407  26.255  1.00  0.00     0.251 C 
ATOM     31  H   UNL A   1      37.822  20.412  25.572  1.00  0.00     0.163 HD
ATOM     32  O   UNL A   1      40.143  20.417  26.234  1.00  0.00    -0.269 OA
BRANCH  30  33
ATOM     33  C   UNL A   1      39.898  22.684  26.818  1.00  0.00     0.039 A 
ATOM     34  C   UNL A   1      39.402  23.889  26.329  1.00  0.00     0.014 A 
ATOM     35  C   UNL A   1      40.856  22.685  27.836  1.00  0.00     0.014 A 
ATOM     36  C   UNL A   1      40.020  25.077  26.679  1.00  0.00     0.010 A 
ATOM     37  C   UNL A   1      41.375  23.901  28.296  1.00  0.00     0.010 A 
ATOM     38  C   UNL A   1      41.000  25.105  27.684  1.00  0.00    -0.014 A 
BRANCH  38  39
ATOM     39  C   UNL A   1      41.551  26.424  28.091  1.00  0.00     0.031 A 
ATOM     40  C   UNL A   1      42.946  26.843  27.727  1.00  0.00     0.074 A 
ATOM     41  C   UNL A   1      40.736  27.281  28.739  1.00  0.00     0.049 A 
ATOM     42  N   UNL A   1      43.528  27.999  27.919  1.00  0.00    -0.248 NA
ATOM     43  C   UNL A   1      43.807  25.843  27.079  1.00  0.00     0.031 C 
ATOM     44  C   UNL A   1      39.371  26.964  29.165  1.00  0.00     0.029 A 
ATOM     45  N   UNL A   1      40.903  28.589  29.113  1.00  0.00    -0.354 N 
ATOM     46  C   UNL A   1      44.828  27.858  27.448  1.00  0.00     0.074 A 
ATOM     47  C   UNL A   1      44.958  26.494  26.984  1.00  0.00     0.031 C 
ATOM     48  C   UNL A   1      38.798  28.066  29.658  1.00  0.00     0.029 A 
ATOM     49  C   UNL A   1      39.779  29.146  29.678  1.00  0.00     0.049 A 
ATOM     50  H   UNL A   1      41.747  29.082  28.990  1.00  0.00     0.167 HD
ATOM     51  C   UNL A   1      45.812  28.787  27.401  1.00  0.00     0.034 A 
ATOM     52  C   UNL A   1      39.556  30.379  30.173  1.00  0.00     0.034 A 
ATOM     53  C   UNL A   1      45.648  30.151  27.841  1.00  0.00     0.049 A 
ATOM     54  C   UNL A   1      40.658  31.396  30.092  1.00  0.00     0.074 A 
ATOM     55  C   UNL A   1      46.562  31.187  27.763  1.00  0.00     0.029 A 
ATOM     56  N   UNL A   1      44.511  30.671  28.446  1.00  0.00    -0.354 N 
ATOM     57  N   UNL A   1      41.855  31.270  29.569  1.00  0.00    -0.248 NA
ATOM     58  C   UNL A   1      40.388  32.721  30.662  1.00  0.00     0.031 C 
ATOM     59  C   UNL A   1      46.010  32.305  28.392  1.00  0.00     0.029 A 
ATOM     60  C   UNL A   1      44.719  31.999  28.788  1.00  0.00     0.049 A 
ATOM     61  H   UNL A   1      43.679  30.169  28.608  1.00  0.00     0.167 HD
ATOM     62  C   UNL A   1      42.487  32.494  29.756  1.00  0.00     0.074 A 
ATOM     63  C   UNL A   1      41.517  33.364  30.392  1.00  0.00     0.031 C 
ATOM     64  C   UNL A   1      43.758  32.855  29.445  1.00  0.00     0.034 A 
BRANCH  51  65
ATOM     65  C   UNL A   1      47.165  28.386  26.862  1.00  0.00     0.023 A 
ATOM     66  C   UNL A   1      47.312  28.109  25.488  1.00  0.00     0.031 A 
ATOM     67  C   UNL A   1      48.266  28.151  27.705  1.00  0.00     0.131 A 
ATOM     68  C   UNL A   1      48.517  27.583  25.005  1.00  0.00     0.055 A 
ATOM     69  C   UNL A   1      49.480  27.670  27.211  1.00  0.00     0.041 A 
ATOM     70  F   UNL A   1      48.179  28.393  29.023  1.00  0.00    -0.206 F 
ATOM     71  C   UNL A   1      49.604  27.370  25.858  1.00  0.00     0.022 A 
BRANCH  68  72
ATOM     72  S   UNL A   1      48.696  27.084  23.271  1.00  0.00     0.124 S 
ATOM     73  O   UNL A   1      47.955  25.826  23.243  1.00  0.00    -0.237 OA
ATOM     74  O   UNL A   1      48.062  28.197  22.568  1.00  0.00    -0.237 OA
ATOM     75  O   UNL A   1      50.138  26.961  23.088  1.00  0.00    -0.744 OA
ENDBRANCH  68  72
ENDBRANCH  51  65
BRANCH  52  76
ATOM     76  C   UNL A   1      38.213  30.684  30.748  1.00  0.00     0.023 A 
ATOM     77  C   UNL A   1      37.238  31.337  29.970  1.00  0.00     0.031 A 
ATOM     78  C   UNL A   1      37.948  30.489  32.113  1.00  0.00     0.131 A 
ATOM     79  C   UNL A   1      36.099  31.871  30.584  1.00  0.00     0.055 A 
ATOM     80  C   UNL A   1      36.766  30.943  32.703  1.00  0.00     0.041 A 
ATOM     81  F   UNL A   1      38.851  29.883  32.899  1.00  0.00    -0.206 F 
ATOM     82  C   UNL A   1      35.847  31.661  31.943  1.00  0.00     0.022 A 
BRANCH  79  83
ATOM     83  S   UNL A   1      35.010  33.008  29.681  1.00  0.00     0.124 S 
ATOM     84  O   UNL A   1      35.946  34.031  29.226  1.00  0.00    -0.237 OA
ATOM     85  O   UNL A   1      34.472  32.136  28.639  1.00  0.00    -0.237 OA
ATOM     86  O   UNL A   1      34.046  33.436  30.688  1.00  0.00    -0.744 OA
ENDBRANCH  79  83
ENDBRANCH  52  76
BRANCH  64  87
ATOM     87  C   UNL A   1      44.212  34.247  29.819  1.00  0.00     0.023 A 
ATOM     88  C   UNL A   1      44.038  35.318  28.921  1.00  0.00     0.031 A 
ATOM     89  C   UNL A   1      44.931  34.485  31.004  1.00  0.00     0.131 A 
ATOM     90  C   UNL A   1      44.609  36.566  29.206  1.00  0.00     0.055 A 
ATOM     91  C   UNL A   1      45.450  35.744  31.309  1.00  0.00     0.041 A 
ATOM     92  F   UNL A   1      45.135  33.495  31.888  1.00  0.00    -0.206 F 
ATOM     93  C   UNL A   1      45.303  36.788  30.399  1.00  0.00     0.022 A 
BRANCH  90  94
ATOM     94  S   UNL A   1      44.552  37.917  27.998  1.00  0.00     0.124 S 
ATOM     95  O   UNL A   1      45.969  38.116  27.701  1.00  0.00    -0.237 OA
ATOM     96  O   UNL A   1      43.764  37.332  26.916  1.00  0.00    -0.237 OA
ATOM     97  O   UNL A   1      43.910  39.010  28.721  1.00  0.00    -0.744 OA
ENDBRANCH  90  94
ENDBRANCH  64  87
ENDBRANCH  38  39
ENDBRANCH  30  33
ENDBRANCH  28  29
ENDBRANCH   1  28
TORSDOF 17
ENDMDL
MODEL 2
REMARK VINA RESULT:     -12.3      5.589     10.532
REMARK SMILES CC(C)CN(C)c1cc2c(cc1Cl)C=C(C(=O)NCCCNC(=O)c1ccc(-c3c4nc(c(-c5cc(S(=O)(=O)[O-])ccc5F)c5ccc([nH]5)c(-c5cc(S(=O)(=O)[O-])ccc5F)c5nc(c(-c6cc(S(=O)(=O)[O-])ccc6F)c6ccc3[nH]6)C=C5)C=C4)cc1)[C@@H](C(F)(F)F)O2
REMARK SMILES IDX 20 1 19 2 18 3 16 4 17 5 15 7 7 8 8 9 12 10 9 11 11 12 13 13
REMARK SMILES IDX 10 14 93 15 14 16 88 17 5 18 6 19 4 20 2 21 1 22 3 23 89 24
REMARK SMILES IDX 90 25 91 26 92 27 21 28 22 29 23 30 24 32 25 33 26 34 87 35
REMARK SMILES IDX 27 36 86 37 28 38 29 39 30 40 80 41 31 42 85 43 79 44 81 45
REMARK SMILES IDX 32 46 84 47 78 48 77 49 33 51 65 52 45 53 64 54 46 55 49 56
REMARK SMILES IDX 63 57 82 58 47 59 48 60 62 62 83 63 50 64 34 65 35 66 43 67
REMARK SMILES IDX 36 68 42 69 44 70 41 71 37 72 38 73 39 74 40 75 66 76 67 77
REMARK SMILES IDX 75 78 68 79 74 80 76 81 73 82 69 83 70 84 71 85 72 86 51 87
REMARK SMILES IDX 52 88 60 89 53 90 59 91 61 92 58 93 54 94 55 95 56 96 57 97
REMARK H PARENT 18 6 22 31 81 50 49 61
REMARK Flexibility Score: inf
ROOT
ATOM      1  C   UNL A   1      31.403  32.351  26.524  1.00  0.00     0.042 C 
ENDROOT
BRANCH   1   2
ATOM      2  C   UNL A   1      31.359  30.855  26.272  1.00  0.00     0.118 C 
BRANCH   2   3
ATOM      3  N   UNL A   1      30.964  30.562  24.904  1.00  0.00    -0.352 N 
ATOM      4  C   UNL A   1      31.038  29.507  24.063  1.00  0.00     0.251 C 
ATOM      5  O   UNL A   1      30.581  29.699  22.931  1.00  0.00    -0.270 OA
ATOM      6  H   UNL A   1      30.530  31.336  24.478  1.00  0.00     0.163 HD
BRANCH   4   7
ATOM      7  C   UNL A   1      31.592  28.176  24.418  1.00  0.00     0.067 C 
ATOM      8  C   UNL A   1      32.225  23.382  25.801  1.00  0.00     0.059 A 
ATOM      9  C   UNL A   1      33.017  24.309  25.102  1.00  0.00     0.074 A 
ATOM     10  C   UNL A   1      30.922  23.790  26.174  1.00  0.00     0.065 A 
ATOM     11  C   UNL A   1      32.517  25.570  24.786  1.00  0.00     0.130 A 
ATOM     12  C   UNL A   1      30.387  25.009  25.740  1.00  0.00     0.034 A 
ATOM     13  Cl  UNL A   1      29.931  22.863  27.250  1.00  0.00    -0.082 Cl
ATOM     14  C   UNL A   1      31.186  25.900  25.040  1.00  0.00     0.019 A 
ATOM     15  O   UNL A   1      33.387  26.487  24.254  1.00  0.00    -0.475 OA
ATOM     16  C   UNL A   1      30.688  27.199  24.611  1.00  0.00     0.025 C 
ATOM     17  C   UNL A   1      33.051  27.865  24.614  1.00  0.00     0.314 C 
BRANCH   8  18
ATOM     18  N   UNL A   1      32.730  22.106  26.107  1.00  0.00    -0.373 N 
ATOM     19  C   UNL A   1      33.434  22.003  27.385  1.00  0.00     0.143 C 
BRANCH  18  20
ATOM     20  C   UNL A   1      33.319  21.351  24.978  1.00  0.00     0.119 C 
BRANCH  20  21
ATOM     21  C   UNL A   1      32.250  20.691  24.082  1.00  0.00     0.002 C 
ATOM     22  C   UNL A   1      32.154  21.365  22.710  1.00  0.00     0.009 C 
ATOM     23  C   UNL A   1      32.530  19.200  23.882  1.00  0.00     0.009 C 
ENDBRANCH  20  21
ENDBRANCH  18  20
ENDBRANCH   8  18
BRANCH  17  24
ATOM     24  C   UNL A   1      33.525  28.191  26.053  1.00  0.00     0.429 C 
ATOM     25  F   UNL A   1      34.025  29.449  26.118  1.00  0.00    -0.167 F 
ATOM     26  F   UNL A   1      32.514  28.129  26.955  1.00  0.00    -0.167 F 
ATOM     27  F   UNL A   1      34.484  27.354  26.505  1.00  0.00    -0.167 F 
ENDBRANCH  17  24
ENDBRANCH   4   7
ENDBRANCH   2   3
ENDBRANCH   1   2
BRANCH   1  28
ATOM     28  C   UNL A   1      32.692  32.771  27.213  1.00  0.00     0.118 C 
BRANCH  28  29
ATOM     29  N   UNL A   1      32.573  34.089  27.836  1.00  0.00    -0.352 N 
ATOM     30  C   UNL A   1      33.255  34.634  28.899  1.00  0.00     0.251 C 
ATOM     31  H   UNL A   1      31.897  34.678  27.432  1.00  0.00     0.163 HD
ATOM     32  O   UNL A   1      32.822  35.650  29.438  1.00  0.00    -0.269 OA
BRANCH  30  33
ATOM     33  C   UNL A   1      34.486  33.986  29.392  1.00  0.00     0.039 A 
ATOM     34  C   UNL A   1      34.403  32.979  30.351  1.00  0.00     0.014 A 
ATOM     35  C   UNL A   1      35.734  34.384  28.904  1.00  0.00     0.014 A 
ATOM     36  C   UNL A   1      35.552  32.543  30.987  1.00  0.00     0.010 A 
ATOM     37  C   UNL A   1      36.898  33.829  29.448  1.00  0.00     0.010 A 
ATOM     38  C   UNL A   1      36.818  32.942  30.531  1.00  0.00    -0.014 A 
BRANCH  38  39
ATOM     39  C   UNL A   1      38.017  32.357  31.185  1.00  0.00     0.031 A 
ATOM     40  C   UNL A   1      38.497  32.833  32.527  1.00  0.00     0.074 A 
ATOM     41  C   UNL A   1      38.633  31.323  30.577  1.00  0.00     0.049 A 
ATOM     42  N   UNL A   1      39.460  32.351  33.268  1.00  0.00    -0.248 NA
ATOM     43  C   UNL A   1      37.826  34.005  33.109  1.00  0.00     0.031 C 
ATOM     44  C   UNL A   1      38.265  30.799  29.259  1.00  0.00     0.029 A 
ATOM     45  N   UNL A   1      39.651  30.501  30.987  1.00  0.00    -0.354 N 
ATOM     46  C   UNL A   1      39.534  33.174  34.386  1.00  0.00     0.074 A 
ATOM     47  C   UNL A   1      38.535  34.205  34.212  1.00  0.00     0.031 C 
ATOM     48  C   UNL A   1      38.981  29.698  29.009  1.00  0.00     0.029 A 
ATOM     49  C   UNL A   1      39.929  29.489  30.098  1.00  0.00     0.049 A 
ATOM     50  H   UNL A   1      40.137  30.625  31.834  1.00  0.00     0.167 HD
ATOM     51  C   UNL A   1      40.356  33.068  35.457  1.00  0.00     0.034 A 
ATOM     52  C   UNL A   1      40.850  28.505  30.137  1.00  0.00     0.034 A 
ATOM     53  C   UNL A   1      41.323  32.011  35.622  1.00  0.00     0.049 A 
ATOM     54  C   UNL A   1      41.736  28.399  31.346  1.00  0.00     0.074 A 
ATOM     55  C   UNL A   1      42.149  31.774  36.708  1.00  0.00     0.029 A 
ATOM     56  N   UNL A   1      41.609  31.026  34.686  1.00  0.00    -0.354 N 
ATOM     57  N   UNL A   1      41.738  29.138  32.430  1.00  0.00    -0.248 NA
ATOM     58  C   UNL A   1      42.742  27.331  31.343  1.00  0.00     0.031 C 
ATOM     59  C   UNL A   1      42.985  30.701  36.396  1.00  0.00     0.029 A 
ATOM     60  C   UNL A   1      42.628  30.208  35.151  1.00  0.00     0.049 A 
ATOM     61  H   UNL A   1      41.152  30.923  33.819  1.00  0.00     0.167 HD
ATOM     62  C   UNL A   1      42.752  28.633  33.236  1.00  0.00     0.074 A 
ATOM     63  C   UNL A   1      43.304  27.490  32.535  1.00  0.00     0.031 C 
ATOM     64  C   UNL A   1      43.193  29.086  34.438  1.00  0.00     0.034 A 
BRANCH  51  65
ATOM     65  C   UNL A   1      40.266  34.110  36.548  1.00  0.00     0.023 A 
ATOM     66  C   UNL A   1      39.711  33.764  37.796  1.00  0.00     0.031 A 
ATOM     67  C   UNL A   1      40.601  35.457  36.323  1.00  0.00     0.131 A 
ATOM     68  C   UNL A   1      39.475  34.756  38.756  1.00  0.00     0.055 A 
ATOM     69  C   UNL A   1      40.407  36.435  37.301  1.00  0.00     0.041 A 
ATOM     70  F   UNL A   1      41.129  35.842  35.150  1.00  0.00    -0.206 F 
ATOM     71  C   UNL A   1      39.829  36.088  38.519  1.00  0.00     0.022 A 
BRANCH  68  72
ATOM     72  S   UNL A   1      38.635  34.372  40.316  1.00  0.00     0.124 S 
ATOM     73  O   UNL A   1      37.598  33.442  39.877  1.00  0.00    -0.237 OA
ATOM     74  O   UNL A   1      39.713  33.778  41.103  1.00  0.00    -0.237 OA
ATOM     75  O   UNL A   1      38.152  35.667  40.783  1.00  0.00    -0.744 OA
ENDBRANCH  68  72
ENDBRANCH  51  65
BRANCH  52  76
ATOM     76  C   UNL A   1      40.921  27.550  28.993  1.00  0.00     0.023 A 
ATOM     77  C   UNL A   1      41.913  27.699  28.003  1.00  0.00     0.031 A 
ATOM     78  C   UNL A   1      39.912  26.598  28.780  1.00  0.00     0.131 A 
ATOM     79  C   UNL A   1      41.807  26.990  26.801  1.00  0.00     0.055 A 
ATOM     80  C   UNL A   1      39.864  25.826  27.617  1.00  0.00     0.041 A 
ATOM     81  F   UNL A   1      38.939  26.428  29.688  1.00  0.00    -0.206 F 
ATOM     82  C   UNL A   1      40.800  26.040  26.608  1.00  0.00     0.022 A 
BRANCH  79  83
ATOM     83  S   UNL A   1      42.860  27.416  25.384  1.00  0.00     0.124 S 
ATOM     84  O   UNL A   1      44.122  27.755  26.032  1.00  0.00    -0.237 OA
ATOM     85  O   UNL A   1      42.854  26.166  24.627  1.00  0.00    -0.237 OA
ATOM     86  O   UNL A   1      42.155  28.525  24.751  1.00  0.00    -0.744 OA
ENDBRANCH  79  83
ENDBRANCH  52  76
BRANCH  64  87
ATOM     87  C   UNL A   1      44.366  28.378  35.076  1.00  0.00     0.023 A 
ATOM     88  C   UNL A   1      44.161  27.237  35.875  1.00  0.00     0.031 A 
ATOM     89  C   UNL A   1      45.667  28.909  34.998  1.00  0.00     0.131 A 
ATOM     90  C   UNL A   1      45.230  26.689  36.594  1.00  0.00     0.055 A 
ATOM     91  C   UNL A   1      46.740  28.326  35.674  1.00  0.00     0.041 A 
ATOM     92  F   UNL A   1      45.914  30.003  34.260  1.00  0.00    -0.206 F 
ATOM     93  C   UNL A   1      46.521  27.219  36.489  1.00  0.00     0.022 A 
BRANCH  90  94
ATOM     94  S   UNL A   1      44.970  25.327  37.764  1.00  0.00     0.124 S 
ATOM     95  O   UNL A   1      43.515  25.201  37.761  1.00  0.00    -0.237 OA
ATOM     96  O   UNL A   1      45.693  24.229  37.126  1.00  0.00    -0.237 OA
ATOM     97  O   UNL A   1      45.549  25.818  39.011  1.00  0.00    -0.744 OA
ENDBRANCH  90  94
ENDBRANCH  64  87
ENDBRANCH  38  39
ENDBRANCH  30  33
ENDBRANCH  28  29
ENDBRANCH   1  28
TORSDOF 17
ENDMDL
MODEL 3
REMARK VINA RESULT:     -12.3      1.679      7.659
REMARK SMILES CC(C)CN(C)c1cc2c(cc1Cl)C=C(C(=O)NCCCNC(=O)c1ccc(-c3c4nc(c(-c5cc(S(=O)(=O)[O-])ccc5F)c5ccc([nH]5)c(-c5cc(S(=O)(=O)[O-])ccc5F)c5nc(c(-c6cc(S(=O)(=O)[O-])ccc6F)c6ccc3[nH]6)C=C5)C=C4)cc1)[C@@H](C(F)(F)F)O2
REMARK SMILES IDX 20 1 19 2 18 3 16 4 17 5 15 7 7 8 8 9 12 10 9 11 11 12 13 13
REMARK SMILES IDX 10 14 93 15 14 16 88 17 5 18 6 19 4 20 2 21 1 22 3 23 89 24
REMARK SMILES IDX 90 25 91 26 92 27 21 28 22 29 23 30 24 32 25 33 26 34 87 35
REMARK SMILES IDX 27 36 86 37 28 38 29 39 30 40 80 41 31 42 85 43 79 44 81 45
REMARK SMILES IDX 32 46 84 47 78 48 77 49 33 51 65 52 45 53 64 54 46 55 49 56
REMARK SMILES IDX 63 57 82 58 47 59 48 60 62 62 83 63 50 64 34 65 35 66 43 67
REMARK SMILES IDX 36 68 42 69 44 70 41 71 37 72 38 73 39 74 40 75 66 76 67 77
REMARK SMILES IDX 75 78 68 79 74 80 76 81 73 82 69 83 70 84 71 85 72 86 51 87
REMARK SMILES IDX 52 88 60 89 53 90 59 91 61 92 58 93 54 94 55 95 56 96 57 97
REMARK H PARENT 18 6 22 31 81 50 49 61
REMARK Flexibility Score: inf
ROOT
ATOM      1  C   UNL A   1      37.790  19.614  25.002  1.00  0.00     0.042 C 
ENDROOT
BRANCH   1   2
ATOM      2  C   UNL A   1      36.516  20.436  25.073  1.00  0.00     0.118 C 
BRANCH   2   3
ATOM      3  N   UNL A   1      35.342  19.612  24.829  1.00  0.00    -0.352 N 
ATOM      4  C   UNL A   1      34.007  19.799  24.757  1.00  0.00     0.251 C 
ATOM      5  O   UNL A   1      33.340  18.782  24.541  1.00  0.00    -0.270 OA
ATOM      6  H   UNL A   1      35.586  18.671  24.676  1.00  0.00     0.163 HD
BRANCH   4   7
ATOM      7  C   UNL A   1      33.325  21.112  24.893  1.00  0.00     0.067 C 
ATOM      8  C   UNL A   1      31.518  25.751  24.179  1.00  0.00     0.059 A 
ATOM      9  C   UNL A   1      31.169  24.687  25.028  1.00  0.00     0.074 A 
ATOM     10  C   UNL A   1      32.554  25.522  23.241  1.00  0.00     0.065 A 
ATOM     11  C   UNL A   1      31.817  23.459  24.928  1.00  0.00     0.130 A 
ATOM     12  C   UNL A   1      33.109  24.249  23.064  1.00  0.00     0.034 A 
ATOM     13  Cl  UNL A   1      33.263  26.799  22.312  1.00  0.00    -0.082 Cl
ATOM     14  C   UNL A   1      32.736  23.213  23.908  1.00  0.00     0.019 A 
ATOM     15  O   UNL A   1      31.554  22.516  25.888  1.00  0.00    -0.475 OA
ATOM     16  C   UNL A   1      33.322  21.885  23.792  1.00  0.00     0.025 C 
ATOM     17  C   UNL A   1      32.695  21.639  26.153  1.00  0.00     0.314 C 
BRANCH   8  18
ATOM     18  N   UNL A   1      30.851  26.984  24.277  1.00  0.00    -0.373 N 
ATOM     19  C   UNL A   1      29.895  27.265  23.205  1.00  0.00     0.143 C 
BRANCH  18  20
ATOM     20  C   UNL A   1      31.666  28.131  24.737  1.00  0.00     0.119 C 
BRANCH  20  21
ATOM     21  C   UNL A   1      31.969  28.076  26.249  1.00  0.00     0.002 C 
ATOM     22  C   UNL A   1      33.371  27.529  26.535  1.00  0.00     0.009 C 
ATOM     23  C   UNL A   1      31.835  29.456  26.897  1.00  0.00     0.009 C 
ENDBRANCH  20  21
ENDBRANCH  18  20
ENDBRANCH   8  18
BRANCH  17  24
ATOM     24  C   UNL A   1      33.729  22.340  27.069  1.00  0.00     0.429 C 
ATOM     25  F   UNL A   1      34.334  21.440  27.883  1.00  0.00    -0.167 F 
ATOM     26  F   UNL A   1      34.716  22.947  26.363  1.00  0.00    -0.167 F 
ATOM     27  F   UNL A   1      33.189  23.295  27.858  1.00  0.00    -0.167 F 
ENDBRANCH  17  24
ENDBRANCH   4   7
ENDBRANCH   2   3
ENDBRANCH   1   2
BRANCH   1  28
ATOM     28  C   UNL A   1      38.945  20.297  25.717  1.00  0.00     0.118 C 
BRANCH  28  29
ATOM     29  N   UNL A   1      40.040  19.369  25.997  1.00  0.00    -0.352 N 
ATOM     30  C   UNL A   1      41.382  19.607  26.176  1.00  0.00     0.251 C 
ATOM     31  H   UNL A   1      39.773  18.425  26.066  1.00  0.00     0.163 HD
ATOM     32  O   UNL A   1      42.174  18.669  26.132  1.00  0.00    -0.269 OA
BRANCH  30  33
ATOM     33  C   UNL A   1      41.860  20.986  26.400  1.00  0.00     0.039 A 
ATOM     34  C   UNL A   1      41.809  21.538  27.677  1.00  0.00     0.014 A 
ATOM     35  C   UNL A   1      42.358  21.740  25.333  1.00  0.00     0.014 A 
ATOM     36  C   UNL A   1      42.027  22.895  27.846  1.00  0.00     0.010 A 
ATOM     37  C   UNL A   1      42.720  23.076  25.539  1.00  0.00     0.010 A 
ATOM     38  C   UNL A   1      42.507  23.680  26.786  1.00  0.00    -0.014 A 
BRANCH  38  39
ATOM     39  C   UNL A   1      42.823  25.107  27.055  1.00  0.00     0.031 A 
ATOM     40  C   UNL A   1      41.863  26.005  27.783  1.00  0.00     0.074 A 
ATOM     41  C   UNL A   1      44.038  25.568  26.696  1.00  0.00     0.049 A 
ATOM     42  N   UNL A   1      42.041  27.237  28.183  1.00  0.00    -0.248 NA
ATOM     43  C   UNL A   1      40.531  25.464  28.091  1.00  0.00     0.031 C 
ATOM     44  C   UNL A   1      45.036  24.788  25.960  1.00  0.00     0.029 A 
ATOM     45  N   UNL A   1      44.662  26.767  26.929  1.00  0.00    -0.354 N 
ATOM     46  C   UNL A   1      40.839  27.631  28.759  1.00  0.00     0.074 A 
ATOM     47  C   UNL A   1      39.929  26.515  28.633  1.00  0.00     0.031 C 
ATOM     48  C   UNL A   1      46.170  25.490  25.880  1.00  0.00     0.029 A 
ATOM     49  C   UNL A   1      45.958  26.808  26.468  1.00  0.00     0.049 A 
ATOM     50  H   UNL A   1      44.224  27.524  27.380  1.00  0.00     0.167 HD
ATOM     51  C   UNL A   1      40.534  28.813  29.346  1.00  0.00     0.034 A 
ATOM     52  C   UNL A   1      46.875  27.794  26.497  1.00  0.00     0.034 A 
ATOM     53  C   UNL A   1      41.470  29.902  29.488  1.00  0.00     0.049 A 
ATOM     54  C   UNL A   1      46.518  29.089  27.171  1.00  0.00     0.074 A 
ATOM     55  C   UNL A   1      41.279  31.110  30.135  1.00  0.00     0.029 A 
ATOM     56  N   UNL A   1      42.760  29.927  28.975  1.00  0.00    -0.354 N 
ATOM     57  N   UNL A   1      45.404  29.416  27.782  1.00  0.00    -0.248 NA
ATOM     58  C   UNL A   1      47.533  30.148  27.163  1.00  0.00     0.031 C 
ATOM     59  C   UNL A   1      42.418  31.894  29.943  1.00  0.00     0.029 A 
ATOM     60  C   UNL A   1      43.358  31.148  29.251  1.00  0.00     0.049 A 
ATOM     61  H   UNL A   1      43.188  29.187  28.487  1.00  0.00     0.167 HD
ATOM     62  C   UNL A   1      45.578  30.723  28.223  1.00  0.00     0.074 A 
ATOM     63  C   UNL A   1      46.927  31.105  27.854  1.00  0.00     0.031 C 
ATOM     64  C   UNL A   1      44.695  31.534  28.860  1.00  0.00     0.034 A 
BRANCH  51  65
ATOM     65  C   UNL A   1      39.137  29.019  29.884  1.00  0.00     0.023 A 
ATOM     66  C   UNL A   1      38.213  29.783  29.146  1.00  0.00     0.031 A 
ATOM     67  C   UNL A   1      38.759  28.580  31.165  1.00  0.00     0.131 A 
ATOM     68  C   UNL A   1      36.973  30.114  29.706  1.00  0.00     0.055 A 
ATOM     69  C   UNL A   1      37.503  28.873  31.701  1.00  0.00     0.041 A 
ATOM     70  F   UNL A   1      39.604  27.852  31.914  1.00  0.00    -0.206 F 
ATOM     71  C   UNL A   1      36.610  29.656  30.976  1.00  0.00     0.022 A 
BRANCH  68  72
ATOM     72  S   UNL A   1      35.815  31.212  28.844  1.00  0.00     0.124 S 
ATOM     73  O   UNL A   1      35.046  30.264  28.041  1.00  0.00    -0.237 OA
ATOM     74  O   UNL A   1      35.089  31.820  29.956  1.00  0.00    -0.237 OA
ATOM     75  O   UNL A   1      36.680  32.110  28.087  1.00  0.00    -0.744 OA
ENDBRANCH  68  72
ENDBRANCH  51  65
BRANCH  52  76
ATOM     76  C   UNL A   1      48.214  27.540  25.889  1.00  0.00     0.023 A 
ATOM     77  C   UNL A   1      48.429  27.776  24.517  1.00  0.00     0.031 A 
ATOM     78  C   UNL A   1      49.231  26.903  26.617  1.00  0.00     0.131 A 
ATOM     79  C   UNL A   1      49.579  27.277  23.896  1.00  0.00     0.055 A 
ATOM     80  C   UNL A   1      50.420  26.489  26.010  1.00  0.00     0.041 A 
ATOM     81  F   UNL A   1      49.069  26.645  27.924  1.00  0.00    -0.206 F 
ATOM     82  C   UNL A   1      50.586  26.651  24.638  1.00  0.00     0.022 A 
BRANCH  79  83
ATOM     83  S   UNL A   1      49.717  27.258  22.086  1.00  0.00     0.124 S 
ATOM     84  O   UNL A   1      51.107  26.861  21.890  1.00  0.00    -0.237 OA
ATOM     85  O   UNL A   1      48.716  26.256  21.725  1.00  0.00    -0.237 OA
ATOM     86  O   UNL A   1      49.389  28.626  21.701  1.00  0.00    -0.744 OA
ENDBRANCH  79  83
ENDBRANCH  52  76
BRANCH  64  87
ATOM     87  C   UNL A   1      45.128  32.948  29.173  1.00  0.00     0.023 A 
ATOM     88  C   UNL A   1      44.834  33.997  28.281  1.00  0.00     0.031 A 
ATOM     89  C   UNL A   1      45.940  33.231  30.286  1.00  0.00     0.131 A 
ATOM     90  C   UNL A   1      45.381  35.268  28.497  1.00  0.00     0.055 A 
ATOM     91  C   UNL A   1      46.437  34.512  30.526  1.00  0.00     0.041 A 
ATOM     92  F   UNL A   1      46.260  32.263  31.161  1.00  0.00    -0.206 F 
ATOM     93  C   UNL A   1      46.170  35.535  29.620  1.00  0.00     0.022 A 
BRANCH  90  94
ATOM     94  S   UNL A   1      45.165  36.598  27.282  1.00  0.00     0.124 S 
ATOM     95  O   UNL A   1      43.896  36.232  26.657  1.00  0.00    -0.237 OA
ATOM     96  O   UNL A   1      45.125  37.787  28.129  1.00  0.00    -0.237 OA
ATOM     97  O   UNL A   1      46.338  36.481  26.420  1.00  0.00    -0.744 OA
ENDBRANCH  90  94
ENDBRANCH  64  87
ENDBRANCH  38  39
ENDBRANCH  30  33
ENDBRANCH  28  29
ENDBRANCH   1  28
TORSDOF 17
ENDMDL
