MODEL 1
REMARK VINA RESULT:     -13.0      0.000      0.000
REMARK SMILES CC(C)(C)c1cc2c(cc1Cl)C=C(C(=O)NCCCNC(=O)c1ccc(-c3c4nc(c(-c5cc(S(=O)(=O)[O-])ccc5F)c5ccc([nH]5)c(-c5cc(S(=O)(=O)[O-])ccc5F)c5nc(c(-c6cc(S(=O)(=O)[O-])ccc6F)c6ccc3[nH]6)C=C5)C=C4)cc1)[C@@H](C(F)(F)F)O2
REMARK SMILES IDX 19 1 18 2 17 3 16 4 14 5 15 6 13 8 5 9 6 10 10 11 7 12 9 13
REMARK SMILES IDX 11 14 8 15 91 16 12 17 86 18 2 19 1 20 3 21 4 22 87 23 88 24
REMARK SMILES IDX 89 25 90 26 20 27 21 28 22 30 23 31 24 32 85 33 25 34 84 35
REMARK SMILES IDX 26 36 27 37 28 38 78 39 29 40 83 41 77 42 79 43 30 44 82 45
REMARK SMILES IDX 76 46 75 47 31 49 63 50 43 51 62 52 44 53 47 54 61 55 80 56
REMARK SMILES IDX 45 57 46 58 60 60 81 61 48 62 32 63 33 64 41 65 34 66 40 67
REMARK SMILES IDX 42 68 39 69 35 70 36 71 37 72 38 73 64 74 65 75 73 76 66 77
REMARK SMILES IDX 72 78 74 79 71 80 67 81 68 82 69 83 70 84 49 85 50 86 58 87
REMARK SMILES IDX 51 88 57 89 59 90 56 91 52 92 53 93 54 94 55 95
REMARK H PARENT 16 7 20 29 79 48 47 59
REMARK Flexibility Score: inf
ROOT
ATOM      1  C   UNL A   1      37.465  22.178  25.278  1.00  0.00     0.118 C 
ENDROOT
BRANCH   1   2
ATOM      2  C   UNL A   1      36.349  21.611  24.410  1.00  0.00     0.042 C 
BRANCH   2   3
ATOM      3  C   UNL A   1      35.723  20.364  25.015  1.00  0.00     0.118 C 
BRANCH   3   4
ATOM      4  N   UNL A   1      34.375  20.132  24.516  1.00  0.00    -0.352 N 
ATOM      5  C   UNL A   1      33.201  20.802  24.476  1.00  0.00     0.251 C 
ATOM      6  O   UNL A   1      32.272  20.203  23.925  1.00  0.00    -0.270 OA
ATOM      7  H   UNL A   1      34.297  19.247  24.092  1.00  0.00     0.163 HD
BRANCH   5   8
ATOM      8  C   UNL A   1      32.971  22.168  25.028  1.00  0.00     0.067 C 
ATOM      9  C   UNL A   1      32.602  27.200  25.671  1.00  0.00    -0.020 A 
ATOM     10  C   UNL A   1      32.099  26.051  26.322  1.00  0.00     0.053 A 
ATOM     11  C   UNL A   1      33.376  26.961  24.508  1.00  0.00     0.045 A 
ATOM     12  C   UNL A   1      32.349  24.761  25.852  1.00  0.00     0.128 A 
ATOM     13  C   UNL A   1      33.596  25.657  24.024  1.00  0.00     0.032 A 
ATOM     14  Cl  UNL A   1      34.142  28.205  23.578  1.00  0.00    -0.084 Cl
ATOM     15  C   UNL A   1      33.082  24.552  24.695  1.00  0.00     0.019 A 
ATOM     16  O   UNL A   1      31.809  23.733  26.572  1.00  0.00    -0.475 OA
ATOM     17  C   UNL A   1      33.267  23.192  24.205  1.00  0.00     0.025 C 
ATOM     18  C   UNL A   1      32.475  22.448  26.419  1.00  0.00     0.314 C 
BRANCH   9  19
ATOM     19  C   UNL A   1      32.289  28.599  26.256  1.00  0.00    -0.012 C 
ATOM     20  C   UNL A   1      31.467  29.430  25.248  1.00  0.00     0.016 C 
ATOM     21  C   UNL A   1      33.562  29.444  26.557  1.00  0.00     0.016 C 
ATOM     22  C   UNL A   1      31.548  28.496  27.608  1.00  0.00     0.016 C 
ENDBRANCH   9  19
BRANCH  18  23
ATOM     23  C   UNL A   1      33.590  22.318  27.475  1.00  0.00     0.429 C 
ATOM     24  F   UNL A   1      33.936  21.017  27.645  1.00  0.00    -0.167 F 
ATOM     25  F   UNL A   1      34.721  22.974  27.123  1.00  0.00    -0.167 F 
ATOM     26  F   UNL A   1      33.225  22.800  28.686  1.00  0.00    -0.167 F 
ENDBRANCH  18  23
ENDBRANCH   5   8
ENDBRANCH   3   4
ENDBRANCH   2   3
ENDBRANCH   1   2
BRANCH   1  27
ATOM     27  N   UNL A   1      38.415  21.147  25.696  1.00  0.00    -0.352 N 
ATOM     28  C   UNL A   1      39.639  21.261  26.310  1.00  0.00     0.251 C 
ATOM     29  H   UNL A   1      38.132  20.224  25.506  1.00  0.00     0.163 HD
ATOM     30  O   UNL A   1      40.385  20.285  26.355  1.00  0.00    -0.269 OA
BRANCH  28  31
ATOM     31  C   UNL A   1      40.059  22.553  26.892  1.00  0.00     0.039 A 
ATOM     32  C   UNL A   1      39.509  23.743  26.422  1.00  0.00     0.014 A 
ATOM     33  C   UNL A   1      41.014  22.579  27.912  1.00  0.00     0.014 A 
ATOM     34  C   UNL A   1      40.060  24.954  26.810  1.00  0.00     0.010 A 
ATOM     35  C   UNL A   1      41.483  23.807  28.391  1.00  0.00     0.010 A 
ATOM     36  C   UNL A   1      41.050  25.006  27.804  1.00  0.00    -0.014 A 
BRANCH  36  37
ATOM     37  C   UNL A   1      41.588  26.332  28.209  1.00  0.00     0.031 A 
ATOM     38  C   UNL A   1      42.970  26.767  27.802  1.00  0.00     0.074 A 
ATOM     39  C   UNL A   1      40.780  27.181  28.875  1.00  0.00     0.049 A 
ATOM     40  N   UNL A   1      43.557  27.920  28.000  1.00  0.00    -0.248 NA
ATOM     41  C   UNL A   1      43.807  25.788  27.090  1.00  0.00     0.031 C 
ATOM     42  C   UNL A   1      39.422  26.857  29.320  1.00  0.00     0.029 A 
ATOM     43  N   UNL A   1      40.949  28.488  29.256  1.00  0.00    -0.354 N 
ATOM     44  C   UNL A   1      44.833  27.798  27.459  1.00  0.00     0.074 A 
ATOM     45  C   UNL A   1      44.948  26.449  26.953  1.00  0.00     0.031 C 
ATOM     46  C   UNL A   1      38.852  27.957  29.828  1.00  0.00     0.029 A 
ATOM     47  C   UNL A   1      39.828  29.042  29.831  1.00  0.00     0.049 A 
ATOM     48  H   UNL A   1      41.792  28.982  29.128  1.00  0.00     0.167 HD
ATOM     49  C   UNL A   1      45.810  28.735  27.381  1.00  0.00     0.034 A 
ATOM     50  C   UNL A   1      39.606  30.282  30.312  1.00  0.00     0.034 A 
ATOM     51  C   UNL A   1      45.665  30.084  27.867  1.00  0.00     0.049 A 
ATOM     52  C   UNL A   1      40.711  31.299  30.220  1.00  0.00     0.074 A 
ATOM     53  C   UNL A   1      46.588  31.114  27.812  1.00  0.00     0.029 A 
ATOM     54  N   UNL A   1      44.534  30.596  28.486  1.00  0.00    -0.354 N 
ATOM     55  N   UNL A   1      41.897  31.176  29.674  1.00  0.00    -0.248 NA
ATOM     56  C   UNL A   1      40.455  32.619  30.810  1.00  0.00     0.031 C 
ATOM     57  C   UNL A   1      46.038  32.227  28.447  1.00  0.00     0.029 A 
ATOM     58  C   UNL A   1      44.745  31.919  28.839  1.00  0.00     0.049 A 
ATOM     59  H   UNL A   1      43.703  30.093  28.651  1.00  0.00     0.167 HD
ATOM     60  C   UNL A   1      42.529  32.402  29.849  1.00  0.00     0.074 A 
ATOM     61  C   UNL A   1      41.577  33.266  30.518  1.00  0.00     0.031 C 
ATOM     62  C   UNL A   1      43.787  32.774  29.500  1.00  0.00     0.034 A 
BRANCH  49  63
ATOM     63  C   UNL A   1      47.125  28.358  26.745  1.00  0.00     0.023 A 
ATOM     64  C   UNL A   1      47.220  28.244  25.344  1.00  0.00     0.031 A 
ATOM     65  C   UNL A   1      48.239  27.989  27.518  1.00  0.00     0.131 A 
ATOM     66  C   UNL A   1      48.391  27.739  24.764  1.00  0.00     0.055 A 
ATOM     67  C   UNL A   1      49.418  27.524  26.933  1.00  0.00     0.041 A 
ATOM     68  F   UNL A   1      48.199  28.082  28.858  1.00  0.00    -0.206 F 
ATOM     69  C   UNL A   1      49.493  27.386  25.551  1.00  0.00     0.022 A 
BRANCH  66  70
ATOM     70  S   UNL A   1      48.511  27.466  22.975  1.00  0.00     0.124 S 
ATOM     71  O   UNL A   1      49.843  27.989  22.681  1.00  0.00    -0.237 OA
ATOM     72  O   UNL A   1      48.376  26.015  22.880  1.00  0.00    -0.237 OA
ATOM     73  O   UNL A   1      47.404  28.241  22.426  1.00  0.00    -0.744 OA
ENDBRANCH  66  70
ENDBRANCH  49  63
BRANCH  50  74
ATOM     74  C   UNL A   1      38.263  30.611  30.876  1.00  0.00     0.023 A 
ATOM     75  C   UNL A   1      37.292  31.264  30.095  1.00  0.00     0.031 A 
ATOM     76  C   UNL A   1      37.980  30.398  32.236  1.00  0.00     0.131 A 
ATOM     77  C   UNL A   1      36.127  31.759  30.696  1.00  0.00     0.055 A 
ATOM     78  C   UNL A   1      36.781  30.821  32.813  1.00  0.00     0.041 A 
ATOM     79  F   UNL A   1      38.878  29.790  33.027  1.00  0.00    -0.206 F 
ATOM     80  C   UNL A   1      35.857  31.526  32.047  1.00  0.00     0.022 A 
BRANCH  77  81
ATOM     81  S   UNL A   1      35.012  32.862  29.783  1.00  0.00     0.124 S 
ATOM     82  O   UNL A   1      34.159  33.378  30.848  1.00  0.00    -0.237 OA
ATOM     83  O   UNL A   1      35.949  33.822  29.203  1.00  0.00    -0.237 OA
ATOM     84  O   UNL A   1      34.361  31.976  28.824  1.00  0.00    -0.744 OA
ENDBRANCH  77  81
ENDBRANCH  50  74
BRANCH  62  85
ATOM     85  C   UNL A   1      44.238  34.174  29.833  1.00  0.00     0.023 A 
ATOM     86  C   UNL A   1      44.082  35.208  28.891  1.00  0.00     0.031 A 
ATOM     87  C   UNL A   1      44.953  34.448  31.012  1.00  0.00     0.131 A 
ATOM     88  C   UNL A   1      44.667  36.458  29.127  1.00  0.00     0.055 A 
ATOM     89  C   UNL A   1      45.494  35.709  31.263  1.00  0.00     0.041 A 
ATOM     90  F   UNL A   1      45.139  33.491  31.935  1.00  0.00    -0.206 F 
ATOM     91  C   UNL A   1      45.365  36.717  30.311  1.00  0.00     0.022 A 
BRANCH  88  92
ATOM     92  S   UNL A   1      44.623  37.764  27.868  1.00  0.00     0.124 S 
ATOM     93  O   UNL A   1      43.410  37.427  27.127  1.00  0.00    -0.237 OA
ATOM     94  O   UNL A   1      44.541  38.974  28.682  1.00  0.00    -0.237 OA
ATOM     95  O   UNL A   1      45.871  37.587  27.132  1.00  0.00    -0.744 OA
ENDBRANCH  88  92
ENDBRANCH  62  85
ENDBRANCH  36  37
ENDBRANCH  28  31
ENDBRANCH   1  27
TORSDOF 15
ENDMDL
MODEL 2
REMARK VINA RESULT:     -12.9      1.521      1.954
REMARK SMILES CC(C)(C)c1cc2c(cc1Cl)C=C(C(=O)NCCCNC(=O)c1ccc(-c3c4nc(c(-c5cc(S(=O)(=O)[O-])ccc5F)c5ccc([nH]5)c(-c5cc(S(=O)(=O)[O-])ccc5F)c5nc(c(-c6cc(S(=O)(=O)[O-])ccc6F)c6ccc3[nH]6)C=C5)C=C4)cc1)[C@@H](C(F)(F)F)O2
REMARK SMILES IDX 19 1 18 2 17 3 16 4 14 5 15 6 13 8 5 9 6 10 10 11 7 12 9 13
REMARK SMILES IDX 11 14 8 15 91 16 12 17 86 18 2 19 1 20 3 21 4 22 87 23 88 24
REMARK SMILES IDX 89 25 90 26 20 27 21 28 22 30 23 31 24 32 85 33 25 34 84 35
REMARK SMILES IDX 26 36 27 37 28 38 78 39 29 40 83 41 77 42 79 43 30 44 82 45
REMARK SMILES IDX 76 46 75 47 31 49 63 50 43 51 62 52 44 53 47 54 61 55 80 56
REMARK SMILES IDX 45 57 46 58 60 60 81 61 48 62 32 63 33 64 41 65 34 66 40 67
REMARK SMILES IDX 42 68 39 69 35 70 36 71 37 72 38 73 64 74 65 75 73 76 66 77
REMARK SMILES IDX 72 78 74 79 71 80 67 81 68 82 69 83 70 84 49 85 50 86 58 87
REMARK SMILES IDX 51 88 57 89 59 90 56 91 52 92 53 93 54 94 55 95
REMARK H PARENT 16 7 20 29 79 48 47 59
REMARK Flexibility Score: inf
ROOT
ATOM      1  C   UNL A   1      37.616  21.438  25.001  1.00  0.00     0.118 C 
ENDROOT
BRANCH   1   2
ATOM      2  C   UNL A   1      36.181  21.188  25.448  1.00  0.00     0.042 C 
BRANCH   2   3
ATOM      3  C   UNL A   1      35.659  19.836  24.987  1.00  0.00     0.118 C 
BRANCH   3   4
ATOM      4  N   UNL A   1      34.212  19.738  25.108  1.00  0.00    -0.352 N 
ATOM      5  C   UNL A   1      33.149  20.570  25.025  1.00  0.00     0.251 C 
ATOM      6  O   UNL A   1      32.048  20.036  25.198  1.00  0.00    -0.270 OA
ATOM      7  H   UNL A   1      33.930  18.815  25.304  1.00  0.00     0.163 HD
BRANCH   5   8
ATOM      8  C   UNL A   1      33.222  22.032  24.742  1.00  0.00     0.067 C 
ATOM      9  C   UNL A   1      33.023  27.105  25.058  1.00  0.00    -0.020 A 
ATOM     10  C   UNL A   1      33.647  26.161  24.211  1.00  0.00     0.053 A 
ATOM     11  C   UNL A   1      32.288  26.568  26.144  1.00  0.00     0.045 A 
ATOM     12  C   UNL A   1      33.545  24.786  24.427  1.00  0.00     0.128 A 
ATOM     13  C   UNL A   1      32.218  25.179  26.372  1.00  0.00     0.032 A 
ATOM     14  Cl  UNL A   1      31.394  27.522  27.279  1.00  0.00    -0.084 Cl
ATOM     15  C   UNL A   1      32.848  24.284  25.514  1.00  0.00     0.019 A 
ATOM     16  O   UNL A   1      34.192  23.978  23.535  1.00  0.00    -0.475 OA
ATOM     17  C   UNL A   1      32.819  22.845  25.738  1.00  0.00     0.025 C 
ATOM     18  C   UNL A   1      33.675  22.622  23.435  1.00  0.00     0.314 C 
BRANCH   9  19
ATOM     19  C   UNL A   1      33.174  28.615  24.750  1.00  0.00    -0.012 C 
ATOM     20  C   UNL A   1      33.868  29.335  25.926  1.00  0.00     0.016 C 
ATOM     21  C   UNL A   1      31.814  29.346  24.553  1.00  0.00     0.016 C 
ATOM     22  C   UNL A   1      33.949  28.851  23.434  1.00  0.00     0.016 C 
ENDBRANCH   9  19
BRANCH  18  23
ATOM     23  C   UNL A   1      32.574  22.570  22.357  1.00  0.00     0.429 C 
ATOM     24  F   UNL A   1      32.346  21.289  21.971  1.00  0.00    -0.167 F 
ATOM     25  F   UNL A   1      31.389  23.055  22.797  1.00  0.00    -0.167 F 
ATOM     26  F   UNL A   1      32.892  23.275  21.247  1.00  0.00    -0.167 F 
ENDBRANCH  18  23
ENDBRANCH   5   8
ENDBRANCH   3   4
ENDBRANCH   2   3
ENDBRANCH   1   2
BRANCH   1  27
ATOM     27  N   UNL A   1      38.532  20.407  25.488  1.00  0.00    -0.352 N 
ATOM     28  C   UNL A   1      39.740  20.522  26.133  1.00  0.00     0.251 C 
ATOM     29  H   UNL A   1      38.236  19.483  25.328  1.00  0.00     0.163 HD
ATOM     30  O   UNL A   1      40.465  19.536  26.240  1.00  0.00    -0.269 OA
BRANCH  28  31
ATOM     31  C   UNL A   1      40.170  21.829  26.675  1.00  0.00     0.039 A 
ATOM     32  C   UNL A   1      39.658  23.009  26.141  1.00  0.00     0.014 A 
ATOM     33  C   UNL A   1      41.096  21.878  27.720  1.00  0.00     0.014 A 
ATOM     34  C   UNL A   1      40.222  24.224  26.496  1.00  0.00     0.010 A 
ATOM     35  C   UNL A   1      41.576  23.116  28.163  1.00  0.00     0.010 A 
ATOM     36  C   UNL A   1      41.185  24.298  27.515  1.00  0.00    -0.014 A 
BRANCH  36  37
ATOM     37  C   UNL A   1      41.738  25.629  27.882  1.00  0.00     0.031 A 
ATOM     38  C   UNL A   1      43.087  26.073  27.384  1.00  0.00     0.074 A 
ATOM     39  C   UNL A   1      40.968  26.472  28.598  1.00  0.00     0.049 A 
ATOM     40  N   UNL A   1      43.676  27.231  27.541  1.00  0.00    -0.248 NA
ATOM     41  C   UNL A   1      43.882  25.100  26.620  1.00  0.00     0.031 C 
ATOM     42  C   UNL A   1      39.646  26.140  29.132  1.00  0.00     0.029 A 
ATOM     43  N   UNL A   1      41.152  27.782  28.965  1.00  0.00    -0.354 N 
ATOM     44  C   UNL A   1      44.915  27.118  26.917  1.00  0.00     0.074 A 
ATOM     45  C   UNL A   1      45.006  25.769  26.406  1.00  0.00     0.031 C 
ATOM     46  C   UNL A   1      39.102  27.236  29.675  1.00  0.00     0.029 A 
ATOM     47  C   UNL A   1      40.068  28.329  29.612  1.00  0.00     0.049 A 
ATOM     48  H   UNL A   1      41.981  28.282  28.782  1.00  0.00     0.167 HD
ATOM     49  C   UNL A   1      45.877  28.062  26.774  1.00  0.00     0.034 A 
ATOM     50  C   UNL A   1      39.868  29.568  30.105  1.00  0.00     0.034 A 
ATOM     51  C   UNL A   1      45.754  29.411  27.266  1.00  0.00     0.049 A 
ATOM     52  C   UNL A   1      40.956  30.593  29.939  1.00  0.00     0.074 A 
ATOM     53  C   UNL A   1      46.663  30.447  27.148  1.00  0.00     0.029 A 
ATOM     54  N   UNL A   1      44.662  29.915  27.958  1.00  0.00    -0.354 N 
ATOM     55  N   UNL A   1      42.105  30.478  29.316  1.00  0.00    -0.248 NA
ATOM     56  C   UNL A   1      40.730  31.912  30.542  1.00  0.00     0.031 C 
ATOM     57  C   UNL A   1      46.148  31.558  27.817  1.00  0.00     0.029 A 
ATOM     58  C   UNL A   1      44.886  31.241  28.294  1.00  0.00     0.049 A 
ATOM     59  H   UNL A   1      43.848  29.406  28.177  1.00  0.00     0.167 HD
ATOM     60  C   UNL A   1      42.738  31.709  29.447  1.00  0.00     0.074 A 
ATOM     61  C   UNL A   1      41.825  32.567  30.175  1.00  0.00     0.031 C 
ATOM     62  C   UNL A   1      43.967  32.090  29.015  1.00  0.00     0.034 A 
BRANCH  49  63
ATOM     63  C   UNL A   1      47.150  27.694  26.053  1.00  0.00     0.023 A 
ATOM     64  C   UNL A   1      47.264  27.922  24.667  1.00  0.00     0.031 A 
ATOM     65  C   UNL A   1      48.191  27.006  26.700  1.00  0.00     0.131 A 
ATOM     66  C   UNL A   1      48.376  27.435  23.970  1.00  0.00     0.055 A 
ATOM     67  C   UNL A   1      49.318  26.558  26.007  1.00  0.00     0.041 A 
ATOM     68  F   UNL A   1      48.132  26.767  28.020  1.00  0.00    -0.206 F 
ATOM     69  C   UNL A   1      49.407  26.761  24.633  1.00  0.00     0.022 A 
BRANCH  66  70
ATOM     70  S   UNL A   1      48.503  27.603  22.168  1.00  0.00     0.124 S 
ATOM     71  O   UNL A   1      48.698  26.217  21.751  1.00  0.00    -0.237 OA
ATOM     72  O   UNL A   1      47.207  28.182  21.825  1.00  0.00    -0.237 OA
ATOM     73  O   UNL A   1      49.656  28.477  21.977  1.00  0.00    -0.744 OA
ENDBRANCH  66  70
ENDBRANCH  49  63
BRANCH  50  74
ATOM     74  C   UNL A   1      38.563  29.888  30.756  1.00  0.00     0.023 A 
ATOM     75  C   UNL A   1      37.578  30.627  30.075  1.00  0.00     0.031 A 
ATOM     76  C   UNL A   1      38.334  29.575  32.107  1.00  0.00     0.131 A 
ATOM     77  C   UNL A   1      36.458  31.105  30.767  1.00  0.00     0.055 A 
ATOM     78  C   UNL A   1      37.176  29.983  32.771  1.00  0.00     0.041 A 
ATOM     79  F   UNL A   1      39.248  28.881  32.804  1.00  0.00    -0.206 F 
ATOM     80  C   UNL A   1      36.242  30.773  32.107  1.00  0.00     0.022 A 
BRANCH  77  81
ATOM     81  S   UNL A   1      35.338  32.308  29.998  1.00  0.00     0.124 S 
ATOM     82  O   UNL A   1      36.251  33.394  29.653  1.00  0.00    -0.237 OA
ATOM     83  O   UNL A   1      34.809  31.546  28.869  1.00  0.00    -0.237 OA
ATOM     84  O   UNL A   1      34.373  32.603  31.052  1.00  0.00    -0.744 OA
ENDBRANCH  77  81
ENDBRANCH  50  74
BRANCH  62  85
ATOM     85  C   UNL A   1      44.428  33.494  29.315  1.00  0.00     0.023 A 
ATOM     86  C   UNL A   1      44.125  34.542  28.425  1.00  0.00     0.031 A 
ATOM     87  C   UNL A   1      45.288  33.763  30.394  1.00  0.00     0.131 A 
ATOM     88  C   UNL A   1      44.710  35.801  28.608  1.00  0.00     0.055 A 
ATOM     89  C   UNL A   1      45.831  35.032  30.598  1.00  0.00     0.041 A 
ATOM     90  F   UNL A   1      45.616  32.794  31.263  1.00  0.00    -0.206 F 
ATOM     91  C   UNL A   1      45.554  36.054  29.694  1.00  0.00     0.022 A 
BRANCH  88  92
ATOM     92  S   UNL A   1      44.470  37.128  27.395  1.00  0.00     0.124 S 
ATOM     93  O   UNL A   1      43.291  36.663  26.669  1.00  0.00    -0.237 OA
ATOM     94  O   UNL A   1      44.257  38.293  28.250  1.00  0.00    -0.237 OA
ATOM     95  O   UNL A   1      45.711  37.133  26.627  1.00  0.00    -0.744 OA
ENDBRANCH  88  92
ENDBRANCH  62  85
ENDBRANCH  36  37
ENDBRANCH  28  31
ENDBRANCH   1  27
TORSDOF 15
ENDMDL
MODEL 3
REMARK VINA RESULT:     -12.7      0.975      7.485
REMARK SMILES CC(C)(C)c1cc2c(cc1Cl)C=C(C(=O)NCCCNC(=O)c1ccc(-c3c4nc(c(-c5cc(S(=O)(=O)[O-])ccc5F)c5ccc([nH]5)c(-c5cc(S(=O)(=O)[O-])ccc5F)c5nc(c(-c6cc(S(=O)(=O)[O-])ccc6F)c6ccc3[nH]6)C=C5)C=C4)cc1)[C@@H](C(F)(F)F)O2
REMARK SMILES IDX 19 1 18 2 17 3 16 4 14 5 15 6 13 8 5 9 6 10 10 11 7 12 9 13
REMARK SMILES IDX 11 14 8 15 91 16 12 17 86 18 2 19 1 20 3 21 4 22 87 23 88 24
REMARK SMILES IDX 89 25 90 26 20 27 21 28 22 30 23 31 24 32 85 33 25 34 84 35
REMARK SMILES IDX 26 36 27 37 28 38 78 39 29 40 83 41 77 42 79 43 30 44 82 45
REMARK SMILES IDX 76 46 75 47 31 49 63 50 43 51 62 52 44 53 47 54 61 55 80 56
REMARK SMILES IDX 45 57 46 58 60 60 81 61 48 62 32 63 33 64 41 65 34 66 40 67
REMARK SMILES IDX 42 68 39 69 35 70 36 71 37 72 38 73 64 74 65 75 73 76 66 77
REMARK SMILES IDX 72 78 74 79 71 80 67 81 68 82 69 83 70 84 49 85 50 86 58 87
REMARK SMILES IDX 51 88 57 89 59 90 56 91 52 92 53 93 54 94 55 95
REMARK H PARENT 16 7 20 29 79 48 47 59
REMARK Flexibility Score: inf
ROOT
ATOM      1  C   UNL A   1      37.417  21.779  24.462  1.00  0.00     0.118 C 
ENDROOT
BRANCH   1   2
ATOM      2  C   UNL A   1      35.908  21.572  24.445  1.00  0.00     0.042 C 
BRANCH   2   3
ATOM      3  C   UNL A   1      35.504  20.218  25.008  1.00  0.00     0.118 C 
BRANCH   3   4
ATOM      4  N   UNL A   1      34.083  19.956  24.835  1.00  0.00    -0.352 N 
ATOM      5  C   UNL A   1      32.923  20.637  24.974  1.00  0.00     0.251 C 
ATOM      6  O   UNL A   1      31.901  19.997  24.700  1.00  0.00    -0.270 OA
ATOM      7  H   UNL A   1      33.923  19.032  24.534  1.00  0.00     0.163 HD
BRANCH   5   8
ATOM      8  C   UNL A   1      32.806  22.056  25.414  1.00  0.00     0.067 C 
ATOM      9  C   UNL A   1      32.619  27.136  25.593  1.00  0.00    -0.020 A 
ATOM     10  C   UNL A   1      32.213  26.073  26.430  1.00  0.00     0.053 A 
ATOM     11  C   UNL A   1      33.188  26.761  24.350  1.00  0.00     0.045 A 
ATOM     12  C   UNL A   1      32.365  24.735  26.060  1.00  0.00     0.128 A 
ATOM     13  C   UNL A   1      33.307  25.409  23.972  1.00  0.00     0.032 A 
ATOM     14  Cl  UNL A   1      33.809  27.883  23.187  1.00  0.00    -0.084 Cl
ATOM     15  C   UNL A   1      32.894  24.391  24.826  1.00  0.00     0.019 A 
ATOM     16  O   UNL A   1      31.935  23.800  26.958  1.00  0.00    -0.475 OA
ATOM     17  C   UNL A   1      32.977  22.985  24.454  1.00  0.00     0.025 C 
ATOM     18  C   UNL A   1      32.548  22.487  26.831  1.00  0.00     0.314 C 
BRANCH   9  19
ATOM     19  C   UNL A   1      32.426  28.595  26.074  1.00  0.00    -0.012 C 
ATOM     20  C   UNL A   1      33.795  29.281  26.266  1.00  0.00     0.016 C 
ATOM     21  C   UNL A   1      31.705  28.704  27.449  1.00  0.00     0.016 C 
ATOM     22  C   UNL A   1      31.545  29.403  25.096  1.00  0.00     0.016 C 
ENDBRANCH   9  19
BRANCH  18  23
ATOM     23  C   UNL A   1      33.820  22.427  27.701  1.00  0.00     0.429 C 
ATOM     24  F   UNL A   1      33.585  22.961  28.926  1.00  0.00    -0.167 F 
ATOM     25  F   UNL A   1      34.250  21.160  27.911  1.00  0.00    -0.167 F 
ATOM     26  F   UNL A   1      34.859  23.103  27.159  1.00  0.00    -0.167 F 
ENDBRANCH  18  23
ENDBRANCH   5   8
ENDBRANCH   3   4
ENDBRANCH   2   3
ENDBRANCH   1   2
BRANCH   1  27
ATOM     27  N   UNL A   1      38.108  20.735  25.217  1.00  0.00    -0.352 N 
ATOM     28  C   UNL A   1      39.208  20.809  26.038  1.00  0.00     0.251 C 
ATOM     29  H   UNL A   1      37.724  19.834  25.122  1.00  0.00     0.163 HD
ATOM     30  O   UNL A   1      39.775  19.775  26.383  1.00  0.00    -0.269 OA
BRANCH  28  31
ATOM     31  C   UNL A   1      39.715  22.125  26.481  1.00  0.00     0.039 A 
ATOM     32  C   UNL A   1      38.982  23.280  26.220  1.00  0.00     0.014 A 
ATOM     33  C   UNL A   1      40.935  22.209  27.158  1.00  0.00     0.014 A 
ATOM     34  C   UNL A   1      39.558  24.522  26.438  1.00  0.00     0.010 A 
ATOM     35  C   UNL A   1      41.460  23.463  27.488  1.00  0.00     0.010 A 
ATOM     36  C   UNL A   1      40.802  24.633  27.080  1.00  0.00    -0.014 A 
BRANCH  36  37
ATOM     37  C   UNL A   1      41.364  25.989  27.320  1.00  0.00     0.031 A 
ATOM     38  C   UNL A   1      40.652  26.981  28.200  1.00  0.00     0.074 A 
ATOM     39  C   UNL A   1      42.573  26.287  26.804  1.00  0.00     0.049 A 
ATOM     40  N   UNL A   1      41.046  28.170  28.578  1.00  0.00    -0.248 NA
ATOM     41  C   UNL A   1      39.330  26.599  28.719  1.00  0.00     0.031 C 
ATOM     42  C   UNL A   1      43.347  25.397  25.935  1.00  0.00     0.029 A 
ATOM     43  N   UNL A   1      43.385  27.382  26.962  1.00  0.00    -0.354 N 
ATOM     44  C   UNL A   1      40.015  28.685  29.358  1.00  0.00     0.074 A 
ATOM     45  C   UNL A   1      38.964  27.694  29.373  1.00  0.00     0.031 C 
ATOM     46  C   UNL A   1      44.551  25.939  25.712  1.00  0.00     0.029 A 
ATOM     47  C   UNL A   1      44.607  27.254  26.344  1.00  0.00     0.049 A 
ATOM     48  H   UNL A   1      43.117  28.182  27.470  1.00  0.00     0.167 HD
ATOM     49  C   UNL A   1      39.963  29.872  30.010  1.00  0.00     0.034 A 
ATOM     50  C   UNL A   1      45.658  28.096  26.284  1.00  0.00     0.034 A 
ATOM     51  C   UNL A   1      41.035  30.836  30.006  1.00  0.00     0.049 A 
ATOM     52  C   UNL A   1      45.569  29.410  27.012  1.00  0.00     0.074 A 
ATOM     53  C   UNL A   1      41.087  32.056  30.657  1.00  0.00     0.029 A 
ATOM     54  N   UNL A   1      42.238  30.693  29.330  1.00  0.00    -0.354 N 
ATOM     55  N   UNL A   1      44.601  29.865  27.772  1.00  0.00    -0.248 NA
ATOM     56  C   UNL A   1      46.706  30.329  26.874  1.00  0.00     0.031 C 
ATOM     57  C   UNL A   1      42.294  32.674  30.329  1.00  0.00     0.029 A 
ATOM     58  C   UNL A   1      43.029  31.813  29.530  1.00  0.00     0.049 A 
ATOM     59  H   UNL A   1      42.493  29.910  28.789  1.00  0.00     0.167 HD
ATOM     60  C   UNL A   1      45.012  31.120  28.208  1.00  0.00     0.074 A 
ATOM     61  C   UNL A   1      46.335  31.335  27.658  1.00  0.00     0.031 C 
ATOM     62  C   UNL A   1      44.349  32.016  28.982  1.00  0.00     0.034 A 
BRANCH  49  63
ATOM     63  C   UNL A   1      38.721  30.212  30.797  1.00  0.00     0.023 A 
ATOM     64  C   UNL A   1      37.685  30.949  30.191  1.00  0.00     0.031 A 
ATOM     65  C   UNL A   1      38.616  29.925  32.169  1.00  0.00     0.131 A 
ATOM     66  C   UNL A   1      36.609  31.403  30.963  1.00  0.00     0.055 A 
ATOM     67  C   UNL A   1      37.521  30.346  32.926  1.00  0.00     0.041 A 
ATOM     68  F   UNL A   1      39.577  29.223  32.793  1.00  0.00    -0.206 F 
ATOM     69  C   UNL A   1      36.518  31.099  32.326  1.00  0.00     0.022 A 
BRANCH  66  70
ATOM     70  S   UNL A   1      35.315  32.454  30.247  1.00  0.00     0.124 S 
ATOM     71  O   UNL A   1      34.397  32.608  31.372  1.00  0.00    -0.237 OA
ATOM     72  O   UNL A   1      36.065  33.655  29.886  1.00  0.00    -0.237 OA
ATOM     73  O   UNL A   1      34.803  31.669  29.129  1.00  0.00    -0.744 OA
ENDBRANCH  66  70
ENDBRANCH  49  63
BRANCH  50  74
ATOM     74  C   UNL A   1      46.883  27.678  25.539  1.00  0.00     0.023 A 
ATOM     75  C   UNL A   1      47.098  28.095  24.212  1.00  0.00     0.031 A 
ATOM     76  C   UNL A   1      47.785  26.754  26.093  1.00  0.00     0.131 A 
ATOM     77  C   UNL A   1      48.130  27.523  23.458  1.00  0.00     0.055 A 
ATOM     78  C   UNL A   1      48.862  26.248  25.363  1.00  0.00     0.041 A 
ATOM     79  F   UNL A   1      47.617  26.316  27.351  1.00  0.00    -0.206 F 
ATOM     80  C   UNL A   1      49.025  26.615  24.030  1.00  0.00     0.022 A 
BRANCH  77  81
ATOM     81  S   UNL A   1      48.239  27.812  21.669  1.00  0.00     0.124 S 
ATOM     82  O   UNL A   1      49.313  28.796  21.586  1.00  0.00    -0.237 OA
ATOM     83  O   UNL A   1      48.564  26.477  21.170  1.00  0.00    -0.237 OA
ATOM     84  O   UNL A   1      46.908  28.296  21.318  1.00  0.00    -0.744 OA
ENDBRANCH  77  81
ENDBRANCH  50  74
BRANCH  62  85
ATOM     85  C   UNL A   1      45.021  33.331  29.289  1.00  0.00     0.023 A 
ATOM     86  C   UNL A   1      44.818  34.440  28.448  1.00  0.00     0.031 A 
ATOM     87  C   UNL A   1      45.971  33.440  30.319  1.00  0.00     0.131 A 
ATOM     88  C   UNL A   1      45.583  35.599  28.627  1.00  0.00     0.055 A 
ATOM     89  C   UNL A   1      46.698  34.613  30.522  1.00  0.00     0.041 A 
ATOM     90  F   UNL A   1      46.208  32.406  31.141  1.00  0.00    -0.206 F 
ATOM     91  C   UNL A   1      46.516  35.695  29.664  1.00  0.00     0.022 A 
BRANCH  88  92
ATOM     92  S   UNL A   1      45.464  36.988  27.465  1.00  0.00     0.124 S 
ATOM     93  O   UNL A   1      45.874  38.114  28.300  1.00  0.00    -0.237 OA
ATOM     94  O   UNL A   1      46.414  36.603  26.426  1.00  0.00    -0.237 OA
ATOM     95  O   UNL A   1      44.061  36.992  27.062  1.00  0.00    -0.744 OA
ENDBRANCH  88  92
ENDBRANCH  62  85
ENDBRANCH  36  37
ENDBRANCH  28  31
ENDBRANCH   1  27
TORSDOF 15
ENDMDL
