MODEL 1
REMARK VINA RESULT:     -12.6      0.000      0.000
REMARK SMILES C=C(C(=O)NCCCNC(=O)c1ccc(-c2c3nc(c(-c4cc(S(=O)(=O)[O-])ccc4F)c4ccc([nH]4)c(-c4cc(S(=O)(=O)[O-])ccc4F)c4nc(c(-c5cc(S(=O)(=O)[O-])ccc5F)c5ccc2[nH]5)C=C4)C=C3)cc1)[C@@H]1CC[C@]2(C)C[C@@H](O)CC(=C)[C@H]2C1
REMARK SMILES IDX 7 1 6 2 5 3 3 4 4 5 2 7 1 8 75 9 76 10 87 11 77 12 86 13
REMARK SMILES IDX 78 14 84 15 79 16 80 17 83 18 85 19 81 20 82 21 8 23 9 24
REMARK SMILES IDX 10 25 11 27 12 28 13 29 74 30 14 31 73 32 15 33 16 34 17 35
REMARK SMILES IDX 67 36 18 37 72 38 66 39 68 40 19 41 71 42 65 43 64 44 20 46
REMARK SMILES IDX 52 47 32 48 51 49 33 50 36 51 50 52 69 53 34 54 35 55 49 57
REMARK SMILES IDX 70 58 37 59 21 60 22 61 30 62 23 63 29 64 31 65 28 66 24 67
REMARK SMILES IDX 25 68 26 69 27 70 53 71 54 72 62 73 55 74 61 75 63 76 60 77
REMARK SMILES IDX 56 78 57 79 58 80 59 81 38 82 39 83 47 84 40 85 46 86 48 87
REMARK SMILES IDX 45 88 41 89 42 90 43 91 44 92
REMARK H PARENT 5 6 82 22 9 26 68 45 36 56
REMARK Flexibility Score: inf
ROOT
ATOM      1  C   UNL A   1      34.707  22.081  26.717  1.00  0.00     0.042 C 
ENDROOT
BRANCH   1   2
ATOM      2  C   UNL A   1      33.704  23.201  26.944  1.00  0.00     0.118 C 
BRANCH   2   3
ATOM      3  N   UNL A   1      32.332  22.815  26.671  1.00  0.00    -0.352 N 
ATOM      4  C   UNL A   1      31.670  22.193  25.668  1.00  0.00     0.246 C 
ATOM      5  O   UNL A   1      30.522  21.852  25.959  1.00  0.00    -0.270 OA
ATOM      6  H   UNL A   1      31.727  23.073  27.404  1.00  0.00     0.163 HD
BRANCH   4   7
ATOM      7  C   UNL A   1      32.210  21.950  24.289  1.00  0.00     0.013 C 
ATOM      8  C   UNL A   1      32.650  20.746  23.873  1.00  0.00     0.018 C 
BRANCH   7   9
ATOM      9  C   UNL A   1      32.111  23.044  23.202  1.00  0.00     0.025 C 
ATOM     10  C   UNL A   1      33.504  23.525  22.736  1.00  0.00     0.009 C 
ATOM     11  C   UNL A   1      31.124  24.229  23.368  1.00  0.00     0.017 C 
ATOM     12  C   UNL A   1      34.026  24.746  23.485  1.00  0.00     0.008 C 
ATOM     13  C   UNL A   1      31.707  25.431  24.145  1.00  0.00     0.021 C 
ATOM     14  C   UNL A   1      33.030  25.934  23.497  1.00  0.00    -0.024 C 
ATOM     15  C   UNL A   1      30.762  26.605  24.386  1.00  0.00    -0.071 C 
ATOM     16  C   UNL A   1      32.821  26.442  22.049  1.00  0.00     0.012 C 
ATOM     17  C   UNL A   1      33.652  27.072  24.364  1.00  0.00     0.039 C 
ATOM     18  C   UNL A   1      31.346  27.651  25.317  1.00  0.00     0.062 C 
ATOM     19  C   UNL A   1      29.531  26.745  23.867  1.00  0.00     0.008 C 
ATOM     20  C   UNL A   1      32.685  28.186  24.792  1.00  0.00     0.119 C 
BRANCH  20  21
ATOM     21  O   UNL A   1      32.480  29.110  23.721  1.00  0.00    -0.393 OA
ATOM     22  H   UNL A   1      32.660  28.669  22.876  1.00  0.00     0.210 HD
ENDBRANCH  20  21
ENDBRANCH   7   9
ENDBRANCH   4   7
ENDBRANCH   2   3
ENDBRANCH   1   2
BRANCH   1  23
ATOM     23  C   UNL A   1      35.938  22.504  25.928  1.00  0.00     0.118 C 
BRANCH  23  24
ATOM     24  N   UNL A   1      36.891  21.412  25.750  1.00  0.00    -0.352 N 
ATOM     25  C   UNL A   1      38.264  21.427  25.795  1.00  0.00     0.251 C 
ATOM     26  H   UNL A   1      36.489  20.531  25.572  1.00  0.00     0.163 HD
ATOM     27  O   UNL A   1      38.904  20.474  25.353  1.00  0.00    -0.269 OA
BRANCH  25  28
ATOM     28  C   UNL A   1      38.960  22.599  26.360  1.00  0.00     0.039 A 
ATOM     29  C   UNL A   1      40.022  22.418  27.248  1.00  0.00     0.014 A 
ATOM     30  C   UNL A   1      38.564  23.884  25.986  1.00  0.00     0.014 A 
ATOM     31  C   UNL A   1      40.748  23.529  27.687  1.00  0.00     0.010 A 
ATOM     32  C   UNL A   1      39.345  24.974  26.342  1.00  0.00     0.010 A 
ATOM     33  C   UNL A   1      40.446  24.810  27.196  1.00  0.00    -0.014 A 
BRANCH  33  34
ATOM     34  C   UNL A   1      41.250  26.007  27.555  1.00  0.00     0.031 A 
ATOM     35  C   UNL A   1      40.618  27.103  28.368  1.00  0.00     0.074 A 
ATOM     36  C   UNL A   1      42.495  26.153  27.061  1.00  0.00     0.049 A 
ATOM     37  N   UNL A   1      41.071  28.298  28.642  1.00  0.00    -0.248 NA
ATOM     38  C   UNL A   1      39.276  26.830  28.908  1.00  0.00     0.031 C 
ATOM     39  C   UNL A   1      43.200  25.169  26.237  1.00  0.00     0.029 A 
ATOM     40  N   UNL A   1      43.384  27.194  27.163  1.00  0.00    -0.354 N 
ATOM     41  C   UNL A   1      40.063  28.927  29.365  1.00  0.00     0.074 A 
ATOM     42  C   UNL A   1      38.951  28.002  29.428  1.00  0.00     0.031 C 
ATOM     43  C   UNL A   1      44.417  25.646  25.926  1.00  0.00     0.029 A 
ATOM     44  C   UNL A   1      44.557  26.992  26.472  1.00  0.00     0.049 A 
ATOM     45  H   UNL A   1      43.199  28.010  27.683  1.00  0.00     0.167 HD
ATOM     46  C   UNL A   1      40.074  30.153  29.942  1.00  0.00     0.034 A 
ATOM     47  C   UNL A   1      45.613  27.807  26.279  1.00  0.00     0.034 A 
ATOM     48  C   UNL A   1      41.200  31.051  29.878  1.00  0.00     0.049 A 
ATOM     49  C   UNL A   1      45.589  29.184  26.896  1.00  0.00     0.074 A 
ATOM     50  C   UNL A   1      41.343  32.296  30.465  1.00  0.00     0.029 A 
ATOM     51  N   UNL A   1      42.374  30.806  29.177  1.00  0.00    -0.354 N 
ATOM     52  N   UNL A   1      44.642  29.752  27.608  1.00  0.00    -0.248 NA
ATOM     53  C   UNL A   1      46.774  30.026  26.693  1.00  0.00     0.031 C 
ATOM     54  C   UNL A   1      42.567  32.834  30.058  1.00  0.00     0.029 A 
ATOM     55  C   UNL A   1      43.232  31.888  29.293  1.00  0.00     0.049 A 
ATOM     56  H   UNL A   1      42.569  29.984  28.672  1.00  0.00     0.167 HD
ATOM     57  C   UNL A   1      45.139  31.001  27.974  1.00  0.00     0.074 A 
ATOM     58  C   UNL A   1      46.467  31.102  27.404  1.00  0.00     0.031 C 
ATOM     59  C   UNL A   1      44.556  31.970  28.723  1.00  0.00     0.034 A 
BRANCH  46  60
ATOM     60  C   UNL A   1      38.824  30.596  30.665  1.00  0.00     0.023 A 
ATOM     61  C   UNL A   1      37.753  31.201  29.986  1.00  0.00     0.031 A 
ATOM     62  C   UNL A   1      38.710  30.433  32.058  1.00  0.00     0.131 A 
ATOM     63  C   UNL A   1      36.655  31.696  30.706  1.00  0.00     0.055 A 
ATOM     64  C   UNL A   1      37.574  30.846  32.757  1.00  0.00     0.041 A 
ATOM     65  F   UNL A   1      39.708  29.883  32.766  1.00  0.00    -0.206 F 
ATOM     66  C   UNL A   1      36.545  31.497  32.083  1.00  0.00     0.022 A 
BRANCH  63  67
ATOM     67  S   UNL A   1      35.453  32.741  29.839  1.00  0.00     0.124 S 
ATOM     68  O   UNL A   1      34.344  32.765  30.789  1.00  0.00    -0.237 OA
ATOM     69  O   UNL A   1      36.184  33.993  29.676  1.00  0.00    -0.237 OA
ATOM     70  O   UNL A   1      35.189  32.006  28.603  1.00  0.00    -0.744 OA
ENDBRANCH  63  67
ENDBRANCH  46  60
BRANCH  47  71
ATOM     71  C   UNL A   1      46.776  27.360  25.457  1.00  0.00     0.023 A 
ATOM     72  C   UNL A   1      46.970  27.848  24.155  1.00  0.00     0.031 A 
ATOM     73  C   UNL A   1      47.688  26.406  25.943  1.00  0.00     0.131 A 
ATOM     74  C   UNL A   1      48.016  27.345  23.367  1.00  0.00     0.055 A 
ATOM     75  C   UNL A   1      48.764  25.953  25.177  1.00  0.00     0.041 A 
ATOM     76  F   UNL A   1      47.554  25.907  27.183  1.00  0.00    -0.206 F 
ATOM     77  C   UNL A   1      48.924  26.413  23.873  1.00  0.00     0.022 A 
BRANCH  74  78
ATOM     78  S   UNL A   1      48.114  27.855  21.629  1.00  0.00     0.124 S 
ATOM     79  O   UNL A   1      48.279  26.573  20.954  1.00  0.00    -0.237 OA
ATOM     80  O   UNL A   1      46.831  28.523  21.437  1.00  0.00    -0.237 OA
ATOM     81  O   UNL A   1      49.283  28.731  21.598  1.00  0.00    -0.744 OA
ENDBRANCH  74  78
ENDBRANCH  47  71
BRANCH  59  82
ATOM     82  C   UNL A   1      45.378  33.196  29.037  1.00  0.00     0.023 A 
ATOM     83  C   UNL A   1      45.347  34.346  28.231  1.00  0.00     0.031 A 
ATOM     84  C   UNL A   1      46.185  33.216  30.190  1.00  0.00     0.131 A 
ATOM     85  C   UNL A   1      46.140  35.455  28.567  1.00  0.00     0.055 A 
ATOM     86  C   UNL A   1      46.923  34.343  30.552  1.00  0.00     0.041 A 
ATOM     87  F   UNL A   1      46.254  32.142  30.993  1.00  0.00    -0.206 F 
ATOM     88  C   UNL A   1      46.910  35.467  29.734  1.00  0.00     0.022 A 
BRANCH  85  89
ATOM     89  S   UNL A   1      46.208  36.859  27.423  1.00  0.00     0.124 S 
ATOM     90  O   UNL A   1      47.055  37.801  28.148  1.00  0.00    -0.237 OA
ATOM     91  O   UNL A   1      46.798  36.262  26.229  1.00  0.00    -0.237 OA
ATOM     92  O   UNL A   1      44.809  37.261  27.287  1.00  0.00    -0.744 OA
ENDBRANCH  85  89
ENDBRANCH  59  82
ENDBRANCH  33  34
ENDBRANCH  25  28
ENDBRANCH  23  24
ENDBRANCH   1  23
TORSDOF 15
ENDMDL
MODEL 2
REMARK VINA RESULT:     -12.5      0.845      1.598
REMARK SMILES C=C(C(=O)NCCCNC(=O)c1ccc(-c2c3nc(c(-c4cc(S(=O)(=O)[O-])ccc4F)c4ccc([nH]4)c(-c4cc(S(=O)(=O)[O-])ccc4F)c4nc(c(-c5cc(S(=O)(=O)[O-])ccc5F)c5ccc2[nH]5)C=C4)C=C3)cc1)[C@@H]1CC[C@]2(C)C[C@@H](O)CC(=C)[C@H]2C1
REMARK SMILES IDX 7 1 6 2 5 3 3 4 4 5 2 7 1 8 75 9 76 10 87 11 77 12 86 13
REMARK SMILES IDX 78 14 84 15 79 16 80 17 83 18 85 19 81 20 82 21 8 23 9 24
REMARK SMILES IDX 10 25 11 27 12 28 13 29 74 30 14 31 73 32 15 33 16 34 17 35
REMARK SMILES IDX 67 36 18 37 72 38 66 39 68 40 19 41 71 42 65 43 64 44 20 46
REMARK SMILES IDX 52 47 32 48 51 49 33 50 36 51 50 52 69 53 34 54 35 55 49 57
REMARK SMILES IDX 70 58 37 59 21 60 22 61 30 62 23 63 29 64 31 65 28 66 24 67
REMARK SMILES IDX 25 68 26 69 27 70 53 71 54 72 62 73 55 74 61 75 63 76 60 77
REMARK SMILES IDX 56 78 57 79 58 80 59 81 38 82 39 83 47 84 40 85 46 86 48 87
REMARK SMILES IDX 45 88 41 89 42 90 43 91 44 92
REMARK H PARENT 5 6 82 22 9 26 68 45 36 56
REMARK Flexibility Score: inf
ROOT
ATOM      1  C   UNL A   1      36.051  22.462  23.929  1.00  0.00     0.042 C 
ENDROOT
BRANCH   1   2
ATOM      2  C   UNL A   1      34.546  22.624  23.783  1.00  0.00     0.118 C 
BRANCH   2   3
ATOM      3  N   UNL A   1      33.786  21.526  24.350  1.00  0.00    -0.352 N 
ATOM      4  C   UNL A   1      32.972  21.344  25.417  1.00  0.00     0.246 C 
ATOM      5  O   UNL A   1      32.334  20.290  25.390  1.00  0.00    -0.270 OA
ATOM      6  H   UNL A   1      33.887  20.700  23.824  1.00  0.00     0.163 HD
BRANCH   4   7
ATOM      7  C   UNL A   1      32.846  22.281  26.583  1.00  0.00     0.013 C 
ATOM      8  C   UNL A   1      33.623  22.196  27.680  1.00  0.00     0.018 C 
BRANCH   7   9
ATOM      9  C   UNL A   1      31.931  23.523  26.499  1.00  0.00     0.025 C 
ATOM     10  C   UNL A   1      30.681  23.263  25.627  1.00  0.00     0.009 C 
ATOM     11  C   UNL A   1      32.533  24.926  26.230  1.00  0.00     0.017 C 
ATOM     12  C   UNL A   1      30.846  23.665  24.165  1.00  0.00     0.008 C 
ATOM     13  C   UNL A   1      32.685  25.270  24.731  1.00  0.00     0.021 C 
ATOM     14  C   UNL A   1      31.331  25.125  23.978  1.00  0.00    -0.024 C 
ATOM     15  C   UNL A   1      33.323  26.618  24.406  1.00  0.00    -0.071 C 
ATOM     16  C   UNL A   1      30.250  26.096  24.516  1.00  0.00     0.012 C 
ATOM     17  C   UNL A   1      31.538  25.369  22.451  1.00  0.00     0.039 C 
ATOM     18  C   UNL A   1      33.614  26.792  22.927  1.00  0.00     0.062 C 
ATOM     19  C   UNL A   1      33.630  27.579  25.292  1.00  0.00     0.008 C 
ATOM     20  C   UNL A   1      32.344  26.623  22.081  1.00  0.00     0.119 C 
BRANCH  20  21
ATOM     21  O   UNL A   1      31.521  27.788  22.159  1.00  0.00    -0.393 OA
ATOM     22  H   UNL A   1      32.002  28.494  22.617  1.00  0.00     0.210 HD
ENDBRANCH  20  21
ENDBRANCH   7   9
ENDBRANCH   4   7
ENDBRANCH   2   3
ENDBRANCH   1   2
BRANCH   1  23
ATOM     23  C   UNL A   1      36.516  22.283  25.368  1.00  0.00     0.118 C 
BRANCH  23  24
ATOM     24  N   UNL A   1      37.418  21.145  25.526  1.00  0.00    -0.352 N 
ATOM     25  C   UNL A   1      38.747  21.118  25.876  1.00  0.00     0.251 C 
ATOM     26  H   UNL A   1      37.013  20.264  25.357  1.00  0.00     0.163 HD
ATOM     27  O   UNL A   1      39.409  20.099  25.693  1.00  0.00    -0.269 OA
BRANCH  25  28
ATOM     28  C   UNL A   1      39.370  22.324  26.456  1.00  0.00     0.039 A 
ATOM     29  C   UNL A   1      40.409  22.196  27.379  1.00  0.00     0.014 A 
ATOM     30  C   UNL A   1      38.929  23.588  26.060  1.00  0.00     0.014 A 
ATOM     31  C   UNL A   1      41.070  23.340  27.833  1.00  0.00     0.010 A 
ATOM     32  C   UNL A   1      39.648  24.713  26.434  1.00  0.00     0.010 A 
ATOM     33  C   UNL A   1      40.727  24.603  27.324  1.00  0.00    -0.014 A 
BRANCH  33  34
ATOM     34  C   UNL A   1      41.464  25.837  27.701  1.00  0.00     0.031 A 
ATOM     35  C   UNL A   1      40.761  26.903  28.497  1.00  0.00     0.074 A 
ATOM     36  C   UNL A   1      42.712  26.043  27.237  1.00  0.00     0.049 A 
ATOM     37  N   UNL A   1      41.150  28.118  28.780  1.00  0.00    -0.248 NA
ATOM     38  C   UNL A   1      39.422  26.565  29.006  1.00  0.00     0.031 C 
ATOM     39  C   UNL A   1      43.483  25.093  26.430  1.00  0.00     0.029 A 
ATOM     40  N   UNL A   1      43.547  27.125  27.358  1.00  0.00    -0.354 N 
ATOM     41  C   UNL A   1      40.096  28.698  29.479  1.00  0.00     0.074 A 
ATOM     42  C   UNL A   1      39.029  27.721  29.516  1.00  0.00     0.031 C 
ATOM     43  C   UNL A   1      44.682  25.629  26.147  1.00  0.00     0.029 A 
ATOM     44  C   UNL A   1      44.745  26.979  26.695  1.00  0.00     0.049 A 
ATOM     45  H   UNL A   1      43.312  27.931  27.873  1.00  0.00     0.167 HD
ATOM     46  C   UNL A   1      40.035  29.923  30.054  1.00  0.00     0.034 A 
ATOM     47  C   UNL A   1      45.765  27.844  26.527  1.00  0.00     0.034 A 
ATOM     48  C   UNL A   1      41.118  30.874  30.016  1.00  0.00     0.049 A 
ATOM     49  C   UNL A   1      45.660  29.218  27.142  1.00  0.00     0.074 A 
ATOM     50  C   UNL A   1      41.187  32.124  30.605  1.00  0.00     0.029 A 
ATOM     51  N   UNL A   1      42.318  30.685  29.343  1.00  0.00    -0.354 N 
ATOM     52  N   UNL A   1      44.671  29.740  27.831  1.00  0.00    -0.248 NA
ATOM     53  C   UNL A   1      46.809  30.116  26.965  1.00  0.00     0.031 C 
ATOM     54  C   UNL A   1      42.393  32.720  30.226  1.00  0.00     0.029 A 
ATOM     55  C   UNL A   1      43.121  31.807  29.479  1.00  0.00     0.049 A 
ATOM     56  H   UNL A   1      42.565  29.873  28.844  1.00  0.00     0.167 HD
ATOM     57  C   UNL A   1      45.099  31.011  28.206  1.00  0.00     0.074 A 
ATOM     58  C   UNL A   1      46.433  31.176  27.668  1.00  0.00     0.031 C 
ATOM     59  C   UNL A   1      44.452  31.952  28.940  1.00  0.00     0.034 A 
BRANCH  46  60
ATOM     60  C   UNL A   1      38.748  30.305  30.747  1.00  0.00     0.023 A 
ATOM     61  C   UNL A   1      37.689  30.915  30.054  1.00  0.00     0.031 A 
ATOM     62  C   UNL A   1      38.586  30.080  32.126  1.00  0.00     0.131 A 
ATOM     63  C   UNL A   1      36.553  31.353  30.751  1.00  0.00     0.055 A 
ATOM     64  C   UNL A   1      37.415  30.436  32.798  1.00  0.00     0.041 A 
ATOM     65  F   UNL A   1      39.570  29.523  32.848  1.00  0.00    -0.206 F 
ATOM     66  C   UNL A   1      36.396  31.092  32.113  1.00  0.00     0.022 A 
BRANCH  63  67
ATOM     67  S   UNL A   1      35.359  32.407  29.883  1.00  0.00     0.124 S 
ATOM     68  O   UNL A   1      34.342  32.609  30.912  1.00  0.00    -0.237 OA
ATOM     69  O   UNL A   1      36.162  33.575  29.539  1.00  0.00    -0.237 OA
ATOM     70  O   UNL A   1      34.935  31.585  28.752  1.00  0.00    -0.744 OA
ENDBRANCH  63  67
ENDBRANCH  46  60
BRANCH  47  71
ATOM     71  C   UNL A   1      46.967  27.453  25.733  1.00  0.00     0.023 A 
ATOM     72  C   UNL A   1      47.107  27.847  24.393  1.00  0.00     0.031 A 
ATOM     73  C   UNL A   1      47.975  26.644  26.289  1.00  0.00     0.131 A 
ATOM     74  C   UNL A   1      48.199  27.391  23.639  1.00  0.00     0.055 A 
ATOM     75  C   UNL A   1      49.091  26.243  25.552  1.00  0.00     0.041 A 
ATOM     76  F   UNL A   1      47.896  26.240  27.567  1.00  0.00    -0.206 F 
ATOM     77  C   UNL A   1      49.201  26.606  24.212  1.00  0.00     0.022 A 
BRANCH  74  78
ATOM     78  S   UNL A   1      48.241  27.760  21.863  1.00  0.00     0.124 S 
ATOM     79  O   UNL A   1      46.947  28.404  21.666  1.00  0.00    -0.237 OA
ATOM     80  O   UNL A   1      49.412  28.624  21.762  1.00  0.00    -0.237 OA
ATOM     81  O   UNL A   1      48.383  26.443  21.246  1.00  0.00    -0.744 OA
ENDBRANCH  74  78
ENDBRANCH  47  71
BRANCH  59  82
ATOM     82  C   UNL A   1      45.207  33.216  29.273  1.00  0.00     0.023 A 
ATOM     83  C   UNL A   1      45.137  34.365  28.467  1.00  0.00     0.031 A 
ATOM     84  C   UNL A   1      45.990  33.272  30.441  1.00  0.00     0.131 A 
ATOM     85  C   UNL A   1      45.868  35.510  28.821  1.00  0.00     0.055 A 
ATOM     86  C   UNL A   1      46.664  34.432  30.820  1.00  0.00     0.041 A 
ATOM     87  F   UNL A   1      46.096  32.201  31.244  1.00  0.00    -0.206 F 
ATOM     88  C   UNL A   1      46.613  35.557  30.003  1.00  0.00     0.022 A 
BRANCH  85  89
ATOM     89  S   UNL A   1      45.890  36.919  27.680  1.00  0.00     0.124 S 
ATOM     90  O   UNL A   1      47.046  37.674  28.153  1.00  0.00    -0.237 OA
ATOM     91  O   UNL A   1      46.041  36.269  26.383  1.00  0.00    -0.237 OA
ATOM     92  O   UNL A   1      44.596  37.562  27.903  1.00  0.00    -0.744 OA
ENDBRANCH  85  89
ENDBRANCH  59  82
ENDBRANCH  33  34
ENDBRANCH  25  28
ENDBRANCH  23  24
ENDBRANCH   1  23
TORSDOF 15
ENDMDL
MODEL 3
REMARK VINA RESULT:     -12.5      5.784     10.620
REMARK SMILES C=C(C(=O)NCCCNC(=O)c1ccc(-c2c3nc(c(-c4cc(S(=O)(=O)[O-])ccc4F)c4ccc([nH]4)c(-c4cc(S(=O)(=O)[O-])ccc4F)c4nc(c(-c5cc(S(=O)(=O)[O-])ccc5F)c5ccc2[nH]5)C=C4)C=C3)cc1)[C@@H]1CC[C@]2(C)C[C@@H](O)CC(=C)[C@H]2C1
REMARK SMILES IDX 7 1 6 2 5 3 3 4 4 5 2 7 1 8 75 9 76 10 87 11 77 12 86 13
REMARK SMILES IDX 78 14 84 15 79 16 80 17 83 18 85 19 81 20 82 21 8 23 9 24
REMARK SMILES IDX 10 25 11 27 12 28 13 29 74 30 14 31 73 32 15 33 16 34 17 35
REMARK SMILES IDX 67 36 18 37 72 38 66 39 68 40 19 41 71 42 65 43 64 44 20 46
REMARK SMILES IDX 52 47 32 48 51 49 33 50 36 51 50 52 69 53 34 54 35 55 49 57
REMARK SMILES IDX 70 58 37 59 21 60 22 61 30 62 23 63 29 64 31 65 28 66 24 67
REMARK SMILES IDX 25 68 26 69 27 70 53 71 54 72 62 73 55 74 61 75 63 76 60 77
REMARK SMILES IDX 56 78 57 79 58 80 59 81 38 82 39 83 47 84 40 85 46 86 48 87
REMARK SMILES IDX 45 88 41 89 42 90 43 91 44 92
REMARK H PARENT 5 6 82 22 9 26 68 45 36 56
REMARK Flexibility Score: inf
ROOT
ATOM      1  C   UNL A   1      31.302  31.999  26.583  1.00  0.00     0.042 C 
ENDROOT
BRANCH   1   2
ATOM      2  C   UNL A   1      31.414  30.724  25.764  1.00  0.00     0.118 C 
BRANCH   2   3
ATOM      3  N   UNL A   1      31.324  29.513  26.559  1.00  0.00    -0.352 N 
ATOM      4  C   UNL A   1      32.195  28.652  27.137  1.00  0.00     0.246 C 
ATOM      5  O   UNL A   1      31.675  27.873  27.937  1.00  0.00    -0.270 OA
ATOM      6  H   UNL A   1      30.389  29.250  26.721  1.00  0.00     0.163 HD
BRANCH   4   7
ATOM      7  C   UNL A   1      33.664  28.570  26.839  1.00  0.00     0.013 C 
ATOM      8  C   UNL A   1      34.602  29.170  27.597  1.00  0.00     0.018 C 
BRANCH   7   9
ATOM      9  C   UNL A   1      34.190  27.623  25.737  1.00  0.00     0.025 C 
ATOM     10  C   UNL A   1      33.825  28.123  24.321  1.00  0.00     0.009 C 
ATOM     11  C   UNL A   1      34.007  26.089  25.866  1.00  0.00     0.017 C 
ATOM     12  C   UNL A   1      32.526  27.544  23.770  1.00  0.00     0.008 C 
ATOM     13  C   UNL A   1      32.668  25.565  25.301  1.00  0.00     0.021 C 
ATOM     14  C   UNL A   1      32.473  25.996  23.818  1.00  0.00    -0.024 C 
ATOM     15  C   UNL A   1      32.408  24.068  25.449  1.00  0.00    -0.071 C 
ATOM     16  C   UNL A   1      33.568  25.416  22.887  1.00  0.00     0.012 C 
ATOM     17  C   UNL A   1      31.067  25.549  23.310  1.00  0.00     0.039 C 
ATOM     18  C   UNL A   1      31.000  23.671  25.050  1.00  0.00     0.062 C 
ATOM     19  C   UNL A   1      33.288  23.156  25.893  1.00  0.00     0.008 C 
ATOM     20  C   UNL A   1      30.684  24.092  23.608  1.00  0.00     0.119 C 
BRANCH  20  21
ATOM     21  O   UNL A   1      31.307  23.210  22.672  1.00  0.00    -0.393 OA
ATOM     22  H   UNL A   1      32.003  23.685  22.193  1.00  0.00     0.210 HD
ENDBRANCH  20  21
ENDBRANCH   7   9
ENDBRANCH   4   7
ENDBRANCH   2   3
ENDBRANCH   1   2
BRANCH   1  23
ATOM     23  C   UNL A   1      32.623  32.477  27.170  1.00  0.00     0.118 C 
BRANCH  23  24
ATOM     24  N   UNL A   1      32.549  33.846  27.674  1.00  0.00    -0.352 N 
ATOM     25  C   UNL A   1      33.269  34.454  28.673  1.00  0.00     0.251 C 
ATOM     26  H   UNL A   1      31.882  34.419  27.231  1.00  0.00     0.163 HD
ATOM     27  O   UNL A   1      32.883  35.523  29.144  1.00  0.00    -0.269 OA
BRANCH  25  28
ATOM     28  C   UNL A   1      34.493  33.808  29.184  1.00  0.00     0.039 A 
ATOM     29  C   UNL A   1      35.746  34.321  28.843  1.00  0.00     0.014 A 
ATOM     30  C   UNL A   1      34.390  32.698  30.024  1.00  0.00     0.014 A 
ATOM     31  C   UNL A   1      36.894  33.775  29.423  1.00  0.00     0.010 A 
ATOM     32  C   UNL A   1      35.519  32.223  30.674  1.00  0.00     0.010 A 
ATOM     33  C   UNL A   1      36.784  32.756  30.383  1.00  0.00    -0.014 A 
BRANCH  33  34
ATOM     34  C   UNL A   1      37.965  32.211  31.101  1.00  0.00     0.031 A 
ATOM     35  C   UNL A   1      38.726  31.060  30.502  1.00  0.00     0.074 A 
ATOM     36  C   UNL A   1      38.279  32.673  32.327  1.00  0.00     0.049 A 
ATOM     37  N   UNL A   1      39.667  30.323  31.031  1.00  0.00    -0.248 NA
ATOM     38  C   UNL A   1      38.345  30.661  29.137  1.00  0.00     0.031 C 
ATOM     39  C   UNL A   1      37.593  33.766  33.021  1.00  0.00     0.029 A 
ATOM     40  N   UNL A   1      39.243  32.271  33.217  1.00  0.00    -0.354 N 
ATOM     41  C   UNL A   1      39.974  29.360  30.076  1.00  0.00     0.074 A 
ATOM     42  C   UNL A   1      39.072  29.569  28.964  1.00  0.00     0.031 C 
ATOM     43  C   UNL A   1      38.171  33.957  34.219  1.00  0.00     0.029 A 
ATOM     44  C   UNL A   1      39.224  32.965  34.407  1.00  0.00     0.049 A 
ATOM     45  H   UNL A   1      39.889  31.553  33.024  1.00  0.00     0.167 HD
ATOM     46  C   UNL A   1      40.935  28.405  30.116  1.00  0.00     0.034 A 
ATOM     47  C   UNL A   1      39.954  32.803  35.528  1.00  0.00     0.034 A 
ATOM     48  C   UNL A   1      41.832  28.226  31.230  1.00  0.00     0.049 A 
ATOM     49  C   UNL A   1      40.991  31.708  35.567  1.00  0.00     0.074 A 
ATOM     50  C   UNL A   1      42.874  27.325  31.360  1.00  0.00     0.029 A 
ATOM     51  N   UNL A   1      41.787  28.954  32.411  1.00  0.00    -0.354 N 
ATOM     52  N   UNL A   1      41.295  30.826  34.641  1.00  0.00    -0.248 NA
ATOM     53  C   UNL A   1      41.789  31.589  36.794  1.00  0.00     0.031 C 
ATOM     54  C   UNL A   1      43.409  27.458  32.644  1.00  0.00     0.029 A 
ATOM     55  C   UNL A   1      42.764  28.504  33.285  1.00  0.00     0.049 A 
ATOM     56  H   UNL A   1      41.156  29.686  32.601  1.00  0.00     0.167 HD
ATOM     57  C   UNL A   1      42.349  30.078  35.160  1.00  0.00     0.074 A 
ATOM     58  C   UNL A   1      42.628  30.612  36.477  1.00  0.00     0.031 C 
ATOM     59  C   UNL A   1      43.033  29.052  34.593  1.00  0.00     0.034 A 
BRANCH  46  60
ATOM     60  C   UNL A   1      41.041  27.472  28.932  1.00  0.00     0.023 A 
ATOM     61  C   UNL A   1      42.049  27.617  27.964  1.00  0.00     0.031 A 
ATOM     62  C   UNL A   1      40.104  26.438  28.754  1.00  0.00     0.131 A 
ATOM     63  C   UNL A   1      42.051  26.799  26.825  1.00  0.00     0.055 A 
ATOM     64  C   UNL A   1      40.165  25.569  27.662  1.00  0.00     0.041 A 
ATOM     65  F   UNL A   1      39.103  26.263  29.630  1.00  0.00    -0.206 F 
ATOM     66  C   UNL A   1      41.133  25.758  26.680  1.00  0.00     0.022 A 
BRANCH  63  67
ATOM     67  S   UNL A   1      43.170  27.221  25.461  1.00  0.00     0.124 S 
ATOM     68  O   UNL A   1      44.301  27.804  26.179  1.00  0.00    -0.237 OA
ATOM     69  O   UNL A   1      43.408  25.926  24.836  1.00  0.00    -0.237 OA
ATOM     70  O   UNL A   1      42.394  28.168  24.662  1.00  0.00    -0.744 OA
ENDBRANCH  63  67
ENDBRANCH  46  60
BRANCH  47  71
ATOM     71  C   UNL A   1      39.727  33.681  36.713  1.00  0.00     0.023 A 
ATOM     72  C   UNL A   1      40.604  34.737  37.007  1.00  0.00     0.031 A 
ATOM     73  C   UNL A   1      38.654  33.454  37.594  1.00  0.00     0.131 A 
ATOM     74  C   UNL A   1      40.425  35.492  38.176  1.00  0.00     0.055 A 
ATOM     75  C   UNL A   1      38.445  34.246  38.724  1.00  0.00     0.041 A 
ATOM     76  F   UNL A   1      37.781  32.460  37.361  1.00  0.00    -0.206 F 
ATOM     77  C   UNL A   1      39.343  35.265  39.029  1.00  0.00     0.022 A 
BRANCH  74  78
ATOM     78  S   UNL A   1      41.688  36.716  38.621  1.00  0.00     0.124 S 
ATOM     79  O   UNL A   1      42.521  35.957  39.547  1.00  0.00    -0.237 OA
ATOM     80  O   UNL A   1      42.283  37.021  37.324  1.00  0.00    -0.237 OA
ATOM     81  O   UNL A   1      40.915  37.800  39.222  1.00  0.00    -0.744 OA
ENDBRANCH  74  78
ENDBRANCH  47  71
BRANCH  59  82
ATOM     82  C   UNL A   1      44.202  28.487  35.362  1.00  0.00     0.023 A 
ATOM     83  C   UNL A   1      44.046  27.486  36.335  1.00  0.00     0.031 A 
ATOM     84  C   UNL A   1      45.504  28.945  35.086  1.00  0.00     0.131 A 
ATOM     85  C   UNL A   1      45.169  27.002  37.025  1.00  0.00     0.055 A 
ATOM     86  C   UNL A   1      46.622  28.418  35.731  1.00  0.00     0.041 A 
ATOM     87  F   UNL A   1      45.709  29.904  34.168  1.00  0.00    -0.206 F 
ATOM     88  C   UNL A   1      46.457  27.447  36.713  1.00  0.00     0.022 A 
BRANCH  85  89
ATOM     89  S   UNL A   1      44.920  25.833  38.388  1.00  0.00     0.124 S 
ATOM     90  O   UNL A   1      44.132  24.784  37.749  1.00  0.00    -0.237 OA
ATOM     91  O   UNL A   1      46.289  25.473  38.745  1.00  0.00    -0.237 OA
ATOM     92  O   UNL A   1      44.206  26.621  39.391  1.00  0.00    -0.744 OA
ENDBRANCH  85  89
ENDBRANCH  59  82
ENDBRANCH  33  34
ENDBRANCH  25  28
ENDBRANCH  23  24
ENDBRANCH   1  23
TORSDOF 15
ENDMDL
