MODEL 1
REMARK VINA RESULT:     -12.1      0.000      0.000
REMARK SMILES C[C@@H](C(=O)NCCCNC(=O)c1ccc(-c2c3nc(c(-c4cc(S(=O)(=O)[O-])ccc4F)c4ccc([nH]4)c(-c4cc(S(=O)(=O)[O-])ccc4F)c4nc(c(-c5cc(S(=O)(=O)[O-])ccc5F)c5ccc2[nH]5)C=C4)C=C3)cc1)c1ccc(-c2ccn(C(F)F)c(=O)c2)cc1
REMARK SMILES IDX 7 1 6 2 5 3 3 4 4 5 2 7 1 8 75 9 76 10 90 11 77 12 89 13
REMARK SMILES IDX 78 14 79 15 80 16 88 17 81 18 86 19 82 20 87 21 83 22 84 23
REMARK SMILES IDX 85 24 8 25 9 26 10 27 11 29 12 30 13 31 74 32 14 33 73 34
REMARK SMILES IDX 15 35 16 36 17 37 67 38 18 39 72 40 66 41 68 42 19 43 71 44
REMARK SMILES IDX 65 45 64 46 20 48 52 49 32 50 51 51 33 52 36 53 50 54 69 55
REMARK SMILES IDX 34 56 35 57 49 59 70 60 37 61 21 62 22 63 30 64 23 65 29 66
REMARK SMILES IDX 31 67 28 68 24 69 25 70 26 71 27 72 53 73 54 74 62 75 55 76
REMARK SMILES IDX 61 77 63 78 60 79 56 80 57 81 58 82 59 83 38 84 39 85 47 86
REMARK SMILES IDX 40 87 46 88 48 89 45 90 41 91 42 92 43 93 44 94
REMARK H PARENT 5 6 9 28 68 47 36 58
REMARK Flexibility Score: inf
ROOT
ATOM      1  C   UNL A   1      31.480  32.645  26.461  1.00  0.00     0.042 C 
ENDROOT
BRANCH   1   2
ATOM      2  C   UNL A   1      31.082  31.170  26.422  1.00  0.00     0.117 C 
BRANCH   2   3
ATOM      3  N   UNL A   1      31.640  30.499  25.262  1.00  0.00    -0.356 N 
ATOM      4  C   UNL A   1      32.533  29.470  25.176  1.00  0.00     0.227 C 
ATOM      5  O   UNL A   1      32.967  29.210  24.052  1.00  0.00    -0.274 OA
ATOM      6  H   UNL A   1      31.323  30.842  24.396  1.00  0.00     0.163 HD
BRANCH   4   7
ATOM      7  C   UNL A   1      32.917  28.666  26.435  1.00  0.00     0.105 C 
ATOM      8  C   UNL A   1      34.252  29.171  26.993  1.00  0.00     0.023 C 
BRANCH   7   9
ATOM      9  C   UNL A   1      32.894  27.151  26.187  1.00  0.00    -0.036 A 
ATOM     10  C   UNL A   1      31.735  26.372  26.334  1.00  0.00     0.005 A 
ATOM     11  C   UNL A   1      34.073  26.500  25.780  1.00  0.00     0.005 A 
ATOM     12  C   UNL A   1      31.756  24.994  26.103  1.00  0.00     0.009 A 
ATOM     13  C   UNL A   1      34.099  25.119  25.562  1.00  0.00     0.009 A 
ATOM     14  C   UNL A   1      32.937  24.358  25.719  1.00  0.00    -0.018 A 
BRANCH  14  15
ATOM     15  C   UNL A   1      32.965  22.905  25.496  1.00  0.00    -0.011 A 
ATOM     16  C   UNL A   1      33.470  21.971  26.483  1.00  0.00     0.027 A 
ATOM     17  C   UNL A   1      32.508  22.436  24.322  1.00  0.00     0.080 A 
ATOM     18  C   UNL A   1      33.500  20.660  26.221  1.00  0.00     0.095 A 
ATOM     19  C   UNL A   1      32.529  20.981  24.022  1.00  0.00     0.255 A 
ATOM     20  N   UNL A   1      33.047  20.164  25.013  1.00  0.00    -0.258 N 
ATOM     21  O   UNL A   1      32.103  20.600  22.932  1.00  0.00    -0.269 OA
BRANCH  20  22
ATOM     22  C   UNL A   1      33.113  18.755  24.730  1.00  0.00     0.451 C 
ATOM     23  F   UNL A   1      34.385  18.362  24.475  1.00  0.00    -0.185 F 
ATOM     24  F   UNL A   1      32.653  18.027  25.776  1.00  0.00    -0.185 F 
ENDBRANCH  20  22
ENDBRANCH  14  15
ENDBRANCH   7   9
ENDBRANCH   4   7
ENDBRANCH   2   3
ENDBRANCH   1   2
BRANCH   1  25
ATOM     25  C   UNL A   1      32.701  32.944  27.324  1.00  0.00     0.118 C 
BRANCH  25  26
ATOM     26  N   UNL A   1      32.755  34.332  27.744  1.00  0.00    -0.352 N 
ATOM     27  C   UNL A   1      33.517  34.927  28.716  1.00  0.00     0.251 C 
ATOM     28  H   UNL A   1      32.152  34.939  27.256  1.00  0.00     0.163 HD
ATOM     29  O   UNL A   1      33.247  36.082  29.049  1.00  0.00    -0.269 OA
BRANCH  27  30
ATOM     30  C   UNL A   1      34.633  34.205  29.373  1.00  0.00     0.039 A 
ATOM     31  C   UNL A   1      34.329  33.286  30.381  1.00  0.00     0.014 A 
ATOM     32  C   UNL A   1      35.970  34.468  29.059  1.00  0.00     0.014 A 
ATOM     33  C   UNL A   1      35.357  32.618  31.053  1.00  0.00     0.010 A 
ATOM     34  C   UNL A   1      36.991  33.742  29.673  1.00  0.00     0.010 A 
ATOM     35  C   UNL A   1      36.698  32.830  30.697  1.00  0.00    -0.014 A 
BRANCH  35  36
ATOM     36  C   UNL A   1      37.798  32.155  31.436  1.00  0.00     0.031 A 
ATOM     37  C   UNL A   1      38.538  31.008  30.799  1.00  0.00     0.074 A 
ATOM     38  C   UNL A   1      38.115  32.553  32.683  1.00  0.00     0.049 A 
ATOM     39  N   UNL A   1      39.501  30.267  31.286  1.00  0.00    -0.248 NA
ATOM     40  C   UNL A   1      38.112  30.622  29.445  1.00  0.00     0.031 C 
ATOM     41  C   UNL A   1      37.442  33.620  33.425  1.00  0.00     0.029 A 
ATOM     42  N   UNL A   1      39.082  32.105  33.549  1.00  0.00    -0.354 N 
ATOM     43  C   UNL A   1      39.790  29.325  30.303  1.00  0.00     0.074 A 
ATOM     44  C   UNL A   1      38.844  29.541  29.230  1.00  0.00     0.031 C 
ATOM     45  C   UNL A   1      38.029  33.758  34.626  1.00  0.00     0.029 A 
ATOM     46  C   UNL A   1      39.097  32.770  34.753  1.00  0.00     0.049 A 
ATOM     47  H   UNL A   1      39.705  31.375  33.329  1.00  0.00     0.167 HD
ATOM     48  C   UNL A   1      40.773  28.388  30.282  1.00  0.00     0.034 A 
ATOM     49  C   UNL A   1      39.880  32.602  35.837  1.00  0.00     0.034 A 
ATOM     50  C   UNL A   1      41.712  28.189  31.359  1.00  0.00     0.049 A 
ATOM     51  C   UNL A   1      40.970  31.561  35.793  1.00  0.00     0.074 A 
ATOM     52  C   UNL A   1      42.761  27.288  31.438  1.00  0.00     0.029 A 
ATOM     53  N   UNL A   1      41.717  28.905  32.550  1.00  0.00    -0.354 N 
ATOM     54  N   UNL A   1      41.256  30.704  34.839  1.00  0.00    -0.248 NA
ATOM     55  C   UNL A   1      41.855  31.484  36.960  1.00  0.00     0.031 C 
ATOM     56  C   UNL A   1      43.362  27.421  32.696  1.00  0.00     0.029 A 
ATOM     57  C   UNL A   1      42.738  28.456  33.375  1.00  0.00     0.049 A 
ATOM     58  H   UNL A   1      41.085  29.626  32.777  1.00  0.00     0.167 HD
ATOM     59  C   UNL A   1      42.378  30.007  35.281  1.00  0.00     0.074 A 
ATOM     60  C   UNL A   1      42.722  30.557  36.577  1.00  0.00     0.031 C 
ATOM     61  C   UNL A   1      43.064  29.007  34.671  1.00  0.00     0.034 A 
BRANCH  48  62
ATOM     62  C   UNL A   1      40.852  27.502  29.058  1.00  0.00     0.023 A 
ATOM     63  C   UNL A   1      41.821  27.711  28.059  1.00  0.00     0.031 A 
ATOM     64  C   UNL A   1      39.916  26.473  28.854  1.00  0.00     0.131 A 
ATOM     65  C   UNL A   1      41.772  26.975  26.866  1.00  0.00     0.055 A 
ATOM     66  C   UNL A   1      39.932  25.679  27.703  1.00  0.00     0.041 A 
ATOM     67  F   UNL A   1      38.953  26.233  29.758  1.00  0.00    -0.206 F 
ATOM     68  C   UNL A   1      40.850  25.942  26.692  1.00  0.00     0.022 A 
BRANCH  65  69
ATOM     69  S   UNL A   1      42.817  27.506  25.481  1.00  0.00     0.124 S 
ATOM     70  O   UNL A   1      42.884  26.285  24.680  1.00  0.00    -0.237 OA
ATOM     71  O   UNL A   1      42.049  28.604  24.909  1.00  0.00    -0.237 OA
ATOM     72  O   UNL A   1      44.072  27.888  26.125  1.00  0.00    -0.744 OA
ENDBRANCH  65  69
ENDBRANCH  48  62
BRANCH  49  73
ATOM     73  C   UNL A   1      39.667  33.437  37.052  1.00  0.00     0.023 A 
ATOM     74  C   UNL A   1      40.430  34.592  37.285  1.00  0.00     0.031 A 
ATOM     75  C   UNL A   1      38.707  33.076  38.013  1.00  0.00     0.131 A 
ATOM     76  C   UNL A   1      40.251  35.320  38.472  1.00  0.00     0.055 A 
ATOM     77  C   UNL A   1      38.498  33.830  39.168  1.00  0.00     0.041 A 
ATOM     78  F   UNL A   1      37.943  31.986  37.833  1.00  0.00    -0.206 F 
ATOM     79  C   UNL A   1      39.283  34.954  39.409  1.00  0.00     0.022 A 
BRANCH  76  80
ATOM     80  S   UNL A   1      41.356  36.720  38.808  1.00  0.00     0.124 S 
ATOM     81  O   UNL A   1      42.173  36.200  39.898  1.00  0.00    -0.237 OA
ATOM     82  O   UNL A   1      42.029  36.888  37.524  1.00  0.00    -0.237 OA
ATOM     83  O   UNL A   1      40.437  37.797  39.171  1.00  0.00    -0.744 OA
ENDBRANCH  76  80
ENDBRANCH  49  73
BRANCH  61  84
ATOM     84  C   UNL A   1      44.288  28.482  35.383  1.00  0.00     0.023 A 
ATOM     85  C   UNL A   1      44.205  27.471  36.356  1.00  0.00     0.031 A 
ATOM     86  C   UNL A   1      45.554  29.025  35.099  1.00  0.00     0.131 A 
ATOM     87  C   UNL A   1      45.356  27.080  37.057  1.00  0.00     0.055 A 
ATOM     88  C   UNL A   1      46.705  28.586  35.756  1.00  0.00     0.041 A 
ATOM     89  F   UNL A   1      45.693  29.994  34.180  1.00  0.00    -0.206 F 
ATOM     90  C   UNL A   1      46.608  27.621  36.753  1.00  0.00     0.022 A 
BRANCH  87  91
ATOM     91  S   UNL A   1      45.178  25.935  38.453  1.00  0.00     0.124 S 
ATOM     92  O   UNL A   1      46.541  25.875  38.973  1.00  0.00    -0.237 OA
ATOM     93  O   UNL A   1      44.204  26.621  39.296  1.00  0.00    -0.237 OA
ATOM     94  O   UNL A   1      44.699  24.704  37.828  1.00  0.00    -0.744 OA
ENDBRANCH  87  91
ENDBRANCH  61  84
ENDBRANCH  35  36
ENDBRANCH  27  30
ENDBRANCH  25  26
ENDBRANCH   1  25
TORSDOF 16
ENDMDL
MODEL 2
REMARK VINA RESULT:     -12.1      2.747      8.209
REMARK SMILES C[C@@H](C(=O)NCCCNC(=O)c1ccc(-c2c3nc(c(-c4cc(S(=O)(=O)[O-])ccc4F)c4ccc([nH]4)c(-c4cc(S(=O)(=O)[O-])ccc4F)c4nc(c(-c5cc(S(=O)(=O)[O-])ccc5F)c5ccc2[nH]5)C=C4)C=C3)cc1)c1ccc(-c2ccn(C(F)F)c(=O)c2)cc1
REMARK SMILES IDX 7 1 6 2 5 3 3 4 4 5 2 7 1 8 75 9 76 10 90 11 77 12 89 13
REMARK SMILES IDX 78 14 79 15 80 16 88 17 81 18 86 19 82 20 87 21 83 22 84 23
REMARK SMILES IDX 85 24 8 25 9 26 10 27 11 29 12 30 13 31 74 32 14 33 73 34
REMARK SMILES IDX 15 35 16 36 17 37 67 38 18 39 72 40 66 41 68 42 19 43 71 44
REMARK SMILES IDX 65 45 64 46 20 48 52 49 32 50 51 51 33 52 36 53 50 54 69 55
REMARK SMILES IDX 34 56 35 57 49 59 70 60 37 61 21 62 22 63 30 64 23 65 29 66
REMARK SMILES IDX 31 67 28 68 24 69 25 70 26 71 27 72 53 73 54 74 62 75 55 76
REMARK SMILES IDX 61 77 63 78 60 79 56 80 57 81 58 82 59 83 38 84 39 85 47 86
REMARK SMILES IDX 40 87 46 88 48 89 45 90 41 91 42 92 43 93 44 94
REMARK H PARENT 5 6 9 28 68 47 36 58
REMARK Flexibility Score: inf
ROOT
ATOM      1  C   UNL A   1      31.835  28.875  27.057  1.00  0.00     0.042 C 
ENDROOT
BRANCH   1   2
ATOM      2  C   UNL A   1      31.603  27.504  26.422  1.00  0.00     0.117 C 
BRANCH   2   3
ATOM      3  N   UNL A   1      31.030  27.624  25.094  1.00  0.00    -0.356 N 
ATOM      4  C   UNL A   1      31.619  27.562  23.864  1.00  0.00     0.227 C 
ATOM      5  O   UNL A   1      30.915  27.870  22.900  1.00  0.00    -0.274 OA
ATOM      6  H   UNL A   1      30.058  27.774  25.077  1.00  0.00     0.163 HD
BRANCH   4   7
ATOM      7  C   UNL A   1      33.077  27.079  23.723  1.00  0.00     0.105 C 
ATOM      8  C   UNL A   1      33.686  27.621  22.425  1.00  0.00     0.023 C 
BRANCH   7   9
ATOM      9  C   UNL A   1      33.203  25.556  23.866  1.00  0.00    -0.036 A 
ATOM     10  C   UNL A   1      33.833  24.943  24.961  1.00  0.00     0.005 A 
ATOM     11  C   UNL A   1      32.656  24.722  22.874  1.00  0.00     0.005 A 
ATOM     12  C   UNL A   1      33.930  23.552  25.054  1.00  0.00     0.009 A 
ATOM     13  C   UNL A   1      32.765  23.330  22.958  1.00  0.00     0.009 A 
ATOM     14  C   UNL A   1      33.401  22.737  24.052  1.00  0.00    -0.018 A 
BRANCH  14  15
ATOM     15  C   UNL A   1      33.522  21.274  24.138  1.00  0.00    -0.011 A 
ATOM     16  C   UNL A   1      34.638  20.618  24.790  1.00  0.00     0.027 A 
ATOM     17  C   UNL A   1      32.557  20.525  23.577  1.00  0.00     0.080 A 
ATOM     18  C   UNL A   1      34.717  19.283  24.816  1.00  0.00     0.095 A 
ATOM     19  C   UNL A   1      32.629  19.041  23.606  1.00  0.00     0.255 A 
ATOM     20  N   UNL A   1      33.739  18.500  24.232  1.00  0.00    -0.258 N 
ATOM     21  O   UNL A   1      31.723  18.398  23.076  1.00  0.00    -0.269 OA
BRANCH  20  22
ATOM     22  C   UNL A   1      33.850  17.066  24.238  1.00  0.00     0.451 C 
ATOM     23  F   UNL A   1      34.743  16.635  23.313  1.00  0.00    -0.185 F 
ATOM     24  F   UNL A   1      34.256  16.615  25.451  1.00  0.00    -0.185 F 
ENDBRANCH  20  22
ENDBRANCH  14  15
ENDBRANCH   7   9
ENDBRANCH   4   7
ENDBRANCH   2   3
ENDBRANCH   1   2
BRANCH   1  25
ATOM     25  C   UNL A   1      33.045  29.625  26.510  1.00  0.00     0.118 C 
BRANCH  25  26
ATOM     26  N   UNL A   1      32.982  31.049  26.784  1.00  0.00    -0.352 N 
ATOM     27  C   UNL A   1      33.795  31.831  27.564  1.00  0.00     0.251 C 
ATOM     28  H   UNL A   1      32.244  31.526  26.340  1.00  0.00     0.163 HD
ATOM     29  O   UNL A   1      33.431  32.978  27.825  1.00  0.00    -0.269 OA
BRANCH  27  30
ATOM     30  C   UNL A   1      35.075  31.315  28.105  1.00  0.00     0.039 A 
ATOM     31  C   UNL A   1      35.090  30.041  28.681  1.00  0.00     0.014 A 
ATOM     32  C   UNL A   1      36.239  32.090  28.114  1.00  0.00     0.014 A 
ATOM     33  C   UNL A   1      36.269  29.539  29.239  1.00  0.00     0.010 A 
ATOM     34  C   UNL A   1      37.434  31.557  28.599  1.00  0.00     0.010 A 
ATOM     35  C   UNL A   1      37.456  30.286  29.193  1.00  0.00    -0.014 A 
BRANCH  35  36
ATOM     36  C   UNL A   1      38.703  29.777  29.823  1.00  0.00     0.031 A 
ATOM     37  C   UNL A   1      39.128  30.292  31.173  1.00  0.00     0.074 A 
ATOM     38  C   UNL A   1      39.465  28.874  29.175  1.00  0.00     0.049 A 
ATOM     39  N   UNL A   1      40.194  30.002  31.876  1.00  0.00    -0.248 NA
ATOM     40  C   UNL A   1      38.253  31.293  31.800  1.00  0.00     0.031 C 
ATOM     41  C   UNL A   1      39.184  28.334  27.844  1.00  0.00     0.029 A 
ATOM     42  N   UNL A   1      40.632  28.255  29.546  1.00  0.00    -0.354 N 
ATOM     43  C   UNL A   1      40.121  30.790  33.021  1.00  0.00     0.074 A 
ATOM     44  C   UNL A   1      38.948  31.625  32.876  1.00  0.00     0.031 C 
ATOM     45  C   UNL A   1      40.141  27.449  27.518  1.00  0.00     0.029 A 
ATOM     46  C   UNL A   1      41.119  27.382  28.601  1.00  0.00     0.049 A 
ATOM     47  H   UNL A   1      41.079  28.420  30.407  1.00  0.00     0.167 HD
ATOM     48  C   UNL A   1      40.936  30.795  34.107  1.00  0.00     0.034 A 
ATOM     49  C   UNL A   1      42.228  26.617  28.604  1.00  0.00     0.034 A 
ATOM     50  C   UNL A   1      42.098  29.951  34.239  1.00  0.00     0.049 A 
ATOM     51  C   UNL A   1      43.118  26.629  29.821  1.00  0.00     0.074 A 
ATOM     52  C   UNL A   1      42.982  29.853  35.300  1.00  0.00     0.029 A 
ATOM     53  N   UNL A   1      42.542  29.055  33.273  1.00  0.00    -0.354 N 
ATOM     54  N   UNL A   1      43.012  27.350  30.914  1.00  0.00    -0.248 NA
ATOM     55  C   UNL A   1      44.259  25.707  29.814  1.00  0.00     0.031 C 
ATOM     56  C   UNL A   1      43.988  28.943  34.954  1.00  0.00     0.029 A 
ATOM     57  C   UNL A   1      43.693  28.414  33.707  1.00  0.00     0.049 A 
ATOM     58  H   UNL A   1      42.103  28.898  32.405  1.00  0.00     0.167 HD
ATOM     59  C   UNL A   1      44.059  26.944  31.739  1.00  0.00     0.074 A 
ATOM     60  C   UNL A   1      44.769  25.904  31.022  1.00  0.00     0.031 C 
ATOM     61  C   UNL A   1      44.399  27.385  32.977  1.00  0.00     0.034 A 
BRANCH  48  62
ATOM     62  C   UNL A   1      40.594  31.763  35.218  1.00  0.00     0.023 A 
ATOM     63  C   UNL A   1      39.620  31.457  36.187  1.00  0.00     0.031 A 
ATOM     64  C   UNL A   1      41.204  33.028  35.282  1.00  0.00     0.131 A 
ATOM     65  C   UNL A   1      39.215  32.433  37.110  1.00  0.00     0.055 A 
ATOM     66  C   UNL A   1      40.863  33.962  36.264  1.00  0.00     0.041 A 
ATOM     67  F   UNL A   1      42.127  33.390  34.378  1.00  0.00    -0.206 F 
ATOM     68  C   UNL A   1      39.849  33.675  37.172  1.00  0.00     0.022 A 
BRANCH  65  69
ATOM     69  S   UNL A   1      37.733  32.116  38.108  1.00  0.00     0.124 S 
ATOM     70  O   UNL A   1      37.414  30.741  37.730  1.00  0.00    -0.237 OA
ATOM     71  O   UNL A   1      38.221  32.308  39.467  1.00  0.00    -0.237 OA
ATOM     72  O   UNL A   1      36.781  33.119  37.636  1.00  0.00    -0.744 OA
ENDBRANCH  65  69
ENDBRANCH  48  62
BRANCH  49  73
ATOM     73  C   UNL A   1      42.560  25.772  27.422  1.00  0.00     0.023 A 
ATOM     74  C   UNL A   1      42.146  24.434  27.343  1.00  0.00     0.031 A 
ATOM     75  C   UNL A   1      43.321  26.291  26.359  1.00  0.00     0.131 A 
ATOM     76  C   UNL A   1      42.532  23.646  26.247  1.00  0.00     0.055 A 
ATOM     77  C   UNL A   1      43.661  25.519  25.249  1.00  0.00     0.041 A 
ATOM     78  F   UNL A   1      43.733  27.570  26.381  1.00  0.00    -0.206 F 
ATOM     79  C   UNL A   1      43.276  24.182  25.194  1.00  0.00     0.022 A 
BRANCH  76  80
ATOM     80  S   UNL A   1      42.103  21.884  26.250  1.00  0.00     0.124 S 
ATOM     81  O   UNL A   1      40.675  21.923  25.954  1.00  0.00    -0.237 OA
ATOM     82  O   UNL A   1      42.963  21.361  25.193  1.00  0.00    -0.237 OA
ATOM     83  O   UNL A   1      42.451  21.452  27.602  1.00  0.00    -0.744 OA
ENDBRANCH  76  80
ENDBRANCH  49  73
BRANCH  61  84
ATOM     84  C   UNL A   1      45.565  26.702  33.651  1.00  0.00     0.023 A 
ATOM     85  C   UNL A   1      45.392  25.566  34.462  1.00  0.00     0.031 A 
ATOM     86  C   UNL A   1      46.865  27.214  33.498  1.00  0.00     0.131 A 
ATOM     87  C   UNL A   1      46.491  25.020  35.141  1.00  0.00     0.055 A 
ATOM     88  C   UNL A   1      47.965  26.627  34.127  1.00  0.00     0.041 A 
ATOM     89  F   UNL A   1      47.089  28.297  32.737  1.00  0.00    -0.206 F 
ATOM     90  C   UNL A   1      47.779  25.534  34.968  1.00  0.00     0.022 A 
BRANCH  87  91
ATOM     91  S   UNL A   1      46.199  23.696  36.347  1.00  0.00     0.124 S 
ATOM     92  O   UNL A   1      45.244  22.846  35.642  1.00  0.00    -0.237 OA
ATOM     93  O   UNL A   1      47.536  23.138  36.527  1.00  0.00    -0.237 OA
ATOM     94  O   UNL A   1      45.661  24.401  37.508  1.00  0.00    -0.744 OA
ENDBRANCH  87  91
ENDBRANCH  61  84
ENDBRANCH  35  36
ENDBRANCH  27  30
ENDBRANCH  25  26
ENDBRANCH   1  25
TORSDOF 16
ENDMDL
MODEL 3
REMARK VINA RESULT:     -12.0      6.163      9.372
REMARK SMILES C[C@@H](C(=O)NCCCNC(=O)c1ccc(-c2c3nc(c(-c4cc(S(=O)(=O)[O-])ccc4F)c4ccc([nH]4)c(-c4cc(S(=O)(=O)[O-])ccc4F)c4nc(c(-c5cc(S(=O)(=O)[O-])ccc5F)c5ccc2[nH]5)C=C4)C=C3)cc1)c1ccc(-c2ccn(C(F)F)c(=O)c2)cc1
REMARK SMILES IDX 7 1 6 2 5 3 3 4 4 5 2 7 1 8 75 9 76 10 90 11 77 12 89 13
REMARK SMILES IDX 78 14 79 15 80 16 88 17 81 18 86 19 82 20 87 21 83 22 84 23
REMARK SMILES IDX 85 24 8 25 9 26 10 27 11 29 12 30 13 31 74 32 14 33 73 34
REMARK SMILES IDX 15 35 16 36 17 37 67 38 18 39 72 40 66 41 68 42 19 43 71 44
REMARK SMILES IDX 65 45 64 46 20 48 52 49 32 50 51 51 33 52 36 53 50 54 69 55
REMARK SMILES IDX 34 56 35 57 49 59 70 60 37 61 21 62 22 63 30 64 23 65 29 66
REMARK SMILES IDX 31 67 28 68 24 69 25 70 26 71 27 72 53 73 54 74 62 75 55 76
REMARK SMILES IDX 61 77 63 78 60 79 56 80 57 81 58 82 59 83 38 84 39 85 47 86
REMARK SMILES IDX 40 87 46 88 48 89 45 90 41 91 42 92 43 93 44 94
REMARK H PARENT 5 6 9 28 68 47 36 58
REMARK Flexibility Score: inf
ROOT
ATOM      1  C   UNL A   1      36.476  21.639  24.568  1.00  0.00     0.042 C 
ENDROOT
BRANCH   1   2
ATOM      2  C   UNL A   1      35.099  22.103  25.043  1.00  0.00     0.117 C 
BRANCH   2   3
ATOM      3  N   UNL A   1      34.069  21.800  24.066  1.00  0.00    -0.356 N 
ATOM      4  C   UNL A   1      32.724  22.032  24.092  1.00  0.00     0.227 C 
ATOM      5  O   UNL A   1      32.059  21.511  23.195  1.00  0.00    -0.274 OA
ATOM      6  H   UNL A   1      34.395  21.355  23.250  1.00  0.00     0.163 HD
BRANCH   4   7
ATOM      7  C   UNL A   1      32.113  22.942  25.177  1.00  0.00     0.105 C 
ATOM      8  C   UNL A   1      31.121  22.145  26.031  1.00  0.00     0.023 C 
BRANCH   7   9
ATOM      9  C   UNL A   1      31.515  24.228  24.588  1.00  0.00    -0.036 A 
ATOM     10  C   UNL A   1      31.877  24.729  23.328  1.00  0.00     0.005 A 
ATOM     11  C   UNL A   1      30.550  24.940  25.324  1.00  0.00     0.005 A 
ATOM     12  C   UNL A   1      31.312  25.905  22.828  1.00  0.00     0.009 A 
ATOM     13  C   UNL A   1      29.995  26.125  24.831  1.00  0.00     0.009 A 
ATOM     14  C   UNL A   1      30.371  26.613  23.577  1.00  0.00    -0.018 A 
BRANCH  14  15
ATOM     15  C   UNL A   1      29.793  27.863  23.061  1.00  0.00    -0.011 A 
ATOM     16  C   UNL A   1      30.568  28.835  22.316  1.00  0.00     0.027 A 
ATOM     17  C   UNL A   1      28.494  28.107  23.305  1.00  0.00     0.080 A 
ATOM     18  C   UNL A   1      30.003  29.970  21.893  1.00  0.00     0.095 A 
ATOM     19  C   UNL A   1      27.852  29.361  22.833  1.00  0.00     0.255 A 
ATOM     20  N   UNL A   1      28.671  30.242  22.148  1.00  0.00    -0.258 N 
ATOM     21  O   UNL A   1      26.660  29.541  23.083  1.00  0.00    -0.269 OA
BRANCH  20  22
ATOM     22  C   UNL A   1      28.082  31.480  21.715  1.00  0.00     0.451 C 
ATOM     23  F   UNL A   1      28.998  32.479  21.685  1.00  0.00    -0.185 F 
ATOM     24  F   UNL A   1      27.555  31.360  20.471  1.00  0.00    -0.185 F 
ENDBRANCH  20  22
ENDBRANCH  14  15
ENDBRANCH   7   9
ENDBRANCH   4   7
ENDBRANCH   2   3
ENDBRANCH   1   2
BRANCH   1  25
ATOM     25  C   UNL A   1      37.645  22.302  25.287  1.00  0.00     0.118 C 
BRANCH  25  26
ATOM     26  N   UNL A   1      38.525  21.336  25.919  1.00  0.00    -0.352 N 
ATOM     27  C   UNL A   1      39.685  21.533  26.623  1.00  0.00     0.251 C 
ATOM     28  H   UNL A   1      38.246  20.396  25.827  1.00  0.00     0.163 HD
ATOM     29  O   UNL A   1      40.384  20.554  26.888  1.00  0.00    -0.269 OA
BRANCH  27  30
ATOM     30  C   UNL A   1      40.112  22.888  27.046  1.00  0.00     0.039 A 
ATOM     31  C   UNL A   1      39.521  23.995  26.430  1.00  0.00     0.014 A 
ATOM     32  C   UNL A   1      41.127  23.082  27.989  1.00  0.00     0.014 A 
ATOM     33  C   UNL A   1      39.929  25.287  26.773  1.00  0.00     0.010 A 
ATOM     34  C   UNL A   1      41.476  24.373  28.388  1.00  0.00     0.010 A 
ATOM     35  C   UNL A   1      40.902  25.490  27.764  1.00  0.00    -0.014 A 
BRANCH  35  36
ATOM     36  C   UNL A   1      41.370  26.859  28.104  1.00  0.00     0.031 A 
ATOM     37  C   UNL A   1      42.784  27.271  27.784  1.00  0.00     0.074 A 
ATOM     38  C   UNL A   1      40.540  27.723  28.720  1.00  0.00     0.049 A 
ATOM     39  N   UNL A   1      43.396  28.402  28.028  1.00  0.00    -0.248 NA
ATOM     40  C   UNL A   1      43.632  26.261  27.134  1.00  0.00     0.031 C 
ATOM     41  C   UNL A   1      39.164  27.427  29.124  1.00  0.00     0.029 A 
ATOM     42  N   UNL A   1      40.731  29.022  29.118  1.00  0.00    -0.354 N 
ATOM     43  C   UNL A   1      44.699  28.237  27.569  1.00  0.00     0.074 A 
ATOM     44  C   UNL A   1      44.806  26.869  27.108  1.00  0.00     0.031 C 
ATOM     45  C   UNL A   1      38.629  28.520  29.692  1.00  0.00     0.029 A 
ATOM     46  C   UNL A   1      39.630  29.582  29.724  1.00  0.00     0.049 A 
ATOM     47  H   UNL A   1      41.576  29.508  28.982  1.00  0.00     0.167 HD
ATOM     48  C   UNL A   1      45.705  29.148  27.506  1.00  0.00     0.034 A 
ATOM     49  C   UNL A   1      39.450  30.810  30.249  1.00  0.00     0.034 A 
ATOM     50  C   UNL A   1      45.580  30.509  27.965  1.00  0.00     0.049 A 
ATOM     51  C   UNL A   1      40.574  31.811  30.165  1.00  0.00     0.074 A 
ATOM     52  C   UNL A   1      46.520  31.525  27.931  1.00  0.00     0.029 A 
ATOM     53  N   UNL A   1      44.437  31.050  28.545  1.00  0.00    -0.354 N 
ATOM     54  N   UNL A   1      41.788  31.651  29.691  1.00  0.00    -0.248 NA
ATOM     55  C   UNL A   1      40.294  33.162  30.663  1.00  0.00     0.031 C 
ATOM     56  C   UNL A   1      45.968  32.659  28.540  1.00  0.00     0.029 A 
ATOM     57  C   UNL A   1      44.655  32.377  28.886  1.00  0.00     0.049 A 
ATOM     58  H   UNL A   1      43.595  30.562  28.693  1.00  0.00     0.167 HD
ATOM     59  C   UNL A   1      42.407  32.893  29.806  1.00  0.00     0.074 A 
ATOM     60  C   UNL A   1      41.424  33.792  30.378  1.00  0.00     0.031 C 
ATOM     61  C   UNL A   1      43.670  33.260  29.466  1.00  0.00     0.034 A 
BRANCH  48  62
ATOM     62  C   UNL A   1      47.025  28.676  26.939  1.00  0.00     0.023 A 
ATOM     63  C   UNL A   1      47.211  28.501  25.554  1.00  0.00     0.031 A 
ATOM     64  C   UNL A   1      48.094  28.342  27.788  1.00  0.00     0.131 A 
ATOM     65  C   UNL A   1      48.391  27.917  25.071  1.00  0.00     0.055 A 
ATOM     66  C   UNL A   1      49.304  27.848  27.292  1.00  0.00     0.041 A 
ATOM     67  F   UNL A   1      47.976  28.467  29.119  1.00  0.00    -0.206 F 
ATOM     68  C   UNL A   1      49.450  27.613  25.928  1.00  0.00     0.022 A 
BRANCH  65  69
ATOM     69  S   UNL A   1      48.449  27.400  23.334  1.00  0.00     0.124 S 
ATOM     70  O   UNL A   1      49.779  27.859  22.936  1.00  0.00    -0.237 OA
ATOM     71  O   UNL A   1      48.274  25.956  23.427  1.00  0.00    -0.237 OA
ATOM     72  O   UNL A   1      47.339  28.127  22.721  1.00  0.00    -0.744 OA
ENDBRANCH  65  69
ENDBRANCH  48  62
BRANCH  49  73
ATOM     73  C   UNL A   1      38.155  31.165  30.896  1.00  0.00     0.023 A 
ATOM     74  C   UNL A   1      37.154  31.854  30.194  1.00  0.00     0.031 A 
ATOM     75  C   UNL A   1      37.911  30.839  32.242  1.00  0.00     0.131 A 
ATOM     76  C   UNL A   1      35.973  32.233  30.852  1.00  0.00     0.055 A 
ATOM     77  C   UNL A   1      36.716  31.174  32.878  1.00  0.00     0.041 A 
ATOM     78  F   UNL A   1      38.832  30.171  32.956  1.00  0.00    -0.206 F 
ATOM     79  C   UNL A   1      35.742  31.887  32.184  1.00  0.00     0.022 A 
BRANCH  76  80
ATOM     80  S   UNL A   1      34.767  33.248  29.955  1.00  0.00     0.124 S 
ATOM     81  O   UNL A   1      35.632  34.192  29.256  1.00  0.00    -0.237 OA
ATOM     82  O   UNL A   1      34.095  32.256  29.123  1.00  0.00    -0.237 OA
ATOM     83  O   UNL A   1      33.946  33.821  31.021  1.00  0.00    -0.744 OA
ENDBRANCH  76  80
ENDBRANCH  49  73
BRANCH  61  84
ATOM     84  C   UNL A   1      44.036  34.712  29.659  1.00  0.00     0.023 A 
ATOM     85  C   UNL A   1      43.768  35.683  28.678  1.00  0.00     0.031 A 
ATOM     86  C   UNL A   1      44.688  35.124  30.835  1.00  0.00     0.131 A 
ATOM     87  C   UNL A   1      44.208  37.003  28.862  1.00  0.00     0.055 A 
ATOM     88  C   UNL A   1      45.067  36.452  31.039  1.00  0.00     0.041 A 
ATOM     89  F   UNL A   1      44.971  34.240  31.806  1.00  0.00    -0.206 F 
ATOM     90  C   UNL A   1      44.843  37.396  30.043  1.00  0.00     0.022 A 
BRANCH  87  91
ATOM     91  S   UNL A   1      44.041  38.175  27.488  1.00  0.00     0.124 S 
ATOM     92  O   UNL A   1      42.894  37.635  26.763  1.00  0.00    -0.237 OA
ATOM     93  O   UNL A   1      43.817  39.439  28.183  1.00  0.00    -0.237 OA
ATOM     94  O   UNL A   1      45.320  38.070  26.789  1.00  0.00    -0.744 OA
ENDBRANCH  87  91
ENDBRANCH  61  84
ENDBRANCH  35  36
ENDBRANCH  27  30
ENDBRANCH  25  26
ENDBRANCH   1  25
TORSDOF 16
ENDMDL
