MODEL 1
REMARK VINA RESULT:     -12.9      0.000      0.000
REMARK SMILES O=C1CCCC2=C1[C@H](c1ccc([N+](=O)[O-])cc1)CC(=O)N2c1ccccc1C(=O)NCCCNC(=O)c1ccc(-c2c3nc(c(-c4cc(S(=O)(=O)[O-])ccc4F)c4ccc([nH]4)c(-c4cc(S(=O)(=O)[O-])ccc4F)c4nc(c(-c5cc(S(=O)(=O)[O-])ccc5F)c5ccc2[nH]5)C=C4)C=C3)cc1
REMARK SMILES IDX 32 1 31 2 30 3 28 4 29 5 27 7 22 8 23 9 24 10 26 11 25 12
REMARK SMILES IDX 21 13 1 14 2 15 3 16 7 17 4 18 6 19 8 20 5 21 18 22 19 23
REMARK SMILES IDX 20 24 9 25 10 26 17 27 11 28 16 29 12 30 13 31 14 32 15 33
REMARK SMILES IDX 33 34 34 35 35 36 36 38 37 39 38 40 99 41 39 42 98 43 40 44
REMARK SMILES IDX 41 45 42 46 92 47 43 48 97 49 91 50 93 51 44 52 96 53 90 54
REMARK SMILES IDX 89 55 45 57 77 58 57 59 76 60 58 61 61 62 75 63 94 64 59 65
REMARK SMILES IDX 60 66 74 68 95 69 62 70 46 71 47 72 55 73 48 74 54 75 56 76
REMARK SMILES IDX 53 77 49 78 50 79 51 80 52 81 78 82 79 83 87 84 80 85 86 86
REMARK SMILES IDX 88 87 85 88 81 89 82 90 83 91 84 92 63 93 64 94 72 95 65 96
REMARK SMILES IDX 71 97 73 98 70 99 66 100 67 101 68 102 69 103
REMARK H PARENT 30 6 34 37 93 56 61 67
REMARK Flexibility Score: inf
ROOT
ATOM      1  C   UNL A   1      38.666  22.037  25.835  1.00  0.00     0.042 C 
ENDROOT
BRANCH   1   2
ATOM      2  C   UNL A   1      37.453  22.686  25.156  1.00  0.00     0.118 C 
BRANCH   2   3
ATOM      3  N   UNL A   1      36.324  22.976  26.017  1.00  0.00    -0.352 N 
ATOM      4  C   UNL A   1      35.024  22.547  26.151  1.00  0.00     0.253 C 
ATOM      5  O   UNL A   1      34.535  22.964  27.216  1.00  0.00    -0.269 OA
ATOM      6  H   UNL A   1      36.547  23.665  26.684  1.00  0.00     0.163 HD
BRANCH   4   7
ATOM      7  C   UNL A   1      34.114  21.683  25.274  1.00  0.00     0.063 A 
ATOM      8  C   UNL A   1      32.974  21.916  24.469  1.00  0.00     0.061 A 
ATOM      9  C   UNL A   1      32.376  20.826  23.756  1.00  0.00     0.027 A 
ATOM     10  C   UNL A   1      32.815  19.516  23.849  1.00  0.00     0.002 A 
ATOM     11  C   UNL A   1      34.521  20.308  25.337  1.00  0.00     0.016 A 
ATOM     12  C   UNL A   1      33.893  19.252  24.658  1.00  0.00     0.001 A 
BRANCH   8  13
ATOM     13  N   UNL A   1      32.267  23.143  24.248  1.00  0.00    -0.284 N 
ATOM     14  O   UNL A   1      31.204  26.903  21.608  1.00  0.00    -0.294 OA
ATOM     15  C   UNL A   1      31.898  25.899  21.768  1.00  0.00     0.161 C 
ATOM     16  C   UNL A   1      32.903  25.448  20.728  1.00  0.00     0.081 C 
ATOM     17  C   UNL A   1      31.791  25.116  23.034  1.00  0.00     0.023 C 
ATOM     18  C   UNL A   1      32.833  23.950  20.527  1.00  0.00     0.015 C 
ATOM     19  C   UNL A   1      32.312  23.866  23.051  1.00  0.00     0.033 C 
ATOM     20  C   UNL A   1      31.004  25.697  24.217  1.00  0.00     0.064 C 
ATOM     21  C   UNL A   1      32.937  23.184  21.843  1.00  0.00     0.055 C 
ATOM     22  C   UNL A   1      30.304  24.521  24.873  1.00  0.00     0.114 C 
ATOM     23  C   UNL A   1      31.336  23.489  25.264  1.00  0.00     0.232 C 
ATOM     24  O   UNL A   1      31.277  22.963  26.378  1.00  0.00    -0.274 OA
BRANCH  20  25
ATOM     25  C   UNL A   1      31.808  26.532  25.227  1.00  0.00    -0.039 A 
ATOM     26  C   UNL A   1      33.218  26.498  25.392  1.00  0.00     0.011 A 
ATOM     27  C   UNL A   1      31.105  27.381  26.067  1.00  0.00     0.011 A 
ATOM     28  C   UNL A   1      33.910  27.399  26.221  1.00  0.00     0.086 A 
ATOM     29  C   UNL A   1      31.797  28.258  26.901  1.00  0.00     0.086 A 
ATOM     30  C   UNL A   1      33.182  28.329  26.930  1.00  0.00     0.269 A 
BRANCH  30  31
ATOM     31  N   UNL A   1      33.823  29.498  27.535  1.00  0.00     0.062 N 
ATOM     32  O   UNL A   1      33.159  30.537  27.627  1.00  0.00    -0.258 OA
ATOM     33  O   UNL A   1      34.965  29.339  27.998  1.00  0.00    -0.258 OA
ENDBRANCH  30  31
ENDBRANCH  20  25
ENDBRANCH   8  13
ENDBRANCH   4   7
ENDBRANCH   2   3
ENDBRANCH   1   2
BRANCH   1  34
ATOM     34  C   UNL A   1      38.943  20.510  25.751  1.00  0.00     0.118 C 
BRANCH  34  35
ATOM     35  N   UNL A   1      40.291  19.970  25.983  1.00  0.00    -0.352 N 
ATOM     36  C   UNL A   1      41.466  20.382  26.601  1.00  0.00     0.251 C 
ATOM     37  H   UNL A   1      40.389  19.072  25.592  1.00  0.00     0.163 HD
ATOM     38  O   UNL A   1      42.312  19.504  26.794  1.00  0.00    -0.269 OA
BRANCH  36  39
ATOM     39  C   UNL A   1      41.825  21.787  26.964  1.00  0.00     0.039 A 
ATOM     40  C   UNL A   1      41.984  22.748  25.936  1.00  0.00     0.014 A 
ATOM     41  C   UNL A   1      41.916  22.231  28.273  1.00  0.00     0.014 A 
ATOM     42  C   UNL A   1      42.115  24.135  26.216  1.00  0.00     0.010 A 
ATOM     43  C   UNL A   1      41.929  23.618  28.536  1.00  0.00     0.010 A 
ATOM     44  C   UNL A   1      42.051  24.613  27.531  1.00  0.00    -0.014 A 
BRANCH  44  45
ATOM     45  C   UNL A   1      42.227  26.075  27.929  1.00  0.00     0.031 A 
ATOM     46  C   UNL A   1      43.626  26.673  27.833  1.00  0.00     0.074 A 
ATOM     47  C   UNL A   1      41.265  26.882  28.450  1.00  0.00     0.049 A 
ATOM     48  N   UNL A   1      44.121  27.763  28.370  1.00  0.00    -0.248 NA
ATOM     49  C   UNL A   1      44.630  25.855  27.137  1.00  0.00     0.031 C 
ATOM     50  C   UNL A   1      39.870  26.527  28.716  1.00  0.00     0.029 A 
ATOM     51  N   UNL A   1      41.337  28.200  28.875  1.00  0.00    -0.354 N 
ATOM     52  C   UNL A   1      45.495  27.670  28.167  1.00  0.00     0.074 A 
ATOM     53  C   UNL A   1      45.742  26.344  27.652  1.00  0.00     0.031 C 
ATOM     54  C   UNL A   1      39.223  27.597  29.223  1.00  0.00     0.029 A 
ATOM     55  C   UNL A   1      40.149  28.722  29.351  1.00  0.00     0.049 A 
ATOM     56  H   UNL A   1      42.171  28.724  28.840  1.00  0.00     0.167 HD
ATOM     57  C   UNL A   1      46.469  28.612  28.276  1.00  0.00     0.034 A 
ATOM     58  C   UNL A   1      39.839  29.955  29.824  1.00  0.00     0.034 A 
ATOM     59  C   UNL A   1      46.220  29.979  28.644  1.00  0.00     0.049 A 
ATOM     60  C   UNL A   1      40.906  31.036  29.886  1.00  0.00     0.074 A 
ATOM     61  C   UNL A   1      47.111  31.038  28.686  1.00  0.00     0.029 A 
ATOM     62  N   UNL A   1      44.980  30.487  29.000  1.00  0.00    -0.354 N 
ATOM     63  N   UNL A   1      42.190  30.955  29.620  1.00  0.00    -0.248 NA
ATOM     64  C   UNL A   1      40.473  32.385  30.289  1.00  0.00     0.031 C 
ATOM     65  C   UNL A   1      46.417  32.177  29.109  1.00  0.00     0.029 A 
ATOM     66  C   UNL A   1      45.081  31.843  29.258  1.00  0.00     0.049 A 
ATOM     67  H   UNL A   1      44.150  29.960  29.061  1.00  0.00     0.167 HD
ATOM     68  C   UNL A   1      42.696  32.249  29.767  1.00  0.00     0.074 A 
ATOM     69  C   UNL A   1      41.584  33.091  30.142  1.00  0.00     0.031 C 
ATOM     70  C   UNL A   1      43.967  32.697  29.598  1.00  0.00     0.034 A 
BRANCH  57  71
ATOM     71  C   UNL A   1      47.880  28.181  27.929  1.00  0.00     0.023 A 
ATOM     72  C   UNL A   1      48.411  28.391  26.642  1.00  0.00     0.031 A 
ATOM     73  C   UNL A   1      48.665  27.470  28.851  1.00  0.00     0.131 A 
ATOM     74  C   UNL A   1      49.601  27.756  26.263  1.00  0.00     0.055 A 
ATOM     75  C   UNL A   1      49.916  26.954  28.504  1.00  0.00     0.041 A 
ATOM     76  F   UNL A   1      48.219  27.235  30.095  1.00  0.00    -0.206 F 
ATOM     77  C   UNL A   1      50.376  27.066  27.193  1.00  0.00     0.022 A 
BRANCH  74  78
ATOM     78  S   UNL A   1      49.987  27.656  24.492  1.00  0.00     0.124 S 
ATOM     79  O   UNL A   1      50.902  28.785  24.328  1.00  0.00    -0.237 OA
ATOM     80  O   UNL A   1      50.584  26.331  24.371  1.00  0.00    -0.237 OA
ATOM     81  O   UNL A   1      48.686  27.819  23.848  1.00  0.00    -0.744 OA
ENDBRANCH  74  78
ENDBRANCH  57  71
BRANCH  58  82
ATOM     82  C   UNL A   1      38.443  30.293  30.266  1.00  0.00     0.023 A 
ATOM     83  C   UNL A   1      37.650  31.207  29.544  1.00  0.00     0.031 A 
ATOM     84  C   UNL A   1      37.917  29.789  31.468  1.00  0.00     0.131 A 
ATOM     85  C   UNL A   1      36.408  31.628  30.054  1.00  0.00     0.055 A 
ATOM     86  C   UNL A   1      36.658  30.171  31.946  1.00  0.00     0.041 A 
ATOM     87  F   UNL A   1      38.626  28.920  32.206  1.00  0.00    -0.206 F 
ATOM     88  C   UNL A   1      35.902  31.106  31.244  1.00  0.00     0.022 A 
BRANCH  85  89
ATOM     89  S   UNL A   1      35.496  32.937  29.183  1.00  0.00     0.124 S 
ATOM     90  O   UNL A   1      36.197  34.135  29.629  1.00  0.00    -0.237 OA
ATOM     91  O   UNL A   1      35.688  32.563  27.786  1.00  0.00    -0.237 OA
ATOM     92  O   UNL A   1      34.129  32.790  29.679  1.00  0.00    -0.744 OA
ENDBRANCH  85  89
ENDBRANCH  58  82
BRANCH  70  93
ATOM     93  C   UNL A   1      44.222  34.184  29.706  1.00  0.00     0.023 A 
ATOM     94  C   UNL A   1      44.041  35.063  28.624  1.00  0.00     0.031 A 
ATOM     95  C   UNL A   1      44.646  34.732  30.933  1.00  0.00     0.131 A 
ATOM     96  C   UNL A   1      44.336  36.428  28.773  1.00  0.00     0.055 A 
ATOM     97  C   UNL A   1      44.873  36.099  31.093  1.00  0.00     0.041 A 
ATOM     98  F   UNL A   1      44.837  33.944  32.003  1.00  0.00    -0.206 F 
ATOM     99  C   UNL A   1      44.733  36.954  30.005  1.00  0.00     0.022 A 
BRANCH  96 100
ATOM    100  S   UNL A   1      44.298  37.495  27.305  1.00  0.00     0.124 S 
ATOM    101  O   UNL A   1      44.278  38.829  27.898  1.00  0.00    -0.237 OA
ATOM    102  O   UNL A   1      45.529  37.121  26.617  1.00  0.00    -0.237 OA
ATOM    103  O   UNL A   1      43.065  37.100  26.627  1.00  0.00    -0.744 OA
ENDBRANCH  96 100
ENDBRANCH  70  93
ENDBRANCH  44  45
ENDBRANCH  36  39
ENDBRANCH  34  35
ENDBRANCH   1  34
TORSDOF 16
ENDMDL
MODEL 2
REMARK VINA RESULT:     -12.8      2.033      7.466
REMARK SMILES O=C1CCCC2=C1[C@H](c1ccc([N+](=O)[O-])cc1)CC(=O)N2c1ccccc1C(=O)NCCCNC(=O)c1ccc(-c2c3nc(c(-c4cc(S(=O)(=O)[O-])ccc4F)c4ccc([nH]4)c(-c4cc(S(=O)(=O)[O-])ccc4F)c4nc(c(-c5cc(S(=O)(=O)[O-])ccc5F)c5ccc2[nH]5)C=C4)C=C3)cc1
REMARK SMILES IDX 32 1 31 2 30 3 28 4 29 5 27 7 22 8 23 9 24 10 26 11 25 12
REMARK SMILES IDX 21 13 1 14 2 15 3 16 7 17 4 18 6 19 8 20 5 21 18 22 19 23
REMARK SMILES IDX 20 24 9 25 10 26 17 27 11 28 16 29 12 30 13 31 14 32 15 33
REMARK SMILES IDX 33 34 34 35 35 36 36 38 37 39 38 40 99 41 39 42 98 43 40 44
REMARK SMILES IDX 41 45 42 46 92 47 43 48 97 49 91 50 93 51 44 52 96 53 90 54
REMARK SMILES IDX 89 55 45 57 77 58 57 59 76 60 58 61 61 62 75 63 94 64 59 65
REMARK SMILES IDX 60 66 74 68 95 69 62 70 46 71 47 72 55 73 48 74 54 75 56 76
REMARK SMILES IDX 53 77 49 78 50 79 51 80 52 81 78 82 79 83 87 84 80 85 86 86
REMARK SMILES IDX 88 87 85 88 81 89 82 90 83 91 84 92 63 93 64 94 72 95 65 96
REMARK SMILES IDX 71 97 73 98 70 99 66 100 67 101 68 102 69 103
REMARK H PARENT 30 6 34 37 93 56 61 67
REMARK Flexibility Score: inf
ROOT
ATOM      1  C   UNL A   1      38.705  21.303  25.860  1.00  0.00     0.042 C 
ENDROOT
BRANCH   1   2
ATOM      2  C   UNL A   1      37.803  22.111  24.917  1.00  0.00     0.118 C 
BRANCH   2   3
ATOM      3  N   UNL A   1      36.726  22.849  25.547  1.00  0.00    -0.352 N 
ATOM      4  C   UNL A   1      35.366  22.715  25.692  1.00  0.00     0.253 C 
ATOM      5  O   UNL A   1      34.934  23.525  26.532  1.00  0.00    -0.269 OA
ATOM      6  H   UNL A   1      37.058  23.664  25.989  1.00  0.00     0.163 HD
BRANCH   4   7
ATOM      7  C   UNL A   1      34.333  21.789  25.045  1.00  0.00     0.063 A 
ATOM      8  C   UNL A   1      33.079  21.964  24.413  1.00  0.00     0.061 A 
ATOM      9  C   UNL A   1      32.380  20.823  23.896  1.00  0.00     0.027 A 
ATOM     10  C   UNL A   1      32.834  19.522  24.029  1.00  0.00     0.002 A 
ATOM     11  C   UNL A   1      34.750  20.420  25.158  1.00  0.00     0.016 A 
ATOM     12  C   UNL A   1      34.027  19.317  24.678  1.00  0.00     0.001 A 
BRANCH   8  13
ATOM     13  N   UNL A   1      32.340  23.174  24.203  1.00  0.00    -0.284 N 
ATOM     14  O   UNL A   1      31.142  26.903  21.578  1.00  0.00    -0.294 OA
ATOM     15  C   UNL A   1      31.861  25.915  21.727  1.00  0.00     0.161 C 
ATOM     16  C   UNL A   1      32.855  25.485  20.667  1.00  0.00     0.081 C 
ATOM     17  C   UNL A   1      31.796  25.133  22.995  1.00  0.00     0.023 C 
ATOM     18  C   UNL A   1      32.815  23.985  20.470  1.00  0.00     0.015 C 
ATOM     19  C   UNL A   1      32.346  23.895  23.004  1.00  0.00     0.033 C 
ATOM     20  C   UNL A   1      31.019  25.699  24.192  1.00  0.00     0.064 C 
ATOM     21  C   UNL A   1      32.962  23.225  21.786  1.00  0.00     0.055 C 
ATOM     22  C   UNL A   1      30.359  24.509  24.864  1.00  0.00     0.114 C 
ATOM     23  C   UNL A   1      31.421  23.502  25.237  1.00  0.00     0.232 C 
ATOM     24  O   UNL A   1      31.396  22.977  26.352  1.00  0.00    -0.274 OA
BRANCH  20  25
ATOM     25  C   UNL A   1      31.824  26.554  25.185  1.00  0.00    -0.039 A 
ATOM     26  C   UNL A   1      33.229  26.758  25.152  1.00  0.00     0.011 A 
ATOM     27  C   UNL A   1      31.132  27.168  26.217  1.00  0.00     0.011 A 
ATOM     28  C   UNL A   1      33.886  27.677  25.990  1.00  0.00     0.086 A 
ATOM     29  C   UNL A   1      31.794  28.063  27.057  1.00  0.00     0.086 A 
ATOM     30  C   UNL A   1      33.135  28.379  26.907  1.00  0.00     0.269 A 
BRANCH  30  31
ATOM     31  N   UNL A   1      33.664  29.575  27.568  1.00  0.00     0.062 N 
ATOM     32  O   UNL A   1      34.752  29.481  28.145  1.00  0.00    -0.258 OA
ATOM     33  O   UNL A   1      33.022  30.629  27.424  1.00  0.00    -0.258 OA
ENDBRANCH  30  31
ENDBRANCH  20  25
ENDBRANCH   8  13
ENDBRANCH   4   7
ENDBRANCH   2   3
ENDBRANCH   1   2
BRANCH   1  34
ATOM     34  C   UNL A   1      38.896  19.769  25.709  1.00  0.00     0.118 C 
BRANCH  34  35
ATOM     35  N   UNL A   1      40.233  19.160  25.788  1.00  0.00    -0.352 N 
ATOM     36  C   UNL A   1      41.497  19.522  26.238  1.00  0.00     0.251 C 
ATOM     37  H   UNL A   1      40.233  18.247  25.420  1.00  0.00     0.163 HD
ATOM     38  O   UNL A   1      42.314  18.603  26.353  1.00  0.00    -0.269 OA
BRANCH  36  39
ATOM     39  C   UNL A   1      41.973  20.914  26.503  1.00  0.00     0.039 A 
ATOM     40  C   UNL A   1      42.277  21.300  27.831  1.00  0.00     0.014 A 
ATOM     41  C   UNL A   1      42.228  21.831  25.497  1.00  0.00     0.014 A 
ATOM     42  C   UNL A   1      42.929  22.528  28.128  1.00  0.00     0.010 A 
ATOM     43  C   UNL A   1      42.978  22.991  25.789  1.00  0.00     0.010 A 
ATOM     44  C   UNL A   1      43.334  23.394  27.103  1.00  0.00    -0.014 A 
BRANCH  44  45
ATOM     45  C   UNL A   1      43.997  24.749  27.328  1.00  0.00     0.031 A 
ATOM     46  C   UNL A   1      43.144  25.866  27.919  1.00  0.00     0.074 A 
ATOM     47  C   UNL A   1      45.262  25.088  26.968  1.00  0.00     0.049 A 
ATOM     48  N   UNL A   1      43.342  27.163  27.941  1.00  0.00    -0.248 NA
ATOM     49  C   UNL A   1      41.829  25.465  28.440  1.00  0.00     0.031 C 
ATOM     50  C   UNL A   1      46.251  24.227  26.316  1.00  0.00     0.029 A 
ATOM     51  N   UNL A   1      45.935  26.295  27.094  1.00  0.00    -0.354 N 
ATOM     52  C   UNL A   1      42.131  27.704  28.363  1.00  0.00     0.074 A 
ATOM     53  C   UNL A   1      41.182  26.614  28.379  1.00  0.00     0.031 C 
ATOM     54  C   UNL A   1      47.395  24.917  26.131  1.00  0.00     0.029 A 
ATOM     55  C   UNL A   1      47.235  26.286  26.623  1.00  0.00     0.049 A 
ATOM     56  H   UNL A   1      45.519  27.095  27.488  1.00  0.00     0.167 HD
ATOM     57  C   UNL A   1      41.830  28.950  28.813  1.00  0.00     0.034 A 
ATOM     58  C   UNL A   1      48.184  27.255  26.597  1.00  0.00     0.034 A 
ATOM     59  C   UNL A   1      42.796  30.007  28.945  1.00  0.00     0.049 A 
ATOM     60  C   UNL A   1      47.878  28.633  27.160  1.00  0.00     0.074 A 
ATOM     61  C   UNL A   1      42.625  31.270  29.482  1.00  0.00     0.029 A 
ATOM     62  N   UNL A   1      44.126  29.910  28.566  1.00  0.00    -0.354 N 
ATOM     63  N   UNL A   1      46.746  29.110  27.626  1.00  0.00    -0.248 NA
ATOM     64  C   UNL A   1      48.990  29.598  27.216  1.00  0.00     0.031 C 
ATOM     65  C   UNL A   1      43.843  31.953  29.390  1.00  0.00     0.029 A 
ATOM     66  C   UNL A   1      44.789  31.089  28.863  1.00  0.00     0.049 A 
ATOM     67  H   UNL A   1      44.538  29.120  28.148  1.00  0.00     0.167 HD
ATOM     68  C   UNL A   1      47.031  30.401  28.080  1.00  0.00     0.074 A 
ATOM     69  C   UNL A   1      48.436  30.629  27.837  1.00  0.00     0.031 C 
ATOM     70  C   UNL A   1      46.200  31.309  28.655  1.00  0.00     0.034 A 
BRANCH  57  71
ATOM     71  C   UNL A   1      40.398  29.194  29.246  1.00  0.00     0.023 A 
ATOM     72  C   UNL A   1      40.033  29.171  30.606  1.00  0.00     0.031 A 
ATOM     73  C   UNL A   1      39.374  29.352  28.298  1.00  0.00     0.131 A 
ATOM     74  C   UNL A   1      38.680  29.132  30.968  1.00  0.00     0.055 A 
ATOM     75  C   UNL A   1      38.033  29.449  28.677  1.00  0.00     0.041 A 
ATOM     76  F   UNL A   1      39.652  29.383  26.985  1.00  0.00    -0.206 F 
ATOM     77  C   UNL A   1      37.676  29.305  30.017  1.00  0.00     0.022 A 
BRANCH  74  78
ATOM     78  S   UNL A   1      38.264  28.621  32.659  1.00  0.00     0.124 S 
ATOM     79  O   UNL A   1      36.949  29.235  32.834  1.00  0.00    -0.237 OA
ATOM     80  O   UNL A   1      38.279  27.166  32.564  1.00  0.00    -0.237 OA
ATOM     81  O   UNL A   1      39.331  29.208  33.466  1.00  0.00    -0.744 OA
ENDBRANCH  74  78
ENDBRANCH  57  71
BRANCH  58  82
ATOM     82  C   UNL A   1      49.557  26.988  26.046  1.00  0.00     0.023 A 
ATOM     83  C   UNL A   1      49.895  27.348  24.726  1.00  0.00     0.031 A 
ATOM     84  C   UNL A   1      50.517  26.283  26.790  1.00  0.00     0.131 A 
ATOM     85  C   UNL A   1      51.129  26.955  24.176  1.00  0.00     0.055 A 
ATOM     86  C   UNL A   1      51.764  25.938  26.257  1.00  0.00     0.041 A 
ATOM     87  F   UNL A   1      50.252  25.905  28.051  1.00  0.00    -0.206 F 
ATOM     88  C   UNL A   1      52.071  26.263  24.938  1.00  0.00     0.022 A 
BRANCH  85  89
ATOM     89  S   UNL A   1      51.456  27.284  22.419  1.00  0.00     0.124 S 
ATOM     90  O   UNL A   1      52.665  26.503  22.190  1.00  0.00    -0.237 OA
ATOM     91  O   UNL A   1      50.239  26.786  21.786  1.00  0.00    -0.237 OA
ATOM     92  O   UNL A   1      51.629  28.735  22.370  1.00  0.00    -0.744 OA
ENDBRANCH  85  89
ENDBRANCH  58  82
BRANCH  70  93
ATOM     93  C   UNL A   1      46.798  32.601  29.168  1.00  0.00     0.023 A 
ATOM     94  C   UNL A   1      46.866  33.766  28.384  1.00  0.00     0.031 A 
ATOM     95  C   UNL A   1      47.301  32.664  30.482  1.00  0.00     0.131 A 
ATOM     96  C   UNL A   1      47.473  34.923  28.900  1.00  0.00     0.055 A 
ATOM     97  C   UNL A   1      47.842  33.837  31.011  1.00  0.00     0.041 A 
ATOM     98  F   UNL A   1      47.265  31.585  31.280  1.00  0.00    -0.206 F 
ATOM     99  C   UNL A   1      47.945  34.971  30.214  1.00  0.00     0.022 A 
BRANCH  96 100
ATOM    100  S   UNL A   1      47.737  36.338  27.793  1.00  0.00     0.124 S 
ATOM    101  O   UNL A   1      46.758  37.300  28.290  1.00  0.00    -0.237 OA
ATOM    102  O   UNL A   1      49.137  36.667  28.038  1.00  0.00    -0.237 OA
ATOM    103  O   UNL A   1      47.452  35.793  26.467  1.00  0.00    -0.744 OA
ENDBRANCH  96 100
ENDBRANCH  70  93
ENDBRANCH  44  45
ENDBRANCH  36  39
ENDBRANCH  34  35
ENDBRANCH   1  34
TORSDOF 16
ENDMDL
MODEL 3
REMARK VINA RESULT:     -12.5      2.093      2.550
REMARK SMILES O=C1CCCC2=C1[C@H](c1ccc([N+](=O)[O-])cc1)CC(=O)N2c1ccccc1C(=O)NCCCNC(=O)c1ccc(-c2c3nc(c(-c4cc(S(=O)(=O)[O-])ccc4F)c4ccc([nH]4)c(-c4cc(S(=O)(=O)[O-])ccc4F)c4nc(c(-c5cc(S(=O)(=O)[O-])ccc5F)c5ccc2[nH]5)C=C4)C=C3)cc1
REMARK SMILES IDX 32 1 31 2 30 3 28 4 29 5 27 7 22 8 23 9 24 10 26 11 25 12
REMARK SMILES IDX 21 13 1 14 2 15 3 16 7 17 4 18 6 19 8 20 5 21 18 22 19 23
REMARK SMILES IDX 20 24 9 25 10 26 17 27 11 28 16 29 12 30 13 31 14 32 15 33
REMARK SMILES IDX 33 34 34 35 35 36 36 38 37 39 38 40 99 41 39 42 98 43 40 44
REMARK SMILES IDX 41 45 42 46 92 47 43 48 97 49 91 50 93 51 44 52 96 53 90 54
REMARK SMILES IDX 89 55 45 57 77 58 57 59 76 60 58 61 61 62 75 63 94 64 59 65
REMARK SMILES IDX 60 66 74 68 95 69 62 70 46 71 47 72 55 73 48 74 54 75 56 76
REMARK SMILES IDX 53 77 49 78 50 79 51 80 52 81 78 82 79 83 87 84 80 85 86 86
REMARK SMILES IDX 88 87 85 88 81 89 82 90 83 91 84 92 63 93 64 94 72 95 65 96
REMARK SMILES IDX 71 97 73 98 70 99 66 100 67 101 68 102 69 103
REMARK H PARENT 30 6 34 37 93 56 61 67
REMARK Flexibility Score: inf
ROOT
ATOM      1  C   UNL A   1      39.140  23.265  26.637  1.00  0.00     0.042 C 
ENDROOT
BRANCH   1   2
ATOM      2  C   UNL A   1      37.673  23.611  26.349  1.00  0.00     0.118 C 
BRANCH   2   3
ATOM      3  N   UNL A   1      37.297  23.662  24.949  1.00  0.00    -0.352 N 
ATOM      4  C   UNL A   1      36.296  23.151  24.158  1.00  0.00     0.253 C 
ATOM      5  O   UNL A   1      36.308  23.690  23.037  1.00  0.00    -0.269 OA
ATOM      6  H   UNL A   1      37.928  24.207  24.426  1.00  0.00     0.163 HD
BRANCH   4   7
ATOM      7  C   UNL A   1      35.213  22.095  24.395  1.00  0.00     0.063 A 
ATOM      8  C   UNL A   1      33.800  22.098  24.459  1.00  0.00     0.061 A 
ATOM      9  C   UNL A   1      33.099  20.869  24.693  1.00  0.00     0.027 A 
ATOM     10  C   UNL A   1      33.730  19.659  24.925  1.00  0.00     0.002 A 
ATOM     11  C   UNL A   1      35.812  20.815  24.647  1.00  0.00     0.016 A 
ATOM     12  C   UNL A   1      35.103  19.634  24.912  1.00  0.00     0.001 A 
BRANCH   8  13
ATOM     13  N   UNL A   1      32.898  23.204  24.332  1.00  0.00    -0.284 N 
ATOM     14  O   UNL A   1      30.984  26.738  21.865  1.00  0.00    -0.294 OA
ATOM     15  C   UNL A   1      31.834  25.849  21.935  1.00  0.00     0.161 C 
ATOM     16  C   UNL A   1      32.764  25.542  20.779  1.00  0.00     0.081 C 
ATOM     17  C   UNL A   1      31.994  25.072  23.198  1.00  0.00     0.023 C 
ATOM     18  C   UNL A   1      32.894  24.048  20.576  1.00  0.00     0.015 C 
ATOM     19  C   UNL A   1      32.693  23.913  23.144  1.00  0.00     0.033 C 
ATOM     20  C   UNL A   1      31.275  25.542  24.470  1.00  0.00     0.064 C 
ATOM     21  C   UNL A   1      33.265  23.319  21.866  1.00  0.00     0.055 C 
ATOM     22  C   UNL A   1      30.840  24.283  25.195  1.00  0.00     0.114 C 
ATOM     23  C   UNL A   1      32.052  23.419  25.454  1.00  0.00     0.232 C 
ATOM     24  O   UNL A   1      32.204  22.901  26.563  1.00  0.00    -0.274 OA
BRANCH  20  25
ATOM     25  C   UNL A   1      32.060  26.497  25.384  1.00  0.00    -0.039 A 
ATOM     26  C   UNL A   1      33.445  26.791  25.279  1.00  0.00     0.011 A 
ATOM     27  C   UNL A   1      31.371  27.117  26.415  1.00  0.00     0.011 A 
ATOM     28  C   UNL A   1      34.073  27.793  26.043  1.00  0.00     0.086 A 
ATOM     29  C   UNL A   1      32.005  28.094  27.181  1.00  0.00     0.086 A 
ATOM     30  C   UNL A   1      33.314  28.489  26.957  1.00  0.00     0.269 A 
BRANCH  30  31
ATOM     31  N   UNL A   1      33.787  29.749  27.536  1.00  0.00     0.062 N 
ATOM     32  O   UNL A   1      34.962  29.803  27.917  1.00  0.00    -0.258 OA
ATOM     33  O   UNL A   1      32.998  30.708  27.520  1.00  0.00    -0.258 OA
ENDBRANCH  30  31
ENDBRANCH  20  25
ENDBRANCH   8  13
ENDBRANCH   4   7
ENDBRANCH   2   3
ENDBRANCH   1   2
BRANCH   1  34
ATOM     34  C   UNL A   1      39.757  21.891  26.253  1.00  0.00     0.118 C 
BRANCH  34  35
ATOM     35  N   UNL A   1      41.076  21.807  25.607  1.00  0.00    -0.352 N 
ATOM     36  C   UNL A   1      42.287  22.485  25.663  1.00  0.00     0.251 C 
ATOM     37  H   UNL A   1      41.109  21.068  24.958  1.00  0.00     0.163 HD
ATOM     38  O   UNL A   1      43.247  21.925  25.124  1.00  0.00    -0.269 OA
BRANCH  36  39
ATOM     39  C   UNL A   1      42.507  23.852  26.227  1.00  0.00     0.039 A 
ATOM     40  C   UNL A   1      42.361  24.980  25.383  1.00  0.00     0.014 A 
ATOM     41  C   UNL A   1      42.752  24.087  27.569  1.00  0.00     0.014 A 
ATOM     42  C   UNL A   1      42.348  26.307  25.894  1.00  0.00     0.010 A 
ATOM     43  C   UNL A   1      42.620  25.396  28.081  1.00  0.00     0.010 A 
ATOM     44  C   UNL A   1      42.438  26.548  27.271  1.00  0.00    -0.014 A 
BRANCH  44  45
ATOM     45  C   UNL A   1      42.476  27.934  27.906  1.00  0.00     0.031 A 
ATOM     46  C   UNL A   1      43.836  28.606  28.060  1.00  0.00     0.074 A 
ATOM     47  C   UNL A   1      41.416  28.601  28.432  1.00  0.00     0.049 A 
ATOM     48  N   UNL A   1      44.202  29.618  28.811  1.00  0.00    -0.248 NA
ATOM     49  C   UNL A   1      44.958  27.956  27.366  1.00  0.00     0.031 C 
ATOM     50  C   UNL A   1      40.026  28.143  28.481  1.00  0.00     0.029 A 
ATOM     51  N   UNL A   1      41.358  29.837  29.059  1.00  0.00    -0.354 N 
ATOM     52  C   UNL A   1      45.593  29.624  28.753  1.00  0.00     0.074 A 
ATOM     53  C   UNL A   1      45.977  28.409  28.072  1.00  0.00     0.031 C 
ATOM     54  C   UNL A   1      39.262  29.087  29.069  1.00  0.00     0.029 A 
ATOM     55  C   UNL A   1      40.096  30.220  29.471  1.00  0.00     0.049 A 
ATOM     56  H   UNL A   1      42.155  30.398  29.199  1.00  0.00     0.167 HD
ATOM     57  C   UNL A   1      46.487  30.581  29.114  1.00  0.00     0.034 A 
ATOM     58  C   UNL A   1      39.659  31.346  30.089  1.00  0.00     0.034 A 
ATOM     59  C   UNL A   1      46.114  31.859  29.656  1.00  0.00     0.049 A 
ATOM     60  C   UNL A   1      40.642  32.452  30.437  1.00  0.00     0.074 A 
ATOM     61  C   UNL A   1      46.925  32.938  29.960  1.00  0.00     0.029 A 
ATOM     62  N   UNL A   1      44.813  32.244  29.943  1.00  0.00    -0.354 N 
ATOM     63  N   UNL A   1      41.949  32.475  30.308  1.00  0.00    -0.248 NA
ATOM     64  C   UNL A   1      40.083  33.698  30.990  1.00  0.00     0.031 C 
ATOM     65  C   UNL A   1      46.119  33.962  30.471  1.00  0.00     0.029 A 
ATOM     66  C   UNL A   1      44.799  33.545  30.416  1.00  0.00     0.049 A 
ATOM     67  H   UNL A   1      44.017  31.676  29.828  1.00  0.00     0.167 HD
ATOM     68  C   UNL A   1      42.353  33.752  30.707  1.00  0.00     0.074 A 
ATOM     69  C   UNL A   1      41.156  34.471  31.078  1.00  0.00     0.031 C 
ATOM     70  C   UNL A   1      43.604  34.281  30.753  1.00  0.00     0.034 A 
BRANCH  57  71
ATOM     71  C   UNL A   1      47.951  30.278  28.867  1.00  0.00     0.023 A 
ATOM     72  C   UNL A   1      48.735  29.625  29.838  1.00  0.00     0.031 A 
ATOM     73  C   UNL A   1      48.596  30.728  27.704  1.00  0.00     0.131 A 
ATOM     74  C   UNL A   1      50.129  29.592  29.708  1.00  0.00     0.055 A 
ATOM     75  C   UNL A   1      49.972  30.570  27.520  1.00  0.00     0.041 A 
ATOM     76  F   UNL A   1      47.909  31.358  26.738  1.00  0.00    -0.206 F 
ATOM     77  C   UNL A   1      50.753  30.030  28.540  1.00  0.00     0.022 A 
BRANCH  74  78
ATOM     78  S   UNL A   1      51.114  29.187  31.177  1.00  0.00     0.124 S 
ATOM     79  O   UNL A   1      50.318  29.798  32.240  1.00  0.00    -0.237 OA
ATOM     80  O   UNL A   1      51.132  27.729  31.155  1.00  0.00    -0.237 OA
ATOM     81  O   UNL A   1      52.397  29.834  30.919  1.00  0.00    -0.744 OA
ENDBRANCH  74  78
ENDBRANCH  57  71
BRANCH  58  82
ATOM     82  C   UNL A   1      38.205  31.543  30.418  1.00  0.00     0.023 A 
ATOM     83  C   UNL A   1      37.346  32.233  29.539  1.00  0.00     0.031 A 
ATOM     84  C   UNL A   1      37.676  31.136  31.654  1.00  0.00     0.131 A 
ATOM     85  C   UNL A   1      36.030  32.541  29.929  1.00  0.00     0.055 A 
ATOM     86  C   UNL A   1      36.350  31.400  32.017  1.00  0.00     0.041 A 
ATOM     87  F   UNL A   1      38.445  30.482  32.538  1.00  0.00    -0.206 F 
ATOM     88  C   UNL A   1      35.523  32.119  31.158  1.00  0.00     0.022 A 
BRANCH  85  89
ATOM     89  S   UNL A   1      35.011  33.583  28.842  1.00  0.00     0.124 S 
ATOM     90  O   UNL A   1      33.678  33.375  29.395  1.00  0.00    -0.237 OA
ATOM     91  O   UNL A   1      35.596  34.903  29.052  1.00  0.00    -0.237 OA
ATOM     92  O   UNL A   1      35.234  33.013  27.515  1.00  0.00    -0.744 OA
ENDBRANCH  85  89
ENDBRANCH  58  82
BRANCH  70  93
ATOM     93  C   UNL A   1      43.749  35.742  31.116  1.00  0.00     0.023 A 
ATOM     94  C   UNL A   1      43.740  36.765  30.152  1.00  0.00     0.031 A 
ATOM     95  C   UNL A   1      43.889  36.115  32.467  1.00  0.00     0.131 A 
ATOM     96  C   UNL A   1      43.923  38.101  30.546  1.00  0.00     0.055 A 
ATOM     97  C   UNL A   1      44.005  37.450  32.858  1.00  0.00     0.041 A 
ATOM     98  F   UNL A   1      43.906  35.185  33.435  1.00  0.00    -0.206 F 
ATOM     99  C   UNL A   1      44.038  38.451  31.893  1.00  0.00     0.022 A 
BRANCH  96 100
ATOM    100  S   UNL A   1      44.120  39.370  29.263  1.00  0.00     0.124 S 
ATOM    101  O   UNL A   1      44.092  38.574  28.040  1.00  0.00    -0.237 OA
ATOM    102  O   UNL A   1      42.962  40.228  29.494  1.00  0.00    -0.237 OA
ATOM    103  O   UNL A   1      45.413  39.977  29.578  1.00  0.00    -0.744 OA
ENDBRANCH  96 100
ENDBRANCH  70  93
ENDBRANCH  44  45
ENDBRANCH  36  39
ENDBRANCH  34  35
ENDBRANCH   1  34
TORSDOF 16
ENDMDL
