MODEL 1
REMARK VINA RESULT:     -12.3      0.000      0.000
REMARK SMILES O=C(NCCCNC(=O)c1ccc(S(=O)(=O)Cc2ncccn2)c(F)c1)c1ccc(-c2c3nc(c(-c4cc(S(=O)(=O)[O-])ccc4F)c4ccc([nH]4)c(-c4cc(S(=O)(=O)[O-])ccc4F)c4nc(c(-c5cc(S(=O)(=O)[O-])ccc5F)c5ccc2[nH]5)C=C4)C=C3)cc1
REMARK SMILES IDX 5 1 4 2 3 3 1 4 2 5 27 7 28 8 89 9 29 10 88 11 30 12 31 13
REMARK SMILES IDX 32 14 82 15 33 16 87 17 81 18 83 19 34 20 86 21 80 22 79 23
REMARK SMILES IDX 35 25 67 26 47 27 66 28 48 29 51 30 65 31 84 32 49 33 50 34
REMARK SMILES IDX 64 36 85 37 52 38 36 39 37 40 45 41 38 42 44 43 46 44 43 45
REMARK SMILES IDX 39 46 40 47 41 48 42 49 68 50 69 51 77 52 70 53 76 54 78 55
REMARK SMILES IDX 75 56 71 57 72 58 73 59 74 60 53 61 54 62 62 63 55 64 61 65
REMARK SMILES IDX 63 66 60 67 56 68 57 69 58 70 59 71 6 72 7 73 8 74 9 76
REMARK SMILES IDX 10 77 11 78 26 79 12 80 24 81 13 82 25 83 14 84 15 85 16 86
REMARK SMILES IDX 17 87 18 88 19 89 23 90 20 91 22 92 21 93
REMARK H PARENT 3 6 83 24 51 35 7 75
REMARK Flexibility Score: inf
ROOT
ATOM      1  C   UNL A   1      32.448  27.979  25.600  1.00  0.00     0.042 C 
ENDROOT
BRANCH   1   2
ATOM      2  C   UNL A   1      33.207  29.231  25.179  1.00  0.00     0.118 C 
BRANCH   2   3
ATOM      3  N   UNL A   1      32.659  30.451  25.760  1.00  0.00    -0.352 N 
ATOM      4  O   UNL A   1      32.347  32.093  27.265  1.00  0.00    -0.269 OA
ATOM      5  C   UNL A   1      33.068  31.189  26.845  1.00  0.00     0.251 C 
ATOM      6  H   UNL A   1      31.864  30.806  25.298  1.00  0.00     0.163 HD
BRANCH   5   7
ATOM      7  C   UNL A   1      34.351  30.891  27.518  1.00  0.00     0.039 A 
ATOM      8  C   UNL A   1      34.644  29.599  27.953  1.00  0.00     0.014 A 
ATOM      9  C   UNL A   1      35.288  31.915  27.701  1.00  0.00     0.014 A 
ATOM     10  C   UNL A   1      35.773  29.370  28.730  1.00  0.00     0.010 A 
ATOM     11  C   UNL A   1      36.478  31.657  28.390  1.00  0.00     0.010 A 
ATOM     12  C   UNL A   1      36.713  30.390  28.947  1.00  0.00    -0.014 A 
BRANCH  12  13
ATOM     13  C   UNL A   1      37.943  30.081  29.726  1.00  0.00     0.031 A 
ATOM     14  C   UNL A   1      38.103  30.555  31.146  1.00  0.00     0.074 A 
ATOM     15  C   UNL A   1      38.889  29.305  29.159  1.00  0.00     0.049 A 
ATOM     16  N   UNL A   1      39.097  30.344  31.972  1.00  0.00    -0.248 NA
ATOM     17  C   UNL A   1      37.019  31.371  31.715  1.00  0.00     0.031 C 
ATOM     18  C   UNL A   1      38.838  28.784  27.789  1.00  0.00     0.029 A 
ATOM     19  N   UNL A   1      40.055  28.787  29.663  1.00  0.00    -0.354 N 
ATOM     20  C   UNL A   1      38.769  31.011  33.147  1.00  0.00     0.074 A 
ATOM     21  C   UNL A   1      37.493  31.655  32.922  1.00  0.00     0.031 C 
ATOM     22  C   UNL A   1      39.882  27.968  27.588  1.00  0.00     0.029 A 
ATOM     23  C   UNL A   1      40.722  27.968  28.780  1.00  0.00     0.049 A 
ATOM     24  H   UNL A   1      40.383  28.981  30.570  1.00  0.00     0.167 HD
ATOM     25  C   UNL A   1      39.464  31.068  34.308  1.00  0.00     0.034 A 
ATOM     26  C   UNL A   1      41.889  27.307  28.901  1.00  0.00     0.034 A 
ATOM     27  C   UNL A   1      40.721  30.399  34.530  1.00  0.00     0.049 A 
ATOM     28  C   UNL A   1      42.657  27.422  30.187  1.00  0.00     0.074 A 
ATOM     29  C   UNL A   1      41.485  30.370  35.684  1.00  0.00     0.029 A 
ATOM     30  N   UNL A   1      41.398  29.641  33.586  1.00  0.00    -0.354 N 
ATOM     31  N   UNL A   1      42.334  28.075  31.279  1.00  0.00    -0.248 NA
ATOM     32  C   UNL A   1      43.950  26.730  30.256  1.00  0.00     0.031 C 
ATOM     33  C   UNL A   1      42.651  29.646  35.420  1.00  0.00     0.029 A 
ATOM     34  C   UNL A   1      42.585  29.167  34.122  1.00  0.00     0.049 A 
ATOM     35  H   UNL A   1      41.083  29.466  32.670  1.00  0.00     0.167 HD
ATOM     36  C   UNL A   1      43.383  27.866  32.167  1.00  0.00     0.074 A 
ATOM     37  C   UNL A   1      44.342  27.016  31.490  1.00  0.00     0.031 C 
ATOM     38  C   UNL A   1      43.537  28.336  33.429  1.00  0.00     0.034 A 
BRANCH  25  39
ATOM     39  C   UNL A   1      38.908  31.904  35.430  1.00  0.00     0.023 A 
ATOM     40  C   UNL A   1      38.300  31.320  36.553  1.00  0.00     0.031 A 
ATOM     41  C   UNL A   1      39.053  33.303  35.404  1.00  0.00     0.131 A 
ATOM     42  C   UNL A   1      37.839  32.136  37.597  1.00  0.00     0.055 A 
ATOM     43  C   UNL A   1      38.639  34.104  36.469  1.00  0.00     0.041 A 
ATOM     44  F   UNL A   1      39.615  33.910  34.346  1.00  0.00    -0.206 F 
ATOM     45  C   UNL A   1      38.026  33.521  37.574  1.00  0.00     0.022 A 
BRANCH  42  46
ATOM     46  S   UNL A   1      36.948  31.367  38.977  1.00  0.00     0.124 S 
ATOM     47  O   UNL A   1      37.866  31.604  40.087  1.00  0.00    -0.237 OA
ATOM     48  O   UNL A   1      35.700  32.122  39.010  1.00  0.00    -0.237 OA
ATOM     49  O   UNL A   1      36.819  29.970  38.567  1.00  0.00    -0.744 OA
ENDBRANCH  42  46
ENDBRANCH  25  39
BRANCH  26  50
ATOM     50  C   UNL A   1      42.418  26.518  27.754  1.00  0.00     0.023 A 
ATOM     51  C   UNL A   1      42.040  25.182  27.552  1.00  0.00     0.031 A 
ATOM     52  C   UNL A   1      43.308  27.102  26.834  1.00  0.00     0.131 A 
ATOM     53  C   UNL A   1      42.567  24.466  26.466  1.00  0.00     0.055 A 
ATOM     54  C   UNL A   1      43.793  26.400  25.730  1.00  0.00     0.041 A 
ATOM     55  F   UNL A   1      43.693  28.380  26.980  1.00  0.00    -0.206 F 
ATOM     56  C   UNL A   1      43.427  25.072  25.545  1.00  0.00     0.022 A 
BRANCH  53  57
ATOM     57  S   UNL A   1      42.140  22.713  26.288  1.00  0.00     0.124 S 
ATOM     58  O   UNL A   1      42.763  22.135  27.473  1.00  0.00    -0.237 OA
ATOM     59  O   UNL A   1      40.682  22.753  26.283  1.00  0.00    -0.237 OA
ATOM     60  O   UNL A   1      42.754  22.341  25.015  1.00  0.00    -0.744 OA
ENDBRANCH  53  57
ENDBRANCH  26  50
BRANCH  38  61
ATOM     61  C   UNL A   1      44.780  27.932  34.170  1.00  0.00     0.023 A 
ATOM     62  C   UNL A   1      44.822  26.757  34.938  1.00  0.00     0.031 A 
ATOM     63  C   UNL A   1      45.950  28.703  34.062  1.00  0.00     0.131 A 
ATOM     64  C   UNL A   1      46.009  26.395  35.589  1.00  0.00     0.055 A 
ATOM     65  C   UNL A   1      47.140  28.316  34.677  1.00  0.00     0.041 A 
ATOM     66  F   UNL A   1      45.958  29.832  33.335  1.00  0.00    -0.206 F 
ATOM     67  C   UNL A   1      47.173  27.157  35.448  1.00  0.00     0.022 A 
BRANCH  64  68
ATOM     68  S   UNL A   1      46.014  24.919  36.642  1.00  0.00     0.124 S 
ATOM     69  O   UNL A   1      47.121  25.199  37.548  1.00  0.00    -0.237 OA
ATOM     70  O   UNL A   1      44.680  24.947  37.235  1.00  0.00    -0.237 OA
ATOM     71  O   UNL A   1      46.246  23.827  35.698  1.00  0.00    -0.744 OA
ENDBRANCH  64  68
ENDBRANCH  38  61
ENDBRANCH  12  13
ENDBRANCH   5   7
ENDBRANCH   2   3
ENDBRANCH   1   2
BRANCH   1  72
ATOM     72  C   UNL A   1      31.675  27.320  24.466  1.00  0.00     0.118 C 
BRANCH  72  73
ATOM     73  N   UNL A   1      32.407  27.367  23.208  1.00  0.00    -0.352 N 
ATOM     74  C   UNL A   1      33.238  26.425  22.664  1.00  0.00     0.251 C 
ATOM     75  H   UNL A   1      32.289  28.188  22.677  1.00  0.00     0.163 HD
ATOM     76  O   UNL A   1      33.930  26.675  21.682  1.00  0.00    -0.269 OA
BRANCH  74  77
ATOM     77  C   UNL A   1      33.288  25.084  23.262  1.00  0.00     0.042 A 
ATOM     78  C   UNL A   1      32.252  24.176  23.015  1.00  0.00     0.015 A 
ATOM     79  C   UNL A   1      34.388  24.723  24.041  1.00  0.00     0.054 A 
ATOM     80  C   UNL A   1      32.314  22.897  23.564  1.00  0.00     0.024 A 
ATOM     81  C   UNL A   1      34.429  23.452  24.605  1.00  0.00     0.142 A 
ATOM     82  C   UNL A   1      33.415  22.536  24.352  1.00  0.00     0.103 A 
ATOM     83  F   UNL A   1      35.465  23.143  25.393  1.00  0.00    -0.206 F 
BRANCH  82  84
ATOM     84  S   UNL A   1      33.477  20.895  25.005  1.00  0.00     0.188 S 
ATOM     85  O   UNL A   1      34.793  20.396  24.642  1.00  0.00    -0.223 OA
ATOM     86  O   UNL A   1      33.136  21.003  26.417  1.00  0.00    -0.223 OA
BRANCH  84  87
ATOM     87  C   UNL A   1      32.282  19.862  24.226  1.00  0.00     0.219 C 
BRANCH  87  88
ATOM     88  C   UNL A   1      32.677  18.434  24.395  1.00  0.00     0.143 A 
ATOM     89  N   UNL A   1      33.377  17.843  23.408  1.00  0.00    -0.240 NA
ATOM     90  N   UNL A   1      32.427  17.851  25.584  1.00  0.00    -0.240 NA
ATOM     91  C   UNL A   1      33.817  16.590  23.629  1.00  0.00     0.115 A 
ATOM     92  C   UNL A   1      32.885  16.595  25.754  1.00  0.00     0.115 A 
ATOM     93  C   UNL A   1      33.597  15.910  24.799  1.00  0.00     0.040 A 
ENDBRANCH  87  88
ENDBRANCH  84  87
ENDBRANCH  82  84
ENDBRANCH  74  77
ENDBRANCH  72  73
ENDBRANCH   1  72
TORSDOF 16
ENDMDL
MODEL 2
REMARK VINA RESULT:     -12.1      0.450      7.528
REMARK SMILES O=C(NCCCNC(=O)c1ccc(S(=O)(=O)Cc2ncccn2)c(F)c1)c1ccc(-c2c3nc(c(-c4cc(S(=O)(=O)[O-])ccc4F)c4ccc([nH]4)c(-c4cc(S(=O)(=O)[O-])ccc4F)c4nc(c(-c5cc(S(=O)(=O)[O-])ccc5F)c5ccc2[nH]5)C=C4)C=C3)cc1
REMARK SMILES IDX 5 1 4 2 3 3 1 4 2 5 27 7 28 8 89 9 29 10 88 11 30 12 31 13
REMARK SMILES IDX 32 14 82 15 33 16 87 17 81 18 83 19 34 20 86 21 80 22 79 23
REMARK SMILES IDX 35 25 67 26 47 27 66 28 48 29 51 30 65 31 84 32 49 33 50 34
REMARK SMILES IDX 64 36 85 37 52 38 36 39 37 40 45 41 38 42 44 43 46 44 43 45
REMARK SMILES IDX 39 46 40 47 41 48 42 49 68 50 69 51 77 52 70 53 76 54 78 55
REMARK SMILES IDX 75 56 71 57 72 58 73 59 74 60 53 61 54 62 62 63 55 64 61 65
REMARK SMILES IDX 63 66 60 67 56 68 57 69 58 70 59 71 6 72 7 73 8 74 9 76
REMARK SMILES IDX 10 77 11 78 26 79 12 80 24 81 13 82 25 83 14 84 15 85 16 86
REMARK SMILES IDX 17 87 18 88 19 89 23 90 20 91 22 92 21 93
REMARK H PARENT 3 6 83 24 51 35 7 75
REMARK Flexibility Score: inf
ROOT
ATOM      1  C   UNL A   1      31.770  28.540  26.062  1.00  0.00     0.042 C 
ENDROOT
BRANCH   1   2
ATOM      2  C   UNL A   1      32.751  29.569  25.512  1.00  0.00     0.118 C 
BRANCH   2   3
ATOM      3  N   UNL A   1      32.451  30.929  25.944  1.00  0.00    -0.352 N 
ATOM      4  O   UNL A   1      32.487  32.765  27.242  1.00  0.00    -0.269 OA
ATOM      5  C   UNL A   1      33.019  31.702  26.929  1.00  0.00     0.251 C 
ATOM      6  H   UNL A   1      31.722  31.367  25.448  1.00  0.00     0.163 HD
BRANCH   5   7
ATOM      7  C   UNL A   1      34.245  31.253  27.625  1.00  0.00     0.039 A 
ATOM      8  C   UNL A   1      34.401  29.920  28.004  1.00  0.00     0.014 A 
ATOM      9  C   UNL A   1      35.264  32.175  27.889  1.00  0.00     0.014 A 
ATOM     10  C   UNL A   1      35.476  29.550  28.802  1.00  0.00     0.010 A 
ATOM     11  C   UNL A   1      36.401  31.774  28.600  1.00  0.00     0.010 A 
ATOM     12  C   UNL A   1      36.498  30.466  29.099  1.00  0.00    -0.014 A 
BRANCH  12  13
ATOM     13  C   UNL A   1      37.666  30.006  29.899  1.00  0.00     0.031 A 
ATOM     14  C   UNL A   1      38.738  29.145  29.286  1.00  0.00     0.074 A 
ATOM     15  C   UNL A   1      37.787  30.435  31.173  1.00  0.00     0.049 A 
ATOM     16  N   UNL A   1      39.835  28.687  29.836  1.00  0.00    -0.248 NA
ATOM     17  C   UNL A   1      38.561  28.739  27.883  1.00  0.00     0.031 C 
ATOM     18  C   UNL A   1      36.811  31.279  31.871  1.00  0.00     0.029 A 
ATOM     19  N   UNL A   1      38.786  30.258  32.095  1.00  0.00    -0.354 N 
ATOM     20  C   UNL A   1      40.468  27.929  28.857  1.00  0.00     0.074 A 
ATOM     21  C   UNL A   1      39.623  27.968  27.684  1.00  0.00     0.031 C 
ATOM     22  C   UNL A   1      37.292  31.601  33.079  1.00  0.00     0.029 A 
ATOM     23  C   UNL A   1      38.569  30.926  33.279  1.00  0.00     0.049 A 
ATOM     24  H   UNL A   1      39.584  29.707  31.927  1.00  0.00     0.167 HD
ATOM     25  C   UNL A   1      41.651  27.273  28.931  1.00  0.00     0.034 A 
ATOM     26  C   UNL A   1      39.298  30.977  34.410  1.00  0.00     0.034 A 
ATOM     27  C   UNL A   1      42.498  27.266  30.097  1.00  0.00     0.049 A 
ATOM     28  C   UNL A   1      40.587  30.206  34.475  1.00  0.00     0.074 A 
ATOM     29  C   UNL A   1      43.732  26.658  30.256  1.00  0.00     0.029 A 
ATOM     30  N   UNL A   1      42.206  27.894  31.299  1.00  0.00    -0.354 N 
ATOM     31  N   UNL A   1      41.157  29.481  33.541  1.00  0.00    -0.248 NA
ATOM     32  C   UNL A   1      41.323  30.244  35.745  1.00  0.00     0.031 C 
ATOM     33  C   UNL A   1      44.157  26.866  31.571  1.00  0.00     0.029 A 
ATOM     34  C   UNL A   1      43.221  27.660  32.214  1.00  0.00     0.049 A 
ATOM     35  H   UNL A   1      41.397  28.425  31.477  1.00  0.00     0.167 HD
ATOM     36  C   UNL A   1      42.322  28.981  34.111  1.00  0.00     0.074 A 
ATOM     37  C   UNL A   1      42.383  29.498  35.463  1.00  0.00     0.031 C 
ATOM     38  C   UNL A   1      43.257  28.168  33.562  1.00  0.00     0.034 A 
BRANCH  25  39
ATOM     39  C   UNL A   1      42.100  26.480  27.733  1.00  0.00     0.023 A 
ATOM     40  C   UNL A   1      41.836  25.106  27.617  1.00  0.00     0.031 A 
ATOM     41  C   UNL A   1      42.741  27.126  26.661  1.00  0.00     0.131 A 
ATOM     42  C   UNL A   1      42.232  24.416  26.461  1.00  0.00     0.055 A 
ATOM     43  C   UNL A   1      43.085  26.446  25.492  1.00  0.00     0.041 A 
ATOM     44  F   UNL A   1      43.028  28.437  26.729  1.00  0.00    -0.206 F 
ATOM     45  C   UNL A   1      42.832  25.082  25.388  1.00  0.00     0.022 A 
BRANCH  42  46
ATOM     46  S   UNL A   1      41.990  22.620  26.390  1.00  0.00     0.124 S 
ATOM     47  O   UNL A   1      42.637  22.287  25.124  1.00  0.00    -0.237 OA
ATOM     48  O   UNL A   1      42.671  22.159  27.595  1.00  0.00    -0.237 OA
ATOM     49  O   UNL A   1      40.536  22.469  26.400  1.00  0.00    -0.744 OA
ENDBRANCH  42  46
ENDBRANCH  25  39
BRANCH  26  50
ATOM     50  C   UNL A   1      38.800  31.748  35.582  1.00  0.00     0.023 A 
ATOM     51  C   UNL A   1      38.168  31.108  36.659  1.00  0.00     0.031 A 
ATOM     52  C   UNL A   1      38.960  33.144  35.641  1.00  0.00     0.131 A 
ATOM     53  C   UNL A   1      37.701  31.869  37.743  1.00  0.00     0.055 A 
ATOM     54  C   UNL A   1      38.536  33.890  36.741  1.00  0.00     0.041 A 
ATOM     55  F   UNL A   1      39.565  33.800  34.637  1.00  0.00    -0.206 F 
ATOM     56  C   UNL A   1      37.896  33.252  37.798  1.00  0.00     0.022 A 
BRANCH  53  57
ATOM     57  S   UNL A   1      36.800  31.029  39.073  1.00  0.00     0.124 S 
ATOM     58  O   UNL A   1      36.593  29.704  38.500  1.00  0.00    -0.237 OA
ATOM     59  O   UNL A   1      37.747  31.109  40.181  1.00  0.00    -0.237 OA
ATOM     60  O   UNL A   1      35.593  31.838  39.230  1.00  0.00    -0.744 OA
ENDBRANCH  53  57
ENDBRANCH  26  50
BRANCH  38  61
ATOM     61  C   UNL A   1      44.436  27.796  34.416  1.00  0.00     0.023 A 
ATOM     62  C   UNL A   1      44.431  26.632  35.200  1.00  0.00     0.031 A 
ATOM     63  C   UNL A   1      45.597  28.590  34.403  1.00  0.00     0.131 A 
ATOM     64  C   UNL A   1      45.562  26.301  35.960  1.00  0.00     0.055 A 
ATOM     65  C   UNL A   1      46.734  28.234  35.127  1.00  0.00     0.041 A 
ATOM     66  F   UNL A   1      45.648  29.710  33.665  1.00  0.00    -0.206 F 
ATOM     67  C   UNL A   1      46.719  27.085  35.914  1.00  0.00     0.022 A 
BRANCH  64  68
ATOM     68  S   UNL A   1      45.500  24.837  37.028  1.00  0.00     0.124 S 
ATOM     69  O   UNL A   1      44.561  25.259  38.062  1.00  0.00    -0.237 OA
ATOM     70  O   UNL A   1      45.023  23.800  36.119  1.00  0.00    -0.237 OA
ATOM     71  O   UNL A   1      46.883  24.679  37.473  1.00  0.00    -0.744 OA
ENDBRANCH  64  68
ENDBRANCH  38  61
ENDBRANCH  12  13
ENDBRANCH   5   7
ENDBRANCH   2   3
ENDBRANCH   1   2
BRANCH   1  72
ATOM     72  C   UNL A   1      31.541  27.355  25.134  1.00  0.00     0.118 C 
BRANCH  72  73
ATOM     73  N   UNL A   1      32.202  27.533  23.848  1.00  0.00    -0.352 N 
ATOM     74  C   UNL A   1      33.048  26.679  23.195  1.00  0.00     0.251 C 
ATOM     75  H   UNL A   1      32.014  28.382  23.388  1.00  0.00     0.163 HD
ATOM     76  O   UNL A   1      33.674  27.037  22.201  1.00  0.00    -0.269 OA
BRANCH  74  77
ATOM     77  C   UNL A   1      33.198  25.302  23.686  1.00  0.00     0.042 A 
ATOM     78  C   UNL A   1      32.357  24.297  23.196  1.00  0.00     0.015 A 
ATOM     79  C   UNL A   1      34.201  25.012  24.610  1.00  0.00     0.054 A 
ATOM     80  C   UNL A   1      32.515  22.989  23.646  1.00  0.00     0.024 A 
ATOM     81  C   UNL A   1      34.336  23.706  25.072  1.00  0.00     0.142 A 
ATOM     82  C   UNL A   1      33.518  22.696  24.579  1.00  0.00     0.103 A 
ATOM     83  F   UNL A   1      35.269  23.457  25.999  1.00  0.00    -0.206 F 
BRANCH  82  84
ATOM     84  S   UNL A   1      33.714  21.020  25.103  1.00  0.00     0.188 S 
ATOM     85  O   UNL A   1      35.029  20.627  24.624  1.00  0.00    -0.223 OA
ATOM     86  O   UNL A   1      33.462  21.007  26.538  1.00  0.00    -0.223 OA
BRANCH  84  87
ATOM     87  C   UNL A   1      32.529  19.975  24.325  1.00  0.00     0.219 C 
BRANCH  87  88
ATOM     88  C   UNL A   1      32.922  18.550  24.522  1.00  0.00     0.143 A 
ATOM     89  N   UNL A   1      32.524  17.926  25.647  1.00  0.00    -0.240 NA
ATOM     90  N   UNL A   1      33.542  17.924  23.502  1.00  0.00    -0.240 NA
ATOM     91  C   UNL A   1      32.795  16.612  25.752  1.00  0.00     0.115 A 
ATOM     92  C   UNL A   1      33.794  16.610  23.658  1.00  0.00     0.115 A 
ATOM     93  C   UNL A   1      33.436  15.894  24.774  1.00  0.00     0.040 A 
ENDBRANCH  87  88
ENDBRANCH  84  87
ENDBRANCH  82  84
ENDBRANCH  74  77
ENDBRANCH  72  73
ENDBRANCH   1  72
TORSDOF 16
ENDMDL
MODEL 3
REMARK VINA RESULT:     -12.1      5.303      8.135
REMARK SMILES O=C(NCCCNC(=O)c1ccc(S(=O)(=O)Cc2ncccn2)c(F)c1)c1ccc(-c2c3nc(c(-c4cc(S(=O)(=O)[O-])ccc4F)c4ccc([nH]4)c(-c4cc(S(=O)(=O)[O-])ccc4F)c4nc(c(-c5cc(S(=O)(=O)[O-])ccc5F)c5ccc2[nH]5)C=C4)C=C3)cc1
REMARK SMILES IDX 5 1 4 2 3 3 1 4 2 5 27 7 28 8 89 9 29 10 88 11 30 12 31 13
REMARK SMILES IDX 32 14 82 15 33 16 87 17 81 18 83 19 34 20 86 21 80 22 79 23
REMARK SMILES IDX 35 25 67 26 47 27 66 28 48 29 51 30 65 31 84 32 49 33 50 34
REMARK SMILES IDX 64 36 85 37 52 38 36 39 37 40 45 41 38 42 44 43 46 44 43 45
REMARK SMILES IDX 39 46 40 47 41 48 42 49 68 50 69 51 77 52 70 53 76 54 78 55
REMARK SMILES IDX 75 56 71 57 72 58 73 59 74 60 53 61 54 62 62 63 55 64 61 65
REMARK SMILES IDX 63 66 60 67 56 68 57 69 58 70 59 71 6 72 7 73 8 74 9 76
REMARK SMILES IDX 10 77 11 78 26 79 12 80 24 81 13 82 25 83 14 84 15 85 16 86
REMARK SMILES IDX 17 87 18 88 19 89 23 90 20 91 22 92 21 93
REMARK H PARENT 3 6 83 24 51 35 7 75
REMARK Flexibility Score: inf
ROOT
ATOM      1  C   UNL A   1      34.544  21.549  26.519  1.00  0.00     0.042 C 
ENDROOT
BRANCH   1   2
ATOM      2  C   UNL A   1      35.823  22.088  25.889  1.00  0.00     0.118 C 
BRANCH   2   3
ATOM      3  N   UNL A   1      36.848  21.065  25.720  1.00  0.00    -0.352 N 
ATOM      4  O   UNL A   1      38.895  20.191  25.402  1.00  0.00    -0.269 OA
ATOM      5  C   UNL A   1      38.219  21.158  25.745  1.00  0.00     0.251 C 
ATOM      6  H   UNL A   1      36.501  20.157  25.563  1.00  0.00     0.163 HD
BRANCH   5   7
ATOM      7  C   UNL A   1      38.881  22.415  26.160  1.00  0.00     0.039 A 
ATOM      8  C   UNL A   1      38.363  23.652  25.778  1.00  0.00     0.014 A 
ATOM      9  C   UNL A   1      40.028  22.358  26.960  1.00  0.00     0.014 A 
ATOM     10  C   UNL A   1      39.086  24.812  26.031  1.00  0.00     0.010 A 
ATOM     11  C   UNL A   1      40.695  23.538  27.308  1.00  0.00     0.010 A 
ATOM     12  C   UNL A   1      40.253  24.774  26.811  1.00  0.00    -0.014 A 
BRANCH  12  13
ATOM     13  C   UNL A   1      40.955  26.050  27.116  1.00  0.00     0.031 A 
ATOM     14  C   UNL A   1      40.338  27.080  28.023  1.00  0.00     0.074 A 
ATOM     15  C   UNL A   1      42.195  26.240  26.619  1.00  0.00     0.049 A 
ATOM     16  N   UNL A   1      40.833  28.228  28.415  1.00  0.00    -0.248 NA
ATOM     17  C   UNL A   1      38.996  26.796  28.557  1.00  0.00     0.031 C 
ATOM     18  C   UNL A   1      42.897  25.306  25.731  1.00  0.00     0.029 A 
ATOM     19  N   UNL A   1      43.100  27.252  26.810  1.00  0.00    -0.354 N 
ATOM     20  C   UNL A   1      39.862  28.808  29.224  1.00  0.00     0.074 A 
ATOM     21  C   UNL A   1      38.738  27.899  29.250  1.00  0.00     0.031 C 
ATOM     22  C   UNL A   1      44.141  25.753  25.516  1.00  0.00     0.029 A 
ATOM     23  C   UNL A   1      44.305  27.042  26.177  1.00  0.00     0.049 A 
ATOM     24  H   UNL A   1      42.908  28.052  27.350  1.00  0.00     0.167 HD
ATOM     25  C   UNL A   1      39.913  29.986  29.891  1.00  0.00     0.034 A 
ATOM     26  C   UNL A   1      45.412  27.806  26.113  1.00  0.00     0.034 A 
ATOM     27  C   UNL A   1      41.051  30.872  29.880  1.00  0.00     0.049 A 
ATOM     28  C   UNL A   1      45.424  29.126  26.831  1.00  0.00     0.074 A 
ATOM     29  C   UNL A   1      41.210  32.071  30.552  1.00  0.00     0.029 A 
ATOM     30  N   UNL A   1      42.221  30.657  29.167  1.00  0.00    -0.354 N 
ATOM     31  N   UNL A   1      44.486  29.662  27.577  1.00  0.00    -0.248 NA
ATOM     32  C   UNL A   1      46.630  29.952  26.690  1.00  0.00     0.031 C 
ATOM     33  C   UNL A   1      42.449  32.611  30.198  1.00  0.00     0.029 A 
ATOM     34  C   UNL A   1      43.093  31.717  29.358  1.00  0.00     0.049 A 
ATOM     35  H   UNL A   1      42.405  29.869  28.607  1.00  0.00     0.167 HD
ATOM     36  C   UNL A   1      44.992  30.887  27.997  1.00  0.00     0.074 A 
ATOM     37  C   UNL A   1      46.323  31.004  27.436  1.00  0.00     0.031 C 
ATOM     38  C   UNL A   1      44.407  31.827  28.778  1.00  0.00     0.034 A 
BRANCH  25  39
ATOM     39  C   UNL A   1      38.700  30.415  30.672  1.00  0.00     0.023 A 
ATOM     40  C   UNL A   1      37.675  31.175  30.085  1.00  0.00     0.031 A 
ATOM     41  C   UNL A   1      38.535  29.995  32.004  1.00  0.00     0.131 A 
ATOM     42  C   UNL A   1      36.540  31.511  30.838  1.00  0.00     0.055 A 
ATOM     43  C   UNL A   1      37.380  30.288  32.730  1.00  0.00     0.041 A 
ATOM     44  F   UNL A   1      39.493  29.277  32.615  1.00  0.00    -0.206 F 
ATOM     45  C   UNL A   1      36.374  31.052  32.148  1.00  0.00     0.022 A 
BRANCH  42  46
ATOM     46  S   UNL A   1      35.291  32.597  30.096  1.00  0.00     0.124 S 
ATOM     47  O   UNL A   1      36.096  33.757  29.722  1.00  0.00    -0.237 OA
ATOM     48  O   UNL A   1      34.783  31.791  28.991  1.00  0.00    -0.237 OA
ATOM     49  O   UNL A   1      34.344  32.826  31.185  1.00  0.00    -0.744 OA
ENDBRANCH  42  46
ENDBRANCH  25  39
BRANCH  26  50
ATOM     50  C   UNL A   1      46.578  27.358  25.303  1.00  0.00     0.023 A 
ATOM     51  C   UNL A   1      46.779  27.826  23.996  1.00  0.00     0.031 A 
ATOM     52  C   UNL A   1      47.516  26.455  25.835  1.00  0.00     0.131 A 
ATOM     53  C   UNL A   1      47.884  27.374  23.257  1.00  0.00     0.055 A 
ATOM     54  C   UNL A   1      48.637  26.044  25.114  1.00  0.00     0.041 A 
ATOM     55  F   UNL A   1      47.371  25.984  27.085  1.00  0.00    -0.206 F 
ATOM     56  C   UNL A   1      48.822  26.500  23.813  1.00  0.00     0.022 A 
BRANCH  53  57
ATOM     57  S   UNL A   1      48.064  27.918  21.536  1.00  0.00     0.124 S 
ATOM     58  O   UNL A   1      49.217  28.805  21.626  1.00  0.00    -0.237 OA
ATOM     59  O   UNL A   1      48.276  26.655  20.838  1.00  0.00    -0.237 OA
ATOM     60  O   UNL A   1      46.790  28.577  21.253  1.00  0.00    -0.744 OA
ENDBRANCH  53  57
ENDBRANCH  26  50
BRANCH  38  61
ATOM     61  C   UNL A   1      45.206  33.062  29.087  1.00  0.00     0.023 A 
ATOM     62  C   UNL A   1      45.183  34.177  28.235  1.00  0.00     0.031 A 
ATOM     63  C   UNL A   1      45.954  33.141  30.274  1.00  0.00     0.131 A 
ATOM     64  C   UNL A   1      45.917  35.324  28.573  1.00  0.00     0.055 A 
ATOM     65  C   UNL A   1      46.647  34.298  30.626  1.00  0.00     0.041 A 
ATOM     66  F   UNL A   1      46.002  32.099  31.121  1.00  0.00    -0.206 F 
ATOM     67  C   UNL A   1      46.633  35.398  29.771  1.00  0.00     0.022 A 
BRANCH  64  68
ATOM     68  S   UNL A   1      45.938  36.720  27.416  1.00  0.00     0.124 S 
ATOM     69  O   UNL A   1      44.549  36.764  26.973  1.00  0.00    -0.237 OA
ATOM     70  O   UNL A   1      46.374  37.827  28.261  1.00  0.00    -0.237 OA
ATOM     71  O   UNL A   1      46.902  36.305  26.397  1.00  0.00    -0.744 OA
ENDBRANCH  64  68
ENDBRANCH  38  61
ENDBRANCH  12  13
ENDBRANCH   5   7
ENDBRANCH   2   3
ENDBRANCH   1   2
BRANCH   1  72
ATOM     72  C   UNL A   1      33.295  21.810  25.689  1.00  0.00     0.118 C 
BRANCH  72  73
ATOM     73  N   UNL A   1      32.097  21.882  26.515  1.00  0.00    -0.352 N 
ATOM     74  C   UNL A   1      31.293  22.961  26.766  1.00  0.00     0.251 C 
ATOM     75  H   UNL A   1      31.829  21.041  26.950  1.00  0.00     0.163 HD
ATOM     76  O   UNL A   1      30.418  22.919  27.626  1.00  0.00    -0.269 OA
BRANCH  74  77
ATOM     77  C   UNL A   1      31.473  24.188  25.977  1.00  0.00     0.042 A 
ATOM     78  C   UNL A   1      30.763  24.354  24.783  1.00  0.00     0.015 A 
ATOM     79  C   UNL A   1      32.326  25.186  26.450  1.00  0.00     0.054 A 
ATOM     80  C   UNL A   1      30.918  25.528  24.049  1.00  0.00     0.024 A 
ATOM     81  C   UNL A   1      32.493  26.344  25.697  1.00  0.00     0.142 A 
ATOM     82  C   UNL A   1      31.779  26.528  24.519  1.00  0.00     0.103 A 
ATOM     83  F   UNL A   1      33.356  27.266  26.139  1.00  0.00    -0.206 F 
BRANCH  82  84
ATOM     84  S   UNL A   1      31.927  28.018  23.581  1.00  0.00     0.188 S 
ATOM     85  O   UNL A   1      31.425  29.065  24.456  1.00  0.00    -0.223 OA
ATOM     86  O   UNL A   1      33.312  28.086  23.135  1.00  0.00    -0.223 OA
BRANCH  84  87
ATOM     87  C   UNL A   1      30.890  27.971  22.158  1.00  0.00     0.219 C 
BRANCH  87  88
ATOM     88  C   UNL A   1      29.780  28.953  22.321  1.00  0.00     0.143 A 
ATOM     89  N   UNL A   1      29.844  30.110  21.634  1.00  0.00    -0.240 NA
ATOM     90  N   UNL A   1      28.709  28.575  23.046  1.00  0.00    -0.240 NA
ATOM     91  C   UNL A   1      28.781  30.932  21.712  1.00  0.00     0.115 A 
ATOM     92  C   UNL A   1      27.673  29.434  23.094  1.00  0.00     0.115 A 
ATOM     93  C   UNL A   1      27.654  30.640  22.436  1.00  0.00     0.040 A 
ENDBRANCH  87  88
ENDBRANCH  84  87
ENDBRANCH  82  84
ENDBRANCH  74  77
ENDBRANCH  72  73
ENDBRANCH   1  72
TORSDOF 16
ENDMDL
