MODEL 1
REMARK VINA RESULT:     -11.9      0.000      0.000
REMARK SMILES O=C(NCCCNC(=O)c1ccc(C[NH2+][C@H]2CCCNC2=O)nc1)c1ccc(-c2c3nc(c(-c4cc(S(=O)(=O)[O-])ccc4F)c4ccc([nH]4)c(-c4cc(S(=O)(=O)[O-])ccc4F)c4nc(c(-c5cc(S(=O)(=O)[O-])ccc5F)c5ccc2[nH]5)C=C4)C=C3)cc1
REMARK SMILES IDX 5 1 4 2 3 3 1 4 2 5 25 7 26 8 87 9 27 10 86 11 28 12 29 13
REMARK SMILES IDX 30 14 80 15 31 16 85 17 79 18 81 19 32 20 84 21 78 22 77 23
REMARK SMILES IDX 33 25 65 26 45 27 64 28 46 29 49 30 63 31 82 32 47 33 48 34
REMARK SMILES IDX 62 36 83 37 50 38 34 39 35 40 43 41 36 42 42 43 44 44 41 45
REMARK SMILES IDX 37 46 38 47 39 48 40 49 66 50 67 51 75 52 68 53 74 54 76 55
REMARK SMILES IDX 73 56 69 57 70 58 71 59 72 60 51 61 52 62 60 63 53 64 59 65
REMARK SMILES IDX 61 66 58 67 54 68 55 69 56 70 57 71 6 72 7 73 8 74 9 76
REMARK SMILES IDX 10 77 11 78 24 79 12 80 23 81 13 82 14 83 15 84 16 87 17 88
REMARK SMILES IDX 21 89 18 90 20 91 22 92 19 93
REMARK H PARENT 3 6 81 24 49 35 7 75 15 85 15 86 20 94
REMARK Flexibility Score: inf
ROOT
ATOM      1  C   UNL A   1      31.567  32.173  26.591  1.00  0.00     0.042 C 
ENDROOT
BRANCH   1   2
ATOM      2  C   UNL A   1      32.803  32.746  27.270  1.00  0.00     0.118 C 
BRANCH   2   3
ATOM      3  N   UNL A   1      32.604  34.120  27.710  1.00  0.00    -0.352 N 
ATOM      4  O   UNL A   1      32.703  35.887  29.094  1.00  0.00    -0.269 OA
ATOM      5  C   UNL A   1      33.175  34.803  28.756  1.00  0.00     0.251 C 
ATOM      6  H   UNL A   1      31.962  34.639  27.176  1.00  0.00     0.163 HD
BRANCH   5   7
ATOM      7  C   UNL A   1      34.344  34.245  29.471  1.00  0.00     0.039 A 
ATOM      8  C   UNL A   1      34.172  33.415  30.581  1.00  0.00     0.014 A 
ATOM      9  C   UNL A   1      35.630  34.505  28.985  1.00  0.00     0.014 A 
ATOM     10  C   UNL A   1      35.280  32.944  31.275  1.00  0.00     0.010 A 
ATOM     11  C   UNL A   1      36.741  33.955  29.631  1.00  0.00     0.010 A 
ATOM     12  C   UNL A   1      36.574  33.178  30.787  1.00  0.00    -0.014 A 
BRANCH  12  13
ATOM     13  C   UNL A   1      37.721  32.493  31.432  1.00  0.00     0.031 A 
ATOM     14  C   UNL A   1      38.444  31.369  30.748  1.00  0.00     0.074 A 
ATOM     15  C   UNL A   1      38.104  32.914  32.655  1.00  0.00     0.049 A 
ATOM     16  N   UNL A   1      39.458  30.664  31.179  1.00  0.00    -0.248 NA
ATOM     17  C   UNL A   1      37.967  30.979  29.412  1.00  0.00     0.031 C 
ATOM     18  C   UNL A   1      37.454  33.990  33.412  1.00  0.00     0.029 A 
ATOM     19  N   UNL A   1      39.122  32.506  33.475  1.00  0.00    -0.354 N 
ATOM     20  C   UNL A   1      39.731  29.734  30.182  1.00  0.00     0.074 A 
ATOM     21  C   UNL A   1      38.763  29.956  29.127  1.00  0.00     0.031 C 
ATOM     22  C   UNL A   1      38.108  34.175  34.567  1.00  0.00     0.029 A 
ATOM     23  C   UNL A   1      39.175  33.188  34.669  1.00  0.00     0.049 A 
ATOM     24  H   UNL A   1      39.756  31.792  33.233  1.00  0.00     0.167 HD
ATOM     25  C   UNL A   1      40.700  28.787  30.158  1.00  0.00     0.034 A 
ATOM     26  C   UNL A   1      39.967  33.016  35.743  1.00  0.00     0.034 A 
ATOM     27  C   UNL A   1      41.665  28.599  31.216  1.00  0.00     0.049 A 
ATOM     28  C   UNL A   1      41.009  31.932  35.696  1.00  0.00     0.074 A 
ATOM     29  C   UNL A   1      42.742  27.729  31.252  1.00  0.00     0.029 A 
ATOM     30  N   UNL A   1      41.660  29.275  32.429  1.00  0.00    -0.354 N 
ATOM     31  N   UNL A   1      41.287  31.100  34.719  1.00  0.00    -0.248 NA
ATOM     32  C   UNL A   1      41.840  31.761  36.894  1.00  0.00     0.031 C 
ATOM     33  C   UNL A   1      43.343  27.829  32.512  1.00  0.00     0.029 A 
ATOM     34  C   UNL A   1      42.683  28.807  33.240  1.00  0.00     0.049 A 
ATOM     35  H   UNL A   1      41.023  29.983  32.678  1.00  0.00     0.167 HD
ATOM     36  C   UNL A   1      42.329  30.308  35.186  1.00  0.00     0.074 A 
ATOM     37  C   UNL A   1      42.651  30.784  36.516  1.00  0.00     0.031 C 
ATOM     38  C   UNL A   1      42.963  29.275  34.575  1.00  0.00     0.034 A 
BRANCH  25  39
ATOM     39  C   UNL A   1      40.746  27.849  28.979  1.00  0.00     0.023 A 
ATOM     40  C   UNL A   1      41.665  28.011  27.930  1.00  0.00     0.031 A 
ATOM     41  C   UNL A   1      39.868  26.750  28.927  1.00  0.00     0.131 A 
ATOM     42  C   UNL A   1      41.663  27.107  26.854  1.00  0.00     0.055 A 
ATOM     43  C   UNL A   1      39.910  25.823  27.883  1.00  0.00     0.041 A 
ATOM     44  F   UNL A   1      38.957  26.559  29.893  1.00  0.00    -0.206 F 
ATOM     45  C   UNL A   1      40.808  26.003  26.836  1.00  0.00     0.022 A 
BRANCH  42  46
ATOM     46  S   UNL A   1      42.745  27.436  25.436  1.00  0.00     0.124 S 
ATOM     47  O   UNL A   1      44.015  27.728  26.094  1.00  0.00    -0.237 OA
ATOM     48  O   UNL A   1      42.684  26.182  24.694  1.00  0.00    -0.237 OA
ATOM     49  O   UNL A   1      42.113  28.579  24.780  1.00  0.00    -0.744 OA
ENDBRANCH  42  46
ENDBRANCH  25  39
BRANCH  26  50
ATOM     50  C   UNL A   1      39.766  33.838  36.970  1.00  0.00     0.023 A 
ATOM     51  C   UNL A   1      40.596  34.931  37.259  1.00  0.00     0.031 A 
ATOM     52  C   UNL A   1      38.760  33.509  37.897  1.00  0.00     0.131 A 
ATOM     53  C   UNL A   1      40.434  35.629  38.466  1.00  0.00     0.055 A 
ATOM     54  C   UNL A   1      38.566  34.241  39.068  1.00  0.00     0.041 A 
ATOM     55  F   UNL A   1      37.938  32.471  37.670  1.00  0.00    -0.206 F 
ATOM     56  C   UNL A   1      39.417  35.300  39.365  1.00  0.00     0.022 A 
BRANCH  53  57
ATOM     57  S   UNL A   1      41.642  36.912  38.894  1.00  0.00     0.124 S 
ATOM     58  O   UNL A   1      42.362  36.288  39.999  1.00  0.00    -0.237 OA
ATOM     59  O   UNL A   1      42.384  37.055  37.645  1.00  0.00    -0.237 OA
ATOM     60  O   UNL A   1      40.809  38.055  39.259  1.00  0.00    -0.744 OA
ENDBRANCH  53  57
ENDBRANCH  26  50
BRANCH  38  61
ATOM     61  C   UNL A   1      44.066  28.610  35.355  1.00  0.00     0.023 A 
ATOM     62  C   UNL A   1      43.805  27.514  36.196  1.00  0.00     0.031 A 
ATOM     63  C   UNL A   1      45.381  29.098  35.286  1.00  0.00     0.131 A 
ATOM     64  C   UNL A   1      44.834  26.976  36.978  1.00  0.00     0.055 A 
ATOM     65  C   UNL A   1      46.415  28.520  36.024  1.00  0.00     0.041 A 
ATOM     66  F   UNL A   1      45.683  30.144  34.500  1.00  0.00    -0.206 F 
ATOM     67  C   UNL A   1      46.142  27.462  36.887  1.00  0.00     0.022 A 
BRANCH  64  68
ATOM     68  S   UNL A   1      44.426  25.681  38.182  1.00  0.00     0.124 S 
ATOM     69  O   UNL A   1      43.258  25.056  37.569  1.00  0.00    -0.237 OA
ATOM     70  O   UNL A   1      45.643  24.876  38.202  1.00  0.00    -0.237 OA
ATOM     71  O   UNL A   1      44.157  26.428  39.409  1.00  0.00    -0.744 OA
ENDBRANCH  64  68
ENDBRANCH  38  61
ENDBRANCH  12  13
ENDBRANCH   5   7
ENDBRANCH   2   3
ENDBRANCH   1   2
BRANCH   1  72
ATOM     72  C   UNL A   1      31.730  30.726  26.146  1.00  0.00     0.118 C 
BRANCH  72  73
ATOM     73  N   UNL A   1      30.967  30.427  24.941  1.00  0.00    -0.352 N 
ATOM     74  C   UNL A   1      31.011  29.307  24.150  1.00  0.00     0.252 C 
ATOM     75  H   UNL A   1      30.333  31.124  24.656  1.00  0.00     0.163 HD
ATOM     76  O   UNL A   1      30.437  29.277  23.066  1.00  0.00    -0.269 OA
BRANCH  74  77
ATOM     77  C   UNL A   1      31.763  28.136  24.612  1.00  0.00     0.058 A 
ATOM     78  C   UNL A   1      33.086  27.924  24.231  1.00  0.00     0.017 A 
ATOM     79  C   UNL A   1      31.142  27.205  25.423  1.00  0.00     0.125 A 
ATOM     80  C   UNL A   1      33.711  26.740  24.604  1.00  0.00     0.030 A 
ATOM     81  N   UNL A   1      31.729  26.045  25.798  1.00  0.00    -0.255 NA
ATOM     82  C   UNL A   1      32.996  25.813  25.365  1.00  0.00     0.094 A 
BRANCH  82  83
ATOM     83  C   UNL A   1      33.633  24.486  25.730  1.00  0.00     0.318 C 
BRANCH  83  84
ATOM     84  N   UNL A   1      32.944  23.353  25.115  1.00  0.00    -0.331 N 
ATOM     85  H   UNL A   1      32.099  23.696  24.657  1.00  0.00     0.347 HD
ATOM     86  H   UNL A   1      32.729  22.688  25.859  1.00  0.00     0.347 HD
BRANCH  84  87
ATOM     87  C   UNL A   1      33.767  22.650  24.119  1.00  0.00     0.272 C 
ATOM     88  C   UNL A   1      33.728  21.122  24.272  1.00  0.00     0.077 C 
ATOM     89  C   UNL A   1      33.265  23.076  22.721  1.00  0.00     0.278 C 
ATOM     90  C   UNL A   1      32.367  20.555  23.883  1.00  0.00     0.028 C 
ATOM     91  N   UNL A   1      32.333  22.278  22.110  1.00  0.00    -0.351 N 
ATOM     92  O   UNL A   1      33.596  24.128  22.176  1.00  0.00    -0.268 OA
ATOM     93  C   UNL A   1      32.075  20.897  22.433  1.00  0.00     0.116 C 
ATOM     94  H   UNL A   1      31.795  22.682  21.391  1.00  0.00     0.163 HD
ENDBRANCH  84  87
ENDBRANCH  83  84
ENDBRANCH  82  83
ENDBRANCH  74  77
ENDBRANCH  72  73
ENDBRANCH   1  72
TORSDOF 16
ENDMDL
MODEL 2
REMARK VINA RESULT:     -11.8      3.502      8.970
REMARK SMILES O=C(NCCCNC(=O)c1ccc(C[NH2+][C@H]2CCCNC2=O)nc1)c1ccc(-c2c3nc(c(-c4cc(S(=O)(=O)[O-])ccc4F)c4ccc([nH]4)c(-c4cc(S(=O)(=O)[O-])ccc4F)c4nc(c(-c5cc(S(=O)(=O)[O-])ccc5F)c5ccc2[nH]5)C=C4)C=C3)cc1
REMARK SMILES IDX 5 1 4 2 3 3 1 4 2 5 25 7 26 8 87 9 27 10 86 11 28 12 29 13
REMARK SMILES IDX 30 14 80 15 31 16 85 17 79 18 81 19 32 20 84 21 78 22 77 23
REMARK SMILES IDX 33 25 65 26 45 27 64 28 46 29 49 30 63 31 82 32 47 33 48 34
REMARK SMILES IDX 62 36 83 37 50 38 34 39 35 40 43 41 36 42 42 43 44 44 41 45
REMARK SMILES IDX 37 46 38 47 39 48 40 49 66 50 67 51 75 52 68 53 74 54 76 55
REMARK SMILES IDX 73 56 69 57 70 58 71 59 72 60 51 61 52 62 60 63 53 64 59 65
REMARK SMILES IDX 61 66 58 67 54 68 55 69 56 70 57 71 6 72 7 73 8 74 9 76
REMARK SMILES IDX 10 77 11 78 24 79 12 80 23 81 13 82 14 83 15 84 16 87 17 88
REMARK SMILES IDX 21 89 18 90 20 91 22 92 19 93
REMARK H PARENT 3 6 81 24 49 35 7 75 15 85 15 86 20 94
REMARK Flexibility Score: inf
ROOT
ATOM      1  C   UNL A   1      33.184  27.593  26.855  1.00  0.00     0.042 C 
ENDROOT
BRANCH   1   2
ATOM      2  C   UNL A   1      34.063  28.557  26.071  1.00  0.00     0.118 C 
BRANCH   2   3
ATOM      3  N   UNL A   1      33.821  29.947  26.435  1.00  0.00    -0.352 N 
ATOM      4  O   UNL A   1      33.942  31.813  27.678  1.00  0.00    -0.269 OA
ATOM      5  C   UNL A   1      34.447  30.737  27.367  1.00  0.00     0.251 C 
ATOM      6  H   UNL A   1      33.095  30.387  25.937  1.00  0.00     0.163 HD
BRANCH   5   7
ATOM      7  C   UNL A   1      35.716  30.302  27.992  1.00  0.00     0.039 A 
ATOM      8  C   UNL A   1      35.717  29.674  29.240  1.00  0.00     0.014 A 
ATOM      9  C   UNL A   1      36.914  30.467  27.292  1.00  0.00     0.014 A 
ATOM     10  C   UNL A   1      36.921  29.320  29.839  1.00  0.00     0.010 A 
ATOM     11  C   UNL A   1      38.116  30.028  27.856  1.00  0.00     0.010 A 
ATOM     12  C   UNL A   1      38.128  29.460  29.139  1.00  0.00    -0.014 A 
BRANCH  12  13
ATOM     13  C   UNL A   1      39.367  28.888  29.721  1.00  0.00     0.031 A 
ATOM     14  C   UNL A   1      39.970  29.447  30.978  1.00  0.00     0.074 A 
ATOM     15  C   UNL A   1      39.937  27.840  29.091  1.00  0.00     0.049 A 
ATOM     16  N   UNL A   1      41.050  29.065  31.608  1.00  0.00    -0.248 NA
ATOM     17  C   UNL A   1      39.279  30.583  31.605  1.00  0.00     0.031 C 
ATOM     18  C   UNL A   1      39.436  27.233  27.852  1.00  0.00     0.029 A 
ATOM     19  N   UNL A   1      41.046  27.096  29.395  1.00  0.00    -0.354 N 
ATOM     20  C   UNL A   1      41.185  29.923  32.694  1.00  0.00     0.074 A 
ATOM     21  C   UNL A   1      40.079  30.857  32.628  1.00  0.00     0.031 C 
ATOM     22  C   UNL A   1      40.215  26.194  27.523  1.00  0.00     0.029 A 
ATOM     23  C   UNL A   1      41.310  26.104  28.479  1.00  0.00     0.049 A 
ATOM     24  H   UNL A   1      41.601  27.256  30.192  1.00  0.00     0.167 HD
ATOM     25  C   UNL A   1      42.144  29.923  33.651  1.00  0.00     0.034 A 
ATOM     26  C   UNL A   1      42.340  25.241  28.394  1.00  0.00     0.034 A 
ATOM     27  C   UNL A   1      43.225  28.968  33.705  1.00  0.00     0.049 A 
ATOM     28  C   UNL A   1      43.405  25.292  29.454  1.00  0.00     0.074 A 
ATOM     29  C   UNL A   1      44.199  28.825  34.680  1.00  0.00     0.029 A 
ATOM     30  N   UNL A   1      43.490  28.009  32.737  1.00  0.00    -0.354 N 
ATOM     31  N   UNL A   1      43.482  26.076  30.505  1.00  0.00    -0.248 NA
ATOM     32  C   UNL A   1      44.522  24.350  29.317  1.00  0.00     0.031 C 
ATOM     33  C   UNL A   1      45.090  27.828  34.266  1.00  0.00     0.029 A 
ATOM     34  C   UNL A   1      44.638  27.303  33.066  1.00  0.00     0.049 A 
ATOM     35  H   UNL A   1      42.942  27.851  31.934  1.00  0.00     0.167 HD
ATOM     36  C   UNL A   1      44.657  25.716  31.156  1.00  0.00     0.074 A 
ATOM     37  C   UNL A   1      45.236  24.625  30.398  1.00  0.00     0.031 C 
ATOM     38  C   UNL A   1      45.213  26.241  32.277  1.00  0.00     0.034 A 
BRANCH  25  39
ATOM     39  C   UNL A   1      42.103  31.010  34.695  1.00  0.00     0.023 A 
ATOM     40  C   UNL A   1      42.789  32.225  34.536  1.00  0.00     0.031 A 
ATOM     41  C   UNL A   1      41.331  30.833  35.858  1.00  0.00     0.131 A 
ATOM     42  C   UNL A   1      42.719  33.204  35.541  1.00  0.00     0.055 A 
ATOM     43  C   UNL A   1      41.219  31.833  36.827  1.00  0.00     0.041 A 
ATOM     44  F   UNL A   1      40.671  29.684  36.070  1.00  0.00    -0.206 F 
ATOM     45  C   UNL A   1      41.921  33.024  36.674  1.00  0.00     0.022 A 
BRANCH  42  46
ATOM     46  S   UNL A   1      43.747  34.690  35.387  1.00  0.00     0.124 S 
ATOM     47  O   UNL A   1      43.462  35.379  36.643  1.00  0.00    -0.237 OA
ATOM     48  O   UNL A   1      45.088  34.135  35.253  1.00  0.00    -0.237 OA
ATOM     49  O   UNL A   1      43.223  35.348  34.191  1.00  0.00    -0.744 OA
ENDBRANCH  42  46
ENDBRANCH  25  39
BRANCH  26  50
ATOM     50  C   UNL A   1      42.449  24.306  27.239  1.00  0.00     0.023 A 
ATOM     51  C   UNL A   1      41.891  23.020  27.287  1.00  0.00     0.031 A 
ATOM     52  C   UNL A   1      43.156  24.676  26.080  1.00  0.00     0.131 A 
ATOM     53  C   UNL A   1      42.087  22.134  26.216  1.00  0.00     0.055 A 
ATOM     54  C   UNL A   1      43.299  23.812  24.994  1.00  0.00     0.041 A 
ATOM     55  F   UNL A   1      43.710  25.895  25.981  1.00  0.00    -0.206 F 
ATOM     56  C   UNL A   1      42.776  22.526  25.065  1.00  0.00     0.022 A 
BRANCH  53  57
ATOM     57  S   UNL A   1      41.518  20.421  26.391  1.00  0.00     0.124 S 
ATOM     58  O   UNL A   1      40.085  20.555  26.151  1.00  0.00    -0.237 OA
ATOM     59  O   UNL A   1      42.282  19.742  25.350  1.00  0.00    -0.237 OA
ATOM     60  O   UNL A   1      41.891  20.078  27.762  1.00  0.00    -0.744 OA
ENDBRANCH  53  57
ENDBRANCH  26  50
BRANCH  38  61
ATOM     61  C   UNL A   1      46.508  25.624  32.735  1.00  0.00     0.023 A 
ATOM     62  C   UNL A   1      46.524  24.569  33.664  1.00  0.00     0.031 A 
ATOM     63  C   UNL A   1      47.737  26.118  32.266  1.00  0.00     0.131 A 
ATOM     64  C   UNL A   1      47.746  24.078  34.139  1.00  0.00     0.055 A 
ATOM     65  C   UNL A   1      48.952  25.585  32.699  1.00  0.00     0.041 A 
ATOM     66  F   UNL A   1      47.776  27.126  31.381  1.00  0.00    -0.206 F 
ATOM     67  C   UNL A   1      48.961  24.569  33.652  1.00  0.00     0.022 A 
BRANCH  64  68
ATOM     68  S   UNL A   1      47.730  22.842  35.467  1.00  0.00     0.124 S 
ATOM     69  O   UNL A   1      48.191  21.645  34.770  1.00  0.00    -0.237 OA
ATOM     70  O   UNL A   1      48.659  23.411  36.437  1.00  0.00    -0.237 OA
ATOM     71  O   UNL A   1      46.332  22.814  35.891  1.00  0.00    -0.744 OA
ENDBRANCH  64  68
ENDBRANCH  38  61
ENDBRANCH  12  13
ENDBRANCH   5   7
ENDBRANCH   2   3
ENDBRANCH   1   2
BRANCH   1  72
ATOM     72  C   UNL A   1      32.800  26.343  26.074  1.00  0.00     0.118 C 
BRANCH  72  73
ATOM     73  N   UNL A   1      31.801  25.540  26.767  1.00  0.00    -0.352 N 
ATOM     74  C   UNL A   1      31.634  24.179  26.759  1.00  0.00     0.252 C 
ATOM     75  H   UNL A   1      31.158  26.045  27.317  1.00  0.00     0.163 HD
ATOM     76  O   UNL A   1      30.636  23.663  27.251  1.00  0.00    -0.269 OA
BRANCH  74  77
ATOM     77  C   UNL A   1      32.665  23.337  26.145  1.00  0.00     0.058 A 
ATOM     78  C   UNL A   1      32.674  23.080  24.776  1.00  0.00     0.017 A 
ATOM     79  C   UNL A   1      33.637  22.762  26.942  1.00  0.00     0.125 A 
ATOM     80  C   UNL A   1      33.606  22.182  24.267  1.00  0.00     0.030 A 
ATOM     81  N   UNL A   1      34.553  21.885  26.470  1.00  0.00    -0.255 NA
ATOM     82  C   UNL A   1      34.512  21.585  25.146  1.00  0.00     0.094 A 
BRANCH  82  83
ATOM     83  C   UNL A   1      35.497  20.554  24.627  1.00  0.00     0.318 C 
BRANCH  83  84
ATOM     84  N   UNL A   1      35.219  19.215  25.142  1.00  0.00    -0.331 N 
ATOM     85  H   UNL A   1      34.945  19.294  26.122  1.00  0.00     0.347 HD
ATOM     86  H   UNL A   1      36.070  18.663  25.029  1.00  0.00     0.347 HD
BRANCH  84  87
ATOM     87  C   UNL A   1      34.146  18.526  24.408  1.00  0.00     0.272 C 
ATOM     88  C   UNL A   1      34.568  17.150  23.870  1.00  0.00     0.077 C 
ATOM     89  C   UNL A   1      32.940  18.398  25.364  1.00  0.00     0.278 C 
ATOM     90  C   UNL A   1      34.754  16.142  24.999  1.00  0.00     0.028 C 
ATOM     91  N   UNL A   1      32.818  17.236  26.083  1.00  0.00    -0.351 N 
ATOM     92  O   UNL A   1      32.141  19.311  25.572  1.00  0.00    -0.268 OA
ATOM     93  C   UNL A   1      33.445  15.981  25.751  1.00  0.00     0.116 C 
ATOM     94  H   UNL A   1      32.258  17.262  26.891  1.00  0.00     0.163 HD
ENDBRANCH  84  87
ENDBRANCH  83  84
ENDBRANCH  82  83
ENDBRANCH  74  77
ENDBRANCH  72  73
ENDBRANCH   1  72
TORSDOF 16
ENDMDL
MODEL 3
REMARK VINA RESULT:     -11.8      1.640      1.973
REMARK SMILES O=C(NCCCNC(=O)c1ccc(C[NH2+][C@H]2CCCNC2=O)nc1)c1ccc(-c2c3nc(c(-c4cc(S(=O)(=O)[O-])ccc4F)c4ccc([nH]4)c(-c4cc(S(=O)(=O)[O-])ccc4F)c4nc(c(-c5cc(S(=O)(=O)[O-])ccc5F)c5ccc2[nH]5)C=C4)C=C3)cc1
REMARK SMILES IDX 5 1 4 2 3 3 1 4 2 5 25 7 26 8 87 9 27 10 86 11 28 12 29 13
REMARK SMILES IDX 30 14 80 15 31 16 85 17 79 18 81 19 32 20 84 21 78 22 77 23
REMARK SMILES IDX 33 25 65 26 45 27 64 28 46 29 49 30 63 31 82 32 47 33 48 34
REMARK SMILES IDX 62 36 83 37 50 38 34 39 35 40 43 41 36 42 42 43 44 44 41 45
REMARK SMILES IDX 37 46 38 47 39 48 40 49 66 50 67 51 75 52 68 53 74 54 76 55
REMARK SMILES IDX 73 56 69 57 70 58 71 59 72 60 51 61 52 62 60 63 53 64 59 65
REMARK SMILES IDX 61 66 58 67 54 68 55 69 56 70 57 71 6 72 7 73 8 74 9 76
REMARK SMILES IDX 10 77 11 78 24 79 12 80 23 81 13 82 14 83 15 84 16 87 17 88
REMARK SMILES IDX 21 89 18 90 20 91 22 92 19 93
REMARK H PARENT 3 6 81 24 49 35 7 75 15 85 15 86 20 94
REMARK Flexibility Score: inf
ROOT
ATOM      1  C   UNL A   1      31.452  31.663  26.393  1.00  0.00     0.042 C 
ENDROOT
BRANCH   1   2
ATOM      2  C   UNL A   1      32.611  32.181  27.234  1.00  0.00     0.118 C 
BRANCH   2   3
ATOM      3  N   UNL A   1      32.486  33.602  27.531  1.00  0.00    -0.352 N 
ATOM      4  O   UNL A   1      32.702  35.497  28.716  1.00  0.00    -0.269 OA
ATOM      5  C   UNL A   1      33.116  34.363  28.485  1.00  0.00     0.251 C 
ATOM      6  H   UNL A   1      31.852  34.092  26.959  1.00  0.00     0.163 HD
BRANCH   5   7
ATOM      7  C   UNL A   1      34.279  33.829  29.226  1.00  0.00     0.039 A 
ATOM      8  C   UNL A   1      34.134  32.744  30.094  1.00  0.00     0.014 A 
ATOM      9  C   UNL A   1      35.544  34.381  29.002  1.00  0.00     0.014 A 
ATOM     10  C   UNL A   1      35.225  32.289  30.826  1.00  0.00     0.010 A 
ATOM     11  C   UNL A   1      36.657  33.862  29.671  1.00  0.00     0.010 A 
ATOM     12  C   UNL A   1      36.503  32.818  30.595  1.00  0.00    -0.014 A 
BRANCH  12  13
ATOM     13  C   UNL A   1      37.674  32.175  31.240  1.00  0.00     0.031 A 
ATOM     14  C   UNL A   1      38.427  31.067  30.561  1.00  0.00     0.074 A 
ATOM     15  C   UNL A   1      38.052  32.620  32.456  1.00  0.00     0.049 A 
ATOM     16  N   UNL A   1      39.465  30.398  30.993  1.00  0.00    -0.248 NA
ATOM     17  C   UNL A   1      37.954  30.649  29.233  1.00  0.00     0.031 C 
ATOM     18  C   UNL A   1      37.374  33.683  33.207  1.00  0.00     0.029 A 
ATOM     19  N   UNL A   1      39.087  32.251  33.273  1.00  0.00    -0.354 N 
ATOM     20  C   UNL A   1      39.760  29.467  30.003  1.00  0.00     0.074 A 
ATOM     21  C   UNL A   1      38.779  29.648  28.953  1.00  0.00     0.031 C 
ATOM     22  C   UNL A   1      38.030  33.899  34.355  1.00  0.00     0.029 A 
ATOM     23  C   UNL A   1      39.127  32.947  34.459  1.00  0.00     0.049 A 
ATOM     24  H   UNL A   1      39.741  31.554  33.034  1.00  0.00     0.167 HD
ATOM     25  C   UNL A   1      40.758  28.550  29.982  1.00  0.00     0.034 A 
ATOM     26  C   UNL A   1      39.931  32.809  35.530  1.00  0.00     0.034 A 
ATOM     27  C   UNL A   1      41.735  28.402  31.035  1.00  0.00     0.049 A 
ATOM     28  C   UNL A   1      41.005  31.758  35.487  1.00  0.00     0.074 A 
ATOM     29  C   UNL A   1      42.838  27.565  31.073  1.00  0.00     0.029 A 
ATOM     30  N   UNL A   1      41.716  29.089  32.241  1.00  0.00    -0.354 N 
ATOM     31  N   UNL A   1      41.302  30.925  34.516  1.00  0.00    -0.248 NA
ATOM     32  C   UNL A   1      41.848  31.624  36.681  1.00  0.00     0.031 C 
ATOM     33  C   UNL A   1      43.444  27.696  32.328  1.00  0.00     0.029 A 
ATOM     34  C   UNL A   1      42.759  28.660  33.050  1.00  0.00     0.049 A 
ATOM     35  H   UNL A   1      41.060  29.779  32.488  1.00  0.00     0.167 HD
ATOM     36  C   UNL A   1      42.371  30.169  34.984  1.00  0.00     0.074 A 
ATOM     37  C   UNL A   1      42.687  30.669  36.307  1.00  0.00     0.031 C 
ATOM     38  C   UNL A   1      43.033  29.150  34.379  1.00  0.00     0.034 A 
BRANCH  25  39
ATOM     39  C   UNL A   1      40.825  27.601  28.812  1.00  0.00     0.023 A 
ATOM     40  C   UNL A   1      41.787  27.733  27.797  1.00  0.00     0.031 A 
ATOM     41  C   UNL A   1      39.923  26.524  28.734  1.00  0.00     0.131 A 
ATOM     42  C   UNL A   1      41.803  26.822  26.728  1.00  0.00     0.055 A 
ATOM     43  C   UNL A   1      39.981  25.588  27.699  1.00  0.00     0.041 A 
ATOM     44  F   UNL A   1      38.972  26.361  29.667  1.00  0.00    -0.206 F 
ATOM     45  C   UNL A   1      40.922  25.738  26.685  1.00  0.00     0.022 A 
BRANCH  42  46
ATOM     46  S   UNL A   1      42.944  27.114  25.349  1.00  0.00     0.124 S 
ATOM     47  O   UNL A   1      42.935  25.816  24.678  1.00  0.00    -0.237 OA
ATOM     48  O   UNL A   1      42.302  28.208  24.632  1.00  0.00    -0.237 OA
ATOM     49  O   UNL A   1      44.202  27.456  26.011  1.00  0.00    -0.744 OA
ENDBRANCH  42  46
ENDBRANCH  25  39
BRANCH  26  50
ATOM     50  C   UNL A   1      39.712  33.636  36.750  1.00  0.00     0.023 A 
ATOM     51  C   UNL A   1      39.108  33.100  37.896  1.00  0.00     0.031 A 
ATOM     52  C   UNL A   1      40.070  34.997  36.769  1.00  0.00     0.131 A 
ATOM     53  C   UNL A   1      38.838  33.929  38.996  1.00  0.00     0.055 A 
ATOM     54  C   UNL A   1      39.851  35.804  37.885  1.00  0.00     0.041 A 
ATOM     55  F   UNL A   1      40.652  35.563  35.698  1.00  0.00    -0.206 F 
ATOM     56  C   UNL A   1      39.217  35.273  39.003  1.00  0.00     0.022 A 
BRANCH  53  57
ATOM     57  S   UNL A   1      37.885  33.249  40.381  1.00  0.00     0.124 S 
ATOM     58  O   UNL A   1      38.641  32.043  40.701  1.00  0.00    -0.237 OA
ATOM     59  O   UNL A   1      37.961  34.331  41.358  1.00  0.00    -0.237 OA
ATOM     60  O   UNL A   1      36.562  33.022  39.805  1.00  0.00    -0.744 OA
ENDBRANCH  53  57
ENDBRANCH  26  50
BRANCH  38  61
ATOM     61  C   UNL A   1      44.161  28.527  35.158  1.00  0.00     0.023 A 
ATOM     62  C   UNL A   1      43.921  27.510  36.098  1.00  0.00     0.031 A 
ATOM     63  C   UNL A   1      45.479  28.979  34.986  1.00  0.00     0.131 A 
ATOM     64  C   UNL A   1      44.978  27.014  36.872  1.00  0.00     0.055 A 
ATOM     65  C   UNL A   1      46.538  28.441  35.720  1.00  0.00     0.041 A 
ATOM     66  F   UNL A   1      45.760  29.951  34.104  1.00  0.00    -0.206 F 
ATOM     67  C   UNL A   1      46.288  27.463  36.679  1.00  0.00     0.022 A 
BRANCH  64  68
ATOM     68  S   UNL A   1      44.606  25.832  38.197  1.00  0.00     0.124 S 
ATOM     69  O   UNL A   1      43.407  26.413  38.793  1.00  0.00    -0.237 OA
ATOM     70  O   UNL A   1      44.411  24.587  37.461  1.00  0.00    -0.237 OA
ATOM     71  O   UNL A   1      45.799  25.873  39.038  1.00  0.00    -0.744 OA
ENDBRANCH  64  68
ENDBRANCH  38  61
ENDBRANCH  12  13
ENDBRANCH   5   7
ENDBRANCH   2   3
ENDBRANCH   1   2
BRANCH   1  72
ATOM     72  C   UNL A   1      31.550  30.178  26.068  1.00  0.00     0.118 C 
BRANCH  72  73
ATOM     73  N   UNL A   1      31.312  29.903  24.657  1.00  0.00    -0.352 N 
ATOM     74  C   UNL A   1      31.382  28.706  23.990  1.00  0.00     0.252 C 
ATOM     75  H   UNL A   1      31.068  30.682  24.107  1.00  0.00     0.163 HD
ATOM     76  O   UNL A   1      31.329  28.663  22.765  1.00  0.00    -0.269 OA
BRANCH  74  77
ATOM     77  C   UNL A   1      31.528  27.467  24.760  1.00  0.00     0.058 A 
ATOM     78  C   UNL A   1      32.751  27.095  25.314  1.00  0.00     0.017 A 
ATOM     79  C   UNL A   1      30.437  26.634  24.921  1.00  0.00     0.125 A 
ATOM     80  C   UNL A   1      32.857  25.855  25.934  1.00  0.00     0.030 A 
ATOM     81  N   UNL A   1      30.517  25.423  25.520  1.00  0.00    -0.255 NA
ATOM     82  C   UNL A   1      31.728  25.035  25.996  1.00  0.00     0.094 A 
BRANCH  82  83
ATOM     83  C   UNL A   1      31.834  23.652  26.609  1.00  0.00     0.318 C 
BRANCH  83  84
ATOM     84  N   UNL A   1      33.134  23.033  26.359  1.00  0.00    -0.331 N 
ATOM     85  H   UNL A   1      33.299  22.324  27.074  1.00  0.00     0.347 HD
ATOM     86  H   UNL A   1      33.835  23.775  26.392  1.00  0.00     0.347 HD
BRANCH  84  87
ATOM     87  C   UNL A   1      33.224  22.398  25.036  1.00  0.00     0.272 C 
ATOM     88  C   UNL A   1      34.549  22.691  24.314  1.00  0.00     0.077 C 
ATOM     89  C   UNL A   1      33.032  20.879  25.238  1.00  0.00     0.278 C 
ATOM     90  C   UNL A   1      35.721  21.983  24.986  1.00  0.00     0.028 C 
ATOM     91  N   UNL A   1      34.157  20.108  25.381  1.00  0.00    -0.351 N 
ATOM     92  O   UNL A   1      31.929  20.347  25.360  1.00  0.00    -0.268 OA
ATOM     93  C   UNL A   1      35.485  20.484  24.962  1.00  0.00     0.116 C 
ATOM     94  H   UNL A   1      34.050  19.227  25.805  1.00  0.00     0.163 HD
ENDBRANCH  84  87
ENDBRANCH  83  84
ENDBRANCH  82  83
ENDBRANCH  74  77
ENDBRANCH  72  73
ENDBRANCH   1  72
TORSDOF 16
ENDMDL
