MODEL 1
REMARK VINA RESULT:     -12.5      0.000      0.000
REMARK SMILES CCCn1cc(S(=O)(=O)N[C@H]2C=C[C@@H](C(=O)NCCCNC(=O)c3ccc(-c4c5nc(c(-c6cc(S(=O)(=O)[O-])ccc6F)c6ccc([nH]6)c(-c6cc(S(=O)(=O)[O-])ccc6F)c6nc(c(-c7cc(S(=O)(=O)[O-])ccc7F)c7ccc4[nH]7)C=C6)C=C5)cc3)C2)nc1C
REMARK SMILES IDX 18 1 17 2 15 3 16 4 14 6 11 7 12 8 87 9 13 10 10 11 7 13
REMARK SMILES IDX 8 14 9 15 6 16 4 17 5 18 89 19 88 20 90 21 3 22 2 23 1 24
REMARK SMILES IDX 19 25 20 26 21 27 22 28 23 30 24 31 25 32 86 33 26 34 85 35
REMARK SMILES IDX 27 36 28 37 29 38 79 39 30 40 84 41 78 42 80 43 31 44 83 45
REMARK SMILES IDX 77 46 76 47 32 49 64 50 44 51 63 52 45 53 48 54 62 55 81 56
REMARK SMILES IDX 46 57 47 58 61 60 82 61 49 62 33 63 34 64 42 65 35 66 41 67
REMARK SMILES IDX 43 68 40 69 36 70 37 71 38 72 39 73 65 74 66 75 74 76 67 77
REMARK SMILES IDX 73 78 75 79 72 80 68 81 69 82 70 83 71 84 50 85 51 86 59 87
REMARK SMILES IDX 52 88 58 89 60 90 57 91 53 92 54 93 55 94 56 95
REMARK H PARENT 17 5 10 12 21 29 80 48 48 59
REMARK Flexibility Score: inf
ROOT
ATOM      1  C   UNL A   1      32.877  29.671  25.297  1.00  0.00     0.117 C 
ENDROOT
BRANCH   1   2
ATOM      2  N   UNL A   1      31.595  29.463  24.640  1.00  0.00    -0.356 N 
ATOM      3  C   UNL A   1      31.059  28.359  24.044  1.00  0.00     0.226 C 
ATOM      4  O   UNL A   1      29.865  28.410  23.731  1.00  0.00    -0.274 OA
ATOM      5  H   UNL A   1      31.011  30.257  24.623  1.00  0.00     0.163 HD
BRANCH   3   6
ATOM      6  C   UNL A   1      31.881  27.113  23.673  1.00  0.00     0.103 C 
ATOM      7  C   UNL A   1      31.671  24.744  24.362  1.00  0.00     0.093 C 
ATOM      8  C   UNL A   1      31.225  24.982  22.949  1.00  0.00    -0.011 C 
ATOM      9  C   UNL A   1      32.017  26.147  24.850  1.00  0.00     0.042 C 
ATOM     10  C   UNL A   1      31.345  26.261  22.572  1.00  0.00    -0.016 C 
BRANCH   7  11
ATOM     11  N   UNL A   1      30.538  24.211  25.132  1.00  0.00    -0.203 NA
ATOM     12  H   UNL A   1      30.097  24.994  25.615  1.00  0.00     0.142 HD
BRANCH  11  13
ATOM     13  S   UNL A   1      30.897  23.021  26.299  1.00  0.00     0.260 S 
ATOM     14  O   UNL A   1      29.701  22.241  26.481  1.00  0.00    -0.205 OA
ATOM     15  O   UNL A   1      31.511  23.748  27.400  1.00  0.00    -0.205 OA
BRANCH  13  16
ATOM     16  C   UNL A   1      32.135  21.904  25.767  1.00  0.00     0.188 A 
ATOM     17  N   UNL A   1      34.057  20.940  25.329  1.00  0.00    -0.334 N 
ATOM     18  C   UNL A   1      33.488  21.982  26.015  1.00  0.00     0.129 A 
ATOM     19  C   UNL A   1      33.030  20.134  24.895  1.00  0.00     0.107 A 
ATOM     20  N   UNL A   1      31.866  20.736  25.074  1.00  0.00    -0.221 NA
ATOM     21  C   UNL A   1      33.195  18.755  24.368  1.00  0.00     0.088 C 
BRANCH  17  22
ATOM     22  C   UNL A   1      35.490  20.744  25.173  1.00  0.00     0.123 C 
BRANCH  22  23
ATOM     23  C   UNL A   1      36.208  21.932  24.518  1.00  0.00     0.018 C 
ATOM     24  C   UNL A   1      37.495  22.332  25.226  1.00  0.00     0.006 C 
ENDBRANCH  22  23
ENDBRANCH  17  22
ENDBRANCH  13  16
ENDBRANCH  11  13
ENDBRANCH   7  11
ENDBRANCH   3   6
ENDBRANCH   1   2
BRANCH   1  25
ATOM     25  C   UNL A   1      32.835  29.493  26.814  1.00  0.00     0.042 C 
BRANCH  25  26
ATOM     26  C   UNL A   1      34.150  29.819  27.497  1.00  0.00     0.118 C 
BRANCH  26  27
ATOM     27  N   UNL A   1      34.593  31.184  27.227  1.00  0.00    -0.352 N 
ATOM     28  C   UNL A   1      35.707  31.828  27.728  1.00  0.00     0.251 C 
ATOM     29  H   UNL A   1      34.029  31.710  26.614  1.00  0.00     0.163 HD
ATOM     30  O   UNL A   1      35.789  33.049  27.681  1.00  0.00    -0.269 OA
BRANCH  28  31
ATOM     31  C   UNL A   1      36.775  31.017  28.338  1.00  0.00     0.039 A 
ATOM     32  C   UNL A   1      36.864  29.646  28.081  1.00  0.00     0.014 A 
ATOM     33  C   UNL A   1      37.729  31.660  29.122  1.00  0.00     0.014 A 
ATOM     34  C   UNL A   1      37.977  28.943  28.539  1.00  0.00     0.010 A 
ATOM     35  C   UNL A   1      38.879  30.992  29.473  1.00  0.00     0.010 A 
ATOM     36  C   UNL A   1      39.000  29.625  29.212  1.00  0.00    -0.014 A 
BRANCH  36  37
ATOM     37  C   UNL A   1      40.269  28.959  29.516  1.00  0.00     0.031 A 
ATOM     38  C   UNL A   1      40.541  28.720  30.963  1.00  0.00     0.074 A 
ATOM     39  C   UNL A   1      41.005  28.328  28.576  1.00  0.00     0.049 A 
ATOM     40  N   UNL A   1      41.532  29.144  31.675  1.00  0.00    -0.248 NA
ATOM     41  C   UNL A   1      39.524  27.998  31.747  1.00  0.00     0.031 C 
ATOM     42  C   UNL A   1      40.693  28.183  27.151  1.00  0.00     0.029 A 
ATOM     43  N   UNL A   1      42.108  27.540  28.725  1.00  0.00    -0.354 N 
ATOM     44  C   UNL A   1      41.393  28.555  32.932  1.00  0.00     0.074 A 
ATOM     45  C   UNL A   1      40.053  28.036  32.971  1.00  0.00     0.031 C 
ATOM     46  C   UNL A   1      41.411  27.165  26.635  1.00  0.00     0.029 A 
ATOM     47  C   UNL A   1      42.352  26.702  27.639  1.00  0.00     0.049 A 
ATOM     48  H   UNL A   1      42.679  27.560  29.527  1.00  0.00     0.167 HD
ATOM     49  C   UNL A   1      42.471  28.337  33.740  1.00  0.00     0.034 A 
ATOM     50  C   UNL A   1      43.227  25.667  27.570  1.00  0.00     0.034 A 
ATOM     51  C   UNL A   1      43.609  29.119  33.305  1.00  0.00     0.049 A 
ATOM     52  C   UNL A   1      44.243  25.886  28.625  1.00  0.00     0.074 A 
ATOM     53  C   UNL A   1      43.832  30.465  33.079  1.00  0.00     0.029 A 
ATOM     54  N   UNL A   1      44.646  28.470  32.670  1.00  0.00    -0.354 N 
ATOM     55  N   UNL A   1      45.070  26.896  28.628  1.00  0.00    -0.248 NA
ATOM     56  C   UNL A   1      44.049  25.249  29.920  1.00  0.00     0.031 C 
ATOM     57  C   UNL A   1      44.646  30.508  31.908  1.00  0.00     0.029 A 
ATOM     58  C   UNL A   1      44.942  29.193  31.542  1.00  0.00     0.049 A 
ATOM     59  H   UNL A   1      45.092  27.645  32.969  1.00  0.00     0.167 HD
ATOM     60  C   UNL A   1      45.142  27.296  29.952  1.00  0.00     0.074 A 
ATOM     61  C   UNL A   1      44.596  26.175  30.712  1.00  0.00     0.031 C 
ATOM     62  C   UNL A   1      45.365  28.603  30.287  1.00  0.00     0.034 A 
BRANCH  49  63
ATOM     63  C   UNL A   1      42.634  27.159  34.687  1.00  0.00     0.023 A 
ATOM     64  C   UNL A   1      43.488  26.118  34.267  1.00  0.00     0.031 A 
ATOM     65  C   UNL A   1      41.805  26.852  35.789  1.00  0.00     0.131 A 
ATOM     66  C   UNL A   1      43.388  24.827  34.815  1.00  0.00     0.055 A 
ATOM     67  C   UNL A   1      41.767  25.586  36.386  1.00  0.00     0.041 A 
ATOM     68  F   UNL A   1      40.923  27.716  36.302  1.00  0.00    -0.206 F 
ATOM     69  C   UNL A   1      42.529  24.552  35.873  1.00  0.00     0.022 A 
BRANCH  66  70
ATOM     70  S   UNL A   1      44.240  23.472  33.967  1.00  0.00     0.124 S 
ATOM     71  O   UNL A   1      45.338  24.184  33.321  1.00  0.00    -0.237 OA
ATOM     72  O   UNL A   1      44.601  22.602  35.082  1.00  0.00    -0.237 OA
ATOM     73  O   UNL A   1      43.220  22.944  33.066  1.00  0.00    -0.744 OA
ENDBRANCH  66  70
ENDBRANCH  49  63
BRANCH  50  74
ATOM     74  C   UNL A   1      43.060  24.396  26.817  1.00  0.00     0.023 A 
ATOM     75  C   UNL A   1      44.063  23.869  25.980  1.00  0.00     0.031 A 
ATOM     76  C   UNL A   1      41.958  23.554  27.094  1.00  0.00     0.131 A 
ATOM     77  C   UNL A   1      43.937  22.561  25.455  1.00  0.00     0.055 A 
ATOM     78  C   UNL A   1      41.831  22.269  26.563  1.00  0.00     0.041 A 
ATOM     79  F   UNL A   1      41.003  23.923  27.963  1.00  0.00    -0.206 F 
ATOM     80  C   UNL A   1      42.827  21.762  25.744  1.00  0.00     0.022 A 
BRANCH  77  81
ATOM     81  S   UNL A   1      45.281  21.834  24.462  1.00  0.00     0.124 S 
ATOM     82  O   UNL A   1      46.230  21.414  25.486  1.00  0.00    -0.237 OA
ATOM     83  O   UNL A   1      44.594  20.771  23.737  1.00  0.00    -0.237 OA
ATOM     84  O   UNL A   1      45.729  22.950  23.628  1.00  0.00    -0.744 OA
ENDBRANCH  77  81
ENDBRANCH  50  74
BRANCH  62  85
ATOM     85  C   UNL A   1      45.860  29.557  29.218  1.00  0.00     0.023 A 
ATOM     86  C   UNL A   1      45.031  30.367  28.411  1.00  0.00     0.031 A 
ATOM     87  C   UNL A   1      47.251  29.738  29.111  1.00  0.00     0.131 A 
ATOM     88  C   UNL A   1      45.605  31.308  27.532  1.00  0.00     0.055 A 
ATOM     89  C   UNL A   1      47.814  30.684  28.257  1.00  0.00     0.041 A 
ATOM     90  F   UNL A   1      48.092  29.019  29.875  1.00  0.00    -0.206 F 
ATOM     91  C   UNL A   1      46.992  31.469  27.459  1.00  0.00     0.022 A 
BRANCH  88  92
ATOM     92  S   UNL A   1      44.555  32.337  26.456  1.00  0.00     0.124 S 
ATOM     93  O   UNL A   1      45.495  32.900  25.494  1.00  0.00    -0.237 OA
ATOM     94  O   UNL A   1      43.601  31.366  25.925  1.00  0.00    -0.237 OA
ATOM     95  O   UNL A   1      43.974  33.312  27.381  1.00  0.00    -0.744 OA
ENDBRANCH  88  92
ENDBRANCH  62  85
ENDBRANCH  36  37
ENDBRANCH  28  31
ENDBRANCH  26  27
ENDBRANCH  25  26
ENDBRANCH   1  25
TORSDOF 18
ENDMDL
MODEL 2
REMARK VINA RESULT:     -12.4      2.636      7.010
REMARK SMILES CCCn1cc(S(=O)(=O)N[C@H]2C=C[C@@H](C(=O)NCCCNC(=O)c3ccc(-c4c5nc(c(-c6cc(S(=O)(=O)[O-])ccc6F)c6ccc([nH]6)c(-c6cc(S(=O)(=O)[O-])ccc6F)c6nc(c(-c7cc(S(=O)(=O)[O-])ccc7F)c7ccc4[nH]7)C=C6)C=C5)cc3)C2)nc1C
REMARK SMILES IDX 18 1 17 2 15 3 16 4 14 6 11 7 12 8 87 9 13 10 10 11 7 13
REMARK SMILES IDX 8 14 9 15 6 16 4 17 5 18 89 19 88 20 90 21 3 22 2 23 1 24
REMARK SMILES IDX 19 25 20 26 21 27 22 28 23 30 24 31 25 32 86 33 26 34 85 35
REMARK SMILES IDX 27 36 28 37 29 38 79 39 30 40 84 41 78 42 80 43 31 44 83 45
REMARK SMILES IDX 77 46 76 47 32 49 64 50 44 51 63 52 45 53 48 54 62 55 81 56
REMARK SMILES IDX 46 57 47 58 61 60 82 61 49 62 33 63 34 64 42 65 35 66 41 67
REMARK SMILES IDX 43 68 40 69 36 70 37 71 38 72 39 73 65 74 66 75 74 76 67 77
REMARK SMILES IDX 73 78 75 79 72 80 68 81 69 82 70 83 71 84 50 85 51 86 59 87
REMARK SMILES IDX 52 88 58 89 60 90 57 91 53 92 54 93 55 94 56 95
REMARK H PARENT 17 5 10 12 21 29 80 48 48 59
REMARK Flexibility Score: inf
ROOT
ATOM      1  C   UNL A   1      33.334  30.171  26.526  1.00  0.00     0.117 C 
ENDROOT
BRANCH   1   2
ATOM      2  N   UNL A   1      32.301  29.532  27.330  1.00  0.00    -0.356 N 
ATOM      3  C   UNL A   1      31.722  28.301  27.235  1.00  0.00     0.226 C 
ATOM      4  O   UNL A   1      31.000  27.944  28.172  1.00  0.00    -0.274 OA
ATOM      5  H   UNL A   1      31.963  30.085  28.072  1.00  0.00     0.163 HD
BRANCH   3   6
ATOM      6  C   UNL A   1      31.853  27.396  26.000  1.00  0.00     0.103 C 
ATOM      7  C   UNL A   1      32.342  24.978  25.783  1.00  0.00     0.093 C 
ATOM      8  C   UNL A   1      30.907  25.309  25.500  1.00  0.00    -0.011 C 
ATOM      9  C   UNL A   1      32.929  26.327  26.187  1.00  0.00     0.042 C 
ATOM     10  C   UNL A   1      30.641  26.617  25.609  1.00  0.00    -0.016 C 
BRANCH   7  11
ATOM     11  N   UNL A   1      32.398  24.048  26.919  1.00  0.00    -0.203 NA
ATOM     12  H   UNL A   1      32.668  24.583  27.744  1.00  0.00     0.142 HD
BRANCH  11  13
ATOM     13  S   UNL A   1      33.476  22.733  26.781  1.00  0.00     0.260 S 
ATOM     14  O   UNL A   1      33.370  21.977  28.001  1.00  0.00    -0.205 OA
ATOM     15  O   UNL A   1      34.736  23.324  26.354  1.00  0.00    -0.205 OA
BRANCH  13  16
ATOM     16  C   UNL A   1      33.045  21.638  25.486  1.00  0.00     0.188 A 
ATOM     17  N   UNL A   1      32.587  19.846  24.305  1.00  0.00    -0.334 N 
ATOM     18  C   UNL A   1      32.801  20.286  25.585  1.00  0.00     0.129 A 
ATOM     19  C   UNL A   1      32.469  20.962  23.510  1.00  0.00     0.107 A 
ATOM     20  N   UNL A   1      32.822  22.046  24.181  1.00  0.00    -0.221 NA
ATOM     21  C   UNL A   1      31.947  20.963  22.118  1.00  0.00     0.088 C 
BRANCH  17  22
ATOM     22  C   UNL A   1      32.461  18.447  23.928  1.00  0.00     0.123 C 
BRANCH  22  23
ATOM     23  C   UNL A   1      33.700  17.604  24.257  1.00  0.00     0.018 C 
ATOM     24  C   UNL A   1      34.216  16.790  23.078  1.00  0.00     0.006 C 
ENDBRANCH  22  23
ENDBRANCH  17  22
ENDBRANCH  13  16
ENDBRANCH  11  13
ENDBRANCH   7  11
ENDBRANCH   3   6
ENDBRANCH   1   2
BRANCH   1  25
ATOM     25  C   UNL A   1      34.369  30.942  27.342  1.00  0.00     0.042 C 
BRANCH  25  26
ATOM     26  C   UNL A   1      35.352  30.046  28.074  1.00  0.00     0.118 C 
BRANCH  26  27
ATOM     27  N   UNL A   1      35.467  30.386  29.489  1.00  0.00    -0.352 N 
ATOM     28  C   UNL A   1      36.366  29.887  30.410  1.00  0.00     0.251 C 
ATOM     29  H   UNL A   1      34.825  31.051  29.829  1.00  0.00     0.163 HD
ATOM     30  O   UNL A   1      36.155  30.008  31.611  1.00  0.00    -0.269 OA
BRANCH  28  31
ATOM     31  C   UNL A   1      37.565  29.187  29.916  1.00  0.00     0.039 A 
ATOM     32  C   UNL A   1      38.202  29.604  28.744  1.00  0.00     0.014 A 
ATOM     33  C   UNL A   1      38.085  28.144  30.679  1.00  0.00     0.014 A 
ATOM     34  C   UNL A   1      39.422  29.028  28.395  1.00  0.00     0.010 A 
ATOM     35  C   UNL A   1      39.341  27.660  30.397  1.00  0.00     0.010 A 
ATOM     36  C   UNL A   1      40.005  28.074  29.240  1.00  0.00    -0.014 A 
BRANCH  36  37
ATOM     37  C   UNL A   1      41.377  27.610  29.010  1.00  0.00     0.031 A 
ATOM     38  C   UNL A   1      41.507  26.343  28.233  1.00  0.00     0.074 A 
ATOM     39  C   UNL A   1      42.456  28.399  29.205  1.00  0.00     0.049 A 
ATOM     40  N   UNL A   1      42.061  25.234  28.593  1.00  0.00    -0.248 NA
ATOM     41  C   UNL A   1      40.844  26.268  26.920  1.00  0.00     0.031 C 
ATOM     42  C   UNL A   1      42.468  29.796  29.647  1.00  0.00     0.029 A 
ATOM     43  N   UNL A   1      43.763  28.170  28.890  1.00  0.00    -0.354 N 
ATOM     44  C   UNL A   1      42.028  24.398  27.477  1.00  0.00     0.074 A 
ATOM     45  C   UNL A   1      41.101  25.009  26.562  1.00  0.00     0.031 C 
ATOM     46  C   UNL A   1      43.649  30.360  29.323  1.00  0.00     0.029 A 
ATOM     47  C   UNL A   1      44.533  29.328  28.811  1.00  0.00     0.049 A 
ATOM     48  H   UNL A   1      44.128  27.270  28.732  1.00  0.00     0.167 HD
ATOM     49  C   UNL A   1      42.945  23.402  27.304  1.00  0.00     0.034 A 
ATOM     50  C   UNL A   1      45.792  29.455  28.320  1.00  0.00     0.034 A 
ATOM     51  C   UNL A   1      43.632  23.112  28.545  1.00  0.00     0.049 A 
ATOM     52  C   UNL A   1      46.413  28.110  28.361  1.00  0.00     0.074 A 
ATOM     53  C   UNL A   1      43.226  22.754  29.817  1.00  0.00     0.029 A 
ATOM     54  N   UNL A   1      44.935  23.538  28.689  1.00  0.00    -0.354 N 
ATOM     55  N   UNL A   1      46.655  27.466  29.470  1.00  0.00    -0.248 NA
ATOM     56  C   UNL A   1      46.348  27.278  27.169  1.00  0.00     0.031 C 
ATOM     57  C   UNL A   1      44.090  23.477  30.692  1.00  0.00     0.029 A 
ATOM     58  C   UNL A   1      45.021  24.160  29.908  1.00  0.00     0.049 A 
ATOM     59  H   UNL A   1      45.665  23.418  28.040  1.00  0.00     0.167 HD
ATOM     60  C   UNL A   1      46.329  26.147  29.196  1.00  0.00     0.074 A 
ATOM     61  C   UNL A   1      46.267  26.073  27.738  1.00  0.00     0.031 C 
ATOM     62  C   UNL A   1      45.857  25.315  30.173  1.00  0.00     0.034 A 
BRANCH  49  63
ATOM     63  C   UNL A   1      43.499  22.941  25.965  1.00  0.00     0.023 A 
ATOM     64  C   UNL A   1      43.600  21.550  25.763  1.00  0.00     0.031 A 
ATOM     65  C   UNL A   1      44.196  23.740  25.030  1.00  0.00     0.131 A 
ATOM     66  C   UNL A   1      44.468  21.015  24.794  1.00  0.00     0.055 A 
ATOM     67  C   UNL A   1      44.995  23.202  24.015  1.00  0.00     0.041 A 
ATOM     68  F   UNL A   1      44.223  25.075  25.086  1.00  0.00    -0.206 F 
ATOM     69  C   UNL A   1      45.171  21.833  23.918  1.00  0.00     0.022 A 
BRANCH  66  70
ATOM     70  S   UNL A   1      44.825  19.240  24.857  1.00  0.00     0.124 S 
ATOM     71  O   UNL A   1      46.093  19.228  25.578  1.00  0.00    -0.237 OA
ATOM     72  O   UNL A   1      43.665  18.728  25.580  1.00  0.00    -0.237 OA
ATOM     73  O   UNL A   1      44.901  18.861  23.449  1.00  0.00    -0.744 OA
ENDBRANCH  66  70
ENDBRANCH  49  63
BRANCH  50  74
ATOM     74  C   UNL A   1      46.359  30.619  27.588  1.00  0.00     0.023 A 
ATOM     75  C   UNL A   1      45.565  31.508  26.838  1.00  0.00     0.031 A 
ATOM     76  C   UNL A   1      47.704  30.997  27.806  1.00  0.00     0.131 A 
ATOM     77  C   UNL A   1      46.122  32.709  26.338  1.00  0.00     0.055 A 
ATOM     78  C   UNL A   1      48.253  32.177  27.299  1.00  0.00     0.041 A 
ATOM     79  F   UNL A   1      48.512  30.271  28.595  1.00  0.00    -0.206 F 
ATOM     80  C   UNL A   1      47.459  33.045  26.567  1.00  0.00     0.022 A 
BRANCH  77  81
ATOM     81  S   UNL A   1      45.073  33.915  25.463  1.00  0.00     0.124 S 
ATOM     82  O   UNL A   1      44.445  33.091  24.437  1.00  0.00    -0.237 OA
ATOM     83  O   UNL A   1      44.204  34.404  26.528  1.00  0.00    -0.237 OA
ATOM     84  O   UNL A   1      46.034  34.899  24.959  1.00  0.00    -0.744 OA
ENDBRANCH  77  81
ENDBRANCH  50  74
BRANCH  62  85
ATOM     85  C   UNL A   1      46.000  25.735  31.622  1.00  0.00     0.023 A 
ATOM     86  C   UNL A   1      47.173  25.586  32.395  1.00  0.00     0.031 A 
ATOM     87  C   UNL A   1      44.925  26.437  32.197  1.00  0.00     0.131 A 
ATOM     88  C   UNL A   1      47.232  26.124  33.697  1.00  0.00     0.055 A 
ATOM     89  C   UNL A   1      44.996  26.986  33.477  1.00  0.00     0.041 A 
ATOM     90  F   UNL A   1      43.794  26.640  31.502  1.00  0.00    -0.206 F 
ATOM     91  C   UNL A   1      46.148  26.825  34.234  1.00  0.00     0.022 A 
BRANCH  88  92
ATOM     92  S   UNL A   1      48.722  25.910  34.724  1.00  0.00     0.124 S 
ATOM     93  O   UNL A   1      49.582  27.015  34.317  1.00  0.00    -0.237 OA
ATOM     94  O   UNL A   1      48.183  25.983  36.080  1.00  0.00    -0.237 OA
ATOM     95  O   UNL A   1      49.212  24.585  34.338  1.00  0.00    -0.744 OA
ENDBRANCH  88  92
ENDBRANCH  62  85
ENDBRANCH  36  37
ENDBRANCH  28  31
ENDBRANCH  26  27
ENDBRANCH  25  26
ENDBRANCH   1  25
TORSDOF 18
ENDMDL
MODEL 3
REMARK VINA RESULT:     -12.2      2.372      6.864
REMARK SMILES CCCn1cc(S(=O)(=O)N[C@H]2C=C[C@@H](C(=O)NCCCNC(=O)c3ccc(-c4c5nc(c(-c6cc(S(=O)(=O)[O-])ccc6F)c6ccc([nH]6)c(-c6cc(S(=O)(=O)[O-])ccc6F)c6nc(c(-c7cc(S(=O)(=O)[O-])ccc7F)c7ccc4[nH]7)C=C6)C=C5)cc3)C2)nc1C
REMARK SMILES IDX 18 1 17 2 15 3 16 4 14 6 11 7 12 8 87 9 13 10 10 11 7 13
REMARK SMILES IDX 8 14 9 15 6 16 4 17 5 18 89 19 88 20 90 21 3 22 2 23 1 24
REMARK SMILES IDX 19 25 20 26 21 27 22 28 23 30 24 31 25 32 86 33 26 34 85 35
REMARK SMILES IDX 27 36 28 37 29 38 79 39 30 40 84 41 78 42 80 43 31 44 83 45
REMARK SMILES IDX 77 46 76 47 32 49 64 50 44 51 63 52 45 53 48 54 62 55 81 56
REMARK SMILES IDX 46 57 47 58 61 60 82 61 49 62 33 63 34 64 42 65 35 66 41 67
REMARK SMILES IDX 43 68 40 69 36 70 37 71 38 72 39 73 65 74 66 75 74 76 67 77
REMARK SMILES IDX 73 78 75 79 72 80 68 81 69 82 70 83 71 84 50 85 51 86 59 87
REMARK SMILES IDX 52 88 58 89 60 90 57 91 53 92 54 93 55 94 56 95
REMARK H PARENT 17 5 10 12 21 29 80 48 48 59
REMARK Flexibility Score: inf
ROOT
ATOM      1  C   UNL A   1      33.110  27.838  25.927  1.00  0.00     0.117 C 
ENDROOT
BRANCH   1   2
ATOM      2  N   UNL A   1      33.751  28.422  24.758  1.00  0.00    -0.356 N 
ATOM      3  C   UNL A   1      33.752  28.040  23.449  1.00  0.00     0.226 C 
ATOM      4  O   UNL A   1      34.228  28.833  22.629  1.00  0.00    -0.274 OA
ATOM      5  H   UNL A   1      34.274  29.237  24.944  1.00  0.00     0.163 HD
BRANCH   3   6
ATOM      6  C   UNL A   1      33.279  26.657  22.969  1.00  0.00     0.103 C 
ATOM      7  C   UNL A   1      32.576  24.640  24.221  1.00  0.00     0.093 C 
ATOM      8  C   UNL A   1      31.426  25.356  23.577  1.00  0.00    -0.011 C 
ATOM      9  C   UNL A   1      33.764  25.537  23.890  1.00  0.00     0.042 C 
ATOM     10  C   UNL A   1      31.805  26.444  22.894  1.00  0.00    -0.016 C 
BRANCH   7  11
ATOM     11  N   UNL A   1      32.361  24.610  25.674  1.00  0.00    -0.203 NA
ATOM     12  H   UNL A   1      33.238  24.876  26.122  1.00  0.00     0.142 HD
BRANCH  11  13
ATOM     13  S   UNL A   1      31.870  23.121  26.346  1.00  0.00     0.260 S 
ATOM     14  O   UNL A   1      30.505  22.911  25.941  1.00  0.00    -0.205 OA
ATOM     15  O   UNL A   1      32.249  23.199  27.749  1.00  0.00    -0.205 OA
BRANCH  13  16
ATOM     16  C   UNL A   1      32.781  21.764  25.721  1.00  0.00     0.188 A 
ATOM     17  N   UNL A   1      33.358  19.854  24.806  1.00  0.00    -0.334 N 
ATOM     18  C   UNL A   1      32.295  20.698  24.996  1.00  0.00     0.129 A 
ATOM     19  C   UNL A   1      34.487  20.534  25.201  1.00  0.00     0.107 A 
ATOM     20  N   UNL A   1      34.157  21.649  25.831  1.00  0.00    -0.221 NA
ATOM     21  C   UNL A   1      35.881  20.116  24.900  1.00  0.00     0.088 C 
BRANCH  17  22
ATOM     22  C   UNL A   1      33.258  18.521  24.234  1.00  0.00     0.123 C 
BRANCH  22  23
ATOM     23  C   UNL A   1      32.822  17.448  25.242  1.00  0.00     0.018 C 
ATOM     24  C   UNL A   1      33.305  16.048  24.889  1.00  0.00     0.006 C 
ENDBRANCH  22  23
ENDBRANCH  17  22
ENDBRANCH  13  16
ENDBRANCH  11  13
ENDBRANCH   7  11
ENDBRANCH   3   6
ENDBRANCH   1   2
BRANCH   1  25
ATOM     25  C   UNL A   1      33.439  28.551  27.238  1.00  0.00     0.042 C 
BRANCH  25  26
ATOM     26  C   UNL A   1      34.896  28.959  27.355  1.00  0.00     0.118 C 
BRANCH  26  27
ATOM     27  N   UNL A   1      35.101  30.008  28.351  1.00  0.00    -0.352 N 
ATOM     28  C   UNL A   1      36.166  30.157  29.216  1.00  0.00     0.251 C 
ATOM     29  H   UNL A   1      34.394  30.690  28.414  1.00  0.00     0.163 HD
ATOM     30  O   UNL A   1      36.067  30.877  30.202  1.00  0.00    -0.269 OA
BRANCH  28  31
ATOM     31  C   UNL A   1      37.408  29.415  28.939  1.00  0.00     0.039 A 
ATOM     32  C   UNL A   1      38.148  29.669  27.782  1.00  0.00     0.014 A 
ATOM     33  C   UNL A   1      37.860  28.502  29.890  1.00  0.00     0.014 A 
ATOM     34  C   UNL A   1      39.398  29.069  27.632  1.00  0.00     0.010 A 
ATOM     35  C   UNL A   1      39.138  28.003  29.796  1.00  0.00     0.010 A 
ATOM     36  C   UNL A   1      39.904  28.257  28.657  1.00  0.00    -0.014 A 
BRANCH  36  37
ATOM     37  C   UNL A   1      41.293  27.788  28.622  1.00  0.00     0.031 A 
ATOM     38  C   UNL A   1      41.528  26.527  27.861  1.00  0.00     0.074 A 
ATOM     39  C   UNL A   1      42.336  28.570  28.976  1.00  0.00     0.049 A 
ATOM     40  N   UNL A   1      42.021  25.412  28.288  1.00  0.00    -0.248 NA
ATOM     41  C   UNL A   1      41.060  26.465  26.466  1.00  0.00     0.031 C 
ATOM     42  C   UNL A   1      42.289  29.964  29.427  1.00  0.00     0.029 A 
ATOM     43  N   UNL A   1      43.673  28.338  28.850  1.00  0.00    -0.354 N 
ATOM     44  C   UNL A   1      42.145  24.585  27.171  1.00  0.00     0.074 A 
ATOM     45  C   UNL A   1      41.361  25.207  26.138  1.00  0.00     0.031 C 
ATOM     46  C   UNL A   1      43.507  30.524  29.280  1.00  0.00     0.029 A 
ATOM     47  C   UNL A   1      44.451  29.492  28.892  1.00  0.00     0.049 A 
ATOM     48  H   UNL A   1      44.054  27.437  28.739  1.00  0.00     0.167 HD
ATOM     49  C   UNL A   1      43.073  23.586  27.123  1.00  0.00     0.034 A 
ATOM     50  C   UNL A   1      45.768  29.617  28.586  1.00  0.00     0.034 A 
ATOM     51  C   UNL A   1      43.575  23.283  28.447  1.00  0.00     0.049 A 
ATOM     52  C   UNL A   1      46.371  28.269  28.705  1.00  0.00     0.074 A 
ATOM     53  C   UNL A   1      42.989  22.917  29.645  1.00  0.00     0.029 A 
ATOM     54  N   UNL A   1      44.845  23.701  28.780  1.00  0.00    -0.354 N 
ATOM     55  N   UNL A   1      46.450  27.614  29.832  1.00  0.00    -0.248 NA
ATOM     56  C   UNL A   1      46.475  27.446  27.509  1.00  0.00     0.031 C 
ATOM     57  C   UNL A   1      43.721  23.629  30.641  1.00  0.00     0.029 A 
ATOM     58  C   UNL A   1      44.758  24.314  30.004  1.00  0.00     0.049 A 
ATOM     59  H   UNL A   1      45.660  23.582  28.242  1.00  0.00     0.167 HD
ATOM     60  C   UNL A   1      46.162  26.300  29.503  1.00  0.00     0.074 A 
ATOM     61  C   UNL A   1      46.309  26.237  28.051  1.00  0.00     0.031 C 
ATOM     62  C   UNL A   1      45.552  25.463  30.396  1.00  0.00     0.034 A 
BRANCH  49  63
ATOM     63  C   UNL A   1      43.812  23.133  25.873  1.00  0.00     0.023 A 
ATOM     64  C   UNL A   1      43.783  21.753  25.582  1.00  0.00     0.031 A 
ATOM     65  C   UNL A   1      44.764  23.884  25.147  1.00  0.00     0.131 A 
ATOM     66  C   UNL A   1      44.748  21.164  24.746  1.00  0.00     0.055 A 
ATOM     67  C   UNL A   1      45.671  23.303  24.253  1.00  0.00     0.041 A 
ATOM     68  F   UNL A   1      44.938  25.199  25.314  1.00  0.00    -0.206 F 
ATOM     69  C   UNL A   1      45.697  21.931  24.080  1.00  0.00     0.022 A 
BRANCH  66  70
ATOM     70  S   UNL A   1      44.873  19.358  24.730  1.00  0.00     0.124 S 
ATOM     71  O   UNL A   1      44.792  19.077  23.300  1.00  0.00    -0.237 OA
ATOM     72  O   UNL A   1      46.173  19.142  25.358  1.00  0.00    -0.237 OA
ATOM     73  O   UNL A   1      43.720  18.932  25.518  1.00  0.00    -0.744 OA
ENDBRANCH  66  70
ENDBRANCH  49  63
BRANCH  50  74
ATOM     74  C   UNL A   1      46.439  30.783  27.953  1.00  0.00     0.023 A 
ATOM     75  C   UNL A   1      45.788  31.631  27.036  1.00  0.00     0.031 A 
ATOM     76  C   UNL A   1      47.701  31.210  28.428  1.00  0.00     0.131 A 
ATOM     77  C   UNL A   1      46.401  32.839  26.626  1.00  0.00     0.055 A 
ATOM     78  C   UNL A   1      48.308  32.396  28.010  1.00  0.00     0.041 A 
ATOM     79  F   UNL A   1      48.353  30.527  29.382  1.00  0.00    -0.206 F 
ATOM     80  C   UNL A   1      47.654  33.223  27.111  1.00  0.00     0.022 A 
BRANCH  77  81
ATOM     81  S   UNL A   1      45.517  33.991  25.526  1.00  0.00     0.124 S 
ATOM     82  O   UNL A   1      46.612  34.653  24.826  1.00  0.00    -0.237 OA
ATOM     83  O   UNL A   1      44.687  33.092  24.733  1.00  0.00    -0.237 OA
ATOM     84  O   UNL A   1      44.775  34.846  26.454  1.00  0.00    -0.744 OA
ENDBRANCH  77  81
ENDBRANCH  50  74
BRANCH  62  85
ATOM     85  C   UNL A   1      45.487  25.871  31.854  1.00  0.00     0.023 A 
ATOM     86  C   UNL A   1      44.341  26.388  32.498  1.00  0.00     0.031 A 
ATOM     87  C   UNL A   1      46.613  25.597  32.649  1.00  0.00     0.131 A 
ATOM     88  C   UNL A   1      44.358  26.621  33.888  1.00  0.00     0.055 A 
ATOM     89  C   UNL A   1      46.619  25.807  34.027  1.00  0.00     0.041 A 
ATOM     90  F   UNL A   1      47.724  25.074  32.101  1.00  0.00    -0.206 F 
ATOM     91  C   UNL A   1      45.493  26.327  34.651  1.00  0.00     0.022 A 
BRANCH  88  92
ATOM     92  S   UNL A   1      42.904  27.322  34.732  1.00  0.00     0.124 S 
ATOM     93  O   UNL A   1      41.998  27.653  33.638  1.00  0.00    -0.237 OA
ATOM     94  O   UNL A   1      42.484  26.227  35.602  1.00  0.00    -0.237 OA
ATOM     95  O   UNL A   1      43.450  28.482  35.440  1.00  0.00    -0.744 OA
ENDBRANCH  88  92
ENDBRANCH  62  85
ENDBRANCH  36  37
ENDBRANCH  28  31
ENDBRANCH  26  27
ENDBRANCH  25  26
ENDBRANCH   1  25
TORSDOF 18
ENDMDL
