MODEL 1
REMARK VINA RESULT:     -11.7      0.000      0.000
REMARK SMILES C[C@@](NC(=O)c1cc(Br)c[nH]1)(C(=O)NCCCNC(=O)c1ccc(-c2c3nc(c(-c4cc(S(=O)(=O)[O-])ccc4F)c4ccc([nH]4)c(-c4cc(S(=O)(=O)[O-])ccc4F)c4nc(c(-c5cc(S(=O)(=O)[O-])ccc5F)c5ccc2[nH]5)C=C4)C=C3)cc1)C(F)(F)F
REMARK SMILES IDX 16 1 15 2 14 3 12 4 13 5 2 7 1 8 3 9 4 10 5 12 6 13 7 14
REMARK SMILES IDX 11 15 8 16 10 17 9 19 84 20 85 21 86 22 87 23 17 24 18 25
REMARK SMILES IDX 19 26 20 28 21 29 22 30 83 31 23 32 82 33 24 34 25 35 26 36
REMARK SMILES IDX 76 37 27 38 81 39 75 40 77 41 28 42 80 43 74 44 73 45 29 47
REMARK SMILES IDX 61 48 41 49 60 50 42 51 45 52 59 53 78 54 43 55 44 56 58 58
REMARK SMILES IDX 79 59 46 60 30 61 31 62 39 63 32 64 38 65 40 66 37 67 33 68
REMARK SMILES IDX 34 69 35 70 36 71 62 72 63 73 71 74 64 75 70 76 72 77 69 78
REMARK SMILES IDX 65 79 66 80 67 81 68 82 47 83 48 84 56 85 49 86 55 87 57 88
REMARK SMILES IDX 54 89 50 90 51 91 52 92 53 93
REMARK H PARENT 14 6 3 11 11 18 18 27 77 46 45 57
REMARK Flexibility Score: inf
ROOT
ATOM      1  C   UNL A   1      36.195  22.785  23.283  1.00  0.00     0.042 C 
ENDROOT
BRANCH   1   2
ATOM      2  C   UNL A   1      34.886  23.537  23.445  1.00  0.00     0.117 C 
BRANCH   2   3
ATOM      3  N   UNL A   1      33.742  22.732  23.043  1.00  0.00    -0.354 N 
ATOM      4  C   UNL A   1      32.557  22.486  23.673  1.00  0.00     0.254 C 
ATOM      5  O   UNL A   1      31.741  21.798  23.054  1.00  0.00    -0.272 OA
ATOM      6  H   UNL A   1      33.839  22.291  22.169  1.00  0.00     0.163 HD
BRANCH   4   7
ATOM      7  C   UNL A   1      32.299  22.928  25.121  1.00  0.00     0.212 C 
ATOM      8  C   UNL A   1      31.005  22.220  25.581  1.00  0.00     0.056 C 
BRANCH   7   9
ATOM      9  N   UNL A   1      33.389  22.573  26.083  1.00  0.00    -0.329 N 
ATOM     10  C   UNL A   1      34.195  21.466  26.177  1.00  0.00     0.268 C 
ATOM     11  H   UNL A   1      33.558  23.255  26.772  1.00  0.00     0.165 HD
ATOM     12  O   UNL A   1      35.236  21.596  26.820  1.00  0.00    -0.268 OA
BRANCH  10  13
ATOM     13  C   UNL A   1      33.733  20.184  25.704  1.00  0.00     0.105 A 
ATOM     14  C   UNL A   1      34.145  19.546  24.540  1.00  0.00     0.049 A 
ATOM     15  N   UNL A   1      32.777  19.367  26.273  1.00  0.00    -0.356 N 
ATOM     16  C   UNL A   1      33.550  18.275  24.518  1.00  0.00     0.036 A 
ATOM     17  C   UNL A   1      32.711  18.175  25.594  1.00  0.00     0.098 A 
ATOM     18  H   UNL A   1      32.223  19.604  27.052  1.00  0.00     0.166 HD
ATOM     19  Br  UNL A   1      33.905  16.964  23.232  1.00  0.00    -0.049 Br
ENDBRANCH  10  13
ENDBRANCH   7   9
BRANCH   7  20
ATOM     20  C   UNL A   1      32.013  24.445  25.124  1.00  0.00     0.420 C 
ATOM     21  F   UNL A   1      31.009  24.807  25.948  1.00  0.00    -0.168 F 
ATOM     22  F   UNL A   1      33.118  25.119  25.551  1.00  0.00    -0.168 F 
ATOM     23  F   UNL A   1      31.738  24.922  23.887  1.00  0.00    -0.168 F 
ENDBRANCH   7  20
ENDBRANCH   4   7
ENDBRANCH   2   3
ENDBRANCH   1   2
BRANCH   1  24
ATOM     24  C   UNL A   1      37.141  22.938  24.468  1.00  0.00     0.118 C 
BRANCH  24  25
ATOM     25  N   UNL A   1      37.671  21.669  24.949  1.00  0.00    -0.352 N 
ATOM     26  C   UNL A   1      38.715  21.465  25.825  1.00  0.00     0.251 C 
ATOM     27  H   UNL A   1      37.229  20.859  24.606  1.00  0.00     0.163 HD
ATOM     28  O   UNL A   1      39.144  20.335  26.034  1.00  0.00    -0.269 OA
BRANCH  26  29
ATOM     29  C   UNL A   1      39.328  22.641  26.476  1.00  0.00     0.039 A 
ATOM     30  C   UNL A   1      40.390  22.458  27.364  1.00  0.00     0.014 A 
ATOM     31  C   UNL A   1      38.908  23.927  26.122  1.00  0.00     0.014 A 
ATOM     32  C   UNL A   1      41.094  23.572  27.830  1.00  0.00     0.010 A 
ATOM     33  C   UNL A   1      39.661  25.024  26.522  1.00  0.00     0.010 A 
ATOM     34  C   UNL A   1      40.766  24.858  27.374  1.00  0.00    -0.014 A 
BRANCH  34  35
ATOM     35  C   UNL A   1      41.541  26.061  27.774  1.00  0.00     0.031 A 
ATOM     36  C   UNL A   1      40.856  27.152  28.550  1.00  0.00     0.074 A 
ATOM     37  C   UNL A   1      42.809  26.225  27.346  1.00  0.00     0.049 A 
ATOM     38  N   UNL A   1      41.266  28.364  28.821  1.00  0.00    -0.248 NA
ATOM     39  C   UNL A   1      39.505  26.847  29.044  1.00  0.00     0.031 C 
ATOM     40  C   UNL A   1      43.570  25.258  26.552  1.00  0.00     0.029 A 
ATOM     41  N   UNL A   1      43.675  27.279  27.499  1.00  0.00    -0.354 N 
ATOM     42  C   UNL A   1      40.206  28.980  29.479  1.00  0.00     0.074 A 
ATOM     43  C   UNL A   1      39.123  28.022  29.518  1.00  0.00     0.031 C 
ATOM     44  C   UNL A   1      44.791  25.759  26.298  1.00  0.00     0.029 A 
ATOM     45  C   UNL A   1      44.884  27.100  26.867  1.00  0.00     0.049 A 
ATOM     46  H   UNL A   1      43.451  28.089  28.012  1.00  0.00     0.167 HD
ATOM     47  C   UNL A   1      40.149  30.226  30.014  1.00  0.00     0.034 A 
ATOM     48  C   UNL A   1      45.939  27.929  26.745  1.00  0.00     0.034 A 
ATOM     49  C   UNL A   1      41.254  31.153  30.000  1.00  0.00     0.049 A 
ATOM     50  C   UNL A   1      45.868  29.296  27.375  1.00  0.00     0.074 A 
ATOM     51  C   UNL A   1      41.329  32.418  30.554  1.00  0.00     0.029 A 
ATOM     52  N   UNL A   1      42.485  30.907  29.404  1.00  0.00    -0.354 N 
ATOM     53  N   UNL A   1      44.866  29.861  28.009  1.00  0.00    -0.248 NA
ATOM     54  C   UNL A   1      47.072  30.133  27.283  1.00  0.00     0.031 C 
ATOM     55  C   UNL A   1      42.588  32.954  30.260  1.00  0.00     0.029 A 
ATOM     56  C   UNL A   1      43.320  31.999  29.570  1.00  0.00     0.049 A 
ATOM     57  H   UNL A   1      42.728  30.078  28.932  1.00  0.00     0.167 HD
ATOM     58  C   UNL A   1      45.331  31.107  28.418  1.00  0.00     0.074 A 
ATOM     59  C   UNL A   1      46.704  31.210  27.962  1.00  0.00     0.031 C 
ATOM     60  C   UNL A   1      44.686  32.078  29.113  1.00  0.00     0.034 A 
BRANCH  47  61
ATOM     61  C   UNL A   1      38.838  30.651  30.628  1.00  0.00     0.023 A 
ATOM     62  C   UNL A   1      37.859  31.327  29.879  1.00  0.00     0.031 A 
ATOM     63  C   UNL A   1      38.587  30.432  31.994  1.00  0.00     0.131 A 
ATOM     64  C   UNL A   1      36.721  31.840  30.517  1.00  0.00     0.055 A 
ATOM     65  C   UNL A   1      37.410  30.869  32.605  1.00  0.00     0.041 A 
ATOM     66  F   UNL A   1      39.493  29.809  32.764  1.00  0.00    -0.206 F 
ATOM     67  C   UNL A   1      36.477  31.596  31.870  1.00  0.00     0.022 A 
BRANCH  64  68
ATOM     68  S   UNL A   1      35.647  32.969  29.587  1.00  0.00     0.124 S 
ATOM     69  O   UNL A   1      36.535  33.391  28.505  1.00  0.00    -0.237 OA
ATOM     70  O   UNL A   1      34.537  32.106  29.204  1.00  0.00    -0.237 OA
ATOM     71  O   UNL A   1      35.323  34.011  30.560  1.00  0.00    -0.744 OA
ENDBRANCH  64  68
ENDBRANCH  47  61
BRANCH  48  72
ATOM     72  C   UNL A   1      47.150  27.503  25.990  1.00  0.00     0.023 A 
ATOM     73  C   UNL A   1      47.290  27.807  24.626  1.00  0.00     0.031 A 
ATOM     74  C   UNL A   1      48.168  26.759  26.610  1.00  0.00     0.131 A 
ATOM     75  C   UNL A   1      48.403  27.331  23.914  1.00  0.00     0.055 A 
ATOM     76  C   UNL A   1      49.295  26.326  25.908  1.00  0.00     0.041 A 
ATOM     77  F   UNL A   1      48.088  26.454  27.914  1.00  0.00    -0.206 F 
ATOM     78  C   UNL A   1      49.411  26.602  24.548  1.00  0.00     0.022 A 
BRANCH  75  79
ATOM     79  S   UNL A   1      48.480  27.625  22.126  1.00  0.00     0.124 S 
ATOM     80  O   UNL A   1      49.632  28.512  22.020  1.00  0.00    -0.237 OA
ATOM     81  O   UNL A   1      48.660  26.273  21.606  1.00  0.00    -0.237 OA
ATOM     82  O   UNL A   1      47.188  28.239  21.826  1.00  0.00    -0.744 OA
ENDBRANCH  75  79
ENDBRANCH  48  72
BRANCH  60  83
ATOM     83  C   UNL A   1      45.484  33.302  29.475  1.00  0.00     0.023 A 
ATOM     84  C   UNL A   1      45.517  34.436  28.647  1.00  0.00     0.031 A 
ATOM     85  C   UNL A   1      46.221  33.327  30.671  1.00  0.00     0.131 A 
ATOM     86  C   UNL A   1      46.307  35.538  29.008  1.00  0.00     0.055 A 
ATOM     87  C   UNL A   1      46.970  34.442  31.048  1.00  0.00     0.041 A 
ATOM     88  F   UNL A   1      46.221  32.267  31.496  1.00  0.00    -0.206 F 
ATOM     89  C   UNL A   1      47.024  35.552  30.209  1.00  0.00     0.022 A 
BRANCH  86  90
ATOM     90  S   UNL A   1      46.440  36.932  27.857  1.00  0.00     0.124 S 
ATOM     91  O   UNL A   1      47.786  37.426  28.132  1.00  0.00    -0.237 OA
ATOM     92  O   UNL A   1      46.252  36.287  26.561  1.00  0.00    -0.237 OA
ATOM     93  O   UNL A   1      45.357  37.822  28.268  1.00  0.00    -0.744 OA
ENDBRANCH  86  90
ENDBRANCH  60  83
ENDBRANCH  34  35
ENDBRANCH  26  29
ENDBRANCH  24  25
ENDBRANCH   1  24
TORSDOF 16
ENDMDL
MODEL 2
REMARK VINA RESULT:     -11.6      5.195      9.787
REMARK SMILES C[C@@](NC(=O)c1cc(Br)c[nH]1)(C(=O)NCCCNC(=O)c1ccc(-c2c3nc(c(-c4cc(S(=O)(=O)[O-])ccc4F)c4ccc([nH]4)c(-c4cc(S(=O)(=O)[O-])ccc4F)c4nc(c(-c5cc(S(=O)(=O)[O-])ccc5F)c5ccc2[nH]5)C=C4)C=C3)cc1)C(F)(F)F
REMARK SMILES IDX 16 1 15 2 14 3 12 4 13 5 2 7 1 8 3 9 4 10 5 12 6 13 7 14
REMARK SMILES IDX 11 15 8 16 10 17 9 19 84 20 85 21 86 22 87 23 17 24 18 25
REMARK SMILES IDX 19 26 20 28 21 29 22 30 83 31 23 32 82 33 24 34 25 35 26 36
REMARK SMILES IDX 76 37 27 38 81 39 75 40 77 41 28 42 80 43 74 44 73 45 29 47
REMARK SMILES IDX 61 48 41 49 60 50 42 51 45 52 59 53 78 54 43 55 44 56 58 58
REMARK SMILES IDX 79 59 46 60 30 61 31 62 39 63 32 64 38 65 40 66 37 67 33 68
REMARK SMILES IDX 34 69 35 70 36 71 62 72 63 73 71 74 64 75 70 76 72 77 69 78
REMARK SMILES IDX 65 79 66 80 67 81 68 82 47 83 48 84 56 85 49 86 55 87 57 88
REMARK SMILES IDX 54 89 50 90 51 91 52 92 53 93
REMARK H PARENT 14 6 3 11 11 18 18 27 77 46 45 57
REMARK Flexibility Score: inf
ROOT
ATOM      1  C   UNL A   1      32.897  29.333  24.121  1.00  0.00     0.042 C 
ENDROOT
BRANCH   1   2
ATOM      2  C   UNL A   1      32.637  27.912  23.652  1.00  0.00     0.117 C 
BRANCH   2   3
ATOM      3  N   UNL A   1      31.461  27.336  24.288  1.00  0.00    -0.354 N 
ATOM      4  C   UNL A   1      31.256  26.104  24.837  1.00  0.00     0.254 C 
ATOM      5  O   UNL A   1      30.156  25.915  25.363  1.00  0.00    -0.272 OA
ATOM      6  H   UNL A   1      30.683  27.936  24.329  1.00  0.00     0.163 HD
BRANCH   4   7
ATOM      7  C   UNL A   1      32.284  24.971  24.699  1.00  0.00     0.212 C 
ATOM      8  C   UNL A   1      31.600  23.682  25.210  1.00  0.00     0.056 C 
BRANCH   7   9
ATOM      9  N   UNL A   1      32.752  24.724  23.299  1.00  0.00    -0.329 N 
ATOM     10  C   UNL A   1      33.349  23.634  22.718  1.00  0.00     0.268 C 
ATOM     11  H   UNL A   1      32.605  25.479  22.685  1.00  0.00     0.165 HD
ATOM     12  O   UNL A   1      33.289  23.562  21.492  1.00  0.00    -0.268 OA
BRANCH  10  13
ATOM     13  C   UNL A   1      34.161  22.740  23.506  1.00  0.00     0.105 A 
ATOM     14  C   UNL A   1      35.547  22.778  23.618  1.00  0.00     0.049 A 
ATOM     15  N   UNL A   1      33.744  21.659  24.257  1.00  0.00    -0.356 N 
ATOM     16  C   UNL A   1      35.923  21.819  24.572  1.00  0.00     0.036 A 
ATOM     17  C   UNL A   1      34.802  21.138  24.961  1.00  0.00     0.098 A 
ATOM     18  H   UNL A   1      32.823  21.313  24.284  1.00  0.00     0.166 HD
ATOM     19  Br  UNL A   1      37.670  21.579  25.195  1.00  0.00    -0.049 Br
ENDBRANCH  10  13
ENDBRANCH   7   9
BRANCH   7  20
ATOM     20  C   UNL A   1      33.465  25.266  25.648  1.00  0.00     0.420 C 
ATOM     21  F   UNL A   1      33.215  26.248  26.538  1.00  0.00    -0.168 F 
ATOM     22  F   UNL A   1      33.753  24.153  26.380  1.00  0.00    -0.168 F 
ATOM     23  F   UNL A   1      34.601  25.579  24.980  1.00  0.00    -0.168 F 
ENDBRANCH   7  20
ENDBRANCH   4   7
ENDBRANCH   2   3
ENDBRANCH   1   2
BRANCH   1  24
ATOM     24  C   UNL A   1      33.037  29.464  25.633  1.00  0.00     0.118 C 
BRANCH  24  25
ATOM     25  N   UNL A   1      32.517  30.722  26.153  1.00  0.00    -0.352 N 
ATOM     26  C   UNL A   1      33.075  31.538  27.112  1.00  0.00     0.251 C 
ATOM     27  H   UNL A   1      31.660  31.025  25.772  1.00  0.00     0.163 HD
ATOM     28  O   UNL A   1      32.455  32.499  27.554  1.00  0.00    -0.269 OA
BRANCH  26  29
ATOM     29  C   UNL A   1      34.421  31.205  27.622  1.00  0.00     0.039 A 
ATOM     30  C   UNL A   1      35.385  32.210  27.724  1.00  0.00     0.014 A 
ATOM     31  C   UNL A   1      34.686  29.914  28.090  1.00  0.00     0.014 A 
ATOM     32  C   UNL A   1      36.589  31.942  28.382  1.00  0.00     0.010 A 
ATOM     33  C   UNL A   1      35.848  29.676  28.813  1.00  0.00     0.010 A 
ATOM     34  C   UNL A   1      36.808  30.688  28.973  1.00  0.00    -0.014 A 
BRANCH  34  35
ATOM     35  C   UNL A   1      38.035  30.386  29.756  1.00  0.00     0.031 A 
ATOM     36  C   UNL A   1      39.039  29.413  29.203  1.00  0.00     0.074 A 
ATOM     37  C   UNL A   1      38.188  30.889  30.998  1.00  0.00     0.049 A 
ATOM     38  N   UNL A   1      40.060  28.847  29.791  1.00  0.00    -0.248 NA
ATOM     39  C   UNL A   1      38.830  28.987  27.812  1.00  0.00     0.031 C 
ATOM     40  C   UNL A   1      37.264  31.810  31.663  1.00  0.00     0.029 A 
ATOM     41  N   UNL A   1      39.168  30.674  31.935  1.00  0.00    -0.354 N 
ATOM     42  C   UNL A   1      40.589  27.964  28.856  1.00  0.00     0.074 A 
ATOM     43  C   UNL A   1      39.743  28.037  27.684  1.00  0.00     0.031 C 
ATOM     44  C   UNL A   1      37.728  32.090  32.893  1.00  0.00     0.029 A 
ATOM     45  C   UNL A   1      38.953  31.332  33.124  1.00  0.00     0.049 A 
ATOM     46  H   UNL A   1      39.953  30.102  31.771  1.00  0.00     0.167 HD
ATOM     47  C   UNL A   1      41.689  27.175  28.961  1.00  0.00     0.034 A 
ATOM     48  C   UNL A   1      39.654  31.311  34.275  1.00  0.00     0.034 A 
ATOM     49  C   UNL A   1      42.543  27.145  30.123  1.00  0.00     0.049 A 
ATOM     50  C   UNL A   1      40.891  30.455  34.359  1.00  0.00     0.074 A 
ATOM     51  C   UNL A   1      43.709  26.428  30.321  1.00  0.00     0.029 A 
ATOM     52  N   UNL A   1      42.324  27.876  31.284  1.00  0.00    -0.354 N 
ATOM     53  N   UNL A   1      41.390  29.637  33.461  1.00  0.00    -0.248 NA
ATOM     54  C   UNL A   1      41.663  30.526  35.606  1.00  0.00     0.031 C 
ATOM     55  C   UNL A   1      44.173  26.692  31.615  1.00  0.00     0.029 A 
ATOM     56  C   UNL A   1      43.327  27.620  32.204  1.00  0.00     0.049 A 
ATOM     57  H   UNL A   1      41.566  28.487  31.432  1.00  0.00     0.167 HD
ATOM     58  C   UNL A   1      42.553  29.120  34.025  1.00  0.00     0.074 A 
ATOM     59  C   UNL A   1      42.683  29.722  35.338  1.00  0.00     0.031 C 
ATOM     60  C   UNL A   1      43.439  28.234  33.504  1.00  0.00     0.034 A 
BRANCH  47  61
ATOM     61  C   UNL A   1      42.000  26.270  27.794  1.00  0.00     0.023 A 
ATOM     62  C   UNL A   1      41.576  24.930  27.770  1.00  0.00     0.031 A 
ATOM     63  C   UNL A   1      42.779  26.734  26.720  1.00  0.00     0.131 A 
ATOM     64  C   UNL A   1      42.011  24.078  26.745  1.00  0.00     0.055 A 
ATOM     65  C   UNL A   1      43.136  25.902  25.657  1.00  0.00     0.041 A 
ATOM     66  F   UNL A   1      43.229  27.999  26.698  1.00  0.00    -0.206 F 
ATOM     67  C   UNL A   1      42.768  24.559  25.675  1.00  0.00     0.022 A 
BRANCH  64  68
ATOM     68  S   UNL A   1      41.708  22.297  26.917  1.00  0.00     0.124 S 
ATOM     69  O   UNL A   1      40.329  22.281  27.403  1.00  0.00    -0.237 OA
ATOM     70  O   UNL A   1      41.912  21.808  25.559  1.00  0.00    -0.237 OA
ATOM     71  O   UNL A   1      42.710  21.873  27.893  1.00  0.00    -0.744 OA
ENDBRANCH  64  68
ENDBRANCH  47  61
BRANCH  48  72
ATOM     72  C   UNL A   1      39.204  32.113  35.447  1.00  0.00     0.023 A 
ATOM     73  C   UNL A   1      39.656  33.429  35.633  1.00  0.00     0.031 A 
ATOM     74  C   UNL A   1      38.345  31.565  36.414  1.00  0.00     0.131 A 
ATOM     75  C   UNL A   1      39.281  34.141  36.784  1.00  0.00     0.055 A 
ATOM     76  C   UNL A   1      37.939  32.292  37.536  1.00  0.00     0.041 A 
ATOM     77  F   UNL A   1      37.876  30.316  36.276  1.00  0.00    -0.206 F 
ATOM     78  C   UNL A   1      38.418  33.585  37.731  1.00  0.00     0.022 A 
BRANCH  75  79
ATOM     79  S   UNL A   1      39.994  35.786  37.058  1.00  0.00     0.124 S 
ATOM     80  O   UNL A   1      39.270  36.230  38.242  1.00  0.00    -0.237 OA
ATOM     81  O   UNL A   1      41.407  35.474  37.248  1.00  0.00    -0.237 OA
ATOM     82  O   UNL A   1      39.678  36.503  35.825  1.00  0.00    -0.744 OA
ENDBRANCH  75  79
ENDBRANCH  48  72
BRANCH  60  83
ATOM     83  C   UNL A   1      44.655  27.919  34.333  1.00  0.00     0.023 A 
ATOM     84  C   UNL A   1      44.677  26.844  35.237  1.00  0.00     0.031 A 
ATOM     85  C   UNL A   1      45.810  28.711  34.209  1.00  0.00     0.131 A 
ATOM     86  C   UNL A   1      45.821  26.614  36.017  1.00  0.00     0.055 A 
ATOM     87  C   UNL A   1      46.961  28.451  34.954  1.00  0.00     0.041 A 
ATOM     88  F   UNL A   1      45.838  29.749  33.358  1.00  0.00    -0.206 F 
ATOM     89  C   UNL A   1      46.967  27.403  35.872  1.00  0.00     0.022 A 
BRANCH  86  90
ATOM     90  S   UNL A   1      45.773  25.308  37.273  1.00  0.00     0.124 S 
ATOM     91  O   UNL A   1      44.452  25.503  37.864  1.00  0.00    -0.237 OA
ATOM     92  O   UNL A   1      45.940  24.099  36.473  1.00  0.00    -0.237 OA
ATOM     93  O   UNL A   1      46.897  25.630  38.148  1.00  0.00    -0.744 OA
ENDBRANCH  86  90
ENDBRANCH  60  83
ENDBRANCH  34  35
ENDBRANCH  26  29
ENDBRANCH  24  25
ENDBRANCH   1  24
TORSDOF 16
ENDMDL
MODEL 3
REMARK VINA RESULT:     -11.6      6.259     11.000
REMARK SMILES C[C@@](NC(=O)c1cc(Br)c[nH]1)(C(=O)NCCCNC(=O)c1ccc(-c2c3nc(c(-c4cc(S(=O)(=O)[O-])ccc4F)c4ccc([nH]4)c(-c4cc(S(=O)(=O)[O-])ccc4F)c4nc(c(-c5cc(S(=O)(=O)[O-])ccc5F)c5ccc2[nH]5)C=C4)C=C3)cc1)C(F)(F)F
REMARK SMILES IDX 16 1 15 2 14 3 12 4 13 5 2 7 1 8 3 9 4 10 5 12 6 13 7 14
REMARK SMILES IDX 11 15 8 16 10 17 9 19 84 20 85 21 86 22 87 23 17 24 18 25
REMARK SMILES IDX 19 26 20 28 21 29 22 30 83 31 23 32 82 33 24 34 25 35 26 36
REMARK SMILES IDX 76 37 27 38 81 39 75 40 77 41 28 42 80 43 74 44 73 45 29 47
REMARK SMILES IDX 61 48 41 49 60 50 42 51 45 52 59 53 78 54 43 55 44 56 58 58
REMARK SMILES IDX 79 59 46 60 30 61 31 62 39 63 32 64 38 65 40 66 37 67 33 68
REMARK SMILES IDX 34 69 35 70 36 71 62 72 63 73 71 74 64 75 70 76 72 77 69 78
REMARK SMILES IDX 65 79 66 80 67 81 68 82 47 83 48 84 56 85 49 86 55 87 57 88
REMARK SMILES IDX 54 89 50 90 51 91 52 92 53 93
REMARK H PARENT 14 6 3 11 11 18 18 27 77 46 45 57
REMARK Flexibility Score: inf
ROOT
ATOM      1  C   UNL A   1      32.459  30.611  27.255  1.00  0.00     0.042 C 
ENDROOT
BRANCH   1   2
ATOM      2  C   UNL A   1      31.882  30.296  25.886  1.00  0.00     0.117 C 
BRANCH   2   3
ATOM      3  N   UNL A   1      32.920  29.969  24.919  1.00  0.00    -0.354 N 
ATOM      4  C   UNL A   1      33.204  28.800  24.275  1.00  0.00     0.254 C 
ATOM      5  O   UNL A   1      34.124  28.838  23.455  1.00  0.00    -0.272 OA
ATOM      6  H   UNL A   1      33.517  30.717  24.692  1.00  0.00     0.163 HD
BRANCH   4   7
ATOM      7  C   UNL A   1      32.507  27.481  24.639  1.00  0.00     0.212 C 
ATOM      8  C   UNL A   1      31.335  27.840  25.582  1.00  0.00     0.056 C 
BRANCH   7   9
ATOM      9  N   UNL A   1      31.950  26.730  23.472  1.00  0.00    -0.329 N 
ATOM     10  C   UNL A   1      31.324  27.159  22.328  1.00  0.00     0.268 C 
ATOM     11  H   UNL A   1      32.049  25.753  23.536  1.00  0.00     0.165 HD
ATOM     12  O   UNL A   1      31.304  26.371  21.384  1.00  0.00    -0.268 OA
BRANCH  10  13
ATOM     13  C   UNL A   1      30.574  28.390  22.324  1.00  0.00     0.105 A 
ATOM     14  C   UNL A   1      29.286  28.565  22.818  1.00  0.00     0.049 A 
ATOM     15  N   UNL A   1      30.953  29.609  21.799  1.00  0.00    -0.356 N 
ATOM     16  C   UNL A   1      28.979  29.932  22.732  1.00  0.00     0.036 A 
ATOM     17  C   UNL A   1      30.017  30.566  22.106  1.00  0.00     0.098 A 
ATOM     18  H   UNL A   1      31.775  29.770  21.282  1.00  0.00     0.166 HD
ATOM     19  Br  UNL A   1      27.418  30.708  23.408  1.00  0.00    -0.049 Br
ENDBRANCH  10  13
ENDBRANCH   7   9
BRANCH   7  20
ATOM     20  C   UNL A   1      33.495  26.616  25.452  1.00  0.00     0.420 C 
ATOM     21  F   UNL A   1      32.895  25.698  26.236  1.00  0.00    -0.168 F 
ATOM     22  F   UNL A   1      34.301  25.922  24.601  1.00  0.00    -0.168 F 
ATOM     23  F   UNL A   1      34.320  27.361  26.226  1.00  0.00    -0.168 F 
ENDBRANCH   7  20
ENDBRANCH   4   7
ENDBRANCH   2   3
ENDBRANCH   1   2
BRANCH   1  24
ATOM     24  C   UNL A   1      33.528  31.696  27.235  1.00  0.00     0.118 C 
BRANCH  24  25
ATOM     25  N   UNL A   1      32.995  33.034  27.458  1.00  0.00    -0.352 N 
ATOM     26  C   UNL A   1      33.360  33.941  28.429  1.00  0.00     0.251 C 
ATOM     27  H   UNL A   1      32.286  33.325  26.839  1.00  0.00     0.163 HD
ATOM     28  O   UNL A   1      32.727  34.979  28.585  1.00  0.00    -0.269 OA
BRANCH  26  29
ATOM     29  C   UNL A   1      34.508  33.615  29.300  1.00  0.00     0.039 A 
ATOM     30  C   UNL A   1      34.336  32.714  30.353  1.00  0.00     0.014 A 
ATOM     31  C   UNL A   1      35.773  34.132  29.004  1.00  0.00     0.014 A 
ATOM     32  C   UNL A   1      35.455  32.259  31.056  1.00  0.00     0.010 A 
ATOM     33  C   UNL A   1      36.889  33.615  29.650  1.00  0.00     0.010 A 
ATOM     34  C   UNL A   1      36.743  32.668  30.678  1.00  0.00    -0.014 A 
BRANCH  34  35
ATOM     35  C   UNL A   1      37.966  32.143  31.338  1.00  0.00     0.031 A 
ATOM     36  C   UNL A   1      38.740  31.035  30.679  1.00  0.00     0.074 A 
ATOM     37  C   UNL A   1      38.312  32.574  32.568  1.00  0.00     0.049 A 
ATOM     38  N   UNL A   1      39.700  30.290  31.160  1.00  0.00    -0.248 NA
ATOM     39  C   UNL A   1      38.340  30.693  29.307  1.00  0.00     0.031 C 
ATOM     40  C   UNL A   1      37.617  33.615  33.330  1.00  0.00     0.029 A 
ATOM     41  N   UNL A   1      39.321  32.171  33.406  1.00  0.00    -0.354 N 
ATOM     42  C   UNL A   1      39.989  29.361  30.166  1.00  0.00     0.074 A 
ATOM     43  C   UNL A   1      39.066  29.610  29.079  1.00  0.00     0.031 C 
ATOM     44  C   UNL A   1      38.229  33.775  34.516  1.00  0.00     0.029 A 
ATOM     45  C   UNL A   1      39.326  32.818  34.620  1.00  0.00     0.049 A 
ATOM     46  H   UNL A   1      39.981  31.482  33.162  1.00  0.00     0.167 HD
ATOM     47  C   UNL A   1      40.945  28.399  30.155  1.00  0.00     0.034 A 
ATOM     48  C   UNL A   1      40.113  32.645  35.701  1.00  0.00     0.034 A 
ATOM     49  C   UNL A   1      41.882  28.191  31.232  1.00  0.00     0.049 A 
ATOM     50  C   UNL A   1      41.191  31.594  35.657  1.00  0.00     0.074 A 
ATOM     51  C   UNL A   1      42.924  27.285  31.310  1.00  0.00     0.029 A 
ATOM     52  N   UNL A   1      41.893  28.912  32.420  1.00  0.00    -0.354 N 
ATOM     53  N   UNL A   1      41.465  30.733  34.703  1.00  0.00    -0.248 NA
ATOM     54  C   UNL A   1      42.072  31.497  36.828  1.00  0.00     0.031 C 
ATOM     55  C   UNL A   1      43.539  27.428  32.560  1.00  0.00     0.029 A 
ATOM     56  C   UNL A   1      42.916  28.464  33.239  1.00  0.00     0.049 A 
ATOM     57  H   UNL A   1      41.264  29.635  32.649  1.00  0.00     0.167 HD
ATOM     58  C   UNL A   1      42.570  30.014  35.148  1.00  0.00     0.074 A 
ATOM     59  C   UNL A   1      42.915  30.544  36.453  1.00  0.00     0.031 C 
ATOM     60  C   UNL A   1      43.245  29.011  34.533  1.00  0.00     0.034 A 
BRANCH  47  61
ATOM     61  C   UNL A   1      40.996  27.491  28.951  1.00  0.00     0.023 A 
ATOM     62  C   UNL A   1      41.966  27.655  27.946  1.00  0.00     0.031 A 
ATOM     63  C   UNL A   1      40.028  26.487  28.774  1.00  0.00     0.131 A 
ATOM     64  C   UNL A   1      41.891  26.894  26.771  1.00  0.00     0.055 A 
ATOM     65  C   UNL A   1      40.012  25.672  27.640  1.00  0.00     0.041 A 
ATOM     66  F   UNL A   1      39.066  26.296  29.690  1.00  0.00    -0.206 F 
ATOM     67  C   UNL A   1      40.936  25.887  26.620  1.00  0.00     0.022 A 
BRANCH  64  68
ATOM     68  S   UNL A   1      42.959  27.352  25.378  1.00  0.00     0.124 S 
ATOM     69  O   UNL A   1      43.032  26.093  24.639  1.00  0.00    -0.237 OA
ATOM     70  O   UNL A   1      42.204  28.424  24.740  1.00  0.00    -0.237 OA
ATOM     71  O   UNL A   1      44.204  27.762  26.023  1.00  0.00    -0.744 OA
ENDBRANCH  64  68
ENDBRANCH  47  61
BRANCH  48  72
ATOM     72  C   UNL A   1      39.910  33.473  36.922  1.00  0.00     0.023 A 
ATOM     73  C   UNL A   1      39.178  32.978  38.014  1.00  0.00     0.031 A 
ATOM     74  C   UNL A   1      40.414  34.782  37.004  1.00  0.00     0.131 A 
ATOM     75  C   UNL A   1      38.934  33.801  39.124  1.00  0.00     0.055 A 
ATOM     76  C   UNL A   1      40.206  35.583  38.129  1.00  0.00     0.041 A 
ATOM     77  F   UNL A   1      41.130  35.298  35.993  1.00  0.00    -0.206 F 
ATOM     78  C   UNL A   1      39.451  35.097  39.193  1.00  0.00     0.022 A 
BRANCH  75  79
ATOM     79  S   UNL A   1      37.870  33.175  40.453  1.00  0.00     0.124 S 
ATOM     80  O   UNL A   1      38.614  32.005  40.903  1.00  0.00    -0.237 OA
ATOM     81  O   UNL A   1      37.837  34.308  41.372  1.00  0.00    -0.237 OA
ATOM     82  O   UNL A   1      36.609  32.891  39.772  1.00  0.00    -0.744 OA
ENDBRANCH  75  79
ENDBRANCH  48  72
BRANCH  60  83
ATOM     83  C   UNL A   1      44.460  28.472  35.240  1.00  0.00     0.023 A 
ATOM     84  C   UNL A   1      44.383  27.378  36.117  1.00  0.00     0.031 A 
ATOM     85  C   UNL A   1      45.715  29.070  35.028  1.00  0.00     0.131 A 
ATOM     86  C   UNL A   1      45.536  26.938  36.783  1.00  0.00     0.055 A 
ATOM     87  C   UNL A   1      46.867  28.600  35.659  1.00  0.00     0.041 A 
ATOM     88  F   UNL A   1      45.840  30.119  34.198  1.00  0.00    -0.206 F 
ATOM     89  C   UNL A   1      46.779  27.534  36.550  1.00  0.00     0.022 A 
BRANCH  86  90
ATOM     90  S   UNL A   1      45.383  25.612  38.012  1.00  0.00     0.124 S 
ATOM     91  O   UNL A   1      44.086  25.034  37.674  1.00  0.00    -0.237 OA
ATOM     92  O   UNL A   1      46.546  24.780  37.720  1.00  0.00    -0.237 OA
ATOM     93  O   UNL A   1      45.433  26.320  39.289  1.00  0.00    -0.744 OA
ENDBRANCH  86  90
ENDBRANCH  60  83
ENDBRANCH  34  35
ENDBRANCH  26  29
ENDBRANCH  24  25
ENDBRANCH   1  24
TORSDOF 16
ENDMDL
