MODEL 1
REMARK VINA RESULT:     -13.0      0.000      0.000
REMARK SMILES O=C(NCCCNC(=O)[C@@]1([NH2+]C2CC2)CCC[C@@H](n2cncn2)C1)c1ccc(-c2c3nc(c(-c4cc(S(=O)(=O)[O-])ccc4F)c4ccc([nH]4)c(-c4cc(S(=O)(=O)[O-])ccc4F)c4nc(c(-c5cc(S(=O)(=O)[O-])ccc5F)c5ccc2[nH]5)C=C4)C=C3)cc1
REMARK SMILES IDX 4 1 3 2 1 3 2 4 25 6 26 7 87 8 27 9 86 10 28 11 29 12 30 13
REMARK SMILES IDX 80 14 31 15 85 16 79 17 81 18 32 19 84 20 78 21 77 22 33 24
REMARK SMILES IDX 65 25 45 26 64 27 46 28 49 29 63 30 82 31 47 32 48 33 62 35
REMARK SMILES IDX 83 36 50 37 34 38 35 39 43 40 36 41 42 42 44 43 41 44 37 45
REMARK SMILES IDX 38 46 39 47 40 48 66 49 67 50 75 51 68 52 74 53 76 54 73 55
REMARK SMILES IDX 69 56 70 57 71 58 72 59 51 60 52 61 60 62 53 63 59 64 61 65
REMARK SMILES IDX 58 66 54 67 55 68 56 69 57 70 5 71 6 72 7 73 8 74 9 76 10 77
REMARK SMILES IDX 15 78 24 79 16 80 18 81 17 82 11 83 12 86 13 87 14 88 19 89
REMARK SMILES IDX 20 90 23 91 21 92 22 93
REMARK H PARENT 3 5 81 23 49 34 7 75 11 84 11 85
REMARK Flexibility Score: inf
ROOT
ATOM      1  C   UNL A   1      33.801  30.656  27.395  1.00  0.00     0.118 C 
ENDROOT
BRANCH   1   2
ATOM      2  N   UNL A   1      34.460  31.928  27.629  1.00  0.00    -0.352 N 
ATOM      3  O   UNL A   1      35.915  33.508  28.152  1.00  0.00    -0.269 OA
ATOM      4  C   UNL A   1      35.706  32.295  28.061  1.00  0.00     0.251 C 
ATOM      5  H   UNL A   1      33.882  32.700  27.433  1.00  0.00     0.163 HD
BRANCH   4   6
ATOM      6  C   UNL A   1      36.777  31.348  28.469  1.00  0.00     0.039 A 
ATOM      7  C   UNL A   1      36.797  29.983  28.182  1.00  0.00     0.014 A 
ATOM      8  C   UNL A   1      37.878  31.913  29.143  1.00  0.00     0.014 A 
ATOM      9  C   UNL A   1      37.865  29.190  28.610  1.00  0.00     0.010 A 
ATOM     10  C   UNL A   1      38.951  31.129  29.556  1.00  0.00     0.010 A 
ATOM     11  C   UNL A   1      38.941  29.760  29.301  1.00  0.00    -0.014 A 
BRANCH  11  12
ATOM     12  C   UNL A   1      40.132  28.941  29.544  1.00  0.00     0.031 A 
ATOM     13  C   UNL A   1      40.484  28.775  30.985  1.00  0.00     0.074 A 
ATOM     14  C   UNL A   1      40.786  28.224  28.605  1.00  0.00     0.049 A 
ATOM     15  N   UNL A   1      41.549  29.176  31.599  1.00  0.00    -0.248 NA
ATOM     16  C   UNL A   1      39.473  28.189  31.879  1.00  0.00     0.031 C 
ATOM     17  C   UNL A   1      40.408  28.025  27.207  1.00  0.00     0.029 A 
ATOM     18  N   UNL A   1      41.890  27.426  28.743  1.00  0.00    -0.354 N 
ATOM     19  C   UNL A   1      41.443  28.713  32.910  1.00  0.00     0.074 A 
ATOM     20  C   UNL A   1      40.084  28.264  33.062  1.00  0.00     0.031 C 
ATOM     21  C   UNL A   1      41.133  27.006  26.689  1.00  0.00     0.029 A 
ATOM     22  C   UNL A   1      42.108  26.561  27.674  1.00  0.00     0.049 A 
ATOM     23  H   UNL A   1      42.479  27.461  29.531  1.00  0.00     0.167 HD
ATOM     24  C   UNL A   1      42.538  28.553  33.706  1.00  0.00     0.034 A 
ATOM     25  C   UNL A   1      42.981  25.516  27.616  1.00  0.00     0.034 A 
ATOM     26  C   UNL A   1      43.678  29.260  33.174  1.00  0.00     0.049 A 
ATOM     27  C   UNL A   1      44.025  25.759  28.640  1.00  0.00     0.074 A 
ATOM     28  C   UNL A   1      43.947  30.580  32.867  1.00  0.00     0.029 A 
ATOM     29  N   UNL A   1      44.660  28.530  32.545  1.00  0.00    -0.354 N 
ATOM     30  N   UNL A   1      44.884  26.738  28.574  1.00  0.00    -0.248 NA
ATOM     31  C   UNL A   1      43.833  25.195  29.968  1.00  0.00     0.031 C 
ATOM     32  C   UNL A   1      44.727  30.524  31.675  1.00  0.00     0.029 A 
ATOM     33  C   UNL A   1      44.948  29.179  31.371  1.00  0.00     0.049 A 
ATOM     34  H   UNL A   1      45.076  27.700  32.873  1.00  0.00     0.167 HD
ATOM     35  C   UNL A   1      44.999  27.201  29.874  1.00  0.00     0.074 A 
ATOM     36  C   UNL A   1      44.411  26.150  30.703  1.00  0.00     0.031 C 
ATOM     37  C   UNL A   1      45.305  28.507  30.138  1.00  0.00     0.034 A 
BRANCH  24  38
ATOM     38  C   UNL A   1      42.697  27.497  34.780  1.00  0.00     0.023 A 
ATOM     39  C   UNL A   1      43.455  26.353  34.455  1.00  0.00     0.031 A 
ATOM     40  C   UNL A   1      41.921  27.404  35.956  1.00  0.00     0.131 A 
ATOM     41  C   UNL A   1      43.335  25.167  35.202  1.00  0.00     0.055 A 
ATOM     42  C   UNL A   1      41.863  26.246  36.739  1.00  0.00     0.041 A 
ATOM     43  F   UNL A   1      41.103  28.381  36.362  1.00  0.00    -0.206 F 
ATOM     44  C   UNL A   1      42.543  25.106  36.345  1.00  0.00     0.022 A 
BRANCH  41  45
ATOM     45  S   UNL A   1      44.075  23.653  34.535  1.00  0.00     0.124 S 
ATOM     46  O   UNL A   1      45.004  24.192  33.549  1.00  0.00    -0.237 OA
ATOM     47  O   UNL A   1      44.672  23.060  35.728  1.00  0.00    -0.237 OA
ATOM     48  O   UNL A   1      42.930  22.929  33.987  1.00  0.00    -0.744 OA
ENDBRANCH  41  45
ENDBRANCH  24  38
BRANCH  25  49
ATOM     49  C   UNL A   1      42.786  24.198  26.944  1.00  0.00     0.023 A 
ATOM     50  C   UNL A   1      43.767  23.592  26.126  1.00  0.00     0.031 A 
ATOM     51  C   UNL A   1      41.687  23.389  27.312  1.00  0.00     0.131 A 
ATOM     52  C   UNL A   1      43.619  22.244  25.713  1.00  0.00     0.055 A 
ATOM     53  C   UNL A   1      41.545  22.064  26.897  1.00  0.00     0.041 A 
ATOM     54  F   UNL A   1      40.752  23.834  28.166  1.00  0.00    -0.206 F 
ATOM     55  C   UNL A   1      42.516  21.482  26.101  1.00  0.00     0.022 A 
BRANCH  52  56
ATOM     56  S   UNL A   1      44.922  21.419  24.736  1.00  0.00     0.124 S 
ATOM     57  O   UNL A   1      44.607  20.005  24.932  1.00  0.00    -0.237 OA
ATOM     58  O   UNL A   1      44.704  21.953  23.401  1.00  0.00    -0.237 OA
ATOM     59  O   UNL A   1      46.162  21.862  25.377  1.00  0.00    -0.744 OA
ENDBRANCH  52  56
ENDBRANCH  25  49
BRANCH  37  60
ATOM     60  C   UNL A   1      45.834  29.373  29.016  1.00  0.00     0.023 A 
ATOM     61  C   UNL A   1      45.099  30.386  28.358  1.00  0.00     0.031 A 
ATOM     62  C   UNL A   1      47.197  29.241  28.693  1.00  0.00     0.131 A 
ATOM     63  C   UNL A   1      45.735  31.212  27.411  1.00  0.00     0.055 A 
ATOM     64  C   UNL A   1      47.826  30.075  27.771  1.00  0.00     0.041 A 
ATOM     65  F   UNL A   1      47.956  28.317  29.306  1.00  0.00    -0.206 F 
ATOM     66  C   UNL A   1      47.094  31.061  27.121  1.00  0.00     0.022 A 
BRANCH  63  67
ATOM     67  S   UNL A   1      44.799  32.503  26.528  1.00  0.00     0.124 S 
ATOM     68  O   UNL A   1      43.819  31.748  25.756  1.00  0.00    -0.237 OA
ATOM     69  O   UNL A   1      44.268  33.312  27.622  1.00  0.00    -0.237 OA
ATOM     70  O   UNL A   1      45.822  33.172  25.723  1.00  0.00    -0.744 OA
ENDBRANCH  63  67
ENDBRANCH  37  60
ENDBRANCH  11  12
ENDBRANCH   4   6
ENDBRANCH   1   2
BRANCH   1  71
ATOM     71  C   UNL A   1      32.330  30.773  27.000  1.00  0.00     0.042 C 
BRANCH  71  72
ATOM     72  C   UNL A   1      31.868  29.653  26.068  1.00  0.00     0.118 C 
BRANCH  72  73
ATOM     73  N   UNL A   1      32.774  29.461  24.952  1.00  0.00    -0.351 N 
ATOM     74  C   UNL A   1      32.615  29.015  23.678  1.00  0.00     0.281 C 
ATOM     75  H   UNL A   1      33.703  29.706  25.161  1.00  0.00     0.163 HD
ATOM     76  O   UNL A   1      33.645  29.091  22.991  1.00  0.00    -0.268 OA
BRANCH  74  77
ATOM     77  C   UNL A   1      31.236  28.566  23.049  1.00  0.00     0.177 C 
ATOM     78  C   UNL A   1      30.217  27.821  23.935  1.00  0.00     0.079 C 
ATOM     79  C   UNL A   1      30.597  29.904  22.580  1.00  0.00     0.106 C 
ATOM     80  C   UNL A   1      28.863  27.607  23.251  1.00  0.00     0.009 C 
ATOM     81  C   UNL A   1      29.187  29.792  21.977  1.00  0.00     0.116 C 
ATOM     82  C   UNL A   1      28.251  28.946  22.859  1.00  0.00     0.028 C 
BRANCH  77  83
ATOM     83  N   UNL A   1      31.513  27.736  21.838  1.00  0.00    -0.331 N 
ATOM     84  H   UNL A   1      32.292  28.180  21.351  1.00  0.00     0.347 HD
ATOM     85  H   UNL A   1      30.609  27.710  21.366  1.00  0.00     0.347 HD
BRANCH  83  86
ATOM     86  C   UNL A   1      31.857  26.310  21.971  1.00  0.00     0.183 C 
ATOM     87  C   UNL A   1      32.458  25.432  20.910  1.00  0.00     0.071 C 
ATOM     88  C   UNL A   1      33.302  25.887  22.061  1.00  0.00     0.071 C 
ENDBRANCH  83  86
ENDBRANCH  77  83
BRANCH  81  89
ATOM     89  N   UNL A   1      28.651  31.127  21.702  1.00  0.00    -0.250 N 
ATOM     90  C   UNL A   1      28.660  32.211  22.530  1.00  0.00     0.220 A 
ATOM     91  N   UNL A   1      28.033  31.427  20.546  1.00  0.00    -0.160 NA
ATOM     92  N   UNL A   1      28.072  33.227  21.942  1.00  0.00    -0.224 NA
ATOM     93  C   UNL A   1      27.707  32.705  20.732  1.00  0.00     0.246 A 
ENDBRANCH  81  89
ENDBRANCH  74  77
ENDBRANCH  72  73
ENDBRANCH  71  72
ENDBRANCH   1  71
TORSDOF 16
ENDMDL
MODEL 2
REMARK VINA RESULT:     -12.8      4.793     10.444
REMARK SMILES O=C(NCCCNC(=O)[C@@]1([NH2+]C2CC2)CCC[C@@H](n2cncn2)C1)c1ccc(-c2c3nc(c(-c4cc(S(=O)(=O)[O-])ccc4F)c4ccc([nH]4)c(-c4cc(S(=O)(=O)[O-])ccc4F)c4nc(c(-c5cc(S(=O)(=O)[O-])ccc5F)c5ccc2[nH]5)C=C4)C=C3)cc1
REMARK SMILES IDX 4 1 3 2 1 3 2 4 25 6 26 7 87 8 27 9 86 10 28 11 29 12 30 13
REMARK SMILES IDX 80 14 31 15 85 16 79 17 81 18 32 19 84 20 78 21 77 22 33 24
REMARK SMILES IDX 65 25 45 26 64 27 46 28 49 29 63 30 82 31 47 32 48 33 62 35
REMARK SMILES IDX 83 36 50 37 34 38 35 39 43 40 36 41 42 42 44 43 41 44 37 45
REMARK SMILES IDX 38 46 39 47 40 48 66 49 67 50 75 51 68 52 74 53 76 54 73 55
REMARK SMILES IDX 69 56 70 57 71 58 72 59 51 60 52 61 60 62 53 63 59 64 61 65
REMARK SMILES IDX 58 66 54 67 55 68 56 69 57 70 5 71 6 72 7 73 8 74 9 76 10 77
REMARK SMILES IDX 15 78 24 79 16 80 18 81 17 82 11 83 12 86 13 87 14 88 19 89
REMARK SMILES IDX 20 90 23 91 21 92 22 93
REMARK H PARENT 3 5 81 23 49 34 7 75 11 84 11 85
REMARK Flexibility Score: inf
ROOT
ATOM      1  C   UNL A   1      38.780  22.324  26.136  1.00  0.00     0.118 C 
ENDROOT
BRANCH   1   2
ATOM      2  N   UNL A   1      40.219  22.169  26.030  1.00  0.00    -0.352 N 
ATOM      3  O   UNL A   1      42.407  22.453  26.164  1.00  0.00    -0.269 OA
ATOM      4  C   UNL A   1      41.295  22.900  26.456  1.00  0.00     0.251 C 
ATOM      5  H   UNL A   1      40.480  21.356  25.541  1.00  0.00     0.163 HD
BRANCH   4   6
ATOM      6  C   UNL A   1      41.208  24.195  27.183  1.00  0.00     0.039 A 
ATOM      7  C   UNL A   1      42.083  24.617  28.185  1.00  0.00     0.014 A 
ATOM      8  C   UNL A   1      40.189  25.072  26.762  1.00  0.00     0.014 A 
ATOM      9  C   UNL A   1      41.909  25.863  28.792  1.00  0.00     0.010 A 
ATOM     10  C   UNL A   1      40.023  26.321  27.355  1.00  0.00     0.010 A 
ATOM     11  C   UNL A   1      40.876  26.714  28.382  1.00  0.00    -0.014 A 
BRANCH  11  12
ATOM     12  C   UNL A   1      40.858  28.089  28.891  1.00  0.00     0.031 A 
ATOM     13  C   UNL A   1      41.942  28.962  28.352  1.00  0.00     0.074 A 
ATOM     14  C   UNL A   1      39.871  28.628  29.639  1.00  0.00     0.049 A 
ATOM     15  N   UNL A   1      42.909  29.527  28.997  1.00  0.00    -0.248 NA
ATOM     16  C   UNL A   1      42.026  29.134  26.893  1.00  0.00     0.031 C 
ATOM     17  C   UNL A   1      38.594  28.018  30.008  1.00  0.00     0.029 A 
ATOM     18  N   UNL A   1      39.765  29.896  30.142  1.00  0.00    -0.354 N 
ATOM     19  C   UNL A   1      43.605  30.297  28.066  1.00  0.00     0.074 A 
ATOM     20  C   UNL A   1      43.122  29.886  26.774  1.00  0.00     0.031 C 
ATOM     21  C   UNL A   1      37.764  28.976  30.483  1.00  0.00     0.029 A 
ATOM     22  C   UNL A   1      38.483  30.238  30.568  1.00  0.00     0.049 A 
ATOM     23  H   UNL A   1      40.529  30.513  30.199  1.00  0.00     0.167 HD
ATOM     24  C   UNL A   1      44.381  31.351  28.442  1.00  0.00     0.034 A 
ATOM     25  C   UNL A   1      38.025  31.474  30.908  1.00  0.00     0.034 A 
ATOM     26  C   UNL A   1      44.677  31.305  29.854  1.00  0.00     0.049 A 
ATOM     27  C   UNL A   1      39.204  32.298  31.268  1.00  0.00     0.074 A 
ATOM     28  C   UNL A   1      45.300  30.396  30.688  1.00  0.00     0.029 A 
ATOM     29  N   UNL A   1      43.997  32.162  30.689  1.00  0.00    -0.354 N 
ATOM     30  N   UNL A   1      39.950  32.069  32.313  1.00  0.00    -0.248 NA
ATOM     31  C   UNL A   1      39.831  33.096  30.225  1.00  0.00     0.031 C 
ATOM     32  C   UNL A   1      44.547  30.437  31.898  1.00  0.00     0.029 A 
ATOM     33  C   UNL A   1      43.562  31.417  31.755  1.00  0.00     0.049 A 
ATOM     34  H   UNL A   1      43.851  33.125  30.549  1.00  0.00     0.167 HD
ATOM     35  C   UNL A   1      41.247  32.298  31.884  1.00  0.00     0.074 A 
ATOM     36  C   UNL A   1      41.105  33.026  30.624  1.00  0.00     0.031 C 
ATOM     37  C   UNL A   1      42.305  31.638  32.442  1.00  0.00     0.034 A 
BRANCH  24  38
ATOM     38  C   UNL A   1      44.605  32.612  27.632  1.00  0.00     0.023 A 
ATOM     39  C   UNL A   1      43.940  33.781  28.057  1.00  0.00     0.031 A 
ATOM     40  C   UNL A   1      45.163  32.662  26.336  1.00  0.00     0.131 A 
ATOM     41  C   UNL A   1      43.754  34.868  27.185  1.00  0.00     0.055 A 
ATOM     42  C   UNL A   1      45.039  33.776  25.498  1.00  0.00     0.041 A 
ATOM     43  F   UNL A   1      45.769  31.614  25.769  1.00  0.00    -0.206 F 
ATOM     44  C   UNL A   1      44.301  34.874  25.905  1.00  0.00     0.022 A 
BRANCH  41  45
ATOM     45  S   UNL A   1      42.614  36.186  27.685  1.00  0.00     0.124 S 
ATOM     46  O   UNL A   1      41.377  35.441  27.888  1.00  0.00    -0.237 OA
ATOM     47  O   UNL A   1      43.261  36.703  28.885  1.00  0.00    -0.237 OA
ATOM     48  O   UNL A   1      42.618  37.090  26.537  1.00  0.00    -0.744 OA
ENDBRANCH  41  45
ENDBRANCH  24  38
BRANCH  25  49
ATOM     49  C   UNL A   1      36.674  32.052  30.646  1.00  0.00     0.023 A 
ATOM     50  C   UNL A   1      35.920  32.739  31.626  1.00  0.00     0.031 A 
ATOM     51  C   UNL A   1      36.206  32.144  29.315  1.00  0.00     0.131 A 
ATOM     52  C   UNL A   1      34.760  33.465  31.256  1.00  0.00     0.055 A 
ATOM     53  C   UNL A   1      35.060  32.857  28.958  1.00  0.00     0.041 A 
ATOM     54  F   UNL A   1      36.903  31.615  28.296  1.00  0.00    -0.206 F 
ATOM     55  C   UNL A   1      34.336  33.529  29.927  1.00  0.00     0.022 A 
BRANCH  52  56
ATOM     56  S   UNL A   1      33.831  34.433  32.493  1.00  0.00     0.124 S 
ATOM     57  O   UNL A   1      32.930  35.222  31.655  1.00  0.00    -0.237 OA
ATOM     58  O   UNL A   1      33.217  33.398  33.309  1.00  0.00    -0.237 OA
ATOM     59  O   UNL A   1      34.871  35.210  33.171  1.00  0.00    -0.744 OA
ENDBRANCH  52  56
ENDBRANCH  25  49
BRANCH  37  60
ATOM     60  C   UNL A   1      42.098  30.897  33.745  1.00  0.00     0.023 A 
ATOM     61  C   UNL A   1      42.067  29.490  33.880  1.00  0.00     0.031 A 
ATOM     62  C   UNL A   1      42.060  31.667  34.921  1.00  0.00     0.131 A 
ATOM     63  C   UNL A   1      41.990  28.910  35.162  1.00  0.00     0.055 A 
ATOM     64  C   UNL A   1      42.006  31.088  36.187  1.00  0.00     0.041 A 
ATOM     65  F   UNL A   1      42.117  33.008  34.860  1.00  0.00    -0.206 F 
ATOM     66  C   UNL A   1      41.964  29.705  36.312  1.00  0.00     0.022 A 
BRANCH  63  67
ATOM     67  S   UNL A   1      41.917  27.099  35.358  1.00  0.00     0.124 S 
ATOM     68  O   UNL A   1      41.763  26.917  36.796  1.00  0.00    -0.237 OA
ATOM     69  O   UNL A   1      40.762  26.740  34.538  1.00  0.00    -0.237 OA
ATOM     70  O   UNL A   1      43.202  26.648  34.822  1.00  0.00    -0.744 OA
ENDBRANCH  63  67
ENDBRANCH  37  60
ENDBRANCH  11  12
ENDBRANCH   4   6
ENDBRANCH   1   2
BRANCH   1  71
ATOM     71  C   UNL A   1      37.976  21.299  25.339  1.00  0.00     0.042 C 
BRANCH  71  72
ATOM     72  C   UNL A   1      36.550  21.759  25.035  1.00  0.00     0.118 C 
BRANCH  72  73
ATOM     73  N   UNL A   1      35.794  22.030  26.243  1.00  0.00    -0.351 N 
ATOM     74  C   UNL A   1      34.479  21.931  26.571  1.00  0.00     0.281 C 
ATOM     75  H   UNL A   1      36.352  22.357  26.984  1.00  0.00     0.163 HD
ATOM     76  O   UNL A   1      34.243  22.175  27.764  1.00  0.00    -0.268 OA
BRANCH  74  77
ATOM     77  C   UNL A   1      33.347  21.419  25.595  1.00  0.00     0.177 C 
ATOM     78  C   UNL A   1      33.321  21.936  24.142  1.00  0.00     0.079 C 
ATOM     79  C   UNL A   1      33.557  19.879  25.568  1.00  0.00     0.106 C 
ATOM     80  C   UNL A   1      32.285  21.226  23.266  1.00  0.00     0.009 C 
ATOM     81  C   UNL A   1      32.625  19.097  24.628  1.00  0.00     0.116 C 
ATOM     82  C   UNL A   1      32.564  19.729  23.225  1.00  0.00     0.028 C 
BRANCH  77  83
ATOM     83  N   UNL A   1      32.019  21.694  26.223  1.00  0.00    -0.331 N 
ATOM     84  H   UNL A   1      32.160  21.664  27.232  1.00  0.00     0.347 HD
ATOM     85  H   UNL A   1      31.416  20.984  25.805  1.00  0.00     0.347 HD
BRANCH  83  86
ATOM     86  C   UNL A   1      31.299  22.947  25.935  1.00  0.00     0.183 C 
ATOM     87  C   UNL A   1      30.152  23.519  26.717  1.00  0.00     0.071 C 
ATOM     88  C   UNL A   1      31.505  24.154  26.816  1.00  0.00     0.071 C 
ENDBRANCH  83  86
ENDBRANCH  77  83
BRANCH  81  89
ATOM     89  N   UNL A   1      33.014  17.685  24.596  1.00  0.00    -0.250 N 
ATOM     90  C   UNL A   1      33.940  17.099  23.784  1.00  0.00     0.220 A 
ATOM     91  N   UNL A   1      32.439  16.766  25.391  1.00  0.00    -0.160 NA
ATOM     92  N   UNL A   1      34.001  15.811  24.035  1.00  0.00    -0.224 NA
ATOM     93  C   UNL A   1      33.071  15.652  25.023  1.00  0.00     0.246 A 
ENDBRANCH  81  89
ENDBRANCH  74  77
ENDBRANCH  72  73
ENDBRANCH  71  72
ENDBRANCH   1  71
TORSDOF 16
ENDMDL
MODEL 3
REMARK VINA RESULT:     -12.8      2.692      7.255
REMARK SMILES O=C(NCCCNC(=O)[C@@]1([NH2+]C2CC2)CCC[C@@H](n2cncn2)C1)c1ccc(-c2c3nc(c(-c4cc(S(=O)(=O)[O-])ccc4F)c4ccc([nH]4)c(-c4cc(S(=O)(=O)[O-])ccc4F)c4nc(c(-c5cc(S(=O)(=O)[O-])ccc5F)c5ccc2[nH]5)C=C4)C=C3)cc1
REMARK SMILES IDX 4 1 3 2 1 3 2 4 25 6 26 7 87 8 27 9 86 10 28 11 29 12 30 13
REMARK SMILES IDX 80 14 31 15 85 16 79 17 81 18 32 19 84 20 78 21 77 22 33 24
REMARK SMILES IDX 65 25 45 26 64 27 46 28 49 29 63 30 82 31 47 32 48 33 62 35
REMARK SMILES IDX 83 36 50 37 34 38 35 39 43 40 36 41 42 42 44 43 41 44 37 45
REMARK SMILES IDX 38 46 39 47 40 48 66 49 67 50 75 51 68 52 74 53 76 54 73 55
REMARK SMILES IDX 69 56 70 57 71 58 72 59 51 60 52 61 60 62 53 63 59 64 61 65
REMARK SMILES IDX 58 66 54 67 55 68 56 69 57 70 5 71 6 72 7 73 8 74 9 76 10 77
REMARK SMILES IDX 15 78 24 79 16 80 18 81 17 82 11 83 12 86 13 87 14 88 19 89
REMARK SMILES IDX 20 90 23 91 21 92 22 93
REMARK H PARENT 3 5 81 23 49 34 7 75 11 84 11 85
REMARK Flexibility Score: inf
ROOT
ATOM      1  C   UNL A   1      35.302  30.573  27.805  1.00  0.00     0.118 C 
ENDROOT
BRANCH   1   2
ATOM      2  N   UNL A   1      35.388  30.266  29.220  1.00  0.00    -0.352 N 
ATOM      3  O   UNL A   1      36.066  29.610  31.220  1.00  0.00    -0.269 OA
ATOM      4  C   UNL A   1      36.361  29.742  30.029  1.00  0.00     0.251 C 
ATOM      5  H   UNL A   1      34.563  30.485  29.710  1.00  0.00     0.163 HD
BRANCH   4   6
ATOM      6  C   UNL A   1      37.696  29.281  29.563  1.00  0.00     0.039 A 
ATOM      7  C   UNL A   1      38.383  29.789  28.460  1.00  0.00     0.014 A 
ATOM      8  C   UNL A   1      38.321  28.297  30.354  1.00  0.00     0.014 A 
ATOM      9  C   UNL A   1      39.641  29.283  28.121  1.00  0.00     0.010 A 
ATOM     10  C   UNL A   1      39.581  27.803  30.029  1.00  0.00     0.010 A 
ATOM     11  C   UNL A   1      40.240  28.287  28.902  1.00  0.00    -0.014 A 
BRANCH  11  12
ATOM     12  C   UNL A   1      41.639  27.938  28.640  1.00  0.00     0.031 A 
ATOM     13  C   UNL A   1      41.828  26.648  27.914  1.00  0.00     0.074 A 
ATOM     14  C   UNL A   1      42.696  28.753  28.848  1.00  0.00     0.049 A 
ATOM     15  N   UNL A   1      42.415  25.574  28.330  1.00  0.00    -0.248 NA
ATOM     16  C   UNL A   1      41.181  26.495  26.601  1.00  0.00     0.031 C 
ATOM     17  C   UNL A   1      42.676  30.154  29.267  1.00  0.00     0.029 A 
ATOM     18  N   UNL A   1      44.024  28.517  28.621  1.00  0.00    -0.354 N 
ATOM     19  C   UNL A   1      42.400  24.679  27.261  1.00  0.00     0.074 A 
ATOM     20  C   UNL A   1      41.490  25.234  26.294  1.00  0.00     0.031 C 
ATOM     21  C   UNL A   1      43.897  30.699  29.058  1.00  0.00     0.029 A 
ATOM     22  C   UNL A   1      44.815  29.664  28.608  1.00  0.00     0.049 A 
ATOM     23  H   UNL A   1      44.390  27.615  28.479  1.00  0.00     0.167 HD
ATOM     24  C   UNL A   1      43.290  23.651  27.173  1.00  0.00     0.034 A 
ATOM     25  C   UNL A   1      46.111  29.773  28.202  1.00  0.00     0.034 A 
ATOM     26  C   UNL A   1      43.930  23.403  28.442  1.00  0.00     0.049 A 
ATOM     27  C   UNL A   1      46.712  28.420  28.279  1.00  0.00     0.074 A 
ATOM     28  C   UNL A   1      43.485  23.066  29.706  1.00  0.00     0.029 A 
ATOM     29  N   UNL A   1      45.225  23.837  28.612  1.00  0.00    -0.354 N 
ATOM     30  N   UNL A   1      46.909  27.783  29.401  1.00  0.00    -0.248 NA
ATOM     31  C   UNL A   1      46.677  27.582  27.091  1.00  0.00     0.031 C 
ATOM     32  C   UNL A   1      44.325  23.799  30.595  1.00  0.00     0.029 A 
ATOM     33  C   UNL A   1      45.274  24.477  29.825  1.00  0.00     0.049 A 
ATOM     34  H   UNL A   1      45.973  23.713  27.985  1.00  0.00     0.167 HD
ATOM     35  C   UNL A   1      46.581  26.465  29.125  1.00  0.00     0.074 A 
ATOM     36  C   UNL A   1      46.545  26.382  27.666  1.00  0.00     0.031 C 
ATOM     37  C   UNL A   1      46.098  25.637  30.098  1.00  0.00     0.034 A 
BRANCH  24  38
ATOM     38  C   UNL A   1      43.846  23.078  25.885  1.00  0.00     0.023 A 
ATOM     39  C   UNL A   1      43.752  21.683  25.703  1.00  0.00     0.031 A 
ATOM     40  C   UNL A   1      44.710  23.754  24.995  1.00  0.00     0.131 A 
ATOM     41  C   UNL A   1      44.568  21.016  24.772  1.00  0.00     0.055 A 
ATOM     42  C   UNL A   1      45.463  23.095  24.019  1.00  0.00     0.041 A 
ATOM     43  F   UNL A   1      44.951  25.067  25.081  1.00  0.00    -0.206 F 
ATOM     44  C   UNL A   1      45.423  21.714  23.925  1.00  0.00     0.022 A 
BRANCH  41  45
ATOM     45  S   UNL A   1      44.633  19.205  24.828  1.00  0.00     0.124 S 
ATOM     46  O   UNL A   1      43.421  18.892  25.576  1.00  0.00    -0.237 OA
ATOM     47  O   UNL A   1      44.623  18.860  23.410  1.00  0.00    -0.237 OA
ATOM     48  O   UNL A   1      45.887  18.933  25.526  1.00  0.00    -0.744 OA
ENDBRANCH  41  45
ENDBRANCH  24  38
BRANCH  25  49
ATOM     49  C   UNL A   1      46.749  30.910  27.476  1.00  0.00     0.023 A 
ATOM     50  C   UNL A   1      46.015  31.974  26.903  1.00  0.00     0.031 A 
ATOM     51  C   UNL A   1      48.149  31.084  27.555  1.00  0.00     0.131 A 
ATOM     52  C   UNL A   1      46.683  33.135  26.438  1.00  0.00     0.055 A 
ATOM     53  C   UNL A   1      48.802  32.227  27.091  1.00  0.00     0.041 A 
ATOM     54  F   UNL A   1      48.927  30.180  28.172  1.00  0.00    -0.206 F 
ATOM     55  C   UNL A   1      48.070  33.263  26.538  1.00  0.00     0.022 A 
BRANCH  52  56
ATOM     56  S   UNL A   1      45.743  34.554  25.782  1.00  0.00     0.124 S 
ATOM     57  O   UNL A   1      45.254  34.039  24.505  1.00  0.00    -0.237 OA
ATOM     58  O   UNL A   1      44.745  34.779  26.816  1.00  0.00    -0.237 OA
ATOM     59  O   UNL A   1      46.752  35.610  25.667  1.00  0.00    -0.744 OA
ENDBRANCH  52  56
ENDBRANCH  25  49
BRANCH  37  60
ATOM     60  C   UNL A   1      46.223  26.060  31.546  1.00  0.00     0.023 A 
ATOM     61  C   UNL A   1      45.167  26.567  32.336  1.00  0.00     0.031 A 
ATOM     62  C   UNL A   1      47.453  25.812  32.182  1.00  0.00     0.131 A 
ATOM     63  C   UNL A   1      45.372  26.813  33.708  1.00  0.00     0.055 A 
ATOM     64  C   UNL A   1      47.645  26.037  33.543  1.00  0.00     0.041 A 
ATOM     65  F   UNL A   1      48.487  25.302  31.491  1.00  0.00    -0.206 F 
ATOM     66  C   UNL A   1      46.605  26.546  34.311  1.00  0.00     0.022 A 
BRANCH  63  67
ATOM     67  S   UNL A   1      44.033  27.496  34.739  1.00  0.00     0.124 S 
ATOM     68  O   UNL A   1      44.162  26.767  35.994  1.00  0.00    -0.237 OA
ATOM     69  O   UNL A   1      44.364  28.918  34.786  1.00  0.00    -0.237 OA
ATOM     70  O   UNL A   1      42.823  27.183  33.975  1.00  0.00    -0.744 OA
ENDBRANCH  63  67
ENDBRANCH  37  60
ENDBRANCH  11  12
ENDBRANCH   4   6
ENDBRANCH   1   2
BRANCH   1  71
ATOM     71  C   UNL A   1      34.003  31.260  27.388  1.00  0.00     0.042 C 
BRANCH  71  72
ATOM     72  C   UNL A   1      33.084  30.358  26.565  1.00  0.00     0.118 C 
BRANCH  72  73
ATOM     73  N   UNL A   1      32.389  29.387  27.389  1.00  0.00    -0.351 N 
ATOM     74  C   UNL A   1      31.679  28.261  27.118  1.00  0.00     0.281 C 
ATOM     75  H   UNL A   1      32.443  29.586  28.351  1.00  0.00     0.163 HD
ATOM     76  O   UNL A   1      31.316  27.644  28.131  1.00  0.00    -0.268 OA
BRANCH  74  77
ATOM     77  C   UNL A   1      31.436  27.680  25.669  1.00  0.00     0.177 C 
ATOM     78  C   UNL A   1      30.511  26.457  25.498  1.00  0.00     0.079 C 
ATOM     79  C   UNL A   1      30.818  28.878  24.894  1.00  0.00     0.106 C 
ATOM     80  C   UNL A   1      30.226  26.114  24.033  1.00  0.00     0.009 C 
ATOM     81  C   UNL A   1      30.403  28.588  23.442  1.00  0.00     0.116 C 
ATOM     82  C   UNL A   1      29.572  27.296  23.330  1.00  0.00     0.028 C 
BRANCH  77  83
ATOM     83  N   UNL A   1      32.761  27.365  25.054  1.00  0.00    -0.331 N 
ATOM     84  H   UNL A   1      33.247  28.254  24.936  1.00  0.00     0.347 HD
ATOM     85  H   UNL A   1      32.507  26.846  24.213  1.00  0.00     0.347 HD
BRANCH  83  86
ATOM     86  C   UNL A   1      33.703  26.456  25.731  1.00  0.00     0.183 C 
ATOM     87  C   UNL A   1      33.462  25.014  26.075  1.00  0.00     0.071 C 
ATOM     88  C   UNL A   1      34.388  25.363  24.950  1.00  0.00     0.071 C 
ENDBRANCH  83  86
ENDBRANCH  77  83
BRANCH  81  89
ATOM     89  N   UNL A   1      29.718  29.751  22.874  1.00  0.00    -0.250 N 
ATOM     90  C   UNL A   1      29.173  30.804  23.548  1.00  0.00     0.220 A 
ATOM     91  N   UNL A   1      29.522  29.891  21.551  1.00  0.00    -0.160 NA
ATOM     92  N   UNL A   1      28.630  31.645  22.699  1.00  0.00    -0.224 NA
ATOM     93  C   UNL A   1      28.869  31.051  21.492  1.00  0.00     0.246 A 
ENDBRANCH  81  89
ENDBRANCH  74  77
ENDBRANCH  72  73
ENDBRANCH  71  72
ENDBRANCH   1  71
TORSDOF 16
ENDMDL
