MODEL 1
REMARK VINA RESULT:     -13.1      0.000      0.000
REMARK SMILES Cn1ccc(-c2n[nH]c(=O)n2-c2ccc(C(=O)NCCCNC(=O)c3ccc(-c4c5nc(c(-c6cc(S(=O)(=O)[O-])ccc6F)c6ccc([nH]6)c(-c6cc(S(=O)(=O)[O-])ccc6F)c6nc(c(-c7cc(S(=O)(=O)[O-])ccc7F)c7ccc4[nH]7)C=C6)C=C5)cc3)cc2)n1
REMARK SMILES IDX 20 1 19 2 18 3 16 4 17 5 15 7 12 8 13 9 89 10 14 11 88 12
REMARK SMILES IDX 11 13 6 14 7 15 8 16 9 17 10 19 5 20 1 21 2 22 3 23 90 24
REMARK SMILES IDX 4 25 21 26 22 27 23 28 24 30 25 31 26 32 87 33 27 34 86 35
REMARK SMILES IDX 28 36 29 37 30 38 80 39 31 40 85 41 79 42 81 43 32 44 84 45
REMARK SMILES IDX 78 46 77 47 33 49 65 50 45 51 64 52 46 53 49 54 63 55 82 56
REMARK SMILES IDX 47 57 48 58 62 60 83 61 50 62 34 63 35 64 43 65 36 66 42 67
REMARK SMILES IDX 44 68 41 69 37 70 38 71 39 72 40 73 66 74 67 75 75 76 68 77
REMARK SMILES IDX 74 78 76 79 73 80 69 81 70 82 71 83 72 84 51 85 52 86 60 87
REMARK SMILES IDX 53 88 59 89 61 90 58 91 54 92 55 93 56 94 57 95
REMARK H PARENT 18 6 8 18 22 29 81 48 49 59
REMARK Flexibility Score: inf
ROOT
ATOM      1  C   UNL A   1      38.212  31.135  31.389  1.00  0.00     0.042 C 
ENDROOT
BRANCH   1   2
ATOM      2  C   UNL A   1      37.225  30.494  32.375  1.00  0.00     0.118 C 
BRANCH   2   3
ATOM      3  N   UNL A   1      37.420  30.983  33.731  1.00  0.00    -0.352 N 
ATOM      4  C   UNL A   1      37.013  32.126  34.375  1.00  0.00     0.251 C 
ATOM      5  O   UNL A   1      37.271  32.232  35.574  1.00  0.00    -0.269 OA
ATOM      6  H   UNL A   1      37.949  30.376  34.298  1.00  0.00     0.163 HD
BRANCH   4   7
ATOM      7  C   UNL A   1      36.230  33.207  33.711  1.00  0.00     0.039 A 
ATOM      8  C   UNL A   1      34.650  35.086  32.331  1.00  0.00     0.052 A 
ATOM      9  C   UNL A   1      34.040  34.029  33.006  1.00  0.00     0.028 A 
ATOM     10  C   UNL A   1      36.032  35.252  32.427  1.00  0.00     0.028 A 
ATOM     11  C   UNL A   1      34.832  33.077  33.664  1.00  0.00     0.016 A 
ATOM     12  C   UNL A   1      36.801  34.349  33.154  1.00  0.00     0.016 A 
BRANCH   8  13
ATOM     13  N   UNL A   1      33.904  36.032  31.620  1.00  0.00    -0.242 N 
ATOM     14  C   UNL A   1      33.667  36.078  30.277  1.00  0.00     0.189 A 
ATOM     15  N   UNL A   1      33.290  37.243  29.824  1.00  0.00    -0.150 NA
ATOM     16  N   UNL A   1      33.241  38.022  30.950  1.00  0.00    -0.226 N 
ATOM     17  C   UNL A   1      33.617  37.293  32.078  1.00  0.00     0.348 A 
ATOM     18  H   UNL A   1      32.975  38.971  30.962  1.00  0.00     0.195 HD
ATOM     19  O   UNL A   1      33.741  37.765  33.203  1.00  0.00    -0.246 OA
BRANCH  14  20
ATOM     20  C   UNL A   1      33.762  34.914  29.411  1.00  0.00     0.130 A 
ATOM     21  C   UNL A   1      32.260  32.635  27.212  1.00  0.00     0.173 C 
ATOM     22  N   UNL A   1      33.156  33.376  28.069  1.00  0.00    -0.275 N 
ATOM     23  C   UNL A   1      34.508  33.228  28.165  1.00  0.00     0.109 A 
ATOM     24  N   UNL A   1      32.671  34.360  28.846  1.00  0.00    -0.170 NA
ATOM     25  C   UNL A   1      34.937  34.231  29.002  1.00  0.00     0.054 A 
ENDBRANCH  14  20
ENDBRANCH   8  13
ENDBRANCH   4   7
ENDBRANCH   2   3
ENDBRANCH   1   2
BRANCH   1  26
ATOM     26  C   UNL A   1      37.510  31.678  30.156  1.00  0.00     0.118 C 
BRANCH  26  27
ATOM     27  N   UNL A   1      36.431  30.791  29.711  1.00  0.00    -0.352 N 
ATOM     28  C   UNL A   1      36.495  29.746  28.809  1.00  0.00     0.251 C 
ATOM     29  H   UNL A   1      35.546  30.963  30.103  1.00  0.00     0.163 HD
ATOM     30  O   UNL A   1      35.476  29.346  28.258  1.00  0.00    -0.269 OA
BRANCH  28  31
ATOM     31  C   UNL A   1      37.803  29.127  28.530  1.00  0.00     0.039 A 
ATOM     32  C   UNL A   1      38.589  29.522  27.444  1.00  0.00     0.014 A 
ATOM     33  C   UNL A   1      38.250  28.148  29.410  1.00  0.00     0.014 A 
ATOM     34  C   UNL A   1      39.865  28.976  27.304  1.00  0.00     0.010 A 
ATOM     35  C   UNL A   1      39.559  27.750  29.376  1.00  0.00     0.010 A 
ATOM     36  C   UNL A   1      40.350  28.103  28.290  1.00  0.00    -0.014 A 
BRANCH  36  37
ATOM     37  C   UNL A   1      41.748  27.674  28.325  1.00  0.00     0.031 A 
ATOM     38  C   UNL A   1      41.972  26.370  27.641  1.00  0.00     0.074 A 
ATOM     39  C   UNL A   1      42.747  28.520  28.675  1.00  0.00     0.049 A 
ATOM     40  N   UNL A   1      42.351  25.256  28.172  1.00  0.00    -0.248 NA
ATOM     41  C   UNL A   1      41.534  26.227  26.238  1.00  0.00     0.031 C 
ATOM     42  C   UNL A   1      42.627  29.926  29.082  1.00  0.00     0.029 A 
ATOM     43  N   UNL A   1      44.097  28.359  28.614  1.00  0.00    -0.354 N 
ATOM     44  C   UNL A   1      42.484  24.362  27.112  1.00  0.00     0.074 A 
ATOM     45  C   UNL A   1      41.725  24.924  26.031  1.00  0.00     0.031 C 
ATOM     46  C   UNL A   1      43.826  30.541  28.968  1.00  0.00     0.029 A 
ATOM     47  C   UNL A   1      44.832  29.549  28.630  1.00  0.00     0.049 A 
ATOM     48  H   UNL A   1      44.523  27.473  28.562  1.00  0.00     0.167 HD
ATOM     49  C   UNL A   1      43.461  23.413  27.122  1.00  0.00     0.034 A 
ATOM     50  C   UNL A   1      46.158  29.715  28.346  1.00  0.00     0.034 A 
ATOM     51  C   UNL A   1      43.983  23.235  28.462  1.00  0.00     0.049 A 
ATOM     52  C   UNL A   1      46.786  28.380  28.519  1.00  0.00     0.074 A 
ATOM     53  C   UNL A   1      43.416  22.925  29.685  1.00  0.00     0.029 A 
ATOM     54  N   UNL A   1      45.207  23.796  28.757  1.00  0.00    -0.354 N 
ATOM     55  N   UNL A   1      46.832  27.758  29.667  1.00  0.00    -0.248 NA
ATOM     56  C   UNL A   1      46.871  27.522  27.347  1.00  0.00     0.031 C 
ATOM     57  C   UNL A   1      44.075  23.779  30.618  1.00  0.00     0.029 A 
ATOM     58  C   UNL A   1      45.082  24.475  29.946  1.00  0.00     0.049 A 
ATOM     59  H   UNL A   1      46.024  23.723  28.214  1.00  0.00     0.167 HD
ATOM     60  C   UNL A   1      46.492  26.446  29.375  1.00  0.00     0.074 A 
ATOM     61  C   UNL A   1      46.608  26.343  27.919  1.00  0.00     0.031 C 
ATOM     62  C   UNL A   1      45.853  25.657  30.292  1.00  0.00     0.034 A 
BRANCH  49  63
ATOM     63  C   UNL A   1      44.227  22.952  25.897  1.00  0.00     0.023 A 
ATOM     64  C   UNL A   1      44.293  21.563  25.673  1.00  0.00     0.031 A 
ATOM     65  C   UNL A   1      45.120  23.733  25.126  1.00  0.00     0.131 A 
ATOM     66  C   UNL A   1      45.276  21.008  24.836  1.00  0.00     0.055 A 
ATOM     67  C   UNL A   1      46.051  23.179  24.241  1.00  0.00     0.041 A 
ATOM     68  F   UNL A   1      45.215  25.062  25.239  1.00  0.00    -0.206 F 
ATOM     69  C   UNL A   1      46.158  21.807  24.119  1.00  0.00     0.022 A 
BRANCH  66  70
ATOM     70  S   UNL A   1      45.497  19.211  24.852  1.00  0.00     0.124 S 
ATOM     71  O   UNL A   1      45.675  18.929  23.432  1.00  0.00    -0.237 OA
ATOM     72  O   UNL A   1      46.681  19.064  25.693  1.00  0.00    -0.237 OA
ATOM     73  O   UNL A   1      44.252  18.722  25.438  1.00  0.00    -0.744 OA
ENDBRANCH  66  70
ENDBRANCH  49  63
BRANCH  50  74
ATOM     74  C   UNL A   1      46.805  30.838  27.584  1.00  0.00     0.023 A 
ATOM     75  C   UNL A   1      46.076  31.900  26.992  1.00  0.00     0.031 A 
ATOM     76  C   UNL A   1      48.207  31.014  27.652  1.00  0.00     0.131 A 
ATOM     77  C   UNL A   1      46.745  33.057  26.511  1.00  0.00     0.055 A 
ATOM     78  C   UNL A   1      48.859  32.158  27.182  1.00  0.00     0.041 A 
ATOM     79  F   UNL A   1      48.994  30.115  28.260  1.00  0.00    -0.206 F 
ATOM     80  C   UNL A   1      48.130  33.191  26.621  1.00  0.00     0.022 A 
BRANCH  77  81
ATOM     81  S   UNL A   1      45.819  34.470  25.810  1.00  0.00     0.124 S 
ATOM     82  O   UNL A   1      46.875  35.451  25.586  1.00  0.00    -0.237 OA
ATOM     83  O   UNL A   1      45.207  33.892  24.620  1.00  0.00    -0.237 OA
ATOM     84  O   UNL A   1      44.874  34.821  26.872  1.00  0.00    -0.744 OA
ENDBRANCH  77  81
ENDBRANCH  50  74
BRANCH  62  85
ATOM     85  C   UNL A   1      45.784  26.122  31.738  1.00  0.00     0.023 A 
ATOM     86  C   UNL A   1      44.662  26.719  32.362  1.00  0.00     0.031 A 
ATOM     87  C   UNL A   1      46.895  25.826  32.548  1.00  0.00     0.131 A 
ATOM     88  C   UNL A   1      44.693  27.002  33.746  1.00  0.00     0.055 A 
ATOM     89  C   UNL A   1      46.910  26.083  33.918  1.00  0.00     0.041 A 
ATOM     90  F   UNL A   1      47.983  25.240  32.023  1.00  0.00    -0.206 F 
ATOM     91  C   UNL A   1      45.811  26.678  34.521  1.00  0.00     0.022 A 
BRANCH  88  92
ATOM     92  S   UNL A   1      43.289  27.826  34.572  1.00  0.00     0.124 S 
ATOM     93  O   UNL A   1      42.914  28.882  33.638  1.00  0.00    -0.237 OA
ATOM     94  O   UNL A   1      42.328  26.737  34.728  1.00  0.00    -0.237 OA
ATOM     95  O   UNL A   1      43.868  28.306  35.829  1.00  0.00    -0.744 OA
ENDBRANCH  88  92
ENDBRANCH  62  85
ENDBRANCH  36  37
ENDBRANCH  28  31
ENDBRANCH  26  27
ENDBRANCH   1  26
TORSDOF 15
ENDMDL
MODEL 2
REMARK VINA RESULT:     -12.9      4.481      9.889
REMARK SMILES Cn1ccc(-c2n[nH]c(=O)n2-c2ccc(C(=O)NCCCNC(=O)c3ccc(-c4c5nc(c(-c6cc(S(=O)(=O)[O-])ccc6F)c6ccc([nH]6)c(-c6cc(S(=O)(=O)[O-])ccc6F)c6nc(c(-c7cc(S(=O)(=O)[O-])ccc7F)c7ccc4[nH]7)C=C6)C=C5)cc3)cc2)n1
REMARK SMILES IDX 20 1 19 2 18 3 16 4 17 5 15 7 12 8 13 9 89 10 14 11 88 12
REMARK SMILES IDX 11 13 6 14 7 15 8 16 9 17 10 19 5 20 1 21 2 22 3 23 90 24
REMARK SMILES IDX 4 25 21 26 22 27 23 28 24 30 25 31 26 32 87 33 27 34 86 35
REMARK SMILES IDX 28 36 29 37 30 38 80 39 31 40 85 41 79 42 81 43 32 44 84 45
REMARK SMILES IDX 78 46 77 47 33 49 65 50 45 51 64 52 46 53 49 54 63 55 82 56
REMARK SMILES IDX 47 57 48 58 62 60 83 61 50 62 34 63 35 64 43 65 36 66 42 67
REMARK SMILES IDX 44 68 41 69 37 70 38 71 39 72 40 73 66 74 67 75 75 76 68 77
REMARK SMILES IDX 74 78 76 79 73 80 69 81 70 82 71 83 72 84 51 85 52 86 60 87
REMARK SMILES IDX 53 88 59 89 61 90 58 91 54 92 55 93 56 94 57 95
REMARK H PARENT 18 6 8 18 22 29 81 48 49 59
REMARK Flexibility Score: inf
ROOT
ATOM      1  C   UNL A   1      37.462  20.042  24.984  1.00  0.00     0.042 C 
ENDROOT
BRANCH   1   2
ATOM      2  C   UNL A   1      36.385  21.136  24.976  1.00  0.00     0.118 C 
BRANCH   2   3
ATOM      3  N   UNL A   1      35.644  21.175  26.227  1.00  0.00    -0.352 N 
ATOM      4  C   UNL A   1      34.654  22.005  26.696  1.00  0.00     0.251 C 
ATOM      5  O   UNL A   1      34.154  21.741  27.790  1.00  0.00    -0.269 OA
ATOM      6  H   UNL A   1      35.903  20.470  26.863  1.00  0.00     0.163 HD
BRANCH   4   7
ATOM      7  C   UNL A   1      34.123  23.166  25.926  1.00  0.00     0.039 A 
ATOM      8  C   UNL A   1      33.043  25.206  24.313  1.00  0.00     0.052 A 
ATOM      9  C   UNL A   1      32.228  24.162  24.749  1.00  0.00     0.028 A 
ATOM     10  C   UNL A   1      34.363  25.276  24.760  1.00  0.00     0.028 A 
ATOM     11  C   UNL A   1      32.777  23.131  25.523  1.00  0.00     0.016 A 
ATOM     12  C   UNL A   1      34.876  24.291  25.599  1.00  0.00     0.016 A 
BRANCH   8  13
ATOM     13  N   UNL A   1      32.552  26.231  23.497  1.00  0.00    -0.242 N 
ATOM     14  C   UNL A   1      31.911  27.374  23.877  1.00  0.00     0.189 A 
ATOM     15  N   UNL A   1      31.221  27.958  22.934  1.00  0.00    -0.150 NA
ATOM     16  N   UNL A   1      31.443  27.165  21.839  1.00  0.00    -0.226 N 
ATOM     17  C   UNL A   1      32.267  26.087  22.163  1.00  0.00     0.348 A 
ATOM     18  H   UNL A   1      31.071  27.333  20.943  1.00  0.00     0.195 HD
ATOM     19  O   UNL A   1      32.559  25.178  21.393  1.00  0.00    -0.246 OA
BRANCH  14  20
ATOM     20  C   UNL A   1      32.028  27.948  25.208  1.00  0.00     0.130 A 
ATOM     21  C   UNL A   1      33.088  30.539  27.316  1.00  0.00     0.173 C 
ATOM     22  N   UNL A   1      32.553  29.327  26.743  1.00  0.00    -0.275 N 
ATOM     23  C   UNL A   1      31.804  28.382  27.379  1.00  0.00     0.109 A 
ATOM     24  N   UNL A   1      32.742  29.067  25.438  1.00  0.00    -0.170 NA
ATOM     25  C   UNL A   1      31.419  27.490  26.405  1.00  0.00     0.054 A 
ENDBRANCH  14  20
ENDBRANCH   8  13
ENDBRANCH   4   7
ENDBRANCH   2   3
ENDBRANCH   1   2
BRANCH   1  26
ATOM     26  C   UNL A   1      38.762  20.530  25.597  1.00  0.00     0.118 C 
BRANCH  26  27
ATOM     27  N   UNL A   1      39.727  19.440  25.766  1.00  0.00    -0.352 N 
ATOM     28  C   UNL A   1      41.083  19.523  26.018  1.00  0.00     0.251 C 
ATOM     29  H   UNL A   1      39.362  18.530  25.688  1.00  0.00     0.163 HD
ATOM     30  O   UNL A   1      41.815  18.574  25.765  1.00  0.00    -0.269 OA
BRANCH  28  31
ATOM     31  C   UNL A   1      41.623  20.767  26.595  1.00  0.00     0.039 A 
ATOM     32  C   UNL A   1      42.302  21.707  25.815  1.00  0.00     0.014 A 
ATOM     33  C   UNL A   1      41.407  20.992  27.950  1.00  0.00     0.014 A 
ATOM     34  C   UNL A   1      42.687  22.913  26.401  1.00  0.00     0.010 A 
ATOM     35  C   UNL A   1      41.621  22.238  28.474  1.00  0.00     0.010 A 
ATOM     36  C   UNL A   1      42.322  23.178  27.730  1.00  0.00    -0.014 A 
BRANCH  36  37
ATOM     37  C   UNL A   1      42.495  24.500  28.331  1.00  0.00     0.031 A 
ATOM     38  C   UNL A   1      41.364  25.424  28.036  1.00  0.00     0.074 A 
ATOM     39  C   UNL A   1      43.428  24.737  29.284  1.00  0.00     0.049 A 
ATOM     40  N   UNL A   1      41.394  26.512  27.341  1.00  0.00    -0.248 NA
ATOM     41  C   UNL A   1      39.995  24.992  28.382  1.00  0.00     0.031 C 
ATOM     42  C   UNL A   1      44.396  23.784  29.845  1.00  0.00     0.029 A 
ATOM     43  N   UNL A   1      43.631  25.835  30.063  1.00  0.00    -0.354 N 
ATOM     44  C   UNL A   1      40.110  27.045  27.423  1.00  0.00     0.074 A 
ATOM     45  C   UNL A   1      39.262  25.959  27.827  1.00  0.00     0.031 C 
ATOM     46  C   UNL A   1      44.875  24.254  31.018  1.00  0.00     0.029 A 
ATOM     47  C   UNL A   1      44.374  25.602  31.225  1.00  0.00     0.049 A 
ATOM     48  H   UNL A   1      43.282  26.724  29.826  1.00  0.00     0.167 HD
ATOM     49  C   UNL A   1      39.918  28.392  27.462  1.00  0.00     0.034 A 
ATOM     50  C   UNL A   1      44.532  26.435  32.296  1.00  0.00     0.034 A 
ATOM     51  C   UNL A   1      41.106  29.088  27.009  1.00  0.00     0.049 A 
ATOM     52  C   UNL A   1      44.216  27.800  31.804  1.00  0.00     0.074 A 
ATOM     53  C   UNL A   1      41.866  29.046  25.855  1.00  0.00     0.029 A 
ATOM     54  N   UNL A   1      41.915  29.670  27.960  1.00  0.00    -0.354 N 
ATOM     55  N   UNL A   1      44.919  28.407  30.885  1.00  0.00    -0.248 NA
ATOM     56  C   UNL A   1      42.841  28.258  31.934  1.00  0.00     0.031 C 
ATOM     57  C   UNL A   1      43.218  29.108  26.307  1.00  0.00     0.029 A 
ATOM     58  C   UNL A   1      43.212  29.303  27.690  1.00  0.00     0.049 A 
ATOM     59  H   UNL A   1      41.618  30.246  28.701  1.00  0.00     0.167 HD
ATOM     60  C   UNL A   1      43.980  28.974  30.036  1.00  0.00     0.074 A 
ATOM     61  C   UNL A   1      42.719  28.918  30.778  1.00  0.00     0.031 C 
ATOM     62  C   UNL A   1      44.241  29.149  28.704  1.00  0.00     0.034 A 
BRANCH  49  63
ATOM     63  C   UNL A   1      38.847  29.087  28.282  1.00  0.00     0.023 A 
ATOM     64  C   UNL A   1      38.973  29.014  29.683  1.00  0.00     0.031 A 
ATOM     65  C   UNL A   1      37.594  29.543  27.809  1.00  0.00     0.131 A 
ATOM     66  C   UNL A   1      37.873  29.257  30.524  1.00  0.00     0.055 A 
ATOM     67  C   UNL A   1      36.523  29.850  28.654  1.00  0.00     0.041 A 
ATOM     68  F   UNL A   1      37.294  29.638  26.509  1.00  0.00    -0.206 F 
ATOM     69  C   UNL A   1      36.646  29.672  30.019  1.00  0.00     0.022 A 
BRANCH  66  70
ATOM     70  S   UNL A   1      38.029  28.834  32.277  1.00  0.00     0.124 S 
ATOM     71  O   UNL A   1      39.205  29.609  32.659  1.00  0.00    -0.237 OA
ATOM     72  O   UNL A   1      36.751  29.296  32.810  1.00  0.00    -0.237 OA
ATOM     73  O   UNL A   1      38.210  27.385  32.261  1.00  0.00    -0.744 OA
ENDBRANCH  66  70
ENDBRANCH  49  63
BRANCH  50  74
ATOM     74  C   UNL A   1      44.560  26.069  33.754  1.00  0.00     0.023 A 
ATOM     75  C   UNL A   1      43.482  26.318  34.640  1.00  0.00     0.031 A 
ATOM     76  C   UNL A   1      45.579  25.219  34.243  1.00  0.00     0.131 A 
ATOM     77  C   UNL A   1      43.457  25.728  35.932  1.00  0.00     0.055 A 
ATOM     78  C   UNL A   1      45.546  24.638  35.514  1.00  0.00     0.041 A 
ATOM     79  F   UNL A   1      46.610  24.848  33.470  1.00  0.00    -0.206 F 
ATOM     80  C   UNL A   1      44.479  24.878  36.361  1.00  0.00     0.022 A 
BRANCH  77  81
ATOM     81  S   UNL A   1      42.042  25.975  37.065  1.00  0.00     0.124 S 
ATOM     82  O   UNL A   1      42.706  26.296  38.324  1.00  0.00    -0.237 OA
ATOM     83  O   UNL A   1      41.307  27.058  36.425  1.00  0.00    -0.237 OA
ATOM     84  O   UNL A   1      41.359  24.680  37.047  1.00  0.00    -0.744 OA
ENDBRANCH  77  81
ENDBRANCH  50  74
BRANCH  62  85
ATOM     85  C   UNL A   1      45.672  28.999  28.212  1.00  0.00     0.023 A 
ATOM     86  C   UNL A   1      46.304  27.782  27.863  1.00  0.00     0.031 A 
ATOM     87  C   UNL A   1      46.384  30.189  27.977  1.00  0.00     0.131 A 
ATOM     88  C   UNL A   1      47.604  27.795  27.310  1.00  0.00     0.055 A 
ATOM     89  C   UNL A   1      47.656  30.199  27.408  1.00  0.00     0.041 A 
ATOM     90  F   UNL A   1      45.834  31.380  28.267  1.00  0.00    -0.206 F 
ATOM     91  C   UNL A   1      48.274  29.001  27.078  1.00  0.00     0.022 A 
BRANCH  88  92
ATOM     92  S   UNL A   1      48.473  26.242  26.904  1.00  0.00     0.124 S 
ATOM     93  O   UNL A   1      47.431  25.227  27.015  1.00  0.00    -0.237 OA
ATOM     94  O   UNL A   1      48.975  26.501  25.558  1.00  0.00    -0.237 OA
ATOM     95  O   UNL A   1      49.514  26.156  27.932  1.00  0.00    -0.744 OA
ENDBRANCH  88  92
ENDBRANCH  62  85
ENDBRANCH  36  37
ENDBRANCH  28  31
ENDBRANCH  26  27
ENDBRANCH   1  26
TORSDOF 15
ENDMDL
MODEL 3
REMARK VINA RESULT:     -12.9      4.807      8.686
REMARK SMILES Cn1ccc(-c2n[nH]c(=O)n2-c2ccc(C(=O)NCCCNC(=O)c3ccc(-c4c5nc(c(-c6cc(S(=O)(=O)[O-])ccc6F)c6ccc([nH]6)c(-c6cc(S(=O)(=O)[O-])ccc6F)c6nc(c(-c7cc(S(=O)(=O)[O-])ccc7F)c7ccc4[nH]7)C=C6)C=C5)cc3)cc2)n1
REMARK SMILES IDX 20 1 19 2 18 3 16 4 17 5 15 7 12 8 13 9 89 10 14 11 88 12
REMARK SMILES IDX 11 13 6 14 7 15 8 16 9 17 10 19 5 20 1 21 2 22 3 23 90 24
REMARK SMILES IDX 4 25 21 26 22 27 23 28 24 30 25 31 26 32 87 33 27 34 86 35
REMARK SMILES IDX 28 36 29 37 30 38 80 39 31 40 85 41 79 42 81 43 32 44 84 45
REMARK SMILES IDX 78 46 77 47 33 49 65 50 45 51 64 52 46 53 49 54 63 55 82 56
REMARK SMILES IDX 47 57 48 58 62 60 83 61 50 62 34 63 35 64 43 65 36 66 42 67
REMARK SMILES IDX 44 68 41 69 37 70 38 71 39 72 40 73 66 74 67 75 75 76 68 77
REMARK SMILES IDX 74 78 76 79 73 80 69 81 70 82 71 83 72 84 51 85 52 86 60 87
REMARK SMILES IDX 53 88 59 89 61 90 58 91 54 92 55 93 56 94 57 95
REMARK H PARENT 18 6 8 18 22 29 81 48 49 59
REMARK Flexibility Score: inf
ROOT
ATOM      1  C   UNL A   1      31.572  31.150  26.154  1.00  0.00     0.042 C 
ENDROOT
BRANCH   1   2
ATOM      2  C   UNL A   1      31.982  29.721  25.768  1.00  0.00     0.118 C 
BRANCH   2   3
ATOM      3  N   UNL A   1      32.862  29.706  24.610  1.00  0.00    -0.352 N 
ATOM      4  C   UNL A   1      33.494  28.688  23.936  1.00  0.00     0.251 C 
ATOM      5  O   UNL A   1      34.129  28.980  22.922  1.00  0.00    -0.269 OA
ATOM      6  H   UNL A   1      33.041  30.599  24.237  1.00  0.00     0.163 HD
BRANCH   4   7
ATOM      7  C   UNL A   1      33.400  27.256  24.337  1.00  0.00     0.039 A 
ATOM      8  C   UNL A   1      32.997  24.561  25.047  1.00  0.00     0.052 A 
ATOM      9  C   UNL A   1      32.620  25.008  23.781  1.00  0.00     0.028 A 
ATOM     10  C   UNL A   1      33.657  25.434  25.913  1.00  0.00     0.028 A 
ATOM     11  C   UNL A   1      32.791  26.358  23.444  1.00  0.00     0.016 A 
ATOM     12  C   UNL A   1      33.899  26.751  25.535  1.00  0.00     0.016 A 
BRANCH   8  13
ATOM     13  N   UNL A   1      32.800  23.234  25.447  1.00  0.00    -0.242 N 
ATOM     14  C   UNL A   1      33.592  22.153  25.192  1.00  0.00     0.189 A 
ATOM     15  N   UNL A   1      33.004  20.995  25.329  1.00  0.00    -0.150 NA
ATOM     16  N   UNL A   1      31.738  21.327  25.735  1.00  0.00    -0.226 N 
ATOM     17  C   UNL A   1      31.587  22.712  25.817  1.00  0.00     0.348 A 
ATOM     18  H   UNL A   1      31.029  20.676  25.943  1.00  0.00     0.195 HD
ATOM     19  O   UNL A   1      30.533  23.283  26.076  1.00  0.00    -0.246 OA
BRANCH  14  20
ATOM     20  C   UNL A   1      35.002  22.260  24.853  1.00  0.00     0.130 A 
ATOM     21  C   UNL A   1      38.370  21.761  25.683  1.00  0.00     0.173 C 
ATOM     22  N   UNL A   1      37.116  22.109  25.058  1.00  0.00    -0.275 N 
ATOM     23  C   UNL A   1      36.930  22.540  23.779  1.00  0.00     0.109 A 
ATOM     24  N   UNL A   1      35.969  21.973  25.747  1.00  0.00    -0.170 NA
ATOM     25  C   UNL A   1      35.568  22.616  23.602  1.00  0.00     0.054 A 
ENDBRANCH  14  20
ENDBRANCH   8  13
ENDBRANCH   4   7
ENDBRANCH   2   3
ENDBRANCH   1   2
BRANCH   1  26
ATOM     26  C   UNL A   1      32.553  31.776  27.130  1.00  0.00     0.118 C 
BRANCH  26  27
ATOM     27  N   UNL A   1      32.322  33.216  27.284  1.00  0.00    -0.352 N 
ATOM     28  C   UNL A   1      32.937  34.097  28.153  1.00  0.00     0.251 C 
ATOM     29  H   UNL A   1      31.640  33.605  26.692  1.00  0.00     0.163 HD
ATOM     30  O   UNL A   1      32.398  35.161  28.433  1.00  0.00    -0.269 OA
BRANCH  28  31
ATOM     31  C   UNL A   1      34.245  33.732  28.727  1.00  0.00     0.039 A 
ATOM     32  C   UNL A   1      34.356  33.136  29.986  1.00  0.00     0.014 A 
ATOM     33  C   UNL A   1      35.374  33.976  27.954  1.00  0.00     0.014 A 
ATOM     34  C   UNL A   1      35.613  32.714  30.420  1.00  0.00     0.010 A 
ATOM     35  C   UNL A   1      36.569  33.404  28.299  1.00  0.00     0.010 A 
ATOM     36  C   UNL A   1      36.714  32.834  29.557  1.00  0.00    -0.014 A 
BRANCH  36  37
ATOM     37  C   UNL A   1      38.003  32.212  29.856  1.00  0.00     0.031 A 
ATOM     38  C   UNL A   1      38.071  30.785  29.437  1.00  0.00     0.074 A 
ATOM     39  C   UNL A   1      39.089  32.947  30.197  1.00  0.00     0.049 A 
ATOM     40  N   UNL A   1      38.189  29.745  30.194  1.00  0.00    -0.248 NA
ATOM     41  C   UNL A   1      37.771  30.450  28.031  1.00  0.00     0.031 C 
ATOM     42  C   UNL A   1      39.173  34.406  30.343  1.00  0.00     0.029 A 
ATOM     43  N   UNL A   1      40.390  32.574  30.351  1.00  0.00    -0.354 N 
ATOM     44  C   UNL A   1      38.280  28.659  29.327  1.00  0.00     0.074 A 
ATOM     45  C   UNL A   1      37.753  29.117  28.072  1.00  0.00     0.031 C 
ATOM     46  C   UNL A   1      40.466  34.799  30.296  1.00  0.00     0.029 A 
ATOM     47  C   UNL A   1      41.314  33.621  30.271  1.00  0.00     0.049 A 
ATOM     48  H   UNL A   1      40.658  31.640  30.508  1.00  0.00     0.167 HD
ATOM     49  C   UNL A   1      39.069  27.591  29.630  1.00  0.00     0.034 A 
ATOM     50  C   UNL A   1      42.672  33.528  30.150  1.00  0.00     0.034 A 
ATOM     51  C   UNL A   1      39.402  27.591  31.041  1.00  0.00     0.049 A 
ATOM     52  C   UNL A   1      43.035  32.169  30.629  1.00  0.00     0.074 A 
ATOM     53  C   UNL A   1      38.660  27.605  32.207  1.00  0.00     0.029 A 
ATOM     54  N   UNL A   1      40.665  28.004  31.406  1.00  0.00    -0.354 N 
ATOM     55  N   UNL A   1      42.846  31.774  31.860  1.00  0.00    -0.248 NA
ATOM     56  C   UNL A   1      43.097  31.104  29.640  1.00  0.00     0.031 C 
ATOM     57  C   UNL A   1      39.350  28.509  33.068  1.00  0.00     0.029 A 
ATOM     58  C   UNL A   1      40.531  28.904  32.436  1.00  0.00     0.049 A 
ATOM     59  H   UNL A   1      41.512  27.708  31.001  1.00  0.00     0.167 HD
ATOM     60  C   UNL A   1      42.316  30.497  31.746  1.00  0.00     0.074 A 
ATOM     61  C   UNL A   1      42.571  30.107  30.358  1.00  0.00     0.031 C 
ATOM     62  C   UNL A   1      41.454  29.999  32.683  1.00  0.00     0.034 A 
BRANCH  49  63
ATOM     63  C   UNL A   1      39.874  26.798  28.618  1.00  0.00     0.023 A 
ATOM     64  C   UNL A   1      40.963  27.457  28.015  1.00  0.00     0.031 A 
ATOM     65  C   UNL A   1      39.482  25.587  28.001  1.00  0.00     0.131 A 
ATOM     66  C   UNL A   1      41.517  26.991  26.811  1.00  0.00     0.055 A 
ATOM     67  C   UNL A   1      40.083  25.091  26.840  1.00  0.00     0.041 A 
ATOM     68  F   UNL A   1      38.445  24.854  28.422  1.00  0.00    -0.206 F 
ATOM     69  C   UNL A   1      41.083  25.812  26.216  1.00  0.00     0.022 A 
BRANCH  66  70
ATOM     70  S   UNL A   1      42.689  28.061  25.939  1.00  0.00     0.124 S 
ATOM     71  O   UNL A   1      42.337  29.372  26.473  1.00  0.00    -0.237 OA
ATOM     72  O   UNL A   1      43.971  27.511  26.370  1.00  0.00    -0.237 OA
ATOM     73  O   UNL A   1      42.360  27.847  24.532  1.00  0.00    -0.744 OA
ENDBRANCH  66  70
ENDBRANCH  49  63
BRANCH  50  74
ATOM     74  C   UNL A   1      43.584  34.377  29.310  1.00  0.00     0.023 A 
ATOM     75  C   UNL A   1      44.097  33.963  28.054  1.00  0.00     0.031 A 
ATOM     76  C   UNL A   1      43.761  35.743  29.630  1.00  0.00     0.131 A 
ATOM     77  C   UNL A   1      44.738  34.894  27.193  1.00  0.00     0.055 A 
ATOM     78  C   UNL A   1      44.389  36.655  28.776  1.00  0.00     0.041 A 
ATOM     79  F   UNL A   1      43.251  36.269  30.753  1.00  0.00    -0.206 F 
ATOM     80  C   UNL A   1      44.869  36.238  27.547  1.00  0.00     0.022 A 
BRANCH  77  81
ATOM     81  S   UNL A   1      45.341  34.400  25.538  1.00  0.00     0.124 S 
ATOM     82  O   UNL A   1      46.403  35.370  25.294  1.00  0.00    -0.237 OA
ATOM     83  O   UNL A   1      45.759  33.019  25.750  1.00  0.00    -0.237 OA
ATOM     84  O   UNL A   1      44.163  34.555  24.684  1.00  0.00    -0.744 OA
ENDBRANCH  77  81
ENDBRANCH  50  74
BRANCH  62  85
ATOM     85  C   UNL A   1      41.308  30.733  34.008  1.00  0.00     0.023 A 
ATOM     86  C   UNL A   1      40.329  31.710  34.310  1.00  0.00     0.031 A 
ATOM     87  C   UNL A   1      42.150  30.315  35.054  1.00  0.00     0.131 A 
ATOM     88  C   UNL A   1      40.234  32.232  35.619  1.00  0.00     0.055 A 
ATOM     89  C   UNL A   1      42.036  30.814  36.350  1.00  0.00     0.041 A 
ATOM     90  F   UNL A   1      43.087  29.376  34.840  1.00  0.00    -0.206 F 
ATOM     91  C   UNL A   1      41.080  31.780  36.636  1.00  0.00     0.022 A 
BRANCH  88  92
ATOM     92  S   UNL A   1      39.024  33.536  36.030  1.00  0.00     0.124 S 
ATOM     93  O   UNL A   1      39.005  34.373  34.836  1.00  0.00    -0.237 OA
ATOM     94  O   UNL A   1      37.809  32.770  36.295  1.00  0.00    -0.237 OA
ATOM     95  O   UNL A   1      39.605  34.178  37.211  1.00  0.00    -0.744 OA
ENDBRANCH  88  92
ENDBRANCH  62  85
ENDBRANCH  36  37
ENDBRANCH  28  31
ENDBRANCH  26  27
ENDBRANCH   1  26
TORSDOF 15
ENDMDL
