MODEL 1
REMARK VINA RESULT:     -11.6      0.000      0.000
REMARK SMILES O=C(CCNC(=O)CCc1nc2ccccc2[nH]1)NCCCNC(=O)c1ccc(-c2c3nc(c(-c4cc(S(=O)(=O)[O-])ccc4F)c4ccc([nH]4)c(-c4cc(S(=O)(=O)[O-])ccc4F)c4nc(c(-c5cc(S(=O)(=O)[O-])ccc5F)c5ccc2[nH]5)C=C4)C=C3)cc1
REMARK SMILES IDX 20 1 19 2 1 3 2 4 3 6 4 7 5 8 6 9 7 11 8 12 9 13 10 14 11 15
REMARK SMILES IDX 18 16 12 17 17 18 13 20 16 21 14 22 15 23 21 24 22 25 23 26
REMARK SMILES IDX 24 27 25 29 26 30 27 31 88 32 28 33 87 34 29 35 30 36 31 37
REMARK SMILES IDX 81 38 32 39 86 40 80 41 82 42 33 43 85 44 79 45 78 46 34 48
REMARK SMILES IDX 66 49 46 50 65 51 47 52 50 53 64 54 83 55 48 56 49 57 63 59
REMARK SMILES IDX 84 60 51 61 35 62 36 63 44 64 37 65 43 66 45 67 42 68 38 69
REMARK SMILES IDX 39 70 40 71 41 72 67 73 68 74 76 75 69 76 75 77 77 78 74 79
REMARK SMILES IDX 70 80 71 81 72 82 73 83 52 84 53 85 61 86 54 87 60 88 62 89
REMARK SMILES IDX 59 90 55 91 56 92 57 93 58 94
REMARK H PARENT 19 5 5 10 18 19 23 28 82 47 50 58
REMARK Flexibility Score: inf
ROOT
ATOM      1  C   UNL A   1      31.877  29.773  26.634  1.00  0.00     0.117 C 
ENDROOT
BRANCH   1   2
ATOM      2  N   UNL A   1      32.472  29.175  25.460  1.00  0.00    -0.356 N 
ATOM      3  O   UNL A   1      34.233  28.164  26.545  1.00  0.00    -0.275 OA
ATOM      4  C   UNL A   1      33.636  28.445  25.513  1.00  0.00     0.221 C 
ATOM      5  H   UNL A   1      32.028  29.294  24.590  1.00  0.00     0.163 HD
BRANCH   4   6
ATOM      6  C   UNL A   1      34.131  28.033  24.152  1.00  0.00     0.121 C 
BRANCH   6   7
ATOM      7  C   UNL A   1      33.389  28.702  23.010  1.00  0.00     0.125 C 
BRANCH   7   8
ATOM      8  N   UNL A   1      33.260  27.822  21.857  1.00  0.00    -0.356 N 
ATOM      9  C   UNL A   1      32.949  26.498  21.778  1.00  0.00     0.220 C 
ATOM     10  H   UNL A   1      33.425  28.255  20.988  1.00  0.00     0.163 HD
ATOM     11  O   UNL A   1      33.071  25.939  20.686  1.00  0.00    -0.275 OA
BRANCH   9  12
ATOM     12  C   UNL A   1      32.399  25.744  22.972  1.00  0.00     0.108 C 
BRANCH  12  13
ATOM     13  C   UNL A   1      32.169  24.259  22.692  1.00  0.00     0.085 C 
BRANCH  13  14
ATOM     14  C   UNL A   1      33.366  23.437  23.034  1.00  0.00     0.107 A 
ATOM     15  N   UNL A   1      34.613  23.694  22.700  1.00  0.00    -0.233 NA
ATOM     16  N   UNL A   1      33.299  22.313  23.823  1.00  0.00    -0.342 N 
ATOM     17  C   UNL A   1      35.380  22.832  23.446  1.00  0.00     0.089 A 
ATOM     18  C   UNL A   1      34.577  21.978  24.193  1.00  0.00     0.065 A 
ATOM     19  H   UNL A   1      32.478  21.832  24.076  1.00  0.00     0.168 HD
ATOM     20  C   UNL A   1      36.771  22.806  23.625  1.00  0.00     0.030 A 
ATOM     21  C   UNL A   1      35.085  21.069  25.122  1.00  0.00     0.028 A 
ATOM     22  C   UNL A   1      37.302  21.944  24.592  1.00  0.00     0.002 A 
ATOM     23  C   UNL A   1      36.471  21.090  25.322  1.00  0.00     0.002 A 
ENDBRANCH  13  14
ENDBRANCH  12  13
ENDBRANCH   9  12
ENDBRANCH   7   8
ENDBRANCH   6   7
ENDBRANCH   4   6
ENDBRANCH   1   2
BRANCH   1  24
ATOM     24  C   UNL A   1      31.811  31.293  26.537  1.00  0.00     0.042 C 
BRANCH  24  25
ATOM     25  C   UNL A   1      32.884  32.028  27.336  1.00  0.00     0.118 C 
BRANCH  25  26
ATOM     26  N   UNL A   1      32.587  33.440  27.519  1.00  0.00    -0.352 N 
ATOM     27  C   UNL A   1      33.128  34.353  28.395  1.00  0.00     0.251 C 
ATOM     28  H   UNL A   1      31.891  33.799  26.923  1.00  0.00     0.163 HD
ATOM     29  O   UNL A   1      32.609  35.454  28.518  1.00  0.00    -0.269 OA
BRANCH  27  30
ATOM     30  C   UNL A   1      34.305  33.983  29.210  1.00  0.00     0.039 A 
ATOM     31  C   UNL A   1      34.110  33.226  30.367  1.00  0.00     0.014 A 
ATOM     32  C   UNL A   1      35.592  34.367  28.829  1.00  0.00     0.014 A 
ATOM     33  C   UNL A   1      35.217  32.775  31.091  1.00  0.00     0.010 A 
ATOM     34  C   UNL A   1      36.695  33.850  29.505  1.00  0.00     0.010 A 
ATOM     35  C   UNL A   1      36.519  33.039  30.636  1.00  0.00    -0.014 A 
BRANCH  35  36
ATOM     36  C   UNL A   1      37.708  32.455  31.312  1.00  0.00     0.031 A 
ATOM     37  C   UNL A   1      38.439  31.297  30.694  1.00  0.00     0.074 A 
ATOM     38  C   UNL A   1      38.081  32.923  32.521  1.00  0.00     0.049 A 
ATOM     39  N   UNL A   1      39.430  30.591  31.175  1.00  0.00    -0.248 NA
ATOM     40  C   UNL A   1      37.977  30.860  29.368  1.00  0.00     0.031 C 
ATOM     41  C   UNL A   1      37.430  34.023  33.239  1.00  0.00     0.029 A 
ATOM     42  N   UNL A   1      39.088  32.530  33.368  1.00  0.00    -0.354 N 
ATOM     43  C   UNL A   1      39.702  29.618  30.218  1.00  0.00     0.074 A 
ATOM     44  C   UNL A   1      38.732  29.792  29.158  1.00  0.00     0.031 C 
ATOM     45  C   UNL A   1      38.068  34.228  34.402  1.00  0.00     0.029 A 
ATOM     46  C   UNL A   1      39.134  33.243  34.544  1.00  0.00     0.049 A 
ATOM     47  H   UNL A   1      39.719  31.805  33.153  1.00  0.00     0.167 HD
ATOM     48  C   UNL A   1      40.684  28.681  30.218  1.00  0.00     0.034 A 
ATOM     49  C   UNL A   1      39.927  33.104  35.626  1.00  0.00     0.034 A 
ATOM     50  C   UNL A   1      41.644  28.525  31.284  1.00  0.00     0.049 A 
ATOM     51  C   UNL A   1      40.974  32.019  35.625  1.00  0.00     0.074 A 
ATOM     52  C   UNL A   1      42.711  27.645  31.359  1.00  0.00     0.029 A 
ATOM     53  N   UNL A   1      41.647  29.252  32.468  1.00  0.00    -0.354 N 
ATOM     54  N   UNL A   1      41.253  31.139  34.690  1.00  0.00    -0.248 NA
ATOM     55  C   UNL A   1      41.818  31.910  36.822  1.00  0.00     0.031 C 
ATOM     56  C   UNL A   1      43.307  27.786  32.616  1.00  0.00     0.029 A 
ATOM     57  C   UNL A   1      42.670  28.813  33.295  1.00  0.00     0.049 A 
ATOM     58  H   UNL A   1      41.016  29.975  32.688  1.00  0.00     0.167 HD
ATOM     59  C   UNL A   1      42.322  30.393  35.177  1.00  0.00     0.074 A 
ATOM     60  C   UNL A   1      42.649  30.937  36.479  1.00  0.00     0.031 C 
ATOM     61  C   UNL A   1      42.976  29.354  34.599  1.00  0.00     0.034 A 
BRANCH  48  62
ATOM     62  C   UNL A   1      40.743  27.736  29.040  1.00  0.00     0.023 A 
ATOM     63  C   UNL A   1      41.690  27.893  28.012  1.00  0.00     0.031 A 
ATOM     64  C   UNL A   1      39.828  26.674  28.932  1.00  0.00     0.131 A 
ATOM     65  C   UNL A   1      41.653  27.053  26.890  1.00  0.00     0.055 A 
ATOM     66  C   UNL A   1      39.850  25.788  27.853  1.00  0.00     0.041 A 
ATOM     67  F   UNL A   1      38.887  26.484  29.870  1.00  0.00    -0.206 F 
ATOM     68  C   UNL A   1      40.756  25.985  26.815  1.00  0.00     0.022 A 
BRANCH  65  69
ATOM     69  S   UNL A   1      42.693  27.467  25.463  1.00  0.00     0.124 S 
ATOM     70  O   UNL A   1      42.656  26.223  24.699  1.00  0.00    -0.237 OA
ATOM     71  O   UNL A   1      41.986  28.599  24.876  1.00  0.00    -0.237 OA
ATOM     72  O   UNL A   1      43.988  27.783  26.063  1.00  0.00    -0.744 OA
ENDBRANCH  65  69
ENDBRANCH  48  62
BRANCH  49  73
ATOM     73  C   UNL A   1      39.751  33.990  36.814  1.00  0.00     0.023 A 
ATOM     74  C   UNL A   1      39.188  33.500  38.004  1.00  0.00     0.031 A 
ATOM     75  C   UNL A   1      40.096  35.353  36.761  1.00  0.00     0.131 A 
ATOM     76  C   UNL A   1      38.942  34.375  39.074  1.00  0.00     0.055 A 
ATOM     77  C   UNL A   1      39.905  36.206  37.850  1.00  0.00     0.041 A 
ATOM     78  F   UNL A   1      40.636  35.875  35.648  1.00  0.00    -0.206 F 
ATOM     79  C   UNL A   1      39.311  35.720  39.010  1.00  0.00     0.022 A 
BRANCH  76  80
ATOM     80  S   UNL A   1      38.042  33.748  40.518  1.00  0.00     0.124 S 
ATOM     81  O   UNL A   1      37.653  34.985  41.185  1.00  0.00    -0.237 OA
ATOM     82  O   UNL A   1      36.964  32.987  39.896  1.00  0.00    -0.237 OA
ATOM     83  O   UNL A   1      39.043  32.947  41.220  1.00  0.00    -0.744 OA
ENDBRANCH  76  80
ENDBRANCH  49  73
BRANCH  61  84
ATOM     84  C   UNL A   1      44.140  28.765  35.360  1.00  0.00     0.023 A 
ATOM     85  C   UNL A   1      43.972  27.703  36.266  1.00  0.00     0.031 A 
ATOM     86  C   UNL A   1      45.438  29.278  35.178  1.00  0.00     0.131 A 
ATOM     87  C   UNL A   1      45.073  27.223  36.993  1.00  0.00     0.055 A 
ATOM     88  C   UNL A   1      46.539  28.754  35.855  1.00  0.00     0.041 A 
ATOM     89  F   UNL A   1      45.657  30.295  34.330  1.00  0.00    -0.206 F 
ATOM     90  C   UNL A   1      46.358  27.729  36.779  1.00  0.00     0.022 A 
BRANCH  87  91
ATOM     91  S   UNL A   1      44.789  25.989  38.292  1.00  0.00     0.124 S 
ATOM     92  O   UNL A   1      46.137  25.483  38.530  1.00  0.00    -0.237 OA
ATOM     93  O   UNL A   1      44.210  26.791  39.365  1.00  0.00    -0.237 OA
ATOM     94  O   UNL A   1      43.871  25.038  37.667  1.00  0.00    -0.744 OA
ENDBRANCH  87  91
ENDBRANCH  61  84
ENDBRANCH  35  36
ENDBRANCH  27  30
ENDBRANCH  25  26
ENDBRANCH  24  25
ENDBRANCH   1  24
TORSDOF 18
ENDMDL
MODEL 2
REMARK VINA RESULT:     -11.5      2.189      2.999
REMARK SMILES O=C(CCNC(=O)CCc1nc2ccccc2[nH]1)NCCCNC(=O)c1ccc(-c2c3nc(c(-c4cc(S(=O)(=O)[O-])ccc4F)c4ccc([nH]4)c(-c4cc(S(=O)(=O)[O-])ccc4F)c4nc(c(-c5cc(S(=O)(=O)[O-])ccc5F)c5ccc2[nH]5)C=C4)C=C3)cc1
REMARK SMILES IDX 20 1 19 2 1 3 2 4 3 6 4 7 5 8 6 9 7 11 8 12 9 13 10 14 11 15
REMARK SMILES IDX 18 16 12 17 17 18 13 20 16 21 14 22 15 23 21 24 22 25 23 26
REMARK SMILES IDX 24 27 25 29 26 30 27 31 88 32 28 33 87 34 29 35 30 36 31 37
REMARK SMILES IDX 81 38 32 39 86 40 80 41 82 42 33 43 85 44 79 45 78 46 34 48
REMARK SMILES IDX 66 49 46 50 65 51 47 52 50 53 64 54 83 55 48 56 49 57 63 59
REMARK SMILES IDX 84 60 51 61 35 62 36 63 44 64 37 65 43 66 45 67 42 68 38 69
REMARK SMILES IDX 39 70 40 71 41 72 67 73 68 74 76 75 69 76 75 77 77 78 74 79
REMARK SMILES IDX 70 80 71 81 72 82 73 83 52 84 53 85 61 86 54 87 60 88 62 89
REMARK SMILES IDX 59 90 55 91 56 92 57 93 58 94
REMARK H PARENT 19 5 5 10 18 19 23 28 82 47 50 58
REMARK Flexibility Score: inf
ROOT
ATOM      1  C   UNL A   1      31.359  28.386  25.019  1.00  0.00     0.117 C 
ENDROOT
BRANCH   1   2
ATOM      2  N   UNL A   1      32.028  27.537  24.059  1.00  0.00    -0.356 N 
ATOM      3  O   UNL A   1      33.262  26.337  25.588  1.00  0.00    -0.275 OA
ATOM      4  C   UNL A   1      32.963  26.600  24.429  1.00  0.00     0.221 C 
ATOM      5  H   UNL A   1      31.805  27.633  23.105  1.00  0.00     0.163 HD
BRANCH   4   6
ATOM      6  C   UNL A   1      33.616  25.928  23.250  1.00  0.00     0.121 C 
BRANCH   6   7
ATOM      7  C   UNL A   1      33.271  24.456  23.125  1.00  0.00     0.125 C 
BRANCH   7   8
ATOM      8  N   UNL A   1      34.465  23.623  23.052  1.00  0.00    -0.356 N 
ATOM      9  C   UNL A   1      35.258  23.116  24.037  1.00  0.00     0.220 C 
ATOM     10  H   UNL A   1      34.746  23.387  22.138  1.00  0.00     0.163 HD
ATOM     11  O   UNL A   1      36.316  22.578  23.707  1.00  0.00    -0.275 OA
BRANCH   9  12
ATOM     12  C   UNL A   1      34.828  23.145  25.490  1.00  0.00     0.108 C 
BRANCH  12  13
ATOM     13  C   UNL A   1      33.401  22.638  25.704  1.00  0.00     0.085 C 
BRANCH  13  14
ATOM     14  C   UNL A   1      33.233  21.234  25.228  1.00  0.00     0.107 A 
ATOM     15  N   UNL A   1      32.310  20.793  24.401  1.00  0.00    -0.233 NA
ATOM     16  N   UNL A   1      34.102  20.223  25.567  1.00  0.00    -0.342 N 
ATOM     17  C   UNL A   1      32.705  19.525  24.050  1.00  0.00     0.089 A 
ATOM     18  C   UNL A   1      33.854  19.158  24.739  1.00  0.00     0.065 A 
ATOM     19  H   UNL A   1      34.782  20.258  26.279  1.00  0.00     0.168 HD
ATOM     20  C   UNL A   1      32.195  18.678  23.054  1.00  0.00     0.030 A 
ATOM     21  C   UNL A   1      34.538  17.964  24.504  1.00  0.00     0.028 A 
ATOM     22  C   UNL A   1      32.895  17.503  22.758  1.00  0.00     0.002 A 
ATOM     23  C   UNL A   1      34.042  17.153  23.474  1.00  0.00     0.002 A 
ENDBRANCH  13  14
ENDBRANCH  12  13
ENDBRANCH   9  12
ENDBRANCH   7   8
ENDBRANCH   6   7
ENDBRANCH   4   6
ENDBRANCH   1   2
BRANCH   1  24
ATOM     24  C   UNL A   1      32.102  29.697  25.248  1.00  0.00     0.042 C 
BRANCH  24  25
ATOM     25  C   UNL A   1      32.130  30.167  26.700  1.00  0.00     0.118 C 
BRANCH  25  26
ATOM     26  N   UNL A   1      32.085  31.615  26.829  1.00  0.00    -0.352 N 
ATOM     27  C   UNL A   1      32.953  32.476  27.459  1.00  0.00     0.251 C 
ATOM     28  H   UNL A   1      31.312  32.046  26.398  1.00  0.00     0.163 HD
ATOM     29  O   UNL A   1      32.638  33.648  27.612  1.00  0.00    -0.269 OA
BRANCH  27  30
ATOM     30  C   UNL A   1      34.241  31.971  27.982  1.00  0.00     0.039 A 
ATOM     31  C   UNL A   1      35.328  32.844  28.050  1.00  0.00     0.014 A 
ATOM     32  C   UNL A   1      34.371  30.650  28.415  1.00  0.00     0.014 A 
ATOM     33  C   UNL A   1      36.520  32.417  28.640  1.00  0.00     0.010 A 
ATOM     34  C   UNL A   1      35.531  30.251  29.074  1.00  0.00     0.010 A 
ATOM     35  C   UNL A   1      36.614  31.134  29.204  1.00  0.00    -0.014 A 
BRANCH  35  36
ATOM     36  C   UNL A   1      37.823  30.706  29.957  1.00  0.00     0.031 A 
ATOM     37  C   UNL A   1      38.793  29.735  29.344  1.00  0.00     0.074 A 
ATOM     38  C   UNL A   1      38.006  31.138  31.222  1.00  0.00     0.049 A 
ATOM     39  N   UNL A   1      39.845  29.168  29.876  1.00  0.00    -0.248 NA
ATOM     40  C   UNL A   1      38.528  29.328  27.955  1.00  0.00     0.031 C 
ATOM     41  C   UNL A   1      37.117  32.057  31.937  1.00  0.00     0.029 A 
ATOM     42  N   UNL A   1      38.990  30.853  32.137  1.00  0.00    -0.354 N 
ATOM     43  C   UNL A   1      40.362  28.329  28.894  1.00  0.00     0.074 A 
ATOM     44  C   UNL A   1      39.471  28.419  27.757  1.00  0.00     0.031 C 
ATOM     45  C   UNL A   1      37.608  32.277  33.166  1.00  0.00     0.029 A 
ATOM     46  C   UNL A   1      38.811  31.474  33.352  1.00  0.00     0.049 A 
ATOM     47  H   UNL A   1      39.752  30.262  31.941  1.00  0.00     0.167 HD
ATOM     48  C   UNL A   1      41.486  27.570  28.933  1.00  0.00     0.034 A 
ATOM     49  C   UNL A   1      39.520  31.387  34.496  1.00  0.00     0.034 A 
ATOM     50  C   UNL A   1      42.364  27.495  30.076  1.00  0.00     0.049 A 
ATOM     51  C   UNL A   1      40.735  30.494  34.532  1.00  0.00     0.074 A 
ATOM     52  C   UNL A   1      43.555  26.801  30.202  1.00  0.00     0.029 A 
ATOM     53  N   UNL A   1      42.141  28.122  31.296  1.00  0.00    -0.354 N 
ATOM     54  N   UNL A   1      41.239  29.745  33.578  1.00  0.00    -0.248 NA
ATOM     55  C   UNL A   1      41.479  30.436  35.797  1.00  0.00     0.031 C 
ATOM     56  C   UNL A   1      44.009  26.944  31.517  1.00  0.00     0.029 A 
ATOM     57  C   UNL A   1      43.149  27.797  32.191  1.00  0.00     0.049 A 
ATOM     58  H   UNL A   1      41.378  28.712  31.496  1.00  0.00     0.167 HD
ATOM     59  C   UNL A   1      42.375  29.151  34.121  1.00  0.00     0.074 A 
ATOM     60  C   UNL A   1      42.491  29.643  35.478  1.00  0.00     0.031 C 
ATOM     61  C   UNL A   1      43.245  28.282  33.548  1.00  0.00     0.034 A 
BRANCH  48  62
ATOM     62  C   UNL A   1      41.807  26.740  27.712  1.00  0.00     0.023 A 
ATOM     63  C   UNL A   1      41.426  25.390  27.614  1.00  0.00     0.031 A 
ATOM     64  C   UNL A   1      42.521  27.299  26.638  1.00  0.00     0.131 A 
ATOM     65  C   UNL A   1      41.823  24.627  26.506  1.00  0.00     0.055 A 
ATOM     66  C   UNL A   1      42.841  26.558  25.499  1.00  0.00     0.041 A 
ATOM     67  F   UNL A   1      42.931  28.577  26.680  1.00  0.00    -0.206 F 
ATOM     68  C   UNL A   1      42.506  25.208  25.435  1.00  0.00     0.022 A 
BRANCH  65  69
ATOM     69  S   UNL A   1      41.566  22.833  26.553  1.00  0.00     0.124 S 
ATOM     70  O   UNL A   1      40.108  22.742  26.505  1.00  0.00    -0.237 OA
ATOM     71  O   UNL A   1      42.273  22.382  25.361  1.00  0.00    -0.237 OA
ATOM     72  O   UNL A   1      42.166  22.433  27.824  1.00  0.00    -0.744 OA
ENDBRANCH  65  69
ENDBRANCH  48  62
BRANCH  49  73
ATOM     73  C   UNL A   1      39.094  32.140  35.712  1.00  0.00     0.023 A 
ATOM     74  C   UNL A   1      38.406  31.498  36.755  1.00  0.00     0.031 A 
ATOM     75  C   UNL A   1      39.323  33.523  35.828  1.00  0.00     0.131 A 
ATOM     76  C   UNL A   1      37.929  32.246  37.843  1.00  0.00     0.055 A 
ATOM     77  C   UNL A   1      38.899  34.251  36.941  1.00  0.00     0.041 A 
ATOM     78  F   UNL A   1      39.975  34.188  34.860  1.00  0.00    -0.206 F 
ATOM     79  C   UNL A   1      38.184  33.615  37.950  1.00  0.00     0.022 A 
BRANCH  76  80
ATOM     80  S   UNL A   1      36.882  31.419  39.072  1.00  0.00     0.124 S 
ATOM     81  O   UNL A   1      35.730  32.312  39.128  1.00  0.00    -0.237 OA
ATOM     82  O   UNL A   1      36.657  30.118  38.452  1.00  0.00    -0.237 OA
ATOM     83  O   UNL A   1      37.718  31.400  40.271  1.00  0.00    -0.744 OA
ENDBRANCH  76  80
ENDBRANCH  49  73
BRANCH  61  84
ATOM     84  C   UNL A   1      44.423  27.838  34.383  1.00  0.00     0.023 A 
ATOM     85  C   UNL A   1      44.318  26.794  35.319  1.00  0.00     0.031 A 
ATOM     86  C   UNL A   1      45.671  28.472  34.240  1.00  0.00     0.131 A 
ATOM     87  C   UNL A   1      45.424  26.451  36.112  1.00  0.00     0.055 A 
ATOM     88  C   UNL A   1      46.784  28.084  34.985  1.00  0.00     0.041 A 
ATOM     89  F   UNL A   1      45.829  29.478  33.365  1.00  0.00    -0.206 F 
ATOM     90  C   UNL A   1      46.661  27.076  35.937  1.00  0.00     0.022 A 
BRANCH  87  91
ATOM     91  S   UNL A   1      45.201  25.238  37.442  1.00  0.00     0.124 S 
ATOM     92  O   UNL A   1      46.557  25.107  37.964  1.00  0.00    -0.237 OA
ATOM     93  O   UNL A   1      44.243  25.906  38.317  1.00  0.00    -0.237 OA
ATOM     94  O   UNL A   1      44.687  24.059  36.748  1.00  0.00    -0.744 OA
ENDBRANCH  87  91
ENDBRANCH  61  84
ENDBRANCH  35  36
ENDBRANCH  27  30
ENDBRANCH  25  26
ENDBRANCH  24  25
ENDBRANCH   1  24
TORSDOF 18
ENDMDL
MODEL 3
REMARK VINA RESULT:     -11.4      2.500      3.641
REMARK SMILES O=C(CCNC(=O)CCc1nc2ccccc2[nH]1)NCCCNC(=O)c1ccc(-c2c3nc(c(-c4cc(S(=O)(=O)[O-])ccc4F)c4ccc([nH]4)c(-c4cc(S(=O)(=O)[O-])ccc4F)c4nc(c(-c5cc(S(=O)(=O)[O-])ccc5F)c5ccc2[nH]5)C=C4)C=C3)cc1
REMARK SMILES IDX 20 1 19 2 1 3 2 4 3 6 4 7 5 8 6 9 7 11 8 12 9 13 10 14 11 15
REMARK SMILES IDX 18 16 12 17 17 18 13 20 16 21 14 22 15 23 21 24 22 25 23 26
REMARK SMILES IDX 24 27 25 29 26 30 27 31 88 32 28 33 87 34 29 35 30 36 31 37
REMARK SMILES IDX 81 38 32 39 86 40 80 41 82 42 33 43 85 44 79 45 78 46 34 48
REMARK SMILES IDX 66 49 46 50 65 51 47 52 50 53 64 54 83 55 48 56 49 57 63 59
REMARK SMILES IDX 84 60 51 61 35 62 36 63 44 64 37 65 43 66 45 67 42 68 38 69
REMARK SMILES IDX 39 70 40 71 41 72 67 73 68 74 76 75 69 76 75 77 77 78 74 79
REMARK SMILES IDX 70 80 71 81 72 82 73 83 52 84 53 85 61 86 54 87 60 88 62 89
REMARK SMILES IDX 59 90 55 91 56 92 57 93 58 94
REMARK H PARENT 19 5 5 10 18 19 23 28 82 47 50 58
REMARK Flexibility Score: inf
ROOT
ATOM      1  C   UNL A   1      34.043  29.136  26.016  1.00  0.00     0.117 C 
ENDROOT
BRANCH   1   2
ATOM      2  N   UNL A   1      33.702  27.777  26.372  1.00  0.00    -0.356 N 
ATOM      3  O   UNL A   1      33.941  26.885  24.263  1.00  0.00    -0.275 OA
ATOM      4  C   UNL A   1      33.642  26.764  25.445  1.00  0.00     0.221 C 
ATOM      5  H   UNL A   1      33.507  27.569  27.314  1.00  0.00     0.163 HD
BRANCH   4   6
ATOM      6  C   UNL A   1      33.142  25.468  26.027  1.00  0.00     0.121 C 
BRANCH   6   7
ATOM      7  C   UNL A   1      34.186  24.367  26.036  1.00  0.00     0.125 C 
BRANCH   7   8
ATOM      8  N   UNL A   1      34.828  24.216  24.737  1.00  0.00    -0.356 N 
ATOM      9  C   UNL A   1      34.755  23.212  23.819  1.00  0.00     0.220 C 
ATOM     10  H   UNL A   1      35.413  24.965  24.479  1.00  0.00     0.163 HD
ATOM     11  O   UNL A   1      35.534  23.243  22.865  1.00  0.00    -0.275 OA
BRANCH   9  12
ATOM     12  C   UNL A   1      33.704  22.124  23.921  1.00  0.00     0.108 C 
BRANCH  12  13
ATOM     13  C   UNL A   1      32.683  22.167  22.784  1.00  0.00     0.085 C 
BRANCH  13  14
ATOM     14  C   UNL A   1      31.876  23.421  22.808  1.00  0.00     0.107 A 
ATOM     15  N   UNL A   1      30.949  23.738  23.687  1.00  0.00    -0.233 NA
ATOM     16  N   UNL A   1      32.070  24.450  21.916  1.00  0.00    -0.342 N 
ATOM     17  C   UNL A   1      30.679  25.068  23.473  1.00  0.00     0.089 A 
ATOM     18  C   UNL A   1      31.402  25.551  22.390  1.00  0.00     0.065 A 
ATOM     19  H   UNL A   1      32.594  24.404  21.084  1.00  0.00     0.168 HD
ATOM     20  C   UNL A   1      29.916  25.956  24.246  1.00  0.00     0.030 A 
ATOM     21  C   UNL A   1      31.406  26.893  22.009  1.00  0.00     0.028 A 
ATOM     22  C   UNL A   1      29.948  27.318  23.922  1.00  0.00     0.002 A 
ATOM     23  C   UNL A   1      30.677  27.774  22.821  1.00  0.00     0.002 A 
ENDBRANCH  13  14
ENDBRANCH  12  13
ENDBRANCH   9  12
ENDBRANCH   7   8
ENDBRANCH   6   7
ENDBRANCH   4   6
ENDBRANCH   1   2
BRANCH   1  24
ATOM     24  C   UNL A   1      32.808  29.999  25.783  1.00  0.00     0.042 C 
BRANCH  24  25
ATOM     25  C   UNL A   1      32.203  30.598  27.051  1.00  0.00     0.118 C 
BRANCH  25  26
ATOM     26  N   UNL A   1      32.289  32.049  27.091  1.00  0.00    -0.352 N 
ATOM     27  C   UNL A   1      33.259  32.866  27.625  1.00  0.00     0.251 C 
ATOM     28  H   UNL A   1      31.537  32.521  26.668  1.00  0.00     0.163 HD
ATOM     29  O   UNL A   1      33.054  34.068  27.718  1.00  0.00    -0.269 OA
BRANCH  27  30
ATOM     30  C   UNL A   1      34.523  32.279  28.121  1.00  0.00     0.039 A 
ATOM     31  C   UNL A   1      35.702  33.017  27.993  1.00  0.00     0.014 A 
ATOM     32  C   UNL A   1      34.543  31.018  28.721  1.00  0.00     0.014 A 
ATOM     33  C   UNL A   1      36.885  32.527  28.552  1.00  0.00     0.010 A 
ATOM     34  C   UNL A   1      35.704  30.569  29.345  1.00  0.00     0.010 A 
ATOM     35  C   UNL A   1      36.885  31.325  29.278  1.00  0.00    -0.014 A 
BRANCH  35  36
ATOM     36  C   UNL A   1      38.099  30.854  29.995  1.00  0.00     0.031 A 
ATOM     37  C   UNL A   1      39.008  29.838  29.361  1.00  0.00     0.074 A 
ATOM     38  C   UNL A   1      38.340  31.288  31.249  1.00  0.00     0.049 A 
ATOM     39  N   UNL A   1      40.053  29.233  29.865  1.00  0.00    -0.248 NA
ATOM     40  C   UNL A   1      38.682  29.431  27.986  1.00  0.00     0.031 C 
ATOM     41  C   UNL A   1      37.513  32.250  31.984  1.00  0.00     0.029 A 
ATOM     42  N   UNL A   1      39.340  30.972  32.136  1.00  0.00    -0.354 N 
ATOM     43  C   UNL A   1      40.502  28.365  28.876  1.00  0.00     0.074 A 
ATOM     44  C   UNL A   1      39.579  28.482  27.766  1.00  0.00     0.031 C 
ATOM     45  C   UNL A   1      38.052  32.460  33.194  1.00  0.00     0.029 A 
ATOM     46  C   UNL A   1      39.227  31.609  33.350  1.00  0.00     0.049 A 
ATOM     47  H   UNL A   1      40.071  30.347  31.922  1.00  0.00     0.167 HD
ATOM     48  C   UNL A   1      41.595  27.560  28.886  1.00  0.00     0.034 A 
ATOM     49  C   UNL A   1      39.969  31.503  34.471  1.00  0.00     0.034 A 
ATOM     50  C   UNL A   1      42.506  27.459  30.002  1.00  0.00     0.049 A 
ATOM     51  C   UNL A   1      41.146  30.560  34.477  1.00  0.00     0.074 A 
ATOM     52  C   UNL A   1      43.671  26.717  30.096  1.00  0.00     0.029 A 
ATOM     53  N   UNL A   1      42.348  28.105  31.222  1.00  0.00    -0.354 N 
ATOM     54  N   UNL A   1      41.588  29.784  33.515  1.00  0.00    -0.248 NA
ATOM     55  C   UNL A   1      41.927  30.483  35.718  1.00  0.00     0.031 C 
ATOM     56  C   UNL A   1      44.172  26.852  31.395  1.00  0.00     0.029 A 
ATOM     57  C   UNL A   1      43.371  27.746  32.087  1.00  0.00     0.049 A 
ATOM     58  H   UNL A   1      41.617  28.727  31.440  1.00  0.00     0.167 HD
ATOM     59  C   UNL A   1      42.715  29.148  34.027  1.00  0.00     0.074 A 
ATOM     60  C   UNL A   1      42.895  29.646  35.375  1.00  0.00     0.031 C 
ATOM     61  C   UNL A   1      43.530  28.238  33.436  1.00  0.00     0.034 A 
BRANCH  48  62
ATOM     62  C   UNL A   1      41.842  26.707  27.664  1.00  0.00     0.023 A 
ATOM     63  C   UNL A   1      41.457  25.355  27.615  1.00  0.00     0.031 A 
ATOM     64  C   UNL A   1      42.488  27.246  26.537  1.00  0.00     0.131 A 
ATOM     65  C   UNL A   1      41.787  24.572  26.500  1.00  0.00     0.055 A 
ATOM     66  C   UNL A   1      42.738  26.483  25.395  1.00  0.00     0.041 A 
ATOM     67  F   UNL A   1      42.898  28.524  26.530  1.00  0.00    -0.206 F 
ATOM     68  C   UNL A   1      42.402  25.132  25.378  1.00  0.00     0.022 A 
BRANCH  65  69
ATOM     69  S   UNL A   1      41.536  22.778  26.596  1.00  0.00     0.124 S 
ATOM     70  O   UNL A   1      42.184  22.457  27.866  1.00  0.00    -0.237 OA
ATOM     71  O   UNL A   1      40.083  22.662  26.574  1.00  0.00    -0.237 OA
ATOM     72  O   UNL A   1      42.222  22.271  25.410  1.00  0.00    -0.744 OA
ENDBRANCH  65  69
ENDBRANCH  48  62
BRANCH  49  73
ATOM     73  C   UNL A   1      39.613  32.283  35.692  1.00  0.00     0.023 A 
ATOM     74  C   UNL A   1      38.747  31.753  36.662  1.00  0.00     0.031 A 
ATOM     75  C   UNL A   1      40.094  33.591  35.885  1.00  0.00     0.131 A 
ATOM     76  C   UNL A   1      38.349  32.542  37.753  1.00  0.00     0.055 A 
ATOM     77  C   UNL A   1      39.743  34.350  37.003  1.00  0.00     0.041 A 
ATOM     78  F   UNL A   1      40.925  34.149  34.990  1.00  0.00    -0.206 F 
ATOM     79  C   UNL A   1      38.853  33.831  37.938  1.00  0.00     0.022 A 
BRANCH  76  80
ATOM     80  S   UNL A   1      37.083  31.893  38.878  1.00  0.00     0.124 S 
ATOM     81  O   UNL A   1      35.924  32.702  38.518  1.00  0.00    -0.237 OA
ATOM     82  O   UNL A   1      37.030  30.487  38.496  1.00  0.00    -0.237 OA
ATOM     83  O   UNL A   1      37.641  32.155  40.204  1.00  0.00    -0.744 OA
ENDBRANCH  76  80
ENDBRANCH  49  73
BRANCH  61  84
ATOM     84  C   UNL A   1      44.715  27.753  34.236  1.00  0.00     0.023 A 
ATOM     85  C   UNL A   1      45.954  28.416  34.204  1.00  0.00     0.031 A 
ATOM     86  C   UNL A   1      44.602  26.606  35.044  1.00  0.00     0.131 A 
ATOM     87  C   UNL A   1      47.044  27.899  34.921  1.00  0.00     0.055 A 
ATOM     88  C   UNL A   1      45.670  26.133  35.806  1.00  0.00     0.041 A 
ATOM     89  F   UNL A   1      43.445  25.929  35.110  1.00  0.00    -0.206 F 
ATOM     90  C   UNL A   1      46.905  26.773  35.737  1.00  0.00     0.022 A 
BRANCH  87  91
ATOM     91  S   UNL A   1      48.674  28.665  34.704  1.00  0.00     0.124 S 
ATOM     92  O   UNL A   1      49.451  28.030  35.763  1.00  0.00    -0.237 OA
ATOM     93  O   UNL A   1      49.020  28.280  33.339  1.00  0.00    -0.237 OA
ATOM     94  O   UNL A   1      48.412  30.090  34.896  1.00  0.00    -0.744 OA
ENDBRANCH  87  91
ENDBRANCH  61  84
ENDBRANCH  35  36
ENDBRANCH  27  30
ENDBRANCH  25  26
ENDBRANCH  24  25
ENDBRANCH   1  24
TORSDOF 18
ENDMDL
