MODEL 1
REMARK VINA RESULT:     -12.3      0.000      0.000
REMARK SMILES COc1ccc(C(=O)Nc2cccc(C(=O)NCCCNC(=O)c3ccc(-c4c5nc(c(-c6cc(S(=O)(=O)[O-])ccc6F)c6ccc([nH]6)c(-c6cc(S(=O)(=O)[O-])ccc6F)c6nc(c(-c7cc(S(=O)(=O)[O-])ccc7F)c7ccc4[nH]7)C=C6)C=C5)cc3)c2)cc1
REMARK SMILES IDX 19 1 18 2 17 3 15 4 16 5 14 7 10 8 11 9 87 10 12 11 13 12
REMARK SMILES IDX 9 13 7 14 8 15 6 17 3 18 4 19 89 20 5 21 88 22 2 23 1 24
REMARK SMILES IDX 20 25 21 26 22 27 23 29 24 30 25 31 86 32 26 33 85 34 27 35
REMARK SMILES IDX 28 36 29 37 79 38 30 39 84 40 78 41 80 42 31 43 83 44 77 45
REMARK SMILES IDX 76 46 32 48 64 49 44 50 63 51 45 52 48 53 62 54 81 55 46 56
REMARK SMILES IDX 47 57 61 59 82 60 49 61 33 62 34 63 42 64 35 65 41 66 43 67
REMARK SMILES IDX 40 68 36 69 37 70 38 71 39 72 65 73 66 74 74 75 67 76 73 77
REMARK SMILES IDX 75 78 72 79 68 80 69 81 70 82 71 83 50 84 51 85 59 86 52 87
REMARK SMILES IDX 58 88 60 89 57 90 53 91 54 92 55 93 56 94
REMARK H PARENT 17 6 9 16 21 28 80 47 48 58
REMARK Flexibility Score: inf
ROOT
ATOM      1  C   UNL A   1      31.281  32.194  26.519  1.00  0.00     0.042 C 
ENDROOT
BRANCH   1   2
ATOM      2  C   UNL A   1      31.383  30.810  25.882  1.00  0.00     0.118 C 
BRANCH   2   3
ATOM      3  N   UNL A   1      32.354  29.976  26.565  1.00  0.00    -0.352 N 
ATOM      4  C   UNL A   1      32.650  28.639  26.500  1.00  0.00     0.251 C 
ATOM      5  O   UNL A   1      33.601  28.246  27.178  1.00  0.00    -0.269 OA
ATOM      6  H   UNL A   1      32.915  30.471  27.206  1.00  0.00     0.163 HD
BRANCH   4   7
ATOM      7  C   UNL A   1      31.939  27.655  25.629  1.00  0.00     0.041 A 
ATOM      8  C   UNL A   1      31.499  26.485  23.545  1.00  0.00     0.042 A 
ATOM      9  C   UNL A   1      30.549  25.681  24.169  1.00  0.00     0.026 A 
ATOM     10  C   UNL A   1      32.110  27.528  24.250  1.00  0.00     0.040 A 
ATOM     11  C   UNL A   1      30.325  25.823  25.534  1.00  0.00     0.003 A 
ATOM     12  C   UNL A   1      31.035  26.784  26.262  1.00  0.00     0.014 A 
BRANCH   8  13
ATOM     13  N   UNL A   1      31.871  26.174  22.228  1.00  0.00    -0.322 N 
ATOM     14  C   UNL A   1      32.787  25.239  21.780  1.00  0.00     0.255 C 
ATOM     15  O   UNL A   1      33.158  25.274  20.607  1.00  0.00    -0.269 OA
ATOM     16  H   UNL A   1      31.415  26.693  21.527  1.00  0.00     0.170 HD
BRANCH  14  17
ATOM     17  C   UNL A   1      33.247  24.107  22.645  1.00  0.00     0.040 A 
ATOM     18  C   UNL A   1      34.176  22.026  24.311  1.00  0.00     0.118 A 
ATOM     19  C   UNL A   1      34.891  23.223  24.197  1.00  0.00     0.047 A 
ATOM     20  C   UNL A   1      33.022  21.852  23.551  1.00  0.00     0.047 A 
ATOM     21  C   UNL A   1      34.432  24.258  23.374  1.00  0.00     0.017 A 
ATOM     22  C   UNL A   1      32.581  22.874  22.698  1.00  0.00     0.017 A 
BRANCH  18  23
ATOM     23  O   UNL A   1      34.708  21.114  25.178  1.00  0.00    -0.497 OA
ATOM     24  C   UNL A   1      36.125  21.078  25.291  1.00  0.00     0.278 C 
ENDBRANCH  18  23
ENDBRANCH  14  17
ENDBRANCH   8  13
ENDBRANCH   4   7
ENDBRANCH   2   3
ENDBRANCH   1   2
BRANCH   1  25
ATOM     25  C   UNL A   1      32.567  32.607  27.228  1.00  0.00     0.118 C 
BRANCH  25  26
ATOM     26  N   UNL A   1      32.521  34.000  27.646  1.00  0.00    -0.352 N 
ATOM     27  C   UNL A   1      33.217  34.653  28.631  1.00  0.00     0.251 C 
ATOM     28  H   UNL A   1      31.892  34.564  27.141  1.00  0.00     0.163 HD
ATOM     29  O   UNL A   1      32.854  35.777  28.965  1.00  0.00    -0.269 OA
BRANCH  27  30
ATOM     30  C   UNL A   1      34.376  34.015  29.298  1.00  0.00     0.039 A 
ATOM     31  C   UNL A   1      34.132  33.089  30.317  1.00  0.00     0.014 A 
ATOM     32  C   UNL A   1      35.691  34.361  28.975  1.00  0.00     0.014 A 
ATOM     33  C   UNL A   1      35.202  32.491  30.988  1.00  0.00     0.010 A 
ATOM     34  C   UNL A   1      36.757  33.707  29.590  1.00  0.00     0.010 A 
ATOM     35  C   UNL A   1      36.524  32.781  30.617  1.00  0.00    -0.014 A 
BRANCH  35  36
ATOM     36  C   UNL A   1      37.671  32.154  31.326  1.00  0.00     0.031 A 
ATOM     37  C   UNL A   1      38.450  31.046  30.665  1.00  0.00     0.074 A 
ATOM     38  C   UNL A   1      37.979  32.553  32.576  1.00  0.00     0.049 A 
ATOM     39  N   UNL A   1      39.448  30.342  31.133  1.00  0.00    -0.248 NA
ATOM     40  C   UNL A   1      38.026  30.654  29.311  1.00  0.00     0.031 C 
ATOM     41  C   UNL A   1      37.263  33.580  33.337  1.00  0.00     0.029 A 
ATOM     42  N   UNL A   1      38.967  32.139  33.433  1.00  0.00    -0.354 N 
ATOM     43  C   UNL A   1      39.751  29.407  30.147  1.00  0.00     0.074 A 
ATOM     44  C   UNL A   1      38.799  29.605  29.076  1.00  0.00     0.031 C 
ATOM     45  C   UNL A   1      37.849  33.731  34.535  1.00  0.00     0.029 A 
ATOM     46  C   UNL A   1      38.957  32.788  34.647  1.00  0.00     0.049 A 
ATOM     47  H   UNL A   1      39.623  31.441  33.202  1.00  0.00     0.167 HD
ATOM     48  C   UNL A   1      40.743  28.483  30.130  1.00  0.00     0.034 A 
ATOM     49  C   UNL A   1      39.749  32.636  35.727  1.00  0.00     0.034 A 
ATOM     50  C   UNL A   1      41.710  28.331  31.191  1.00  0.00     0.049 A 
ATOM     51  C   UNL A   1      40.872  31.629  35.663  1.00  0.00     0.074 A 
ATOM     52  C   UNL A   1      42.805  27.486  31.243  1.00  0.00     0.029 A 
ATOM     53  N   UNL A   1      41.696  29.037  32.386  1.00  0.00    -0.354 N 
ATOM     54  N   UNL A   1      41.192  30.807  34.689  1.00  0.00    -0.248 NA
ATOM     55  C   UNL A   1      41.755  31.549  36.833  1.00  0.00     0.031 C 
ATOM     56  C   UNL A   1      43.416  27.637  32.493  1.00  0.00     0.029 A 
ATOM     57  C   UNL A   1      42.748  28.628  33.193  1.00  0.00     0.049 A 
ATOM     58  H   UNL A   1      41.036  29.726  32.628  1.00  0.00     0.167 HD
ATOM     59  C   UNL A   1      42.336  30.140  35.119  1.00  0.00     0.074 A 
ATOM     60  C   UNL A   1      42.661  30.674  36.425  1.00  0.00     0.031 C 
ATOM     61  C   UNL A   1      43.056  29.173  34.494  1.00  0.00     0.034 A 
BRANCH  48  62
ATOM     62  C   UNL A   1      40.817  27.552  28.944  1.00  0.00     0.023 A 
ATOM     63  C   UNL A   1      41.768  27.719  27.922  1.00  0.00     0.031 A 
ATOM     64  C   UNL A   1      39.915  26.478  28.833  1.00  0.00     0.131 A 
ATOM     65  C   UNL A   1      41.755  26.867  26.807  1.00  0.00     0.055 A 
ATOM     66  C   UNL A   1      39.956  25.588  27.758  1.00  0.00     0.041 A 
ATOM     67  F   UNL A   1      38.972  26.279  29.767  1.00  0.00    -0.206 F 
ATOM     68  C   UNL A   1      40.872  25.787  26.730  1.00  0.00     0.022 A 
BRANCH  65  69
ATOM     69  S   UNL A   1      42.830  27.260  25.399  1.00  0.00     0.124 S 
ATOM     70  O   UNL A   1      44.081  27.599  26.072  1.00  0.00    -0.237 OA
ATOM     71  O   UNL A   1      42.828  26.014  24.642  1.00  0.00    -0.237 OA
ATOM     72  O   UNL A   1      42.153  28.384  24.754  1.00  0.00    -0.744 OA
ENDBRANCH  65  69
ENDBRANCH  48  62
BRANCH  49  73
ATOM     73  C   UNL A   1      39.524  33.443  36.961  1.00  0.00     0.023 A 
ATOM     74  C   UNL A   1      38.859  32.900  38.072  1.00  0.00     0.031 A 
ATOM     75  C   UNL A   1      39.910  34.794  37.023  1.00  0.00     0.131 A 
ATOM     76  C   UNL A   1      38.537  33.716  39.166  1.00  0.00     0.055 A 
ATOM     77  C   UNL A   1      39.642  35.588  38.140  1.00  0.00     0.041 A 
ATOM     78  F   UNL A   1      40.556  35.364  35.994  1.00  0.00    -0.206 F 
ATOM     79  C   UNL A   1      38.934  35.054  39.213  1.00  0.00     0.022 A 
BRANCH  76  80
ATOM     80  S   UNL A   1      37.486  33.033  40.479  1.00  0.00     0.124 S 
ATOM     81  O   UNL A   1      36.260  32.730  39.750  1.00  0.00    -0.237 OA
ATOM     82  O   UNL A   1      38.269  31.886  40.925  1.00  0.00    -0.237 OA
ATOM     83  O   UNL A   1      37.387  34.130  41.439  1.00  0.00    -0.744 OA
ENDBRANCH  76  80
ENDBRANCH  49  73
BRANCH  61  84
ATOM     84  C   UNL A   1      44.295  28.682  35.202  1.00  0.00     0.023 A 
ATOM     85  C   UNL A   1      44.241  27.656  36.161  1.00  0.00     0.031 A 
ATOM     86  C   UNL A   1      45.541  29.277  34.940  1.00  0.00     0.131 A 
ATOM     87  C   UNL A   1      45.396  27.309  36.877  1.00  0.00     0.055 A 
ATOM     88  C   UNL A   1      46.700  28.881  35.607  1.00  0.00     0.041 A 
ATOM     89  F   UNL A   1      45.651  30.263  34.033  1.00  0.00    -0.206 F 
ATOM     90  C   UNL A   1      46.628  27.904  36.596  1.00  0.00     0.022 A 
BRANCH  87  91
ATOM     91  S   UNL A   1      45.240  26.155  38.268  1.00  0.00     0.124 S 
ATOM     92  O   UNL A   1      46.618  25.709  38.450  1.00  0.00    -0.237 OA
ATOM     93  O   UNL A   1      44.703  27.010  39.322  1.00  0.00    -0.237 OA
ATOM     94  O   UNL A   1      44.319  25.136  37.767  1.00  0.00    -0.744 OA
ENDBRANCH  87  91
ENDBRANCH  61  84
ENDBRANCH  35  36
ENDBRANCH  27  30
ENDBRANCH  25  26
ENDBRANCH   1  25
TORSDOF 16
ENDMDL
MODEL 2
REMARK VINA RESULT:     -12.2      1.155      1.629
REMARK SMILES COc1ccc(C(=O)Nc2cccc(C(=O)NCCCNC(=O)c3ccc(-c4c5nc(c(-c6cc(S(=O)(=O)[O-])ccc6F)c6ccc([nH]6)c(-c6cc(S(=O)(=O)[O-])ccc6F)c6nc(c(-c7cc(S(=O)(=O)[O-])ccc7F)c7ccc4[nH]7)C=C6)C=C5)cc3)c2)cc1
REMARK SMILES IDX 19 1 18 2 17 3 15 4 16 5 14 7 10 8 11 9 87 10 12 11 13 12
REMARK SMILES IDX 9 13 7 14 8 15 6 17 3 18 4 19 89 20 5 21 88 22 2 23 1 24
REMARK SMILES IDX 20 25 21 26 22 27 23 29 24 30 25 31 86 32 26 33 85 34 27 35
REMARK SMILES IDX 28 36 29 37 79 38 30 39 84 40 78 41 80 42 31 43 83 44 77 45
REMARK SMILES IDX 76 46 32 48 64 49 44 50 63 51 45 52 48 53 62 54 81 55 46 56
REMARK SMILES IDX 47 57 61 59 82 60 49 61 33 62 34 63 42 64 35 65 41 66 43 67
REMARK SMILES IDX 40 68 36 69 37 70 38 71 39 72 65 73 66 74 74 75 67 76 73 77
REMARK SMILES IDX 75 78 72 79 68 80 69 81 70 82 71 83 50 84 51 85 59 86 52 87
REMARK SMILES IDX 58 88 60 89 57 90 53 91 54 92 55 93 56 94
REMARK H PARENT 17 6 9 16 21 28 80 47 48 58
REMARK Flexibility Score: inf
ROOT
ATOM      1  C   UNL A   1      31.455  32.214  26.490  1.00  0.00     0.042 C 
ENDROOT
BRANCH   1   2
ATOM      2  C   UNL A   1      31.314  30.705  26.306  1.00  0.00     0.118 C 
BRANCH   2   3
ATOM      3  N   UNL A   1      32.374  30.166  25.473  1.00  0.00    -0.352 N 
ATOM      4  C   UNL A   1      32.497  29.010  24.747  1.00  0.00     0.251 C 
ATOM      5  O   UNL A   1      33.524  28.881  24.077  1.00  0.00    -0.269 OA
ATOM      6  H   UNL A   1      33.165  30.750  25.419  1.00  0.00     0.163 HD
BRANCH   4   7
ATOM      7  C   UNL A   1      31.456  27.940  24.674  1.00  0.00     0.041 A 
ATOM      8  C   UNL A   1      30.262  25.983  25.477  1.00  0.00     0.042 A 
ATOM      9  C   UNL A   1      29.370  26.060  24.410  1.00  0.00     0.026 A 
ATOM     10  C   UNL A   1      31.352  26.856  25.545  1.00  0.00     0.040 A 
ATOM     11  C   UNL A   1      29.484  27.105  23.499  1.00  0.00     0.003 A 
ATOM     12  C   UNL A   1      30.502  28.052  23.648  1.00  0.00     0.014 A 
BRANCH   8  13
ATOM     13  N   UNL A   1      29.992  25.063  26.501  1.00  0.00    -0.322 N 
ATOM     14  C   UNL A   1      30.479  23.779  26.669  1.00  0.00     0.255 C 
ATOM     15  O   UNL A   1      29.947  23.036  27.493  1.00  0.00    -0.269 OA
ATOM     16  H   UNL A   1      29.372  25.377  27.198  1.00  0.00     0.170 HD
BRANCH  14  17
ATOM     17  C   UNL A   1      31.713  23.304  25.968  1.00  0.00     0.040 A 
ATOM     18  C   UNL A   1      34.089  22.432  24.717  1.00  0.00     0.118 A 
ATOM     19  C   UNL A   1      34.136  23.161  25.909  1.00  0.00     0.047 A 
ATOM     20  C   UNL A   1      32.853  22.182  24.124  1.00  0.00     0.047 A 
ATOM     21  C   UNL A   1      32.960  23.593  26.534  1.00  0.00     0.017 A 
ATOM     22  C   UNL A   1      31.677  22.646  24.729  1.00  0.00     0.017 A 
BRANCH  18  23
ATOM     23  O   UNL A   1      35.303  22.033  24.232  1.00  0.00    -0.497 OA
ATOM     24  C   UNL A   1      36.055  22.996  23.504  1.00  0.00     0.278 C 
ENDBRANCH  18  23
ENDBRANCH  14  17
ENDBRANCH   8  13
ENDBRANCH   4   7
ENDBRANCH   2   3
ENDBRANCH   1   2
BRANCH   1  25
ATOM     25  C   UNL A   1      32.722  32.595  27.249  1.00  0.00     0.118 C 
BRANCH  25  26
ATOM     26  N   UNL A   1      32.715  34.000  27.626  1.00  0.00    -0.352 N 
ATOM     27  C   UNL A   1      33.428  34.661  28.595  1.00  0.00     0.251 C 
ATOM     28  H   UNL A   1      32.103  34.567  27.103  1.00  0.00     0.163 HD
ATOM     29  O   UNL A   1      33.097  35.804  28.895  1.00  0.00    -0.269 OA
BRANCH  27  30
ATOM     30  C   UNL A   1      34.567  34.010  29.282  1.00  0.00     0.039 A 
ATOM     31  C   UNL A   1      34.299  32.965  30.172  1.00  0.00     0.014 A 
ATOM     32  C   UNL A   1      35.881  34.453  29.108  1.00  0.00     0.014 A 
ATOM     33  C   UNL A   1      35.347  32.349  30.861  1.00  0.00     0.010 A 
ATOM     34  C   UNL A   1      36.932  33.787  29.734  1.00  0.00     0.010 A 
ATOM     35  C   UNL A   1      36.675  32.742  30.633  1.00  0.00    -0.014 A 
BRANCH  35  36
ATOM     36  C   UNL A   1      37.799  32.097  31.363  1.00  0.00     0.031 A 
ATOM     37  C   UNL A   1      38.594  31.001  30.703  1.00  0.00     0.074 A 
ATOM     38  C   UNL A   1      38.070  32.468  32.630  1.00  0.00     0.049 A 
ATOM     39  N   UNL A   1      39.576  30.283  31.185  1.00  0.00    -0.248 NA
ATOM     40  C   UNL A   1      38.210  30.639  29.328  1.00  0.00     0.031 C 
ATOM     41  C   UNL A   1      37.334  33.481  33.391  1.00  0.00     0.029 A 
ATOM     42  N   UNL A   1      39.030  32.033  33.508  1.00  0.00    -0.354 N 
ATOM     43  C   UNL A   1      39.907  29.369  30.189  1.00  0.00     0.074 A 
ATOM     44  C   UNL A   1      38.987  29.593  29.094  1.00  0.00     0.031 C 
ATOM     45  C   UNL A   1      37.884  33.604  34.609  1.00  0.00     0.029 A 
ATOM     46  C   UNL A   1      38.985  32.656  34.734  1.00  0.00     0.049 A 
ATOM     47  H   UNL A   1      39.691  31.338  33.282  1.00  0.00     0.167 HD
ATOM     48  C   UNL A   1      40.896  28.443  30.182  1.00  0.00     0.034 A 
ATOM     49  C   UNL A   1      39.744  32.478  35.834  1.00  0.00     0.034 A 
ATOM     50  C   UNL A   1      41.830  28.264  31.268  1.00  0.00     0.049 A 
ATOM     51  C   UNL A   1      40.866  31.470  35.782  1.00  0.00     0.074 A 
ATOM     52  C   UNL A   1      42.921  27.415  31.335  1.00  0.00     0.029 A 
ATOM     53  N   UNL A   1      41.781  28.945  32.477  1.00  0.00    -0.354 N 
ATOM     54  N   UNL A   1      41.213  30.667  34.802  1.00  0.00    -0.248 NA
ATOM     55  C   UNL A   1      41.712  31.362  36.976  1.00  0.00     0.031 C 
ATOM     56  C   UNL A   1      43.494  27.538  32.606  1.00  0.00     0.029 A 
ATOM     57  C   UNL A   1      42.808  28.516  33.306  1.00  0.00     0.049 A 
ATOM     58  H   UNL A   1      41.116  29.631  32.713  1.00  0.00     0.167 HD
ATOM     59  C   UNL A   1      42.342  29.988  35.252  1.00  0.00     0.074 A 
ATOM     60  C   UNL A   1      42.628  30.492  36.578  1.00  0.00     0.031 C 
ATOM     61  C   UNL A   1      43.078  29.032  34.627  1.00  0.00     0.034 A 
BRANCH  48  62
ATOM     62  C   UNL A   1      41.004  27.536  28.979  1.00  0.00     0.023 A 
ATOM     63  C   UNL A   1      41.988  27.720  27.992  1.00  0.00     0.031 A 
ATOM     64  C   UNL A   1      40.100  26.470  28.817  1.00  0.00     0.131 A 
ATOM     65  C   UNL A   1      42.006  26.892  26.859  1.00  0.00     0.055 A 
ATOM     66  C   UNL A   1      40.171  25.603  27.725  1.00  0.00     0.041 A 
ATOM     67  F   UNL A   1      39.127  26.257  29.715  1.00  0.00    -0.206 F 
ATOM     68  C   UNL A   1      41.121  25.819  26.731  1.00  0.00     0.022 A 
BRANCH  65  69
ATOM     69  S   UNL A   1      43.128  27.309  25.495  1.00  0.00     0.124 S 
ATOM     70  O   UNL A   1      43.493  25.984  25.001  1.00  0.00    -0.237 OA
ATOM     71  O   UNL A   1      42.278  28.106  24.619  1.00  0.00    -0.237 OA
ATOM     72  O   UNL A   1      44.209  28.042  26.152  1.00  0.00    -0.744 OA
ENDBRANCH  65  69
ENDBRANCH  48  62
BRANCH  49  73
ATOM     73  C   UNL A   1      39.483  33.260  37.078  1.00  0.00     0.023 A 
ATOM     74  C   UNL A   1      38.791  32.692  38.159  1.00  0.00     0.031 A 
ATOM     75  C   UNL A   1      39.864  34.610  37.177  1.00  0.00     0.131 A 
ATOM     76  C   UNL A   1      38.438  33.486  39.261  1.00  0.00     0.055 A 
ATOM     77  C   UNL A   1      39.564  35.380  38.302  1.00  0.00     0.041 A 
ATOM     78  F   UNL A   1      40.535  35.203  36.177  1.00  0.00    -0.206 F 
ATOM     79  C   UNL A   1      38.829  34.823  39.346  1.00  0.00     0.022 A 
BRANCH  76  80
ATOM     80  S   UNL A   1      37.355  32.774  40.531  1.00  0.00     0.124 S 
ATOM     81  O   UNL A   1      36.067  32.752  39.846  1.00  0.00    -0.237 OA
ATOM     82  O   UNL A   1      37.979  31.477  40.766  1.00  0.00    -0.237 OA
ATOM     83  O   UNL A   1      37.458  33.724  41.636  1.00  0.00    -0.744 OA
ENDBRANCH  76  80
ENDBRANCH  49  73
BRANCH  61  84
ATOM     84  C   UNL A   1      44.294  28.522  35.362  1.00  0.00     0.023 A 
ATOM     85  C   UNL A   1      44.201  27.507  36.330  1.00  0.00     0.031 A 
ATOM     86  C   UNL A   1      45.557  29.088  35.116  1.00  0.00     0.131 A 
ATOM     87  C   UNL A   1      45.336  27.143  37.070  1.00  0.00     0.055 A 
ATOM     88  C   UNL A   1      46.695  28.674  35.807  1.00  0.00     0.041 A 
ATOM     89  F   UNL A   1      45.703  30.062  34.202  1.00  0.00    -0.206 F 
ATOM     90  C   UNL A   1      46.585  27.709  36.804  1.00  0.00     0.022 A 
BRANCH  87  91
ATOM     91  S   UNL A   1      45.131  26.007  38.470  1.00  0.00     0.124 S 
ATOM     92  O   UNL A   1      44.601  24.814  37.818  1.00  0.00    -0.237 OA
ATOM     93  O   UNL A   1      46.492  25.901  38.985  1.00  0.00    -0.237 OA
ATOM     94  O   UNL A   1      44.191  26.707  39.344  1.00  0.00    -0.744 OA
ENDBRANCH  87  91
ENDBRANCH  61  84
ENDBRANCH  35  36
ENDBRANCH  27  30
ENDBRANCH  25  26
ENDBRANCH   1  25
TORSDOF 16
ENDMDL
MODEL 3
REMARK VINA RESULT:     -12.1      5.071      7.959
REMARK SMILES COc1ccc(C(=O)Nc2cccc(C(=O)NCCCNC(=O)c3ccc(-c4c5nc(c(-c6cc(S(=O)(=O)[O-])ccc6F)c6ccc([nH]6)c(-c6cc(S(=O)(=O)[O-])ccc6F)c6nc(c(-c7cc(S(=O)(=O)[O-])ccc7F)c7ccc4[nH]7)C=C6)C=C5)cc3)c2)cc1
REMARK SMILES IDX 19 1 18 2 17 3 15 4 16 5 14 7 10 8 11 9 87 10 12 11 13 12
REMARK SMILES IDX 9 13 7 14 8 15 6 17 3 18 4 19 89 20 5 21 88 22 2 23 1 24
REMARK SMILES IDX 20 25 21 26 22 27 23 29 24 30 25 31 86 32 26 33 85 34 27 35
REMARK SMILES IDX 28 36 29 37 79 38 30 39 84 40 78 41 80 42 31 43 83 44 77 45
REMARK SMILES IDX 76 46 32 48 64 49 44 50 63 51 45 52 48 53 62 54 81 55 46 56
REMARK SMILES IDX 47 57 61 59 82 60 49 61 33 62 34 63 42 64 35 65 41 66 43 67
REMARK SMILES IDX 40 68 36 69 37 70 38 71 39 72 65 73 66 74 74 75 67 76 73 77
REMARK SMILES IDX 75 78 72 79 68 80 69 81 70 82 71 83 50 84 51 85 59 86 52 87
REMARK SMILES IDX 58 88 60 89 57 90 53 91 54 92 55 93 56 94
REMARK H PARENT 17 6 9 16 21 28 80 47 48 58
REMARK Flexibility Score: inf
ROOT
ATOM      1  C   UNL A   1      36.453  23.328  23.961  1.00  0.00     0.042 C 
ENDROOT
BRANCH   1   2
ATOM      2  C   UNL A   1      34.986  23.118  23.594  1.00  0.00     0.118 C 
BRANCH   2   3
ATOM      3  N   UNL A   1      34.526  24.106  22.637  1.00  0.00    -0.352 N 
ATOM      4  C   UNL A   1      33.786  25.254  22.759  1.00  0.00     0.251 C 
ATOM      5  O   UNL A   1      33.623  25.921  21.736  1.00  0.00    -0.269 OA
ATOM      6  H   UNL A   1      34.801  23.913  21.711  1.00  0.00     0.163 HD
BRANCH   4   7
ATOM      7  C   UNL A   1      33.224  25.767  24.045  1.00  0.00     0.041 A 
ATOM      8  C   UNL A   1      31.732  25.717  25.962  1.00  0.00     0.042 A 
ATOM      9  C   UNL A   1      32.360  26.832  26.510  1.00  0.00     0.026 A 
ATOM     10  C   UNL A   1      32.099  25.257  24.693  1.00  0.00     0.040 A 
ATOM     11  C   UNL A   1      33.455  27.389  25.857  1.00  0.00     0.003 A 
ATOM     12  C   UNL A   1      33.899  26.843  24.649  1.00  0.00     0.014 A 
BRANCH   8  13
ATOM     13  N   UNL A   1      30.784  25.038  26.743  1.00  0.00    -0.322 N 
ATOM     14  C   UNL A   1      30.581  23.676  26.877  1.00  0.00     0.255 C 
ATOM     15  O   UNL A   1      29.552  23.272  27.416  1.00  0.00    -0.269 OA
ATOM     16  H   UNL A   1      30.182  25.612  27.270  1.00  0.00     0.170 HD
BRANCH  14  17
ATOM     17  C   UNL A   1      31.633  22.680  26.500  1.00  0.00     0.040 A 
ATOM     18  C   UNL A   1      33.572  20.786  25.713  1.00  0.00     0.118 A 
ATOM     19  C   UNL A   1      32.369  20.910  25.011  1.00  0.00     0.047 A 
ATOM     20  C   UNL A   1      33.782  21.577  26.840  1.00  0.00     0.047 A 
ATOM     21  C   UNL A   1      31.407  21.850  25.396  1.00  0.00     0.017 A 
ATOM     22  C   UNL A   1      32.804  22.492  27.249  1.00  0.00     0.017 A 
BRANCH  18  23
ATOM     23  O   UNL A   1      34.445  19.862  25.210  1.00  0.00    -0.497 OA
ATOM     24  C   UNL A   1      33.883  18.740  24.539  1.00  0.00     0.278 C 
ENDBRANCH  18  23
ENDBRANCH  14  17
ENDBRANCH   8  13
ENDBRANCH   4   7
ENDBRANCH   2   3
ENDBRANCH   1   2
BRANCH   1  25
ATOM     25  C   UNL A   1      36.680  23.367  25.468  1.00  0.00     0.118 C 
BRANCH  25  26
ATOM     26  N   UNL A   1      37.683  22.398  25.882  1.00  0.00    -0.352 N 
ATOM     27  C   UNL A   1      38.929  22.589  26.423  1.00  0.00     0.251 C 
ATOM     28  H   UNL A   1      37.427  21.456  25.754  1.00  0.00     0.163 HD
ATOM     29  O   UNL A   1      39.699  21.634  26.483  1.00  0.00    -0.269 OA
BRANCH  27  30
ATOM     30  C   UNL A   1      39.353  23.920  26.914  1.00  0.00     0.039 A 
ATOM     31  C   UNL A   1      39.956  24.802  26.011  1.00  0.00     0.014 A 
ATOM     32  C   UNL A   1      39.219  24.285  28.257  1.00  0.00     0.014 A 
ATOM     33  C   UNL A   1      40.396  26.054  26.447  1.00  0.00     0.010 A 
ATOM     34  C   UNL A   1      39.585  25.563  28.673  1.00  0.00     0.010 A 
ATOM     35  C   UNL A   1      40.197  26.453  27.778  1.00  0.00    -0.014 A 
BRANCH  35  36
ATOM     36  C   UNL A   1      40.664  27.782  28.255  1.00  0.00     0.031 A 
ATOM     37  C   UNL A   1      42.137  28.100  28.274  1.00  0.00     0.074 A 
ATOM     38  C   UNL A   1      39.767  28.679  28.712  1.00  0.00     0.049 A 
ATOM     39  N   UNL A   1      42.747  29.178  28.696  1.00  0.00    -0.248 NA
ATOM     40  C   UNL A   1      43.047  27.051  27.786  1.00  0.00     0.031 C 
ATOM     41  C   UNL A   1      38.320  28.463  28.790  1.00  0.00     0.029 A 
ATOM     42  N   UNL A   1      39.936  29.949  29.203  1.00  0.00    -0.354 N 
ATOM     43  C   UNL A   1      44.109  28.927  28.552  1.00  0.00     0.074 A 
ATOM     44  C   UNL A   1      44.234  27.576  28.050  1.00  0.00     0.031 C 
ATOM     45  C   UNL A   1      37.734  29.568  29.277  1.00  0.00     0.029 A 
ATOM     46  C   UNL A   1      38.761  30.559  29.581  1.00  0.00     0.049 A 
ATOM     47  H   UNL A   1      40.816  30.384  29.278  1.00  0.00     0.167 HD
ATOM     48  C   UNL A   1      45.154  29.754  28.800  1.00  0.00     0.034 A 
ATOM     49  C   UNL A   1      38.541  31.776  30.116  1.00  0.00     0.034 A 
ATOM     50  C   UNL A   1      45.005  31.113  29.261  1.00  0.00     0.049 A 
ATOM     51  C   UNL A   1      39.720  32.691  30.341  1.00  0.00     0.074 A 
ATOM     52  C   UNL A   1      45.988  32.066  29.466  1.00  0.00     0.029 A 
ATOM     53  N   UNL A   1      43.796  31.712  29.592  1.00  0.00    -0.354 N 
ATOM     54  N   UNL A   1      40.996  32.464  30.126  1.00  0.00    -0.248 NA
ATOM     55  C   UNL A   1      39.426  34.033  30.856  1.00  0.00     0.031 C 
ATOM     56  C   UNL A   1      45.381  33.219  29.977  1.00  0.00     0.029 A 
ATOM     57  C   UNL A   1      44.012  33.013  30.023  1.00  0.00     0.049 A 
ATOM     58  H   UNL A   1      42.915  31.278  29.530  1.00  0.00     0.167 HD
ATOM     59  C   UNL A   1      41.650  33.651  30.446  1.00  0.00     0.074 A 
ATOM     60  C   UNL A   1      40.626  34.593  30.844  1.00  0.00     0.031 C 
ATOM     61  C   UNL A   1      42.977  33.939  30.415  1.00  0.00     0.034 A 
BRANCH  48  62
ATOM     62  C   UNL A   1      46.547  29.205  28.604  1.00  0.00     0.023 A 
ATOM     63  C   UNL A   1      47.097  29.005  27.325  1.00  0.00     0.031 A 
ATOM     64  C   UNL A   1      47.338  28.872  29.719  1.00  0.00     0.131 A 
ATOM     65  C   UNL A   1      48.371  28.430  27.193  1.00  0.00     0.055 A 
ATOM     66  C   UNL A   1      48.634  28.372  29.581  1.00  0.00     0.041 A 
ATOM     67  F   UNL A   1      46.860  29.022  30.964  1.00  0.00    -0.206 F 
ATOM     68  C   UNL A   1      49.154  28.136  28.312  1.00  0.00     0.022 A 
BRANCH  65  69
ATOM     69  S   UNL A   1      48.945  27.962  25.537  1.00  0.00     0.124 S 
ATOM     70  O   UNL A   1      50.104  28.836  25.370  1.00  0.00    -0.237 OA
ATOM     71  O   UNL A   1      49.233  26.541  25.692  1.00  0.00    -0.237 OA
ATOM     72  O   UNL A   1      47.806  28.278  24.676  1.00  0.00    -0.744 OA
ENDBRANCH  65  69
ENDBRANCH  48  62
BRANCH  49  73
ATOM     73  C   UNL A   1      37.161  32.213  30.480  1.00  0.00     0.023 A 
ATOM     74  C   UNL A   1      36.267  32.679  29.503  1.00  0.00     0.031 A 
ATOM     75  C   UNL A   1      36.740  32.237  31.821  1.00  0.00     0.131 A 
ATOM     76  C   UNL A   1      35.027  33.214  29.883  1.00  0.00     0.055 A 
ATOM     77  C   UNL A   1      35.480  32.713  32.190  1.00  0.00     0.041 A 
ATOM     78  F   UNL A   1      37.549  31.796  32.796  1.00  0.00    -0.206 F 
ATOM     79  C   UNL A   1      34.622  33.223  31.220  1.00  0.00     0.022 A 
BRANCH  76  80
ATOM     80  S   UNL A   1      33.998  34.006  28.616  1.00  0.00     0.124 S 
ATOM     81  O   UNL A   1      32.902  34.541  29.415  1.00  0.00    -0.237 OA
ATOM     82  O   UNL A   1      34.918  34.986  28.051  1.00  0.00    -0.237 OA
ATOM     83  O   UNL A   1      33.643  32.901  27.728  1.00  0.00    -0.744 OA
ENDBRANCH  76  80
ENDBRANCH  49  73
BRANCH  61  84
ATOM     84  C   UNL A   1      43.374  35.351  30.770  1.00  0.00     0.023 A 
ATOM     85  C   UNL A   1      43.580  35.749  32.102  1.00  0.00     0.031 A 
ATOM     86  C   UNL A   1      43.512  36.321  29.761  1.00  0.00     0.131 A 
ATOM     87  C   UNL A   1      43.836  37.097  32.397  1.00  0.00     0.055 A 
ATOM     88  C   UNL A   1      43.834  37.646  30.055  1.00  0.00     0.041 A 
ATOM     89  F   UNL A   1      43.326  35.996  28.471  1.00  0.00    -0.206 F 
ATOM     90  C   UNL A   1      43.979  38.044  31.381  1.00  0.00     0.022 A 
BRANCH  87  91
ATOM     91  S   UNL A   1      43.856  37.617  34.134  1.00  0.00     0.124 S 
ATOM     92  O   UNL A   1      45.123  38.336  34.222  1.00  0.00    -0.237 OA
ATOM     93  O   UNL A   1      42.651  38.433  34.228  1.00  0.00    -0.237 OA
ATOM     94  O   UNL A   1      43.808  36.354  34.870  1.00  0.00    -0.744 OA
ENDBRANCH  87  91
ENDBRANCH  61  84
ENDBRANCH  35  36
ENDBRANCH  27  30
ENDBRANCH  25  26
ENDBRANCH   1  25
TORSDOF 16
ENDMDL
