MODEL 1
REMARK VINA RESULT:     -12.9      0.000      0.000
REMARK SMILES Cc1ccc(NC(=O)C[N@H+]2CCC[C@@H](C(=O)NCCCNC(=O)c3ccc(-c4c5nc(c(-c6cc(S(=O)(=O)[O-])ccc6F)c6ccc([nH]6)c(-c6cc(S(=O)(=O)[O-])ccc6F)c6nc(c(-c7cc(S(=O)(=O)[O-])ccc7F)c7ccc4[nH]7)C=C6)C=C5)cc3)C2)cc1F
REMARK SMILES IDX 19 1 18 2 17 3 15 4 16 5 14 7 10 8 11 9 87 10 12 12 13 13
REMARK SMILES IDX 9 14 7 15 6 16 8 18 5 19 1 20 2 21 3 22 89 23 4 24 88 25
REMARK SMILES IDX 90 26 20 27 21 28 22 29 23 31 24 32 25 33 86 34 26 35 85 36
REMARK SMILES IDX 27 37 28 38 29 39 79 40 30 41 84 42 78 43 80 44 31 45 83 46
REMARK SMILES IDX 77 47 76 48 32 50 64 51 44 52 63 53 45 54 48 55 62 56 81 57
REMARK SMILES IDX 46 58 47 59 61 61 82 62 49 63 33 64 34 65 42 66 35 67 41 68
REMARK SMILES IDX 43 69 40 70 36 71 37 72 38 73 39 74 65 75 66 76 74 77 67 78
REMARK SMILES IDX 73 79 75 80 72 81 68 82 69 83 70 84 71 85 50 86 51 87 59 88
REMARK SMILES IDX 52 89 58 90 60 91 57 92 53 93 54 94 55 95 56 96
REMARK H PARENT 17 6 10 11 6 17 21 30 80 49 48 60
REMARK Flexibility Score: inf
ROOT
ATOM      1  C   UNL A   1      36.411  23.108  26.113  1.00  0.00     0.042 C 
ENDROOT
BRANCH   1   2
ATOM      2  C   UNL A   1      35.758  22.977  24.762  1.00  0.00     0.117 C 
BRANCH   2   3
ATOM      3  N   UNL A   1      35.094  21.696  24.582  1.00  0.00    -0.356 N 
ATOM      4  C   UNL A   1      33.743  21.486  24.553  1.00  0.00     0.228 C 
ATOM      5  O   UNL A   1      33.294  20.364  24.334  1.00  0.00    -0.275 OA
ATOM      6  H   UNL A   1      35.672  20.907  24.469  1.00  0.00     0.163 HD
BRANCH   4   7
ATOM      7  C   UNL A   1      32.880  22.712  24.751  1.00  0.00     0.133 C 
ATOM      8  N   UNL A   1      31.885  24.600  23.502  1.00  0.00    -0.326 N 
ATOM      9  C   UNL A   1      30.646  24.454  24.292  1.00  0.00     0.262 C 
ATOM     10  C   UNL A   1      32.538  23.291  23.370  1.00  0.00     0.276 C 
ATOM     11  H   UNL A   1      32.555  25.198  23.986  1.00  0.00     0.348 HD
ATOM     12  C   UNL A   1      30.877  23.797  25.662  1.00  0.00     0.062 C 
ATOM     13  C   UNL A   1      31.609  22.462  25.537  1.00  0.00     0.025 C 
BRANCH   8  14
ATOM     14  C   UNL A   1      31.611  25.304  22.218  1.00  0.00     0.363 C 
BRANCH  14  15
ATOM     15  C   UNL A   1      32.737  26.171  21.656  1.00  0.00     0.279 C 
ATOM     16  N   UNL A   1      33.255  27.267  22.284  1.00  0.00    -0.321 N 
ATOM     17  H   UNL A   1      33.986  27.685  21.774  1.00  0.00     0.170 HD
ATOM     18  O   UNL A   1      33.250  25.865  20.569  1.00  0.00    -0.268 OA
BRANCH  16  19
ATOM     19  C   UNL A   1      32.985  27.936  23.491  1.00  0.00     0.044 A 
ATOM     20  C   UNL A   1      32.044  30.352  26.960  1.00  0.00     0.047 C 
ATOM     21  C   UNL A   1      32.305  29.460  25.782  1.00  0.00    -0.015 A 
ATOM     22  C   UNL A   1      31.460  29.432  24.668  1.00  0.00     0.008 A 
ATOM     23  C   UNL A   1      33.465  28.697  25.736  1.00  0.00     0.128 A 
ATOM     24  C   UNL A   1      31.804  28.692  23.530  1.00  0.00     0.026 A 
ATOM     25  C   UNL A   1      33.798  27.933  24.618  1.00  0.00     0.065 A 
ATOM     26  F   UNL A   1      34.311  28.708  26.776  1.00  0.00    -0.207 F 
ENDBRANCH  16  19
ENDBRANCH  14  15
ENDBRANCH   8  14
ENDBRANCH   4   7
ENDBRANCH   2   3
ENDBRANCH   1   2
BRANCH   1  27
ATOM     27  C   UNL A   1      37.746  23.776  25.969  1.00  0.00     0.118 C 
BRANCH  27  28
ATOM     28  N   UNL A   1      38.829  23.025  26.628  1.00  0.00    -0.352 N 
ATOM     29  C   UNL A   1      39.941  23.520  27.264  1.00  0.00     0.251 C 
ATOM     30  H   UNL A   1      38.745  22.044  26.609  1.00  0.00     0.163 HD
ATOM     31  O   UNL A   1      40.827  22.781  27.697  1.00  0.00    -0.269 OA
BRANCH  29  32
ATOM     32  C   UNL A   1      39.935  24.937  27.529  1.00  0.00     0.039 A 
ATOM     33  C   UNL A   1      40.315  25.931  26.632  1.00  0.00     0.014 A 
ATOM     34  C   UNL A   1      39.463  25.221  28.803  1.00  0.00     0.014 A 
ATOM     35  C   UNL A   1      40.308  27.232  27.102  1.00  0.00     0.010 A 
ATOM     36  C   UNL A   1      39.062  26.470  29.070  1.00  0.00     0.010 A 
ATOM     37  C   UNL A   1      39.729  27.450  28.353  1.00  0.00    -0.014 A 
BRANCH  37  38
ATOM     38  C   UNL A   1      39.876  28.628  29.169  1.00  0.00     0.031 A 
ATOM     39  C   UNL A   1      38.929  29.707  28.933  1.00  0.00     0.074 A 
ATOM     40  C   UNL A   1      40.711  28.453  30.226  1.00  0.00     0.049 A 
ATOM     41  N   UNL A   1      39.191  30.948  29.105  1.00  0.00    -0.248 NA
ATOM     42  C   UNL A   1      37.587  29.457  28.397  1.00  0.00     0.031 C 
ATOM     43  C   UNL A   1      40.797  29.142  31.495  1.00  0.00     0.029 A 
ATOM     44  N   UNL A   1      41.723  27.479  30.347  1.00  0.00    -0.354 N 
ATOM     45  C   UNL A   1      37.958  31.558  29.168  1.00  0.00     0.074 A 
ATOM     46  C   UNL A   1      37.050  30.679  28.470  1.00  0.00     0.031 C 
ATOM     47  C   UNL A   1      41.972  28.821  32.081  1.00  0.00     0.029 A 
ATOM     48  C   UNL A   1      42.736  28.027  31.123  1.00  0.00     0.049 A 
ATOM     49  H   UNL A   1      41.714  26.576  29.954  1.00  0.00     0.167 HD
ATOM     50  C   UNL A   1      37.769  32.538  30.098  1.00  0.00     0.034 A 
ATOM     51  C   UNL A   1      43.937  28.358  30.554  1.00  0.00     0.034 A 
ATOM     52  C   UNL A   1      38.996  32.699  30.901  1.00  0.00     0.049 A 
ATOM     53  C   UNL A   1      44.091  29.866  30.526  1.00  0.00     0.074 A 
ATOM     54  C   UNL A   1      39.341  32.252  32.168  1.00  0.00     0.029 A 
ATOM     55  N   UNL A   1      40.197  33.030  30.277  1.00  0.00    -0.354 N 
ATOM     56  N   UNL A   1      43.086  30.692  30.626  1.00  0.00    -0.248 NA
ATOM     57  C   UNL A   1      45.367  30.558  30.411  1.00  0.00     0.031 C 
ATOM     58  C   UNL A   1      40.760  32.285  32.284  1.00  0.00     0.029 A 
ATOM     59  C   UNL A   1      41.287  32.739  31.087  1.00  0.00     0.049 A 
ATOM     60  H   UNL A   1      40.265  33.422  29.376  1.00  0.00     0.167 HD
ATOM     61  C   UNL A   1      43.526  31.984  30.592  1.00  0.00     0.074 A 
ATOM     62  C   UNL A   1      44.970  31.842  30.489  1.00  0.00     0.031 C 
ATOM     63  C   UNL A   1      42.654  33.039  30.635  1.00  0.00     0.034 A 
BRANCH  50  64
ATOM     64  C   UNL A   1      36.402  33.061  30.501  1.00  0.00     0.023 A 
ATOM     65  C   UNL A   1      35.656  34.003  29.752  1.00  0.00     0.031 A 
ATOM     66  C   UNL A   1      35.786  32.623  31.691  1.00  0.00     0.131 A 
ATOM     67  C   UNL A   1      34.357  34.397  30.134  1.00  0.00     0.055 A 
ATOM     68  C   UNL A   1      34.515  33.051  32.097  1.00  0.00     0.041 A 
ATOM     69  F   UNL A   1      36.376  31.741  32.510  1.00  0.00    -0.206 F 
ATOM     70  C   UNL A   1      33.786  33.930  31.312  1.00  0.00     0.022 A 
BRANCH  67  71
ATOM     71  S   UNL A   1      33.346  35.482  29.081  1.00  0.00     0.124 S 
ATOM     72  O   UNL A   1      34.354  36.148  28.258  1.00  0.00    -0.237 OA
ATOM     73  O   UNL A   1      32.496  34.530  28.373  1.00  0.00    -0.237 OA
ATOM     74  O   UNL A   1      32.662  36.354  30.032  1.00  0.00    -0.744 OA
ENDBRANCH  67  71
ENDBRANCH  50  64
BRANCH  51  75
ATOM     75  C   UNL A   1      44.335  27.434  29.434  1.00  0.00     0.023 A 
ATOM     76  C   UNL A   1      44.224  27.823  28.089  1.00  0.00     0.031 A 
ATOM     77  C   UNL A   1      44.367  26.047  29.717  1.00  0.00     0.131 A 
ATOM     78  C   UNL A   1      43.983  26.846  27.102  1.00  0.00     0.055 A 
ATOM     79  C   UNL A   1      44.070  25.090  28.743  1.00  0.00     0.041 A 
ATOM     80  F   UNL A   1      44.524  25.618  30.981  1.00  0.00    -0.206 F 
ATOM     81  C   UNL A   1      43.834  25.495  27.434  1.00  0.00     0.022 A 
BRANCH  78  82
ATOM     82  S   UNL A   1      43.731  27.360  25.374  1.00  0.00     0.124 S 
ATOM     83  O   UNL A   1      42.936  28.571  25.547  1.00  0.00    -0.237 OA
ATOM     84  O   UNL A   1      45.086  27.578  24.875  1.00  0.00    -0.237 OA
ATOM     85  O   UNL A   1      43.040  26.216  24.792  1.00  0.00    -0.744 OA
ENDBRANCH  78  82
ENDBRANCH  51  75
BRANCH  63  86
ATOM     86  C   UNL A   1      42.978  34.486  30.322  1.00  0.00     0.023 A 
ATOM     87  C   UNL A   1      42.918  34.902  28.968  1.00  0.00     0.031 A 
ATOM     88  C   UNL A   1      43.479  35.437  31.223  1.00  0.00     0.131 A 
ATOM     89  C   UNL A   1      43.376  36.156  28.556  1.00  0.00     0.055 A 
ATOM     90  C   UNL A   1      43.825  36.734  30.829  1.00  0.00     0.041 A 
ATOM     91  F   UNL A   1      43.724  35.150  32.506  1.00  0.00    -0.206 F 
ATOM     92  C   UNL A   1      43.796  37.093  29.490  1.00  0.00     0.022 A 
BRANCH  89  93
ATOM     93  S   UNL A   1      43.590  36.527  26.795  1.00  0.00     0.124 S 
ATOM     94  O   UNL A   1      43.192  37.931  26.739  1.00  0.00    -0.237 OA
ATOM     95  O   UNL A   1      45.017  36.273  26.602  1.00  0.00    -0.237 OA
ATOM     96  O   UNL A   1      42.699  35.587  26.127  1.00  0.00    -0.744 OA
ENDBRANCH  89  93
ENDBRANCH  63  86
ENDBRANCH  37  38
ENDBRANCH  29  32
ENDBRANCH  27  28
ENDBRANCH   1  27
TORSDOF 16
ENDMDL
MODEL 2
REMARK VINA RESULT:     -12.6      1.192      2.036
REMARK SMILES Cc1ccc(NC(=O)C[N@H+]2CCC[C@@H](C(=O)NCCCNC(=O)c3ccc(-c4c5nc(c(-c6cc(S(=O)(=O)[O-])ccc6F)c6ccc([nH]6)c(-c6cc(S(=O)(=O)[O-])ccc6F)c6nc(c(-c7cc(S(=O)(=O)[O-])ccc7F)c7ccc4[nH]7)C=C6)C=C5)cc3)C2)cc1F
REMARK SMILES IDX 19 1 18 2 17 3 15 4 16 5 14 7 10 8 11 9 87 10 12 12 13 13
REMARK SMILES IDX 9 14 7 15 6 16 8 18 5 19 1 20 2 21 3 22 89 23 4 24 88 25
REMARK SMILES IDX 90 26 20 27 21 28 22 29 23 31 24 32 25 33 86 34 26 35 85 36
REMARK SMILES IDX 27 37 28 38 29 39 79 40 30 41 84 42 78 43 80 44 31 45 83 46
REMARK SMILES IDX 77 47 76 48 32 50 64 51 44 52 63 53 45 54 48 55 62 56 81 57
REMARK SMILES IDX 46 58 47 59 61 61 82 62 49 63 33 64 34 65 42 66 35 67 41 68
REMARK SMILES IDX 43 69 40 70 36 71 37 72 38 73 39 74 65 75 66 76 74 77 67 78
REMARK SMILES IDX 73 79 75 80 72 81 68 82 69 83 70 84 71 85 50 86 51 87 59 88
REMARK SMILES IDX 52 89 58 90 60 91 57 92 53 93 54 94 55 95 56 96
REMARK H PARENT 17 6 10 11 6 17 21 30 80 49 48 60
REMARK Flexibility Score: inf
ROOT
ATOM      1  C   UNL A   1      37.538  23.735  24.708  1.00  0.00     0.042 C 
ENDROOT
BRANCH   1   2
ATOM      2  C   UNL A   1      36.574  22.742  24.114  1.00  0.00     0.117 C 
BRANCH   2   3
ATOM      3  N   UNL A   1      35.762  23.313  23.052  1.00  0.00    -0.356 N 
ATOM      4  C   UNL A   1      34.407  23.190  22.919  1.00  0.00     0.228 C 
ATOM      5  O   UNL A   1      33.817  23.768  22.009  1.00  0.00    -0.275 OA
ATOM      6  H   UNL A   1      36.233  23.838  22.365  1.00  0.00     0.163 HD
BRANCH   4   7
ATOM      7  C   UNL A   1      33.712  22.360  23.975  1.00  0.00     0.133 C 
ATOM      8  N   UNL A   1      32.470  22.580  26.102  1.00  0.00    -0.326 N 
ATOM      9  C   UNL A   1      31.537  21.528  25.653  1.00  0.00     0.262 C 
ATOM     10  C   UNL A   1      32.982  23.311  24.936  1.00  0.00     0.276 C 
ATOM     11  H   UNL A   1      33.287  22.171  26.555  1.00  0.00     0.348 HD
ATOM     12  C   UNL A   1      32.155  20.576  24.616  1.00  0.00     0.062 C 
ATOM     13  C   UNL A   1      32.742  21.332  23.427  1.00  0.00     0.025 C 
BRANCH   8  14
ATOM     14  C   UNL A   1      31.841  23.427  27.154  1.00  0.00     0.363 C 
BRANCH  14  15
ATOM     15  C   UNL A   1      30.339  23.681  27.023  1.00  0.00     0.279 C 
ATOM     16  N   UNL A   1      29.787  24.678  26.274  1.00  0.00    -0.321 N 
ATOM     17  H   UNL A   1      28.802  24.671  26.300  1.00  0.00     0.170 HD
ATOM     18  O   UNL A   1      29.546  22.927  27.608  1.00  0.00    -0.268 OA
BRANCH  16  19
ATOM     19  C   UNL A   1      30.299  25.714  25.472  1.00  0.00     0.044 A 
ATOM     20  C   UNL A   1      32.077  28.586  22.761  1.00  0.00     0.047 C 
ATOM     21  C   UNL A   1      31.382  27.618  23.673  1.00  0.00    -0.015 A 
ATOM     22  C   UNL A   1      30.756  26.462  23.197  1.00  0.00     0.008 A 
ATOM     23  C   UNL A   1      31.426  27.811  25.048  1.00  0.00     0.128 A 
ATOM     24  C   UNL A   1      30.236  25.514  24.085  1.00  0.00     0.026 A 
ATOM     25  C   UNL A   1      30.882  26.886  25.939  1.00  0.00     0.065 A 
ATOM     26  F   UNL A   1      32.031  28.899  25.549  1.00  0.00    -0.207 F 
ENDBRANCH  16  19
ENDBRANCH  14  15
ENDBRANCH   8  14
ENDBRANCH   4   7
ENDBRANCH   2   3
ENDBRANCH   1   2
BRANCH   1  27
ATOM     27  C   UNL A   1      37.542  23.608  26.202  1.00  0.00     0.118 C 
BRANCH  27  28
ATOM     28  N   UNL A   1      38.720  22.880  26.705  1.00  0.00    -0.352 N 
ATOM     29  C   UNL A   1      39.894  23.400  27.195  1.00  0.00     0.251 C 
ATOM     30  H   UNL A   1      38.659  21.898  26.687  1.00  0.00     0.163 HD
ATOM     31  O   UNL A   1      40.847  22.681  27.500  1.00  0.00    -0.269 OA
BRANCH  29  32
ATOM     32  C   UNL A   1      39.887  24.814  27.474  1.00  0.00     0.039 A 
ATOM     33  C   UNL A   1      40.257  25.817  26.584  1.00  0.00     0.014 A 
ATOM     34  C   UNL A   1      39.426  25.083  28.756  1.00  0.00     0.014 A 
ATOM     35  C   UNL A   1      40.251  27.113  27.068  1.00  0.00     0.010 A 
ATOM     36  C   UNL A   1      39.026  26.329  29.039  1.00  0.00     0.010 A 
ATOM     37  C   UNL A   1      39.683  27.318  28.326  1.00  0.00    -0.014 A 
BRANCH  37  38
ATOM     38  C   UNL A   1      39.835  28.488  29.152  1.00  0.00     0.031 A 
ATOM     39  C   UNL A   1      38.898  29.576  28.921  1.00  0.00     0.074 A 
ATOM     40  C   UNL A   1      40.664  28.297  30.212  1.00  0.00     0.049 A 
ATOM     41  N   UNL A   1      39.169  30.814  29.104  1.00  0.00    -0.248 NA
ATOM     42  C   UNL A   1      37.557  29.341  28.376  1.00  0.00     0.031 C 
ATOM     43  C   UNL A   1      40.748  28.975  31.487  1.00  0.00     0.029 A 
ATOM     44  N   UNL A   1      41.667  27.314  30.331  1.00  0.00    -0.354 N 
ATOM     45  C   UNL A   1      37.941  31.433  29.166  1.00  0.00     0.074 A 
ATOM     46  C   UNL A   1      37.030  30.567  28.455  1.00  0.00     0.031 C 
ATOM     47  C   UNL A   1      41.917  28.640  32.077  1.00  0.00     0.029 A 
ATOM     48  C   UNL A   1      42.680  27.848  31.116  1.00  0.00     0.049 A 
ATOM     49  H   UNL A   1      41.653  26.415  29.930  1.00  0.00     0.167 HD
ATOM     50  C   UNL A   1      37.755  32.406  30.103  1.00  0.00     0.034 A 
ATOM     51  C   UNL A   1      43.887  28.174  30.556  1.00  0.00     0.034 A 
ATOM     52  C   UNL A   1      38.979  32.551  30.914  1.00  0.00     0.049 A 
ATOM     53  C   UNL A   1      44.053  29.681  30.542  1.00  0.00     0.074 A 
ATOM     54  C   UNL A   1      39.314  32.091  32.178  1.00  0.00     0.029 A 
ATOM     55  N   UNL A   1      40.185  32.878  30.299  1.00  0.00    -0.354 N 
ATOM     56  N   UNL A   1      43.054  30.514  30.643  1.00  0.00    -0.248 NA
ATOM     57  C   UNL A   1      45.335  30.363  30.439  1.00  0.00     0.031 C 
ATOM     58  C   UNL A   1      40.732  32.111  32.302  1.00  0.00     0.029 A 
ATOM     59  C   UNL A   1      41.269  32.571  31.111  1.00  0.00     0.049 A 
ATOM     60  H   UNL A   1      40.261  33.276  29.402  1.00  0.00     0.167 HD
ATOM     61  C   UNL A   1      43.504  31.802  30.622  1.00  0.00     0.074 A 
ATOM     62  C   UNL A   1      44.947  31.650  30.526  1.00  0.00     0.031 C 
ATOM     63  C   UNL A   1      42.641  32.864  30.669  1.00  0.00     0.034 A 
BRANCH  50  64
ATOM     64  C   UNL A   1      36.390  32.937  30.503  1.00  0.00     0.023 A 
ATOM     65  C   UNL A   1      35.672  33.920  29.779  1.00  0.00     0.031 A 
ATOM     66  C   UNL A   1      35.746  32.464  31.665  1.00  0.00     0.131 A 
ATOM     67  C   UNL A   1      34.374  34.321  30.155  1.00  0.00     0.055 A 
ATOM     68  C   UNL A   1      34.476  32.898  32.066  1.00  0.00     0.041 A 
ATOM     69  F   UNL A   1      36.307  31.541  32.458  1.00  0.00    -0.206 F 
ATOM     70  C   UNL A   1      33.775  33.819  31.304  1.00  0.00     0.022 A 
BRANCH  67  71
ATOM     71  S   UNL A   1      33.400  35.464  29.128  1.00  0.00     0.124 S 
ATOM     72  O   UNL A   1      32.545  34.553  28.369  1.00  0.00    -0.237 OA
ATOM     73  O   UNL A   1      32.711  36.275  30.127  1.00  0.00    -0.237 OA
ATOM     74  O   UNL A   1      34.405  36.163  28.332  1.00  0.00    -0.744 OA
ENDBRANCH  67  71
ENDBRANCH  50  64
BRANCH  51  75
ATOM     75  C   UNL A   1      44.283  27.256  29.431  1.00  0.00     0.023 A 
ATOM     76  C   UNL A   1      44.187  27.658  28.089  1.00  0.00     0.031 A 
ATOM     77  C   UNL A   1      44.299  25.866  29.701  1.00  0.00     0.131 A 
ATOM     78  C   UNL A   1      43.943  26.694  27.091  1.00  0.00     0.055 A 
ATOM     79  C   UNL A   1      43.999  24.921  28.716  1.00  0.00     0.041 A 
ATOM     80  F   UNL A   1      44.441  25.424  30.962  1.00  0.00    -0.206 F 
ATOM     81  C   UNL A   1      43.777  25.341  27.409  1.00  0.00     0.022 A 
BRANCH  78  82
ATOM     82  S   UNL A   1      43.709  27.225  25.366  1.00  0.00     0.124 S 
ATOM     83  O   UNL A   1      42.969  28.470  25.547  1.00  0.00    -0.237 OA
ATOM     84  O   UNL A   1      45.072  27.385  24.864  1.00  0.00    -0.237 OA
ATOM     85  O   UNL A   1      42.967  26.116  24.781  1.00  0.00    -0.744 OA
ENDBRANCH  78  82
ENDBRANCH  51  75
BRANCH  63  86
ATOM     86  C   UNL A   1      42.978  34.311  30.370  1.00  0.00     0.023 A 
ATOM     87  C   UNL A   1      43.013  34.717  29.012  1.00  0.00     0.031 A 
ATOM     88  C   UNL A   1      43.407  35.271  31.298  1.00  0.00     0.131 A 
ATOM     89  C   UNL A   1      43.491  35.971  28.625  1.00  0.00     0.055 A 
ATOM     90  C   UNL A   1      43.773  36.567  30.920  1.00  0.00     0.041 A 
ATOM     91  F   UNL A   1      43.562  34.994  32.597  1.00  0.00    -0.206 F 
ATOM     92  C   UNL A   1      43.838  36.917  29.580  1.00  0.00     0.022 A 
BRANCH  89  93
ATOM     93  S   UNL A   1      43.828  36.332  26.881  1.00  0.00     0.124 S 
ATOM     94  O   UNL A   1      44.596  37.570  26.980  1.00  0.00    -0.237 OA
ATOM     95  O   UNL A   1      44.590  35.154  26.469  1.00  0.00    -0.237 OA
ATOM     96  O   UNL A   1      42.504  36.452  26.285  1.00  0.00    -0.744 OA
ENDBRANCH  89  93
ENDBRANCH  63  86
ENDBRANCH  37  38
ENDBRANCH  29  32
ENDBRANCH  27  28
ENDBRANCH   1  27
TORSDOF 16
ENDMDL
MODEL 3
REMARK VINA RESULT:     -12.1      4.651      7.439
REMARK SMILES Cc1ccc(NC(=O)C[N@H+]2CCC[C@@H](C(=O)NCCCNC(=O)c3ccc(-c4c5nc(c(-c6cc(S(=O)(=O)[O-])ccc6F)c6ccc([nH]6)c(-c6cc(S(=O)(=O)[O-])ccc6F)c6nc(c(-c7cc(S(=O)(=O)[O-])ccc7F)c7ccc4[nH]7)C=C6)C=C5)cc3)C2)cc1F
REMARK SMILES IDX 19 1 18 2 17 3 15 4 16 5 14 7 10 8 11 9 87 10 12 12 13 13
REMARK SMILES IDX 9 14 7 15 6 16 8 18 5 19 1 20 2 21 3 22 89 23 4 24 88 25
REMARK SMILES IDX 90 26 20 27 21 28 22 29 23 31 24 32 25 33 86 34 26 35 85 36
REMARK SMILES IDX 27 37 28 38 29 39 79 40 30 41 84 42 78 43 80 44 31 45 83 46
REMARK SMILES IDX 77 47 76 48 32 50 64 51 44 52 63 53 45 54 48 55 62 56 81 57
REMARK SMILES IDX 46 58 47 59 61 61 82 62 49 63 33 64 34 65 42 66 35 67 41 68
REMARK SMILES IDX 43 69 40 70 36 71 37 72 38 73 39 74 65 75 66 76 74 77 67 78
REMARK SMILES IDX 73 79 75 80 72 81 68 82 69 83 70 84 71 85 50 86 51 87 59 88
REMARK SMILES IDX 52 89 58 90 60 91 57 92 53 93 54 94 55 95 56 96
REMARK H PARENT 17 6 10 11 6 17 21 30 80 49 48 60
REMARK Flexibility Score: inf
ROOT
ATOM      1  C   UNL A   1      35.398  29.279  27.059  1.00  0.00     0.042 C 
ENDROOT
BRANCH   1   2
ATOM      2  C   UNL A   1      33.982  29.026  27.507  1.00  0.00     0.117 C 
BRANCH   2   3
ATOM      3  N   UNL A   1      32.997  29.542  26.572  1.00  0.00    -0.356 N 
ATOM      4  C   UNL A   1      32.395  28.840  25.564  1.00  0.00     0.228 C 
ATOM      5  O   UNL A   1      31.530  29.367  24.870  1.00  0.00    -0.275 OA
ATOM      6  H   UNL A   1      32.737  30.487  26.675  1.00  0.00     0.163 HD
BRANCH   4   7
ATOM      7  C   UNL A   1      32.829  27.399  25.415  1.00  0.00     0.133 C 
ATOM      8  N   UNL A   1      31.924  25.098  25.399  1.00  0.00    -0.326 N 
ATOM      9  C   UNL A   1      32.833  24.760  24.286  1.00  0.00     0.262 C 
ATOM     10  C   UNL A   1      31.571  26.521  25.328  1.00  0.00     0.276 C 
ATOM     11  H   UNL A   1      32.388  24.970  26.298  1.00  0.00     0.348 HD
ATOM     12  C   UNL A   1      34.085  25.650  24.238  1.00  0.00     0.062 C 
ATOM     13  C   UNL A   1      33.727  27.135  24.223  1.00  0.00     0.025 C 
BRANCH   8  14
ATOM     14  C   UNL A   1      30.767  24.159  25.437  1.00  0.00     0.363 C 
BRANCH  14  15
ATOM     15  C   UNL A   1      30.633  23.284  26.683  1.00  0.00     0.279 C 
ATOM     16  N   UNL A   1      31.558  22.366  27.085  1.00  0.00    -0.321 N 
ATOM     17  H   UNL A   1      31.304  21.912  27.922  1.00  0.00     0.170 HD
ATOM     18  O   UNL A   1      29.636  23.418  27.410  1.00  0.00    -0.268 OA
BRANCH  16  19
ATOM     19  C   UNL A   1      32.791  21.917  26.580  1.00  0.00     0.044 A 
ATOM     20  C   UNL A   1      36.691  20.964  24.954  1.00  0.00     0.047 C 
ATOM     21  C   UNL A   1      35.366  21.258  25.594  1.00  0.00    -0.015 A 
ATOM     22  C   UNL A   1      35.202  22.283  26.530  1.00  0.00     0.008 A 
ATOM     23  C   UNL A   1      34.234  20.561  25.191  1.00  0.00     0.128 A 
ATOM     24  C   UNL A   1      33.928  22.620  27.005  1.00  0.00     0.026 A 
ATOM     25  C   UNL A   1      32.966  20.869  25.683  1.00  0.00     0.065 A 
ATOM     26  F   UNL A   1      34.344  19.581  24.283  1.00  0.00    -0.207 F 
ENDBRANCH  16  19
ENDBRANCH  14  15
ENDBRANCH   8  14
ENDBRANCH   4   7
ENDBRANCH   2   3
ENDBRANCH   1   2
BRANCH   1  27
ATOM     27  C   UNL A   1      36.035  30.305  27.948  1.00  0.00     0.118 C 
BRANCH  27  28
ATOM     28  N   UNL A   1      35.637  31.681  27.599  1.00  0.00    -0.352 N 
ATOM     29  C   UNL A   1      36.020  32.854  28.202  1.00  0.00     0.251 C 
ATOM     30  H   UNL A   1      35.018  31.770  26.840  1.00  0.00     0.163 HD
ATOM     31  O   UNL A   1      35.541  33.941  27.874  1.00  0.00    -0.269 OA
BRANCH  29  32
ATOM     32  C   UNL A   1      37.120  32.755  29.128  1.00  0.00     0.039 A 
ATOM     33  C   UNL A   1      37.637  31.573  29.650  1.00  0.00     0.014 A 
ATOM     34  C   UNL A   1      37.651  34.002  29.432  1.00  0.00     0.014 A 
ATOM     35  C   UNL A   1      38.650  31.694  30.584  1.00  0.00     0.010 A 
ATOM     36  C   UNL A   1      38.873  34.058  29.977  1.00  0.00     0.010 A 
ATOM     37  C   UNL A   1      39.199  32.964  30.763  1.00  0.00    -0.014 A 
BRANCH  37  38
ATOM     38  C   UNL A   1      40.022  33.392  31.865  1.00  0.00     0.031 A 
ATOM     39  C   UNL A   1      39.331  33.937  33.022  1.00  0.00     0.074 A 
ATOM     40  C   UNL A   1      41.312  32.972  31.771  1.00  0.00     0.049 A 
ATOM     41  N   UNL A   1      39.819  34.828  33.801  1.00  0.00    -0.248 NA
ATOM     42  C   UNL A   1      37.955  33.553  33.356  1.00  0.00     0.031 C 
ATOM     43  C   UNL A   1      42.320  32.762  32.787  1.00  0.00     0.029 A 
ATOM     44  N   UNL A   1      41.990  32.593  30.595  1.00  0.00    -0.354 N 
ATOM     45  C   UNL A   1      39.048  34.754  34.940  1.00  0.00     0.074 A 
ATOM     46  C   UNL A   1      37.790  34.181  34.524  1.00  0.00     0.031 C 
ATOM     47  C   UNL A   1      43.523  32.644  32.181  1.00  0.00     0.029 A 
ATOM     48  C   UNL A   1      43.328  32.925  30.762  1.00  0.00     0.049 A 
ATOM     49  H   UNL A   1      41.590  32.171  29.801  1.00  0.00     0.167 HD
ATOM     50  C   UNL A   1      39.672  34.843  36.149  1.00  0.00     0.034 A 
ATOM     51  C   UNL A   1      43.877  33.956  30.046  1.00  0.00     0.034 A 
ATOM     52  C   UNL A   1      41.128  34.964  35.945  1.00  0.00     0.049 A 
ATOM     53  C   UNL A   1      44.192  35.112  30.974  1.00  0.00     0.074 A 
ATOM     54  C   UNL A   1      42.159  34.040  36.040  1.00  0.00     0.029 A 
ATOM     55  N   UNL A   1      41.640  36.026  35.204  1.00  0.00    -0.354 N 
ATOM     56  N   UNL A   1      43.644  35.260  32.149  1.00  0.00    -0.248 NA
ATOM     57  C   UNL A   1      45.151  36.166  30.674  1.00  0.00     0.031 C 
ATOM     58  C   UNL A   1      43.279  34.543  35.318  1.00  0.00     0.029 A 
ATOM     59  C   UNL A   1      42.935  35.767  34.771  1.00  0.00     0.049 A 
ATOM     60  H   UNL A   1      41.148  36.857  35.010  1.00  0.00     0.167 HD
ATOM     61  C   UNL A   1      44.133  36.375  32.766  1.00  0.00     0.074 A 
ATOM     62  C   UNL A   1      45.100  36.888  31.809  1.00  0.00     0.031 C 
ATOM     63  C   UNL A   1      43.678  36.771  33.995  1.00  0.00     0.034 A 
BRANCH  50  64
ATOM     64  C   UNL A   1      39.017  34.458  37.464  1.00  0.00     0.023 A 
ATOM     65  C   UNL A   1      38.249  33.284  37.658  1.00  0.00     0.031 A 
ATOM     66  C   UNL A   1      39.141  35.284  38.599  1.00  0.00     0.131 A 
ATOM     67  C   UNL A   1      37.727  32.937  38.920  1.00  0.00     0.055 A 
ATOM     68  C   UNL A   1      38.580  34.964  39.843  1.00  0.00     0.041 A 
ATOM     69  F   UNL A   1      39.828  36.434  38.566  1.00  0.00    -0.206 F 
ATOM     70  C   UNL A   1      37.883  33.779  40.015  1.00  0.00     0.022 A 
BRANCH  67  71
ATOM     71  S   UNL A   1      36.880  31.350  39.194  1.00  0.00     0.124 S 
ATOM     72  O   UNL A   1      37.204  30.608  37.976  1.00  0.00    -0.237 OA
ATOM     73  O   UNL A   1      37.520  30.858  40.410  1.00  0.00    -0.237 OA
ATOM     74  O   UNL A   1      35.474  31.722  39.326  1.00  0.00    -0.744 OA
ENDBRANCH  67  71
ENDBRANCH  50  64
BRANCH  51  75
ATOM     75  C   UNL A   1      43.287  34.097  28.668  1.00  0.00     0.023 A 
ATOM     76  C   UNL A   1      43.911  33.533  27.543  1.00  0.00     0.031 A 
ATOM     77  C   UNL A   1      42.389  35.170  28.452  1.00  0.00     0.131 A 
ATOM     78  C   UNL A   1      43.758  34.147  26.284  1.00  0.00     0.055 A 
ATOM     79  C   UNL A   1      42.288  35.808  27.213  1.00  0.00     0.041 A 
ATOM     80  F   UNL A   1      41.725  35.714  29.487  1.00  0.00    -0.206 F 
ATOM     81  C   UNL A   1      43.011  35.320  26.130  1.00  0.00     0.022 A 
BRANCH  78  82
ATOM     82  S   UNL A   1      44.653  33.481  24.845  1.00  0.00     0.124 S 
ATOM     83  O   UNL A   1      45.605  34.554  24.577  1.00  0.00    -0.237 OA
ATOM     84  O   UNL A   1      45.243  32.243  25.346  1.00  0.00    -0.237 OA
ATOM     85  O   UNL A   1      43.595  33.301  23.859  1.00  0.00    -0.744 OA
ENDBRANCH  78  82
ENDBRANCH  51  75
BRANCH  63  86
ATOM     86  C   UNL A   1      43.920  38.114  34.652  1.00  0.00     0.023 A 
ATOM     87  C   UNL A   1      43.272  39.249  34.101  1.00  0.00     0.031 A 
ATOM     88  C   UNL A   1      44.841  38.384  35.674  1.00  0.00     0.131 A 
ATOM     89  C   UNL A   1      43.573  40.549  34.515  1.00  0.00     0.055 A 
ATOM     90  C   UNL A   1      45.054  39.675  36.171  1.00  0.00     0.041 A 
ATOM     91  F   UNL A   1      45.629  37.438  36.198  1.00  0.00    -0.206 F 
ATOM     92  C   UNL A   1      44.437  40.767  35.579  1.00  0.00     0.022 A 
BRANCH  89  93
ATOM     93  S   UNL A   1      42.978  41.978  33.572  1.00  0.00     0.124 S 
ATOM     94  O   UNL A   1      41.979  41.363  32.702  1.00  0.00    -0.237 OA
ATOM     95  O   UNL A   1      42.444  42.838  34.628  1.00  0.00    -0.237 OA
ATOM     96  O   UNL A   1      44.173  42.483  32.909  1.00  0.00    -0.744 OA
ENDBRANCH  89  93
ENDBRANCH  63  86
ENDBRANCH  37  38
ENDBRANCH  29  32
ENDBRANCH  27  28
ENDBRANCH   1  27
TORSDOF 16
ENDMDL
