MODEL 1
REMARK VINA RESULT:     -11.3      0.000      0.000
REMARK SMILES CC[C@H]1CC[C@](CC(C)(C)O)(C(=O)NCCCNC(=O)c2ccc(-c3c4nc(c(-c5cc(S(=O)(=O)[O-])ccc5F)c5ccc([nH]5)c(-c5cc(S(=O)(=O)[O-])ccc5F)c5nc(c(-c6cc(S(=O)(=O)[O-])ccc6F)c6ccc3[nH]6)C=C5)C=C4)cc2)C1
REMARK SMILES IDX 16 1 15 2 14 3 12 4 13 5 6 7 3 8 4 9 84 10 5 11 2 12 1 13
REMARK SMILES IDX 7 14 8 15 9 16 10 17 11 18 17 20 18 21 19 22 20 24 21 25
REMARK SMILES IDX 22 26 83 27 23 28 82 29 24 30 25 31 26 32 76 33 27 34 81 35
REMARK SMILES IDX 75 36 77 37 28 38 80 39 74 40 73 41 29 43 61 44 41 45 60 46
REMARK SMILES IDX 42 47 45 48 59 49 78 50 43 51 44 52 58 54 79 55 46 56 30 57
REMARK SMILES IDX 31 58 39 59 32 60 38 61 40 62 37 63 33 64 34 65 35 66 36 67
REMARK SMILES IDX 62 68 63 69 71 70 64 71 70 72 72 73 69 74 65 75 66 76 67 77
REMARK SMILES IDX 68 78 47 79 48 80 56 81 49 82 55 83 57 84 54 85 50 86 51 87
REMARK SMILES IDX 52 88 53 89
REMARK H PARENT 14 6 11 19 18 23 77 42 45 53
REMARK Flexibility Score: inf
ROOT
ATOM      1  C   UNL A   1      31.613  28.075  26.509  1.00  0.00     0.042 C 
ENDROOT
BRANCH   1   2
ATOM      2  C   UNL A   1      31.071  26.920  25.666  1.00  0.00     0.117 C 
BRANCH   2   3
ATOM      3  N   UNL A   1      30.761  25.760  26.484  1.00  0.00    -0.356 N 
ATOM      4  C   UNL A   1      31.226  24.486  26.504  1.00  0.00     0.226 C 
ATOM      5  O   UNL A   1      30.590  23.725  27.247  1.00  0.00    -0.274 OA
ATOM      6  H   UNL A   1      30.073  25.935  27.164  1.00  0.00     0.163 HD
BRANCH   4   7
ATOM      7  C   UNL A   1      32.437  23.957  25.681  1.00  0.00     0.052 C 
ATOM      8  C   UNL A   1      34.504  25.155  24.861  1.00  0.00    -0.010 C 
ATOM      9  C   UNL A   1      33.403  25.323  23.829  1.00  0.00     0.005 C 
ATOM     10  C   UNL A   1      33.682  24.847  26.116  1.00  0.00     0.020 C 
ATOM     11  C   UNL A   1      32.360  24.259  24.166  1.00  0.00     0.017 C 
BRANCH   8  12
ATOM     12  C   UNL A   1      35.534  24.082  24.471  1.00  0.00     0.000 C 
ATOM     13  C   UNL A   1      36.424  23.685  25.642  1.00  0.00     0.004 C 
ENDBRANCH   8  12
BRANCH   7  14
ATOM     14  C   UNL A   1      32.801  22.489  26.105  1.00  0.00     0.051 C 
BRANCH  14  15
ATOM     15  C   UNL A   1      32.706  21.229  25.210  1.00  0.00     0.060 C 
ATOM     16  C   UNL A   1      32.949  21.419  23.715  1.00  0.00     0.042 C 
ATOM     17  C   UNL A   1      33.723  20.194  25.728  1.00  0.00     0.042 C 
BRANCH  15  18
ATOM     18  O   UNL A   1      31.424  20.652  25.380  1.00  0.00    -0.390 OA
ATOM     19  H   UNL A   1      31.076  20.377  24.517  1.00  0.00     0.211 HD
ENDBRANCH  15  18
ENDBRANCH  14  15
ENDBRANCH   7  14
ENDBRANCH   4   7
ENDBRANCH   2   3
ENDBRANCH   1   2
BRANCH   1  20
ATOM     20  C   UNL A   1      32.558  29.007  25.767  1.00  0.00     0.118 C 
BRANCH  20  21
ATOM     21  N   UNL A   1      32.251  30.410  25.990  1.00  0.00    -0.352 N 
ATOM     22  C   UNL A   1      32.801  31.341  26.839  1.00  0.00     0.251 C 
ATOM     23  H   UNL A   1      31.518  30.756  25.431  1.00  0.00     0.163 HD
ATOM     24  O   UNL A   1      32.212  32.418  26.974  1.00  0.00    -0.269 OA
BRANCH  22  25
ATOM     25  C   UNL A   1      34.042  31.087  27.619  1.00  0.00     0.039 A 
ATOM     26  C   UNL A   1      34.896  32.164  27.897  1.00  0.00     0.014 A 
ATOM     27  C   UNL A   1      34.432  29.808  28.013  1.00  0.00     0.014 A 
ATOM     28  C   UNL A   1      36.089  31.965  28.608  1.00  0.00     0.010 A 
ATOM     29  C   UNL A   1      35.562  29.626  28.813  1.00  0.00     0.010 A 
ATOM     30  C   UNL A   1      36.420  30.696  29.104  1.00  0.00    -0.014 A 
BRANCH  30  31
ATOM     31  C   UNL A   1      37.680  30.432  29.861  1.00  0.00     0.031 A 
ATOM     32  C   UNL A   1      38.727  29.519  29.267  1.00  0.00     0.074 A 
ATOM     33  C   UNL A   1      37.858  30.928  31.103  1.00  0.00     0.049 A 
ATOM     34  N   UNL A   1      39.787  28.991  29.824  1.00  0.00    -0.248 NA
ATOM     35  C   UNL A   1      38.523  29.116  27.867  1.00  0.00     0.031 C 
ATOM     36  C   UNL A   1      36.928  31.817  31.802  1.00  0.00     0.029 A 
ATOM     37  N   UNL A   1      38.876  30.740  32.007  1.00  0.00    -0.354 N 
ATOM     38  C   UNL A   1      40.351  28.163  28.856  1.00  0.00     0.074 A 
ATOM     39  C   UNL A   1      39.480  28.216  27.703  1.00  0.00     0.031 C 
ATOM     40  C   UNL A   1      37.424  32.106  33.016  1.00  0.00     0.029 A 
ATOM     41  C   UNL A   1      38.675  31.378  33.210  1.00  0.00     0.049 A 
ATOM     42  H   UNL A   1      39.675  30.199  31.812  1.00  0.00     0.167 HD
ATOM     43  C   UNL A   1      41.499  27.441  28.916  1.00  0.00     0.034 A 
ATOM     44  C   UNL A   1      39.398  31.358  34.350  1.00  0.00     0.034 A 
ATOM     45  C   UNL A   1      42.379  27.428  30.059  1.00  0.00     0.049 A 
ATOM     46  C   UNL A   1      40.660  30.530  34.405  1.00  0.00     0.074 A 
ATOM     47  C   UNL A   1      43.589  26.772  30.208  1.00  0.00     0.029 A 
ATOM     48  N   UNL A   1      42.146  28.105  31.250  1.00  0.00    -0.354 N 
ATOM     49  N   UNL A   1      41.183  29.761  33.480  1.00  0.00    -0.248 NA
ATOM     50  C   UNL A   1      41.431  30.575  35.654  1.00  0.00     0.031 C 
ATOM     51  C   UNL A   1      44.054  26.998  31.508  1.00  0.00     0.029 A 
ATOM     52  C   UNL A   1      43.178  27.864  32.143  1.00  0.00     0.049 A 
ATOM     53  H   UNL A   1      41.362  28.671  31.432  1.00  0.00     0.167 HD
ATOM     54  C   UNL A   1      42.369  29.268  34.022  1.00  0.00     0.074 A 
ATOM     55  C   UNL A   1      42.481  29.826  35.352  1.00  0.00     0.031 C 
ATOM     56  C   UNL A   1      43.286  28.438  33.464  1.00  0.00     0.034 A 
BRANCH  43  57
ATOM     57  C   UNL A   1      41.850  26.587  27.719  1.00  0.00     0.023 A 
ATOM     58  C   UNL A   1      41.574  25.209  27.685  1.00  0.00     0.031 A 
ATOM     59  C   UNL A   1      42.499  27.152  26.606  1.00  0.00     0.131 A 
ATOM     60  C   UNL A   1      42.024  24.429  26.609  1.00  0.00     0.055 A 
ATOM     61  C   UNL A   1      42.861  26.386  25.495  1.00  0.00     0.041 A 
ATOM     62  F   UNL A   1      42.808  28.458  26.584  1.00  0.00    -0.206 F 
ATOM     63  C   UNL A   1      42.641  25.012  25.501  1.00  0.00     0.022 A 
BRANCH  60  64
ATOM     64  S   UNL A   1      41.938  22.623  26.753  1.00  0.00     0.124 S 
ATOM     65  O   UNL A   1      40.584  22.436  27.272  1.00  0.00    -0.237 OA
ATOM     66  O   UNL A   1      42.158  22.186  25.376  1.00  0.00    -0.237 OA
ATOM     67  O   UNL A   1      43.007  22.300  27.690  1.00  0.00    -0.744 OA
ENDBRANCH  60  64
ENDBRANCH  43  57
BRANCH  44  68
ATOM     68  C   UNL A   1      38.946  32.129  35.547  1.00  0.00     0.023 A 
ATOM     69  C   UNL A   1      38.329  31.484  36.630  1.00  0.00     0.031 A 
ATOM     70  C   UNL A   1      39.080  33.528  35.604  1.00  0.00     0.131 A 
ATOM     71  C   UNL A   1      37.825  32.238  37.700  1.00  0.00     0.055 A 
ATOM     72  C   UNL A   1      38.629  34.269  36.698  1.00  0.00     0.041 A 
ATOM     73  F   UNL A   1      39.667  34.197  34.598  1.00  0.00    -0.206 F 
ATOM     74  C   UNL A   1      37.983  33.624  37.748  1.00  0.00     0.022 A 
BRANCH  71  75
ATOM     75  S   UNL A   1      36.873  31.389  38.989  1.00  0.00     0.124 S 
ATOM     76  O   UNL A   1      37.786  31.450  40.123  1.00  0.00    -0.237 OA
ATOM     77  O   UNL A   1      35.678  32.223  39.081  1.00  0.00    -0.237 OA
ATOM     78  O   UNL A   1      36.657  30.055  38.431  1.00  0.00    -0.744 OA
ENDBRANCH  71  75
ENDBRANCH  44  68
BRANCH  56  79
ATOM     79  C   UNL A   1      44.537  28.147  34.257  1.00  0.00     0.023 A 
ATOM     80  C   UNL A   1      44.648  27.028  35.100  1.00  0.00     0.031 A 
ATOM     81  C   UNL A   1      45.648  29.004  34.144  1.00  0.00     0.131 A 
ATOM     82  C   UNL A   1      45.830  26.818  35.828  1.00  0.00     0.055 A 
ATOM     83  C   UNL A   1      46.839  28.759  34.827  1.00  0.00     0.041 A 
ATOM     84  F   UNL A   1      45.595  30.089  33.355  1.00  0.00    -0.206 F 
ATOM     85  C   UNL A   1      46.932  27.665  35.682  1.00  0.00     0.022 A 
BRANCH  82  86
ATOM     86  S   UNL A   1      45.889  25.457  37.026  1.00  0.00     0.124 S 
ATOM     87  O   UNL A   1      45.789  26.167  38.297  1.00  0.00    -0.237 OA
ATOM     88  O   UNL A   1      44.728  24.657  36.650  1.00  0.00    -0.237 OA
ATOM     89  O   UNL A   1      47.183  24.827  36.767  1.00  0.00    -0.744 OA
ENDBRANCH  82  86
ENDBRANCH  56  79
ENDBRANCH  30  31
ENDBRANCH  22  25
ENDBRANCH  20  21
ENDBRANCH   1  20
TORSDOF 17
ENDMDL
MODEL 2
REMARK VINA RESULT:     -11.2      4.694      9.717
REMARK SMILES CC[C@H]1CC[C@](CC(C)(C)O)(C(=O)NCCCNC(=O)c2ccc(-c3c4nc(c(-c5cc(S(=O)(=O)[O-])ccc5F)c5ccc([nH]5)c(-c5cc(S(=O)(=O)[O-])ccc5F)c5nc(c(-c6cc(S(=O)(=O)[O-])ccc6F)c6ccc3[nH]6)C=C5)C=C4)cc2)C1
REMARK SMILES IDX 16 1 15 2 14 3 12 4 13 5 6 7 3 8 4 9 84 10 5 11 2 12 1 13
REMARK SMILES IDX 7 14 8 15 9 16 10 17 11 18 17 20 18 21 19 22 20 24 21 25
REMARK SMILES IDX 22 26 83 27 23 28 82 29 24 30 25 31 26 32 76 33 27 34 81 35
REMARK SMILES IDX 75 36 77 37 28 38 80 39 74 40 73 41 29 43 61 44 41 45 60 46
REMARK SMILES IDX 42 47 45 48 59 49 78 50 43 51 44 52 58 54 79 55 46 56 30 57
REMARK SMILES IDX 31 58 39 59 32 60 38 61 40 62 37 63 33 64 34 65 35 66 36 67
REMARK SMILES IDX 62 68 63 69 71 70 64 71 70 72 72 73 69 74 65 75 66 76 67 77
REMARK SMILES IDX 68 78 47 79 48 80 56 81 49 82 55 83 57 84 54 85 50 86 51 87
REMARK SMILES IDX 52 88 53 89
REMARK H PARENT 14 6 11 19 18 23 77 42 45 53
REMARK Flexibility Score: inf
ROOT
ATOM      1  C   UNL A   1      35.140  22.716  24.266  1.00  0.00     0.042 C 
ENDROOT
BRANCH   1   2
ATOM      2  C   UNL A   1      34.061  23.798  24.313  1.00  0.00     0.117 C 
BRANCH   2   3
ATOM      3  N   UNL A   1      34.098  24.643  23.132  1.00  0.00    -0.356 N 
ATOM      4  C   UNL A   1      33.598  25.872  22.852  1.00  0.00     0.226 C 
ATOM      5  O   UNL A   1      33.691  26.199  21.660  1.00  0.00    -0.274 OA
ATOM      6  H   UNL A   1      34.589  24.241  22.380  1.00  0.00     0.163 HD
BRANCH   4   7
ATOM      7  C   UNL A   1      32.938  26.831  23.885  1.00  0.00     0.052 C 
ATOM      8  C   UNL A   1      33.317  27.066  26.371  1.00  0.00    -0.010 C 
ATOM      9  C   UNL A   1      32.264  25.997  26.139  1.00  0.00     0.005 C 
ATOM     10  C   UNL A   1      34.031  27.072  25.016  1.00  0.00     0.020 C 
ATOM     11  C   UNL A   1      31.788  26.198  24.701  1.00  0.00     0.017 C 
BRANCH   8  12
ATOM     12  C   UNL A   1      32.717  28.414  26.804  1.00  0.00     0.000 C 
ATOM     13  C   UNL A   1      31.488  28.241  27.687  1.00  0.00     0.004 C 
ENDBRANCH   8  12
BRANCH   7  14
ATOM     14  C   UNL A   1      32.677  28.243  23.247  1.00  0.00     0.051 C 
BRANCH  14  15
ATOM     15  C   UNL A   1      31.295  28.836  22.875  1.00  0.00     0.060 C 
ATOM     16  C   UNL A   1      30.215  27.854  22.429  1.00  0.00     0.042 C 
ATOM     17  C   UNL A   1      30.759  29.606  24.097  1.00  0.00     0.042 C 
BRANCH  15  18
ATOM     18  O   UNL A   1      31.478  29.791  21.846  1.00  0.00    -0.390 OA
ATOM     19  H   UNL A   1      30.871  30.535  21.983  1.00  0.00     0.211 HD
ENDBRANCH  15  18
ENDBRANCH  14  15
ENDBRANCH   7  14
ENDBRANCH   4   7
ENDBRANCH   2   3
ENDBRANCH   1   2
BRANCH   1  20
ATOM     20  C   UNL A   1      35.742  22.367  25.618  1.00  0.00     0.118 C 
BRANCH  20  21
ATOM     21  N   UNL A   1      36.669  21.249  25.548  1.00  0.00    -0.352 N 
ATOM     22  C   UNL A   1      38.035  21.186  25.688  1.00  0.00     0.251 C 
ATOM     23  H   UNL A   1      36.240  20.381  25.369  1.00  0.00     0.163 HD
ATOM     24  O   UNL A   1      38.599  20.133  25.376  1.00  0.00    -0.269 OA
BRANCH  22  25
ATOM     25  C   UNL A   1      38.852  22.337  26.157  1.00  0.00     0.039 A 
ATOM     26  C   UNL A   1      39.940  22.091  27.007  1.00  0.00     0.014 A 
ATOM     27  C   UNL A   1      38.529  23.660  25.854  1.00  0.00     0.014 A 
ATOM     28  C   UNL A   1      40.721  23.150  27.494  1.00  0.00     0.010 A 
ATOM     29  C   UNL A   1      39.370  24.702  26.248  1.00  0.00     0.010 A 
ATOM     30  C   UNL A   1      40.464  24.468  27.092  1.00  0.00    -0.014 A 
BRANCH  30  31
ATOM     31  C   UNL A   1      41.263  25.629  27.585  1.00  0.00     0.031 A 
ATOM     32  C   UNL A   1      40.585  26.707  28.398  1.00  0.00     0.074 A 
ATOM     33  C   UNL A   1      42.561  25.772  27.244  1.00  0.00     0.049 A 
ATOM     34  N   UNL A   1      41.024  27.888  28.750  1.00  0.00    -0.248 NA
ATOM     35  C   UNL A   1      39.208  26.426  28.834  1.00  0.00     0.031 C 
ATOM     36  C   UNL A   1      43.341  24.814  26.459  1.00  0.00     0.029 A 
ATOM     37  N   UNL A   1      43.449  26.789  27.498  1.00  0.00    -0.354 N 
ATOM     38  C   UNL A   1      39.965  28.505  29.412  1.00  0.00     0.074 A 
ATOM     39  C   UNL A   1      38.847  27.588  29.356  1.00  0.00     0.031 C 
ATOM     40  C   UNL A   1      44.590  25.282  26.309  1.00  0.00     0.029 A 
ATOM     41  C   UNL A   1      44.689  26.599  26.930  1.00  0.00     0.049 A 
ATOM     42  H   UNL A   1      43.219  27.582  28.037  1.00  0.00     0.167 HD
ATOM     43  C   UNL A   1      39.933  29.715  30.026  1.00  0.00     0.034 A 
ATOM     44  C   UNL A   1      45.772  27.403  26.890  1.00  0.00     0.034 A 
ATOM     45  C   UNL A   1      41.067  30.603  30.108  1.00  0.00     0.049 A 
ATOM     46  C   UNL A   1      45.709  28.755  27.558  1.00  0.00     0.074 A 
ATOM     47  C   UNL A   1      41.158  31.828  30.746  1.00  0.00     0.029 A 
ATOM     48  N   UNL A   1      42.308  30.362  29.535  1.00  0.00    -0.354 N 
ATOM     49  N   UNL A   1      44.704  29.320  28.186  1.00  0.00    -0.248 NA
ATOM     50  C   UNL A   1      46.928  29.575  27.520  1.00  0.00     0.031 C 
ATOM     51  C   UNL A   1      42.431  32.356  30.505  1.00  0.00     0.029 A 
ATOM     52  C   UNL A   1      43.163  31.423  29.788  1.00  0.00     0.049 A 
ATOM     53  H   UNL A   1      42.546  29.555  29.024  1.00  0.00     0.167 HD
ATOM     54  C   UNL A   1      45.187  30.540  28.656  1.00  0.00     0.074 A 
ATOM     55  C   UNL A   1      46.569  30.629  28.238  1.00  0.00     0.031 C 
ATOM     56  C   UNL A   1      44.545  31.494  29.377  1.00  0.00     0.034 A 
BRANCH  43  57
ATOM     57  C   UNL A   1      38.619  30.155  30.633  1.00  0.00     0.023 A 
ATOM     58  C   UNL A   1      37.692  30.930  29.913  1.00  0.00     0.031 A 
ATOM     59  C   UNL A   1      38.302  29.823  31.963  1.00  0.00     0.131 A 
ATOM     60  C   UNL A   1      36.542  31.420  30.550  1.00  0.00     0.055 A 
ATOM     61  C   UNL A   1      37.109  30.236  32.562  1.00  0.00     0.041 A 
ATOM     62  F   UNL A   1      39.152  29.102  32.710  1.00  0.00    -0.206 F 
ATOM     63  C   UNL A   1      36.230  31.055  31.861  1.00  0.00     0.022 A 
BRANCH  60  64
ATOM     64  S   UNL A   1      35.546  32.670  29.694  1.00  0.00     0.124 S 
ATOM     65  O   UNL A   1      35.052  33.468  30.815  1.00  0.00    -0.237 OA
ATOM     66  O   UNL A   1      36.530  33.322  28.833  1.00  0.00    -0.237 OA
ATOM     67  O   UNL A   1      34.530  31.887  29.001  1.00  0.00    -0.744 OA
ENDBRANCH  60  64
ENDBRANCH  43  57
BRANCH  44  68
ATOM     68  C   UNL A   1      47.010  26.970  26.175  1.00  0.00     0.023 A 
ATOM     69  C   UNL A   1      48.045  26.313  26.859  1.00  0.00     0.031 A 
ATOM     70  C   UNL A   1      47.197  27.249  24.809  1.00  0.00     0.131 A 
ATOM     71  C   UNL A   1      49.239  26.001  26.191  1.00  0.00     0.055 A 
ATOM     72  C   UNL A   1      48.363  26.885  24.134  1.00  0.00     0.041 A 
ATOM     73  F   UNL A   1      46.237  27.871  24.105  1.00  0.00    -0.206 F 
ATOM     74  C   UNL A   1      49.400  26.270  24.830  1.00  0.00     0.022 A 
BRANCH  71  75
ATOM     75  S   UNL A   1      50.621  25.322  27.150  1.00  0.00     0.124 S 
ATOM     76  O   UNL A   1      51.561  24.956  26.099  1.00  0.00    -0.237 OA
ATOM     77  O   UNL A   1      50.998  26.461  27.983  1.00  0.00    -0.237 OA
ATOM     78  O   UNL A   1      50.017  24.201  27.868  1.00  0.00    -0.744 OA
ENDBRANCH  71  75
ENDBRANCH  44  68
BRANCH  56  79
ATOM     79  C   UNL A   1      45.355  32.683  29.836  1.00  0.00     0.023 A 
ATOM     80  C   UNL A   1      46.047  32.693  31.059  1.00  0.00     0.031 A 
ATOM     81  C   UNL A   1      45.448  33.821  29.013  1.00  0.00     0.131 A 
ATOM     82  C   UNL A   1      46.769  33.834  31.443  1.00  0.00     0.055 A 
ATOM     83  C   UNL A   1      46.213  34.930  29.375  1.00  0.00     0.041 A 
ATOM     84  F   UNL A   1      44.806  33.867  27.835  1.00  0.00    -0.206 F 
ATOM     85  C   UNL A   1      46.872  34.944  30.601  1.00  0.00     0.022 A 
BRANCH  82  86
ATOM     86  S   UNL A   1      47.520  33.879  33.094  1.00  0.00     0.124 S 
ATOM     87  O   UNL A   1      47.900  35.283  33.216  1.00  0.00    -0.237 OA
ATOM     88  O   UNL A   1      46.423  33.440  33.950  1.00  0.00    -0.237 OA
ATOM     89  O   UNL A   1      48.636  32.941  32.989  1.00  0.00    -0.744 OA
ENDBRANCH  82  86
ENDBRANCH  56  79
ENDBRANCH  30  31
ENDBRANCH  22  25
ENDBRANCH  20  21
ENDBRANCH   1  20
TORSDOF 17
ENDMDL
MODEL 3
REMARK VINA RESULT:     -11.1      5.342     10.267
REMARK SMILES CC[C@H]1CC[C@](CC(C)(C)O)(C(=O)NCCCNC(=O)c2ccc(-c3c4nc(c(-c5cc(S(=O)(=O)[O-])ccc5F)c5ccc([nH]5)c(-c5cc(S(=O)(=O)[O-])ccc5F)c5nc(c(-c6cc(S(=O)(=O)[O-])ccc6F)c6ccc3[nH]6)C=C5)C=C4)cc2)C1
REMARK SMILES IDX 16 1 15 2 14 3 12 4 13 5 6 7 3 8 4 9 84 10 5 11 2 12 1 13
REMARK SMILES IDX 7 14 8 15 9 16 10 17 11 18 17 20 18 21 19 22 20 24 21 25
REMARK SMILES IDX 22 26 83 27 23 28 82 29 24 30 25 31 26 32 76 33 27 34 81 35
REMARK SMILES IDX 75 36 77 37 28 38 80 39 74 40 73 41 29 43 61 44 41 45 60 46
REMARK SMILES IDX 42 47 45 48 59 49 78 50 43 51 44 52 58 54 79 55 46 56 30 57
REMARK SMILES IDX 31 58 39 59 32 60 38 61 40 62 37 63 33 64 34 65 35 66 36 67
REMARK SMILES IDX 62 68 63 69 71 70 64 71 70 72 72 73 69 74 65 75 66 76 67 77
REMARK SMILES IDX 68 78 47 79 48 80 56 81 49 82 55 83 57 84 54 85 50 86 51 87
REMARK SMILES IDX 52 88 53 89
REMARK H PARENT 14 6 11 19 18 23 77 42 45 53
REMARK Flexibility Score: inf
ROOT
ATOM      1  C   UNL A   1      35.232  22.843  24.386  1.00  0.00     0.042 C 
ENDROOT
BRANCH   1   2
ATOM      2  C   UNL A   1      34.145  23.915  24.459  1.00  0.00     0.117 C 
BRANCH   2   3
ATOM      3  N   UNL A   1      34.151  24.764  23.279  1.00  0.00    -0.356 N 
ATOM      4  C   UNL A   1      33.511  25.917  22.960  1.00  0.00     0.226 C 
ATOM      5  O   UNL A   1      33.643  26.259  21.776  1.00  0.00    -0.274 OA
ATOM      6  H   UNL A   1      34.742  24.435  22.565  1.00  0.00     0.163 HD
BRANCH   4   7
ATOM      7  C   UNL A   1      32.659  26.774  23.941  1.00  0.00     0.052 C 
ATOM      8  C   UNL A   1      32.891  27.122  26.431  1.00  0.00    -0.010 C 
ATOM      9  C   UNL A   1      32.042  25.887  26.191  1.00  0.00     0.005 C 
ATOM     10  C   UNL A   1      33.649  27.219  25.104  1.00  0.00     0.020 C 
ATOM     11  C   UNL A   1      31.598  25.974  24.731  1.00  0.00     0.017 C 
BRANCH   8  12
ATOM     12  C   UNL A   1      32.058  28.360  26.803  1.00  0.00     0.000 C 
ATOM     13  C   UNL A   1      32.925  29.593  27.026  1.00  0.00     0.004 C 
ENDBRANCH   8  12
BRANCH   7  14
ATOM     14  C   UNL A   1      32.192  28.107  23.254  1.00  0.00     0.051 C 
BRANCH  14  15
ATOM     15  C   UNL A   1      30.730  28.513  22.945  1.00  0.00     0.060 C 
ATOM     16  C   UNL A   1      29.661  27.436  23.108  1.00  0.00     0.042 C 
ATOM     17  C   UNL A   1      30.356  29.694  23.861  1.00  0.00     0.042 C 
BRANCH  15  18
ATOM     18  O   UNL A   1      30.669  28.998  21.616  1.00  0.00    -0.390 OA
ATOM     19  H   UNL A   1      30.091  29.777  21.582  1.00  0.00     0.211 HD
ENDBRANCH  15  18
ENDBRANCH  14  15
ENDBRANCH   7  14
ENDBRANCH   4   7
ENDBRANCH   2   3
ENDBRANCH   1   2
BRANCH   1  20
ATOM     20  C   UNL A   1      35.771  22.401  25.738  1.00  0.00     0.118 C 
BRANCH  20  21
ATOM     21  N   UNL A   1      36.710  21.296  25.633  1.00  0.00    -0.352 N 
ATOM     22  C   UNL A   1      38.081  21.254  25.713  1.00  0.00     0.251 C 
ATOM     23  H   UNL A   1      36.287  20.421  25.477  1.00  0.00     0.163 HD
ATOM     24  O   UNL A   1      38.647  20.207  25.382  1.00  0.00    -0.269 OA
BRANCH  22  25
ATOM     25  C   UNL A   1      38.901  22.419  26.140  1.00  0.00     0.039 A 
ATOM     26  C   UNL A   1      40.030  22.193  26.940  1.00  0.00     0.014 A 
ATOM     27  C   UNL A   1      38.544  23.735  25.848  1.00  0.00     0.014 A 
ATOM     28  C   UNL A   1      40.816  23.266  27.387  1.00  0.00     0.010 A 
ATOM     29  C   UNL A   1      39.385  24.792  26.198  1.00  0.00     0.010 A 
ATOM     30  C   UNL A   1      40.521  24.579  26.993  1.00  0.00    -0.014 A 
BRANCH  30  31
ATOM     31  C   UNL A   1      41.323  25.754  27.444  1.00  0.00     0.031 A 
ATOM     32  C   UNL A   1      40.678  26.802  28.321  1.00  0.00     0.074 A 
ATOM     33  C   UNL A   1      42.588  25.936  27.012  1.00  0.00     0.049 A 
ATOM     34  N   UNL A   1      41.111  27.990  28.659  1.00  0.00    -0.248 NA
ATOM     35  C   UNL A   1      39.344  26.478  28.851  1.00  0.00     0.031 C 
ATOM     36  C   UNL A   1      43.334  25.010  26.158  1.00  0.00     0.029 A 
ATOM     37  N   UNL A   1      43.466  26.974  27.217  1.00  0.00    -0.354 N 
ATOM     38  C   UNL A   1      40.088  28.569  29.405  1.00  0.00     0.074 A 
ATOM     39  C   UNL A   1      38.993  27.623  29.416  1.00  0.00     0.031 C 
ATOM     40  C   UNL A   1      44.556  25.514  25.925  1.00  0.00     0.029 A 
ATOM     41  C   UNL A   1      44.665  26.825  26.558  1.00  0.00     0.049 A 
ATOM     42  H   UNL A   1      43.256  27.752  27.783  1.00  0.00     0.167 HD
ATOM     43  C   UNL A   1      40.069  29.769  30.039  1.00  0.00     0.034 A 
ATOM     44  C   UNL A   1      45.722  27.659  26.451  1.00  0.00     0.034 A 
ATOM     45  C   UNL A   1      41.182  30.687  30.051  1.00  0.00     0.049 A 
ATOM     46  C   UNL A   1      45.672  28.999  27.144  1.00  0.00     0.074 A 
ATOM     47  C   UNL A   1      41.288  31.905  30.700  1.00  0.00     0.029 A 
ATOM     48  N   UNL A   1      42.385  30.486  29.386  1.00  0.00    -0.354 N 
ATOM     49  N   UNL A   1      44.702  29.528  27.851  1.00  0.00    -0.248 NA
ATOM     50  C   UNL A   1      46.863  29.852  27.029  1.00  0.00     0.031 C 
ATOM     51  C   UNL A   1      42.526  32.470  30.376  1.00  0.00     0.029 A 
ATOM     52  C   UNL A   1      43.228  31.567  29.593  1.00  0.00     0.049 A 
ATOM     53  H   UNL A   1      42.606  29.693  28.847  1.00  0.00     0.167 HD
ATOM     54  C   UNL A   1      45.186  30.754  28.304  1.00  0.00     0.074 A 
ATOM     55  C   UNL A   1      46.531  30.886  27.788  1.00  0.00     0.031 C 
ATOM     56  C   UNL A   1      44.574  31.681  29.084  1.00  0.00     0.034 A 
BRANCH  43  57
ATOM     57  C   UNL A   1      38.792  30.165  30.746  1.00  0.00     0.023 A 
ATOM     58  C   UNL A   1      37.835  30.997  30.138  1.00  0.00     0.031 A 
ATOM     59  C   UNL A   1      38.541  29.731  32.060  1.00  0.00     0.131 A 
ATOM     60  C   UNL A   1      36.724  31.440  30.871  1.00  0.00     0.055 A 
ATOM     61  C   UNL A   1      37.385  30.100  32.752  1.00  0.00     0.041 A 
ATOM     62  F   UNL A   1      39.424  28.951  32.703  1.00  0.00    -0.206 F 
ATOM     63  C   UNL A   1      36.477  30.975  32.164  1.00  0.00     0.022 A 
BRANCH  60  64
ATOM     64  S   UNL A   1      35.694  32.758  30.169  1.00  0.00     0.124 S 
ATOM     65  O   UNL A   1      36.312  33.951  30.745  1.00  0.00    -0.237 OA
ATOM     66  O   UNL A   1      35.884  32.575  28.732  1.00  0.00    -0.237 OA
ATOM     67  O   UNL A   1      34.358  32.454  30.667  1.00  0.00    -0.744 OA
ENDBRANCH  60  64
ENDBRANCH  43  57
BRANCH  44  68
ATOM     68  C   UNL A   1      46.915  27.268  25.642  1.00  0.00     0.023 A 
ATOM     69  C   UNL A   1      47.082  27.737  24.330  1.00  0.00     0.031 A 
ATOM     70  C   UNL A   1      47.881  26.382  26.153  1.00  0.00     0.131 A 
ATOM     71  C   UNL A   1      48.159  27.281  23.554  1.00  0.00     0.055 A 
ATOM     72  C   UNL A   1      48.983  25.977  25.397  1.00  0.00     0.041 A 
ATOM     73  F   UNL A   1      47.774  25.906  27.404  1.00  0.00    -0.206 F 
ATOM     74  C   UNL A   1      49.118  26.415  24.084  1.00  0.00     0.022 A 
BRANCH  71  75
ATOM     75  S   UNL A   1      48.238  27.763  21.808  1.00  0.00     0.124 S 
ATOM     76  O   UNL A   1      46.935  28.386  21.612  1.00  0.00    -0.237 OA
ATOM     77  O   UNL A   1      49.389  28.662  21.795  1.00  0.00    -0.237 OA
ATOM     78  O   UNL A   1      48.435  26.493  21.112  1.00  0.00    -0.744 OA
ENDBRANCH  71  75
ENDBRANCH  44  68
BRANCH  56  79
ATOM     79  C   UNL A   1      45.384  32.885  29.501  1.00  0.00     0.023 A 
ATOM     80  C   UNL A   1      45.385  34.081  28.764  1.00  0.00     0.031 A 
ATOM     81  C   UNL A   1      46.153  32.832  30.678  1.00  0.00     0.131 A 
ATOM     82  C   UNL A   1      46.173  35.162  29.190  1.00  0.00     0.055 A 
ATOM     83  C   UNL A   1      46.890  33.928  31.127  1.00  0.00     0.041 A 
ATOM     84  F   UNL A   1      46.191  31.713  31.420  1.00  0.00    -0.206 F 
ATOM     85  C   UNL A   1      46.910  35.100  30.376  1.00  0.00     0.022 A 
BRANCH  82  86
ATOM     86  S   UNL A   1      46.279  36.635  28.136  1.00  0.00     0.124 S 
ATOM     87  O   UNL A   1      47.722  36.825  28.024  1.00  0.00    -0.237 OA
ATOM     88  O   UNL A   1      45.598  36.202  26.921  1.00  0.00    -0.237 OA
ATOM     89  O   UNL A   1      45.577  37.660  28.906  1.00  0.00    -0.744 OA
ENDBRANCH  82  86
ENDBRANCH  56  79
ENDBRANCH  30  31
ENDBRANCH  22  25
ENDBRANCH  20  21
ENDBRANCH   1  20
TORSDOF 17
ENDMDL
