MODEL 1
REMARK VINA RESULT:     -13.3      0.000      0.000
REMARK SMILES Cc1ccc([C@H](C)Nc2ccc(C(=O)NCCCNC(=O)c3ccc(-c4c5nc(c(-c6cc(S(=O)(=O)[O-])ccc6F)c6ccc([nH]6)c(-c6cc(S(=O)(=O)[O-])ccc6F)c6nc(c(-c7cc(S(=O)(=O)[O-])ccc7F)c7ccc4[nH]7)C=C6)C=C5)cc3)cc2Cl)cc1F
REMARK SMILES IDX 17 1 16 2 15 3 13 4 14 5 12 7 9 8 10 9 86 10 11 11 85 12
REMARK SMILES IDX 87 13 8 14 6 16 7 17 5 18 1 19 2 20 3 21 89 22 4 23 88 24
REMARK SMILES IDX 90 25 18 26 19 27 20 28 21 30 22 31 23 32 84 33 24 34 83 35
REMARK SMILES IDX 25 36 26 37 27 38 77 39 28 40 82 41 76 42 78 43 29 44 81 45
REMARK SMILES IDX 75 46 74 47 30 49 62 50 42 51 61 52 43 53 46 54 60 55 79 56
REMARK SMILES IDX 44 57 45 58 59 60 80 61 47 62 31 63 32 64 40 65 33 66 39 67
REMARK SMILES IDX 41 68 38 69 34 70 35 71 36 72 37 73 63 74 64 75 72 76 65 77
REMARK SMILES IDX 71 78 73 79 70 80 66 81 67 82 68 83 69 84 48 85 49 86 57 87
REMARK SMILES IDX 50 88 56 89 58 90 55 91 51 92 52 93 53 94 54 95
REMARK H PARENT 15 6 8 15 19 29 78 48 46 59
REMARK Flexibility Score: inf
ROOT
ATOM      1  C   UNL A   1      37.138  22.647  25.167  1.00  0.00     0.042 C 
ENDROOT
BRANCH   1   2
ATOM      2  C   UNL A   1      35.709  22.376  25.656  1.00  0.00     0.118 C 
BRANCH   2   3
ATOM      3  N   UNL A   1      35.256  21.083  25.177  1.00  0.00    -0.352 N 
ATOM      4  C   UNL A   1      34.024  20.683  24.719  1.00  0.00     0.251 C 
ATOM      5  O   UNL A   1      33.876  19.510  24.381  1.00  0.00    -0.269 OA
ATOM      6  H   UNL A   1      35.944  20.379  25.183  1.00  0.00     0.163 HD
BRANCH   4   7
ATOM      7  C   UNL A   1      32.895  21.642  24.550  1.00  0.00     0.041 A 
ATOM      8  C   UNL A   1      30.901  23.669  24.320  1.00  0.00     0.053 A 
ATOM      9  C   UNL A   1      31.821  23.394  23.283  1.00  0.00     0.028 A 
ATOM     10  C   UNL A   1      31.026  22.908  25.478  1.00  0.00     0.065 A 
ATOM     11  C   UNL A   1      32.828  22.423  23.405  1.00  0.00     0.016 A 
ATOM     12  C   UNL A   1      31.916  21.851  25.507  1.00  0.00     0.036 A 
ATOM     13  Cl  UNL A   1      30.178  23.108  26.977  1.00  0.00    -0.082 Cl
BRANCH   8  14
ATOM     14  N   UNL A   1      29.993  24.681  24.104  1.00  0.00    -0.377 N 
ATOM     15  H   UNL A   1      29.041  24.443  24.173  1.00  0.00     0.161 HD
BRANCH  14  16
ATOM     16  C   UNL A   1      30.299  26.067  23.788  1.00  0.00     0.106 C 
ATOM     17  C   UNL A   1      28.940  26.778  23.662  1.00  0.00     0.036 C 
BRANCH  16  18
ATOM     18  C   UNL A   1      31.326  26.614  24.775  1.00  0.00    -0.023 A 
ATOM     19  C   UNL A   1      34.069  28.845  27.300  1.00  0.00     0.047 C 
ATOM     20  C   UNL A   1      33.139  28.032  26.457  1.00  0.00    -0.015 A 
ATOM     21  C   UNL A   1      31.978  27.453  26.978  1.00  0.00     0.007 A 
ATOM     22  C   UNL A   1      33.404  27.868  25.105  1.00  0.00     0.126 A 
ATOM     23  C   UNL A   1      31.081  26.761  26.147  1.00  0.00     0.006 A 
ATOM     24  C   UNL A   1      32.539  27.146  24.290  1.00  0.00     0.045 A 
ATOM     25  F   UNL A   1      34.492  28.432  24.561  1.00  0.00    -0.207 F 
ENDBRANCH  16  18
ENDBRANCH  14  16
ENDBRANCH   8  14
ENDBRANCH   4   7
ENDBRANCH   2   3
ENDBRANCH   1   2
BRANCH   1  26
ATOM     26  C   UNL A   1      37.769  23.668  26.041  1.00  0.00     0.118 C 
BRANCH  26  27
ATOM     27  N   UNL A   1      38.821  23.020  26.810  1.00  0.00    -0.352 N 
ATOM     28  C   UNL A   1      39.957  23.622  27.265  1.00  0.00     0.251 C 
ATOM     29  H   UNL A   1      38.703  22.065  27.020  1.00  0.00     0.163 HD
ATOM     30  O   UNL A   1      40.960  22.934  27.487  1.00  0.00    -0.269 OA
BRANCH  28  31
ATOM     31  C   UNL A   1      39.881  25.058  27.531  1.00  0.00     0.039 A 
ATOM     32  C   UNL A   1      40.341  26.022  26.638  1.00  0.00     0.014 A 
ATOM     33  C   UNL A   1      39.373  25.418  28.780  1.00  0.00     0.014 A 
ATOM     34  C   UNL A   1      40.413  27.337  27.076  1.00  0.00     0.010 A 
ATOM     35  C   UNL A   1      39.153  26.713  29.073  1.00  0.00     0.010 A 
ATOM     36  C   UNL A   1      39.869  27.634  28.322  1.00  0.00    -0.014 A 
BRANCH  36  37
ATOM     37  C   UNL A   1      40.075  28.838  29.085  1.00  0.00     0.031 A 
ATOM     38  C   UNL A   1      39.135  29.936  28.895  1.00  0.00     0.074 A 
ATOM     39  C   UNL A   1      40.888  28.658  30.158  1.00  0.00     0.049 A 
ATOM     40  N   UNL A   1      39.319  31.121  29.346  1.00  0.00    -0.248 NA
ATOM     41  C   UNL A   1      37.879  29.777  28.164  1.00  0.00     0.031 C 
ATOM     42  C   UNL A   1      40.939  29.374  31.418  1.00  0.00     0.029 A 
ATOM     43  N   UNL A   1      41.893  27.686  30.320  1.00  0.00    -0.354 N 
ATOM     44  C   UNL A   1      38.084  31.731  29.331  1.00  0.00     0.074 A 
ATOM     45  C   UNL A   1      37.282  30.944  28.424  1.00  0.00     0.031 C 
ATOM     46  C   UNL A   1      42.097  29.064  32.039  1.00  0.00     0.029 A 
ATOM     47  C   UNL A   1      42.886  28.280  31.097  1.00  0.00     0.049 A 
ATOM     48  H   UNL A   1      41.896  26.772  29.957  1.00  0.00     0.167 HD
ATOM     49  C   UNL A   1      37.831  32.685  30.273  1.00  0.00     0.034 A 
ATOM     50  C   UNL A   1      44.068  28.677  30.527  1.00  0.00     0.034 A 
ATOM     51  C   UNL A   1      39.041  32.910  31.085  1.00  0.00     0.049 A 
ATOM     52  C   UNL A   1      44.183  30.193  30.530  1.00  0.00     0.074 A 
ATOM     53  C   UNL A   1      39.421  32.475  32.346  1.00  0.00     0.029 A 
ATOM     54  N   UNL A   1      40.217  33.324  30.457  1.00  0.00    -0.354 N 
ATOM     55  N   UNL A   1      43.160  30.998  30.644  1.00  0.00    -0.248 NA
ATOM     56  C   UNL A   1      45.445  30.918  30.458  1.00  0.00     0.031 C 
ATOM     57  C   UNL A   1      40.844  32.541  32.427  1.00  0.00     0.029 A 
ATOM     58  C   UNL A   1      41.336  33.029  31.226  1.00  0.00     0.049 A 
ATOM     59  H   UNL A   1      40.250  33.768  29.579  1.00  0.00     0.167 HD
ATOM     60  C   UNL A   1      43.573  32.301  30.664  1.00  0.00     0.074 A 
ATOM     61  C   UNL A   1      45.020  32.191  30.573  1.00  0.00     0.031 C 
ATOM     62  C   UNL A   1      42.689  33.346  30.741  1.00  0.00     0.034 A 
BRANCH  49  63
ATOM     63  C   UNL A   1      36.433  33.158  30.643  1.00  0.00     0.023 A 
ATOM     64  C   UNL A   1      35.664  34.066  29.878  1.00  0.00     0.031 A 
ATOM     65  C   UNL A   1      35.789  32.665  31.797  1.00  0.00     0.131 A 
ATOM     66  C   UNL A   1      34.333  34.390  30.209  1.00  0.00     0.055 A 
ATOM     67  C   UNL A   1      34.476  33.018  32.151  1.00  0.00     0.041 A 
ATOM     68  F   UNL A   1      36.388  31.796  32.622  1.00  0.00    -0.206 F 
ATOM     69  C   UNL A   1      33.735  33.872  31.350  1.00  0.00     0.022 A 
BRANCH  66  70
ATOM     70  S   UNL A   1      33.323  35.452  29.128  1.00  0.00     0.124 S 
ATOM     71  O   UNL A   1      32.651  36.327  30.088  1.00  0.00    -0.237 OA
ATOM     72  O   UNL A   1      34.331  36.101  28.296  1.00  0.00    -0.237 OA
ATOM     73  O   UNL A   1      32.445  34.513  28.434  1.00  0.00    -0.744 OA
ENDBRANCH  66  70
ENDBRANCH  49  63
BRANCH  50  74
ATOM     74  C   UNL A   1      44.531  27.751  29.438  1.00  0.00     0.023 A 
ATOM     75  C   UNL A   1      44.350  28.053  28.077  1.00  0.00     0.031 A 
ATOM     76  C   UNL A   1      44.716  26.392  29.790  1.00  0.00     0.131 A 
ATOM     77  C   UNL A   1      44.215  27.002  27.145  1.00  0.00     0.055 A 
ATOM     78  C   UNL A   1      44.527  25.356  28.870  1.00  0.00     0.041 A 
ATOM     79  F   UNL A   1      44.941  26.051  31.070  1.00  0.00    -0.206 F 
ATOM     80  C   UNL A   1      44.230  25.661  27.548  1.00  0.00     0.022 A 
BRANCH  77  81
ATOM     81  S   UNL A   1      43.900  27.362  25.388  1.00  0.00     0.124 S 
ATOM     82  O   UNL A   1      43.007  28.513  25.485  1.00  0.00    -0.237 OA
ATOM     83  O   UNL A   1      45.228  27.655  24.861  1.00  0.00    -0.237 OA
ATOM     84  O   UNL A   1      43.301  26.127  24.899  1.00  0.00    -0.744 OA
ENDBRANCH  77  81
ENDBRANCH  50  74
BRANCH  62  85
ATOM     85  C   UNL A   1      43.004  34.799  30.429  1.00  0.00     0.023 A 
ATOM     86  C   UNL A   1      42.722  35.282  29.126  1.00  0.00     0.031 A 
ATOM     87  C   UNL A   1      43.703  35.688  31.262  1.00  0.00     0.131 A 
ATOM     88  C   UNL A   1      43.155  36.540  28.693  1.00  0.00     0.055 A 
ATOM     89  C   UNL A   1      44.032  36.990  30.867  1.00  0.00     0.041 A 
ATOM     90  F   UNL A   1      44.170  35.328  32.463  1.00  0.00    -0.206 F 
ATOM     91  C   UNL A   1      43.778  37.415  29.571  1.00  0.00     0.022 A 
BRANCH  88  92
ATOM     92  S   UNL A   1      43.086  36.984  26.934  1.00  0.00     0.124 S 
ATOM     93  O   UNL A   1      44.409  37.564  26.724  1.00  0.00    -0.237 OA
ATOM     94  O   UNL A   1      42.863  35.686  26.300  1.00  0.00    -0.237 OA
ATOM     95  O   UNL A   1      41.964  37.911  26.855  1.00  0.00    -0.744 OA
ENDBRANCH  88  92
ENDBRANCH  62  85
ENDBRANCH  36  37
ENDBRANCH  28  31
ENDBRANCH  26  27
ENDBRANCH   1  26
TORSDOF 16
ENDMDL
MODEL 2
REMARK VINA RESULT:     -13.0      3.965      9.527
REMARK SMILES Cc1ccc([C@H](C)Nc2ccc(C(=O)NCCCNC(=O)c3ccc(-c4c5nc(c(-c6cc(S(=O)(=O)[O-])ccc6F)c6ccc([nH]6)c(-c6cc(S(=O)(=O)[O-])ccc6F)c6nc(c(-c7cc(S(=O)(=O)[O-])ccc7F)c7ccc4[nH]7)C=C6)C=C5)cc3)cc2Cl)cc1F
REMARK SMILES IDX 17 1 16 2 15 3 13 4 14 5 12 7 9 8 10 9 86 10 11 11 85 12
REMARK SMILES IDX 87 13 8 14 6 16 7 17 5 18 1 19 2 20 3 21 89 22 4 23 88 24
REMARK SMILES IDX 90 25 18 26 19 27 20 28 21 30 22 31 23 32 84 33 24 34 83 35
REMARK SMILES IDX 25 36 26 37 27 38 77 39 28 40 82 41 76 42 78 43 29 44 81 45
REMARK SMILES IDX 75 46 74 47 30 49 62 50 42 51 61 52 43 53 46 54 60 55 79 56
REMARK SMILES IDX 44 57 45 58 59 60 80 61 47 62 31 63 32 64 40 65 33 66 39 67
REMARK SMILES IDX 41 68 38 69 34 70 35 71 36 72 37 73 63 74 64 75 72 76 65 77
REMARK SMILES IDX 71 78 73 79 70 80 66 81 67 82 68 83 69 84 48 85 49 86 57 87
REMARK SMILES IDX 50 88 56 89 58 90 55 91 51 92 52 93 53 94 54 95
REMARK H PARENT 15 6 8 15 19 29 78 48 46 59
REMARK Flexibility Score: inf
ROOT
ATOM      1  C   UNL A   1      33.042  29.393  26.683  1.00  0.00     0.042 C 
ENDROOT
BRANCH   1   2
ATOM      2  C   UNL A   1      32.935  29.229  25.161  1.00  0.00     0.118 C 
BRANCH   2   3
ATOM      3  N   UNL A   1      31.641  29.696  24.701  1.00  0.00    -0.352 N 
ATOM      4  C   UNL A   1      30.683  29.066  23.944  1.00  0.00     0.251 C 
ATOM      5  O   UNL A   1      29.658  29.684  23.661  1.00  0.00    -0.269 OA
ATOM      6  H   UNL A   1      31.413  30.614  24.976  1.00  0.00     0.163 HD
BRANCH   4   7
ATOM      7  C   UNL A   1      30.818  27.641  23.526  1.00  0.00     0.041 A 
ATOM      8  C   UNL A   1      31.302  24.907  22.874  1.00  0.00     0.053 A 
ATOM      9  C   UNL A   1      30.576  25.292  24.024  1.00  0.00     0.028 A 
ATOM     10  C   UNL A   1      31.790  25.937  22.074  1.00  0.00     0.065 A 
ATOM     11  C   UNL A   1      30.367  26.636  24.368  1.00  0.00     0.016 A 
ATOM     12  C   UNL A   1      31.429  27.243  22.348  1.00  0.00     0.036 A 
ATOM     13  Cl  UNL A   1      32.850  25.809  20.707  1.00  0.00    -0.082 Cl
BRANCH   8  14
ATOM     14  N   UNL A   1      31.489  23.559  22.668  1.00  0.00    -0.377 N 
ATOM     15  H   UNL A   1      31.221  23.204  21.791  1.00  0.00     0.161 HD
BRANCH  14  16
ATOM     16  C   UNL A   1      32.044  22.606  23.617  1.00  0.00     0.106 C 
ATOM     17  C   UNL A   1      31.954  21.231  22.931  1.00  0.00     0.036 C 
BRANCH  16  18
ATOM     18  C   UNL A   1      33.403  23.093  24.111  1.00  0.00    -0.023 A 
ATOM     19  C   UNL A   1      37.371  23.767  25.748  1.00  0.00     0.047 C 
ATOM     20  C   UNL A   1      36.005  23.586  25.168  1.00  0.00    -0.015 A 
ATOM     21  C   UNL A   1      35.779  23.576  23.788  1.00  0.00     0.007 A 
ATOM     22  C   UNL A   1      34.921  23.385  26.011  1.00  0.00     0.126 A 
ATOM     23  C   UNL A   1      34.498  23.325  23.268  1.00  0.00     0.006 A 
ATOM     24  C   UNL A   1      33.646  23.180  25.498  1.00  0.00     0.045 A 
ATOM     25  F   UNL A   1      35.101  23.360  27.339  1.00  0.00    -0.207 F 
ENDBRANCH  16  18
ENDBRANCH  14  16
ENDBRANCH   8  14
ENDBRANCH   4   7
ENDBRANCH   2   3
ENDBRANCH   1   2
BRANCH   1  26
ATOM     26  C   UNL A   1      34.471  29.319  27.083  1.00  0.00     0.118 C 
BRANCH  26  27
ATOM     27  N   UNL A   1      35.001  30.675  27.125  1.00  0.00    -0.352 N 
ATOM     28  C   UNL A   1      36.049  31.094  27.890  1.00  0.00     0.251 C 
ATOM     29  H   UNL A   1      34.565  31.347  26.551  1.00  0.00     0.163 HD
ATOM     30  O   UNL A   1      36.130  32.286  28.206  1.00  0.00    -0.269 OA
BRANCH  28  31
ATOM     31  C   UNL A   1      37.060  30.093  28.228  1.00  0.00     0.039 A 
ATOM     32  C   UNL A   1      37.057  29.383  29.425  1.00  0.00     0.014 A 
ATOM     33  C   UNL A   1      38.088  29.930  27.297  1.00  0.00     0.014 A 
ATOM     34  C   UNL A   1      38.171  28.616  29.733  1.00  0.00     0.010 A 
ATOM     35  C   UNL A   1      38.998  28.952  27.460  1.00  0.00     0.010 A 
ATOM     36  C   UNL A   1      39.150  28.475  28.754  1.00  0.00    -0.014 A 
BRANCH  36  37
ATOM     37  C   UNL A   1      40.488  27.975  28.942  1.00  0.00     0.031 A 
ATOM     38  C   UNL A   1      40.717  26.548  28.746  1.00  0.00     0.074 A 
ATOM     39  C   UNL A   1      41.433  28.950  28.901  1.00  0.00     0.049 A 
ATOM     40  N   UNL A   1      41.797  25.946  29.079  1.00  0.00    -0.248 NA
ATOM     41  C   UNL A   1      39.720  25.668  28.141  1.00  0.00     0.031 C 
ATOM     42  C   UNL A   1      42.830  28.878  28.519  1.00  0.00     0.029 A 
ATOM     43  N   UNL A   1      41.273  30.314  29.207  1.00  0.00    -0.354 N 
ATOM     44  C   UNL A   1      41.800  24.756  28.386  1.00  0.00     0.074 A 
ATOM     45  C   UNL A   1      40.429  24.547  27.984  1.00  0.00     0.031 C 
ATOM     46  C   UNL A   1      43.446  30.004  28.936  1.00  0.00     0.029 A 
ATOM     47  C   UNL A   1      42.484  30.736  29.751  1.00  0.00     0.049 A 
ATOM     48  H   UNL A   1      40.467  30.861  29.067  1.00  0.00     0.167 HD
ATOM     49  C   UNL A   1      43.006  24.222  28.038  1.00  0.00     0.034 A 
ATOM     50  C   UNL A   1      42.597  30.967  31.097  1.00  0.00     0.034 A 
ATOM     51  C   UNL A   1      44.092  25.054  28.589  1.00  0.00     0.049 A 
ATOM     52  C   UNL A   1      43.503  29.933  31.746  1.00  0.00     0.074 A 
ATOM     53  C   UNL A   1      44.917  26.016  28.026  1.00  0.00     0.029 A 
ATOM     54  N   UNL A   1      44.168  25.250  29.969  1.00  0.00    -0.354 N 
ATOM     55  N   UNL A   1      43.776  28.771  31.214  1.00  0.00    -0.248 NA
ATOM     56  C   UNL A   1      44.211  30.139  33.004  1.00  0.00     0.031 C 
ATOM     57  C   UNL A   1      45.406  26.850  29.076  1.00  0.00     0.029 A 
ATOM     58  C   UNL A   1      44.896  26.391  30.281  1.00  0.00     0.049 A 
ATOM     59  H   UNL A   1      43.756  24.655  30.636  1.00  0.00     0.167 HD
ATOM     60  C   UNL A   1      44.655  28.078  31.998  1.00  0.00     0.074 A 
ATOM     61  C   UNL A   1      44.917  28.996  33.095  1.00  0.00     0.031 C 
ATOM     62  C   UNL A   1      45.075  26.812  31.681  1.00  0.00     0.034 A 
BRANCH  49  63
ATOM     63  C   UNL A   1      43.182  23.162  26.961  1.00  0.00     0.023 A 
ATOM     64  C   UNL A   1      42.834  21.799  27.112  1.00  0.00     0.031 A 
ATOM     65  C   UNL A   1      43.687  23.504  25.689  1.00  0.00     0.131 A 
ATOM     66  C   UNL A   1      42.918  20.877  26.048  1.00  0.00     0.055 A 
ATOM     67  C   UNL A   1      43.810  22.579  24.639  1.00  0.00     0.041 A 
ATOM     68  F   UNL A   1      44.059  24.756  25.392  1.00  0.00    -0.206 F 
ATOM     69  C   UNL A   1      43.411  21.262  24.809  1.00  0.00     0.022 A 
BRANCH  66  70
ATOM     70  S   UNL A   1      42.330  19.164  26.234  1.00  0.00     0.124 S 
ATOM     71  O   UNL A   1      42.447  18.948  27.676  1.00  0.00    -0.237 OA
ATOM     72  O   UNL A   1      40.964  19.245  25.727  1.00  0.00    -0.237 OA
ATOM     73  O   UNL A   1      43.258  18.384  25.420  1.00  0.00    -0.744 OA
ENDBRANCH  66  70
ENDBRANCH  49  63
BRANCH  50  74
ATOM     74  C   UNL A   1      41.351  31.558  31.694  1.00  0.00     0.023 A 
ATOM     75  C   UNL A   1      40.451  30.789  32.453  1.00  0.00     0.031 A 
ATOM     76  C   UNL A   1      40.861  32.748  31.104  1.00  0.00     0.131 A 
ATOM     77  C   UNL A   1      39.085  31.142  32.477  1.00  0.00     0.055 A 
ATOM     78  C   UNL A   1      39.498  33.061  31.088  1.00  0.00     0.041 A 
ATOM     79  F   UNL A   1      41.688  33.546  30.408  1.00  0.00    -0.206 F 
ATOM     80  C   UNL A   1      38.598  32.229  31.741  1.00  0.00     0.022 A 
BRANCH  77  81
ATOM     81  S   UNL A   1      37.884  30.119  33.385  1.00  0.00     0.124 S 
ATOM     82  O   UNL A   1      38.412  28.778  33.152  1.00  0.00    -0.237 OA
ATOM     83  O   UNL A   1      38.003  30.598  34.758  1.00  0.00    -0.237 OA
ATOM     84  O   UNL A   1      36.620  30.431  32.731  1.00  0.00    -0.744 OA
ENDBRANCH  77  81
ENDBRANCH  50  74
BRANCH  62  85
ATOM     85  C   UNL A   1      45.758  25.840  32.627  1.00  0.00     0.023 A 
ATOM     86  C   UNL A   1      44.946  24.949  33.375  1.00  0.00     0.031 A 
ATOM     87  C   UNL A   1      47.122  25.837  32.963  1.00  0.00     0.131 A 
ATOM     88  C   UNL A   1      45.468  24.162  34.407  1.00  0.00     0.055 A 
ATOM     89  C   UNL A   1      47.662  24.962  33.914  1.00  0.00     0.041 A 
ATOM     90  F   UNL A   1      47.987  26.720  32.453  1.00  0.00    -0.206 F 
ATOM     91  C   UNL A   1      46.833  24.135  34.656  1.00  0.00     0.022 A 
BRANCH  88  92
ATOM     92  S   UNL A   1      44.361  23.305  35.563  1.00  0.00     0.124 S 
ATOM     93  O   UNL A   1      44.982  21.987  35.644  1.00  0.00    -0.237 OA
ATOM     94  O   UNL A   1      44.479  24.128  36.765  1.00  0.00    -0.237 OA
ATOM     95  O   UNL A   1      43.062  23.358  34.903  1.00  0.00    -0.744 OA
ENDBRANCH  88  92
ENDBRANCH  62  85
ENDBRANCH  36  37
ENDBRANCH  28  31
ENDBRANCH  26  27
ENDBRANCH   1  26
TORSDOF 16
ENDMDL
MODEL 3
REMARK VINA RESULT:     -12.8      1.529      1.717
REMARK SMILES Cc1ccc([C@H](C)Nc2ccc(C(=O)NCCCNC(=O)c3ccc(-c4c5nc(c(-c6cc(S(=O)(=O)[O-])ccc6F)c6ccc([nH]6)c(-c6cc(S(=O)(=O)[O-])ccc6F)c6nc(c(-c7cc(S(=O)(=O)[O-])ccc7F)c7ccc4[nH]7)C=C6)C=C5)cc3)cc2Cl)cc1F
REMARK SMILES IDX 17 1 16 2 15 3 13 4 14 5 12 7 9 8 10 9 86 10 11 11 85 12
REMARK SMILES IDX 87 13 8 14 6 16 7 17 5 18 1 19 2 20 3 21 89 22 4 23 88 24
REMARK SMILES IDX 90 25 18 26 19 27 20 28 21 30 22 31 23 32 84 33 24 34 83 35
REMARK SMILES IDX 25 36 26 37 27 38 77 39 28 40 82 41 76 42 78 43 29 44 81 45
REMARK SMILES IDX 75 46 74 47 30 49 62 50 42 51 61 52 43 53 46 54 60 55 79 56
REMARK SMILES IDX 44 57 45 58 59 60 80 61 47 62 31 63 32 64 40 65 33 66 39 67
REMARK SMILES IDX 41 68 38 69 34 70 35 71 36 72 37 73 63 74 64 75 72 76 65 77
REMARK SMILES IDX 71 78 73 79 70 80 66 81 67 82 68 83 69 84 48 85 49 86 57 87
REMARK SMILES IDX 50 88 56 89 58 90 55 91 51 92 52 93 53 94 54 95
REMARK H PARENT 15 6 8 15 19 29 78 48 46 59
REMARK Flexibility Score: inf
ROOT
ATOM      1  C   UNL A   1      36.835  22.641  24.922  1.00  0.00     0.042 C 
ENDROOT
BRANCH   1   2
ATOM      2  C   UNL A   1      35.820  21.996  25.874  1.00  0.00     0.118 C 
BRANCH   2   3
ATOM      3  N   UNL A   1      35.364  20.730  25.331  1.00  0.00    -0.352 N 
ATOM      4  C   UNL A   1      34.141  20.368  24.819  1.00  0.00     0.251 C 
ATOM      5  O   UNL A   1      33.986  19.212  24.430  1.00  0.00    -0.269 OA
ATOM      6  H   UNL A   1      36.040  20.015  25.330  1.00  0.00     0.163 HD
BRANCH   4   7
ATOM      7  C   UNL A   1      33.032  21.352  24.652  1.00  0.00     0.041 A 
ATOM      8  C   UNL A   1      31.085  23.422  24.416  1.00  0.00     0.053 A 
ATOM      9  C   UNL A   1      31.967  23.092  23.362  1.00  0.00     0.028 A 
ATOM     10  C   UNL A   1      31.224  22.693  25.594  1.00  0.00     0.065 A 
ATOM     11  C   UNL A   1      32.951  22.099  23.486  1.00  0.00     0.016 A 
ATOM     12  C   UNL A   1      32.088  21.614  25.630  1.00  0.00     0.036 A 
ATOM     13  Cl  UNL A   1      30.426  22.961  27.110  1.00  0.00    -0.082 Cl
BRANCH   8  14
ATOM     14  N   UNL A   1      30.198  24.451  24.196  1.00  0.00    -0.377 N 
ATOM     15  H   UNL A   1      29.246  24.256  24.352  1.00  0.00     0.161 HD
BRANCH  14  16
ATOM     16  C   UNL A   1      30.524  25.799  23.756  1.00  0.00     0.106 C 
ATOM     17  C   UNL A   1      29.177  26.521  23.582  1.00  0.00     0.036 C 
BRANCH  16  18
ATOM     18  C   UNL A   1      31.572  26.411  24.682  1.00  0.00    -0.023 A 
ATOM     19  C   UNL A   1      34.314  28.814  27.044  1.00  0.00     0.047 C 
ATOM     20  C   UNL A   1      33.389  27.943  26.256  1.00  0.00    -0.015 A 
ATOM     21  C   UNL A   1      32.300  27.291  26.844  1.00  0.00     0.007 A 
ATOM     22  C   UNL A   1      33.581  27.795  24.890  1.00  0.00     0.126 A 
ATOM     23  C   UNL A   1      31.400  26.543  26.066  1.00  0.00     0.006 A 
ATOM     24  C   UNL A   1      32.717  27.018  24.127  1.00  0.00     0.045 A 
ATOM     25  F   UNL A   1      34.598  28.426  24.284  1.00  0.00    -0.207 F 
ENDBRANCH  16  18
ENDBRANCH  14  16
ENDBRANCH   8  14
ENDBRANCH   4   7
ENDBRANCH   2   3
ENDBRANCH   1   2
BRANCH   1  26
ATOM     26  C   UNL A   1      37.668  23.611  25.678  1.00  0.00     0.118 C 
BRANCH  26  27
ATOM     27  N   UNL A   1      38.573  22.859  26.536  1.00  0.00    -0.352 N 
ATOM     28  C   UNL A   1      39.708  23.348  27.113  1.00  0.00     0.251 C 
ATOM     29  H   UNL A   1      38.346  21.918  26.715  1.00  0.00     0.163 HD
ATOM     30  O   UNL A   1      40.616  22.567  27.420  1.00  0.00    -0.269 OA
BRANCH  28  31
ATOM     31  C   UNL A   1      39.739  24.782  27.396  1.00  0.00     0.039 A 
ATOM     32  C   UNL A   1      40.356  25.709  26.561  1.00  0.00     0.014 A 
ATOM     33  C   UNL A   1      39.164  25.175  28.606  1.00  0.00     0.014 A 
ATOM     34  C   UNL A   1      40.508  27.007  27.025  1.00  0.00     0.010 A 
ATOM     35  C   UNL A   1      39.036  26.481  28.902  1.00  0.00     0.010 A 
ATOM     36  C   UNL A   1      39.892  27.340  28.227  1.00  0.00    -0.014 A 
BRANCH  36  37
ATOM     37  C   UNL A   1      40.141  28.514  29.025  1.00  0.00     0.031 A 
ATOM     38  C   UNL A   1      39.268  29.667  28.836  1.00  0.00     0.074 A 
ATOM     39  C   UNL A   1      40.911  28.264  30.116  1.00  0.00     0.049 A 
ATOM     40  N   UNL A   1      39.503  30.828  29.321  1.00  0.00    -0.248 NA
ATOM     41  C   UNL A   1      38.028  29.594  28.066  1.00  0.00     0.031 C 
ATOM     42  C   UNL A   1      40.964  28.947  31.394  1.00  0.00     0.029 A 
ATOM     43  N   UNL A   1      41.857  27.235  30.282  1.00  0.00    -0.354 N 
ATOM     44  C   UNL A   1      38.304  31.506  29.286  1.00  0.00     0.074 A 
ATOM     45  C   UNL A   1      37.487  30.785  28.339  1.00  0.00     0.031 C 
ATOM     46  C   UNL A   1      42.085  28.560  32.040  1.00  0.00     0.029 A 
ATOM     47  C   UNL A   1      42.857  27.755  31.100  1.00  0.00     0.049 A 
ATOM     48  H   UNL A   1      41.820  26.331  29.897  1.00  0.00     0.167 HD
ATOM     49  C   UNL A   1      38.077  32.450  30.244  1.00  0.00     0.034 A 
ATOM     50  C   UNL A   1      44.075  28.099  30.574  1.00  0.00     0.034 A 
ATOM     51  C   UNL A   1      39.273  32.590  31.095  1.00  0.00     0.049 A 
ATOM     52  C   UNL A   1      44.273  29.606  30.617  1.00  0.00     0.074 A 
ATOM     53  C   UNL A   1      39.591  32.106  32.355  1.00  0.00     0.029 A 
ATOM     54  N   UNL A   1      40.488  32.952  30.510  1.00  0.00    -0.354 N 
ATOM     55  N   UNL A   1      43.292  30.464  30.722  1.00  0.00    -0.248 NA
ATOM     56  C   UNL A   1      45.574  30.262  30.598  1.00  0.00     0.031 C 
ATOM     57  C   UNL A   1      41.013  32.090  32.477  1.00  0.00     0.029 A 
ATOM     58  C   UNL A   1      41.566  32.578  31.303  1.00  0.00     0.049 A 
ATOM     59  H   UNL A   1      40.570  33.414  29.645  1.00  0.00     0.167 HD
ATOM     60  C   UNL A   1      43.775  31.741  30.786  1.00  0.00     0.074 A 
ATOM     61  C   UNL A   1      45.216  31.553  30.733  1.00  0.00     0.031 C 
ATOM     62  C   UNL A   1      42.948  32.831  30.864  1.00  0.00     0.034 A 
BRANCH  49  63
ATOM     63  C   UNL A   1      36.697  32.991  30.586  1.00  0.00     0.023 A 
ATOM     64  C   UNL A   1      35.902  33.775  29.716  1.00  0.00     0.031 A 
ATOM     65  C   UNL A   1      36.095  32.695  31.828  1.00  0.00     0.131 A 
ATOM     66  C   UNL A   1      34.587  34.162  30.041  1.00  0.00     0.055 A 
ATOM     67  C   UNL A   1      34.798  33.113  32.170  1.00  0.00     0.041 A 
ATOM     68  F   UNL A   1      36.721  31.961  32.757  1.00  0.00    -0.206 F 
ATOM     69  C   UNL A   1      34.031  33.838  31.272  1.00  0.00     0.022 A 
BRANCH  66  70
ATOM     70  S   UNL A   1      33.541  35.050  28.844  1.00  0.00     0.124 S 
ATOM     71  O   UNL A   1      34.493  35.963  28.213  1.00  0.00    -0.237 OA
ATOM     72  O   UNL A   1      33.057  33.970  27.990  1.00  0.00    -0.237 OA
ATOM     73  O   UNL A   1      32.528  35.697  29.674  1.00  0.00    -0.744 OA
ENDBRANCH  66  70
ENDBRANCH  49  63
BRANCH  50  74
ATOM     74  C   UNL A   1      44.518  27.174  29.476  1.00  0.00     0.023 A 
ATOM     75  C   UNL A   1      44.436  27.535  28.120  1.00  0.00     0.031 A 
ATOM     76  C   UNL A   1      44.574  25.794  29.786  1.00  0.00     0.131 A 
ATOM     77  C   UNL A   1      44.265  26.530  27.144  1.00  0.00     0.055 A 
ATOM     78  C   UNL A   1      44.350  24.808  28.819  1.00  0.00     0.041 A 
ATOM     79  F   UNL A   1      44.702  25.393  31.062  1.00  0.00    -0.206 F 
ATOM     80  C   UNL A   1      44.150  25.180  27.496  1.00  0.00     0.022 A 
BRANCH  77  81
ATOM     81  S   UNL A   1      44.075  26.973  25.388  1.00  0.00     0.124 S 
ATOM     82  O   UNL A   1      43.393  28.260  25.487  1.00  0.00    -0.237 OA
ATOM     83  O   UNL A   1      45.450  27.039  24.906  1.00  0.00    -0.237 OA
ATOM     84  O   UNL A   1      43.286  25.871  24.851  1.00  0.00    -0.744 OA
ENDBRANCH  77  81
ENDBRANCH  50  74
BRANCH  62  85
ATOM     85  C   UNL A   1      43.350  34.271  30.597  1.00  0.00     0.023 A 
ATOM     86  C   UNL A   1      43.688  35.091  31.704  1.00  0.00     0.031 A 
ATOM     87  C   UNL A   1      43.268  34.934  29.361  1.00  0.00     0.131 A 
ATOM     88  C   UNL A   1      43.878  36.471  31.573  1.00  0.00     0.055 A 
ATOM     89  C   UNL A   1      43.575  36.292  29.212  1.00  0.00     0.041 A 
ATOM     90  F   UNL A   1      42.820  34.332  28.253  1.00  0.00    -0.206 F 
ATOM     91  C   UNL A   1      43.861  37.072  30.322  1.00  0.00     0.022 A 
BRANCH  88  92
ATOM     92  S   UNL A   1      43.962  37.534  33.042  1.00  0.00     0.124 S 
ATOM     93  O   UNL A   1      42.782  37.104  33.785  1.00  0.00    -0.237 OA
ATOM     94  O   UNL A   1      45.246  37.149  33.625  1.00  0.00    -0.237 OA
ATOM     95  O   UNL A   1      43.913  38.885  32.495  1.00  0.00    -0.744 OA
ENDBRANCH  88  92
ENDBRANCH  62  85
ENDBRANCH  36  37
ENDBRANCH  28  31
ENDBRANCH  26  27
ENDBRANCH   1  26
TORSDOF 16
ENDMDL
