MODEL 1
REMARK VINA RESULT:     -12.7      0.000      0.000
REMARK SMILES CC[NH+]1CCN(c2ccc(NC(=O)C3CCCC3)c(C(=O)NCCCNC(=O)c3ccc(-c4c5nc(c(-c6cc(S(=O)(=O)[O-])ccc6F)c6ccc([nH]6)c(-c6cc(S(=O)(=O)[O-])ccc6F)c6nc(c(-c7cc(S(=O)(=O)[O-])ccc7F)c7ccc4[nH]7)C=C6)C=C5)cc3)c2)CC1
REMARK SMILES IDX 24 1 23 2 22 3 20 4 21 5 19 7 7 8 8 9 92 10 9 11 10 12 6 13
REMARK SMILES IDX 3 14 4 15 94 16 5 18 93 19 2 20 1 21 11 22 12 23 13 25 14 26
REMARK SMILES IDX 15 27 18 28 16 29 17 30 25 31 26 32 27 33 28 35 29 36 30 37
REMARK SMILES IDX 91 38 31 39 90 40 32 41 33 42 34 43 84 44 35 45 89 46 83 47
REMARK SMILES IDX 85 48 36 49 88 50 82 51 81 52 37 54 69 55 49 56 68 57 50 58
REMARK SMILES IDX 53 59 67 60 86 61 51 62 52 63 66 65 87 66 54 67 38 68 39 69
REMARK SMILES IDX 47 70 40 71 46 72 48 73 45 74 41 75 42 76 43 77 44 78 70 79
REMARK SMILES IDX 71 80 79 81 72 82 78 83 80 84 77 85 73 86 74 87 75 88 76 89
REMARK SMILES IDX 55 90 56 91 64 92 57 93 63 94 65 95 62 96 58 97 59 98 60 99
REMARK SMILES IDX 61 100
REMARK H PARENT 22 6 3 17 11 24 26 34 85 53 53 64
REMARK Flexibility Score: inf
ROOT
ATOM      1  C   UNL A   1      35.201  22.750  26.120  1.00  0.00     0.042 C 
ENDROOT
BRANCH   1   2
ATOM      2  C   UNL A   1      34.541  24.113  25.972  1.00  0.00     0.118 C 
BRANCH   2   3
ATOM      3  N   UNL A   1      33.252  24.281  26.650  1.00  0.00    -0.352 N 
ATOM      4  C   UNL A   1      32.000  23.717  26.461  1.00  0.00     0.253 C 
ATOM      5  O   UNL A   1      31.099  23.992  27.254  1.00  0.00    -0.269 OA
ATOM      6  H   UNL A   1      33.282  24.928  27.392  1.00  0.00     0.163 HD
BRANCH   4   7
ATOM      7  C   UNL A   1      31.682  22.911  25.253  1.00  0.00     0.065 A 
ATOM      8  C   UNL A   1      32.393  20.979  23.944  1.00  0.00     0.038 A 
ATOM      9  C   UNL A   1      32.185  21.791  22.819  1.00  0.00     0.028 A 
ATOM     10  C   UNL A   1      32.071  21.573  25.165  1.00  0.00     0.042 A 
ATOM     11  C   UNL A   1      31.591  23.048  22.900  1.00  0.00     0.029 A 
ATOM     12  C   UNL A   1      31.155  23.519  24.114  1.00  0.00     0.054 A 
BRANCH   8  13
ATOM     13  N   UNL A   1      32.938  19.716  23.848  1.00  0.00    -0.360 N 
ATOM     14  N   UNL A   1      32.804  16.818  24.435  1.00  0.00    -0.332 N 
ATOM     15  C   UNL A   1      32.897  17.866  25.465  1.00  0.00     0.283 C 
ATOM     16  C   UNL A   1      32.122  17.408  23.253  1.00  0.00     0.283 C 
ATOM     17  H   UNL A   1      32.271  16.042  24.826  1.00  0.00     0.348 HD
ATOM     18  C   UNL A   1      33.657  19.113  24.982  1.00  0.00     0.178 C 
ATOM     19  C   UNL A   1      32.710  18.759  22.738  1.00  0.00     0.178 C 
BRANCH  14  20
ATOM     20  C   UNL A   1      34.093  16.211  24.061  1.00  0.00     0.258 C 
ATOM     21  C   UNL A   1      35.012  15.798  25.213  1.00  0.00     0.071 C 
ENDBRANCH  14  20
ENDBRANCH   8  13
BRANCH  12  22
ATOM     22  N   UNL A   1      30.191  24.531  24.184  1.00  0.00    -0.325 N 
ATOM     23  C   UNL A   1      30.305  25.878  24.387  1.00  0.00     0.227 C 
ATOM     24  H   UNL A   1      29.266  24.217  24.066  1.00  0.00     0.169 HD
ATOM     25  O   UNL A   1      29.239  26.498  24.541  1.00  0.00    -0.274 OA
BRANCH  23  26
ATOM     26  C   UNL A   1      31.602  26.736  24.304  1.00  0.00     0.079 C 
ATOM     27  C   UNL A   1      32.874  26.391  23.542  1.00  0.00     0.013 C 
ATOM     28  C   UNL A   1      31.262  28.111  23.688  1.00  0.00     0.013 C 
ATOM     29  C   UNL A   1      33.651  27.693  23.460  1.00  0.00     0.001 C 
ATOM     30  C   UNL A   1      32.580  28.739  23.221  1.00  0.00     0.001 C 
ENDBRANCH  23  26
ENDBRANCH  12  22
ENDBRANCH   4   7
ENDBRANCH   2   3
ENDBRANCH   1   2
BRANCH   1  31
ATOM     31  C   UNL A   1      36.105  22.349  24.968  1.00  0.00     0.118 C 
BRANCH  31  32
ATOM     32  N   UNL A   1      36.984  21.233  25.296  1.00  0.00    -0.352 N 
ATOM     33  C   UNL A   1      38.281  21.194  25.751  1.00  0.00     0.251 C 
ATOM     34  H   UNL A   1      36.575  20.346  25.167  1.00  0.00     0.163 HD
ATOM     35  O   UNL A   1      38.876  20.120  25.745  1.00  0.00    -0.269 OA
BRANCH  33  36
ATOM     36  C   UNL A   1      38.968  22.420  26.220  1.00  0.00     0.039 A 
ATOM     37  C   UNL A   1      40.044  22.301  27.106  1.00  0.00     0.014 A 
ATOM     38  C   UNL A   1      38.542  23.687  25.823  1.00  0.00     0.014 A 
ATOM     39  C   UNL A   1      40.736  23.444  27.521  1.00  0.00     0.010 A 
ATOM     40  C   UNL A   1      39.296  24.810  26.145  1.00  0.00     0.010 A 
ATOM     41  C   UNL A   1      40.398  24.705  27.006  1.00  0.00    -0.014 A 
BRANCH  41  42
ATOM     42  C   UNL A   1      41.165  25.928  27.362  1.00  0.00     0.031 A 
ATOM     43  C   UNL A   1      40.523  27.003  28.201  1.00  0.00     0.074 A 
ATOM     44  C   UNL A   1      42.408  26.106  26.871  1.00  0.00     0.049 A 
ATOM     45  N   UNL A   1      40.983  28.183  28.532  1.00  0.00    -0.248 NA
ATOM     46  C   UNL A   1      39.168  26.729  28.701  1.00  0.00     0.031 C 
ATOM     47  C   UNL A   1      43.121  25.157  26.011  1.00  0.00     0.029 A 
ATOM     48  N   UNL A   1      43.292  27.147  27.013  1.00  0.00    -0.354 N 
ATOM     49  C   UNL A   1      39.967  28.796  29.259  1.00  0.00     0.074 A 
ATOM     50  C   UNL A   1      38.844  27.885  29.259  1.00  0.00     0.031 C 
ATOM     51  C   UNL A   1      44.340  25.644  25.732  1.00  0.00     0.029 A 
ATOM     52  C   UNL A   1      44.480  26.962  26.342  1.00  0.00     0.049 A 
ATOM     53  H   UNL A   1      43.095  27.951  27.545  1.00  0.00     0.167 HD
ATOM     54  C   UNL A   1      39.980  29.996  29.892  1.00  0.00     0.034 A 
ATOM     55  C   UNL A   1      45.553  27.770  26.217  1.00  0.00     0.034 A 
ATOM     56  C   UNL A   1      41.118  30.883  29.898  1.00  0.00     0.049 A 
ATOM     57  C   UNL A   1      45.535  29.110  26.909  1.00  0.00     0.074 A 
ATOM     58  C   UNL A   1      41.264  32.093  30.553  1.00  0.00     0.029 A 
ATOM     59  N   UNL A   1      42.304  30.661  29.207  1.00  0.00    -0.354 N 
ATOM     60  N   UNL A   1      44.585  29.652  27.637  1.00  0.00    -0.248 NA
ATOM     61  C   UNL A   1      46.736  29.942  26.770  1.00  0.00     0.031 C 
ATOM     62  C   UNL A   1      42.503  32.636  30.199  1.00  0.00     0.029 A 
ATOM     63  C   UNL A   1      43.171  31.726  29.394  1.00  0.00     0.049 A 
ATOM     64  H   UNL A   1      42.500  29.862  28.665  1.00  0.00     0.167 HD
ATOM     65  C   UNL A   1      45.091  30.874  28.071  1.00  0.00     0.074 A 
ATOM     66  C   UNL A   1      46.434  30.979  27.535  1.00  0.00     0.031 C 
ATOM     67  C   UNL A   1      44.503  31.822  28.845  1.00  0.00     0.034 A 
BRANCH  54  68
ATOM     68  C   UNL A   1      38.718  30.421  30.607  1.00  0.00     0.023 A 
ATOM     69  C   UNL A   1      37.671  31.076  29.935  1.00  0.00     0.031 A 
ATOM     70  C   UNL A   1      38.568  30.193  31.986  1.00  0.00     0.131 A 
ATOM     71  C   UNL A   1      36.563  31.551  30.653  1.00  0.00     0.055 A 
ATOM     72  C   UNL A   1      37.422  30.589  32.680  1.00  0.00     0.041 A 
ATOM     73  F   UNL A   1      39.541  29.593  32.690  1.00  0.00    -0.206 F 
ATOM     74  C   UNL A   1      36.418  31.287  32.017  1.00  0.00     0.022 A 
BRANCH  71  75
ATOM     75  S   UNL A   1      35.393  32.651  29.810  1.00  0.00     0.124 S 
ATOM     76  O   UNL A   1      34.352  32.804  30.824  1.00  0.00    -0.237 OA
ATOM     77  O   UNL A   1      36.206  33.832  29.545  1.00  0.00    -0.237 OA
ATOM     78  O   UNL A   1      34.995  31.889  28.629  1.00  0.00    -0.744 OA
ENDBRANCH  71  75
ENDBRANCH  54  68
BRANCH  55  79
ATOM     79  C   UNL A   1      46.731  27.346  25.405  1.00  0.00     0.023 A 
ATOM     80  C   UNL A   1      46.934  27.847  24.109  1.00  0.00     0.031 A 
ATOM     81  C   UNL A   1      47.649  26.400  25.894  1.00  0.00     0.131 A 
ATOM     82  C   UNL A   1      47.995  27.364  23.329  1.00  0.00     0.055 A 
ATOM     83  C   UNL A   1      48.738  25.966  25.136  1.00  0.00     0.041 A 
ATOM     84  F   UNL A   1      47.506  25.889  27.128  1.00  0.00    -0.206 F 
ATOM     85  C   UNL A   1      48.908  26.438  23.839  1.00  0.00     0.022 A 
BRANCH  82  86
ATOM     86  S   UNL A   1      48.110  27.891  21.596  1.00  0.00     0.124 S 
ATOM     87  O   UNL A   1      48.279  26.616  20.910  1.00  0.00    -0.237 OA
ATOM     88  O   UNL A   1      46.829  28.561  21.399  1.00  0.00    -0.237 OA
ATOM     89  O   UNL A   1      49.279  28.768  21.584  1.00  0.00    -0.744 OA
ENDBRANCH  82  86
ENDBRANCH  55  79
BRANCH  67  90
ATOM     90  C   UNL A   1      45.334  33.032  29.200  1.00  0.00     0.023 A 
ATOM     91  C   UNL A   1      45.333  34.193  28.406  1.00  0.00     0.031 A 
ATOM     92  C   UNL A   1      46.146  33.019  30.349  1.00  0.00     0.131 A 
ATOM     93  C   UNL A   1      46.171  35.267  28.739  1.00  0.00     0.055 A 
ATOM     94  C   UNL A   1      46.925  34.117  30.713  1.00  0.00     0.041 A 
ATOM     95  F   UNL A   1      46.189  31.936  31.143  1.00  0.00    -0.206 F 
ATOM     96  C   UNL A   1      46.952  35.244  29.898  1.00  0.00     0.022 A 
BRANCH  93  97
ATOM     97  S   UNL A   1      46.307  36.657  27.581  1.00  0.00     0.124 S 
ATOM     98  O   UNL A   1      47.399  37.431  28.163  1.00  0.00    -0.237 OA
ATOM     99  O   UNL A   1      46.602  35.985  26.321  1.00  0.00    -0.237 OA
ATOM    100  O   UNL A   1      44.992  37.291  27.652  1.00  0.00    -0.744 OA
ENDBRANCH  93  97
ENDBRANCH  67  90
ENDBRANCH  41  42
ENDBRANCH  33  36
ENDBRANCH  31  32
ENDBRANCH   1  31
TORSDOF 17
ENDMDL
MODEL 2
REMARK VINA RESULT:     -12.7      5.220     10.607
REMARK SMILES CC[NH+]1CCN(c2ccc(NC(=O)C3CCCC3)c(C(=O)NCCCNC(=O)c3ccc(-c4c5nc(c(-c6cc(S(=O)(=O)[O-])ccc6F)c6ccc([nH]6)c(-c6cc(S(=O)(=O)[O-])ccc6F)c6nc(c(-c7cc(S(=O)(=O)[O-])ccc7F)c7ccc4[nH]7)C=C6)C=C5)cc3)c2)CC1
REMARK SMILES IDX 24 1 23 2 22 3 20 4 21 5 19 7 7 8 8 9 92 10 9 11 10 12 6 13
REMARK SMILES IDX 3 14 4 15 94 16 5 18 93 19 2 20 1 21 11 22 12 23 13 25 14 26
REMARK SMILES IDX 15 27 18 28 16 29 17 30 25 31 26 32 27 33 28 35 29 36 30 37
REMARK SMILES IDX 91 38 31 39 90 40 32 41 33 42 34 43 84 44 35 45 89 46 83 47
REMARK SMILES IDX 85 48 36 49 88 50 82 51 81 52 37 54 69 55 49 56 68 57 50 58
REMARK SMILES IDX 53 59 67 60 86 61 51 62 52 63 66 65 87 66 54 67 38 68 39 69
REMARK SMILES IDX 47 70 40 71 46 72 48 73 45 74 41 75 42 76 43 77 44 78 70 79
REMARK SMILES IDX 71 80 79 81 72 82 78 83 80 84 77 85 73 86 74 87 75 88 76 89
REMARK SMILES IDX 55 90 56 91 64 92 57 93 63 94 65 95 62 96 58 97 59 98 60 99
REMARK SMILES IDX 61 100
REMARK H PARENT 22 6 3 17 11 24 26 34 85 53 53 64
REMARK Flexibility Score: inf
ROOT
ATOM      1  C   UNL A   1      32.674  27.931  25.555  1.00  0.00     0.042 C 
ENDROOT
BRANCH   1   2
ATOM      2  C   UNL A   1      33.479  26.641  25.544  1.00  0.00     0.118 C 
BRANCH   2   3
ATOM      3  N   UNL A   1      33.910  26.164  24.226  1.00  0.00    -0.352 N 
ATOM      4  C   UNL A   1      33.301  26.134  22.981  1.00  0.00     0.253 C 
ATOM      5  O   UNL A   1      33.949  25.740  22.012  1.00  0.00    -0.269 OA
ATOM      6  H   UNL A   1      34.819  25.785  24.225  1.00  0.00     0.163 HD
BRANCH   4   7
ATOM      7  C   UNL A   1      31.852  26.426  22.815  1.00  0.00     0.065 A 
ATOM      8  C   UNL A   1      30.192  28.213  22.899  1.00  0.00     0.038 A 
ATOM      9  C   UNL A   1      29.395  27.300  23.607  1.00  0.00     0.028 A 
ATOM     10  C   UNL A   1      31.418  27.708  22.466  1.00  0.00     0.042 A 
ATOM     11  C   UNL A   1      29.743  25.962  23.762  1.00  0.00     0.029 A 
ATOM     12  C   UNL A   1      30.892  25.485  23.181  1.00  0.00     0.054 A 
BRANCH   8  13
ATOM     13  N   UNL A   1      29.816  29.525  22.710  1.00  0.00    -0.360 N 
ATOM     14  N   UNL A   1      27.696  31.542  22.261  1.00  0.00    -0.332 N 
ATOM     15  C   UNL A   1      28.013  30.452  21.322  1.00  0.00     0.283 C 
ATOM     16  C   UNL A   1      28.055  31.078  23.626  1.00  0.00     0.283 C 
ATOM     17  H   UNL A   1      26.699  31.742  22.184  1.00  0.00     0.348 HD
ATOM     18  C   UNL A   1      29.491  30.035  21.367  1.00  0.00     0.178 C 
ATOM     19  C   UNL A   1      29.494  30.495  23.786  1.00  0.00     0.178 C 
BRANCH  14  20
ATOM     20  C   UNL A   1      28.341  32.828  21.946  1.00  0.00     0.258 C 
ATOM     21  C   UNL A   1      28.946  33.595  23.124  1.00  0.00     0.071 C 
ENDBRANCH  14  20
ENDBRANCH   8  13
BRANCH  12  22
ATOM     22  N   UNL A   1      31.054  24.116  22.935  1.00  0.00    -0.325 N 
ATOM     23  C   UNL A   1      31.703  23.140  23.638  1.00  0.00     0.227 C 
ATOM     24  H   UNL A   1      30.624  23.801  22.108  1.00  0.00     0.169 HD
ATOM     25  O   UNL A   1      31.791  22.034  23.079  1.00  0.00    -0.274 OA
BRANCH  23  26
ATOM     26  C   UNL A   1      32.213  23.219  25.107  1.00  0.00     0.079 C 
ATOM     27  C   UNL A   1      31.425  22.877  26.364  1.00  0.00     0.013 C 
ATOM     28  C   UNL A   1      33.434  22.287  25.270  1.00  0.00     0.013 C 
ATOM     29  C   UNL A   1      32.468  22.743  27.459  1.00  0.00     0.001 C 
ATOM     30  C   UNL A   1      33.628  22.051  26.773  1.00  0.00     0.001 C 
ENDBRANCH  23  26
ENDBRANCH  12  22
ENDBRANCH   4   7
ENDBRANCH   2   3
ENDBRANCH   1   2
BRANCH   1  31
ATOM     31  C   UNL A   1      33.446  29.170  25.138  1.00  0.00     0.118 C 
BRANCH  31  32
ATOM     32  N   UNL A   1      32.917  30.396  25.724  1.00  0.00    -0.352 N 
ATOM     33  C   UNL A   1      33.296  31.117  26.833  1.00  0.00     0.251 C 
ATOM     34  H   UNL A   1      32.148  30.776  25.240  1.00  0.00     0.163 HD
ATOM     35  O   UNL A   1      32.550  32.001  27.244  1.00  0.00    -0.269 OA
BRANCH  33  36
ATOM     36  C   UNL A   1      34.564  30.827  27.541  1.00  0.00     0.039 A 
ATOM     37  C   UNL A   1      35.491  31.858  27.727  1.00  0.00     0.014 A 
ATOM     38  C   UNL A   1      34.864  29.542  27.992  1.00  0.00     0.014 A 
ATOM     39  C   UNL A   1      36.673  31.614  28.436  1.00  0.00     0.010 A 
ATOM     40  C   UNL A   1      35.983  29.327  28.791  1.00  0.00     0.010 A 
ATOM     41  C   UNL A   1      36.906  30.357  29.017  1.00  0.00    -0.014 A 
BRANCH  41  42
ATOM     42  C   UNL A   1      38.112  30.090  29.845  1.00  0.00     0.031 A 
ATOM     43  C   UNL A   1      39.202  29.191  29.321  1.00  0.00     0.074 A 
ATOM     44  C   UNL A   1      38.190  30.591  31.095  1.00  0.00     0.049 A 
ATOM     45  N   UNL A   1      40.278  28.753  29.924  1.00  0.00    -0.248 NA
ATOM     46  C   UNL A   1      39.043  28.691  27.948  1.00  0.00     0.031 C 
ATOM     47  C   UNL A   1      37.177  31.437  31.731  1.00  0.00     0.029 A 
ATOM     48  N   UNL A   1      39.159  30.457  32.059  1.00  0.00    -0.354 N 
ATOM     49  C   UNL A   1      40.908  27.911  29.014  1.00  0.00     0.074 A 
ATOM     50  C   UNL A   1      40.057  27.846  27.846  1.00  0.00     0.031 C 
ATOM     51  C   UNL A   1      37.593  31.773  32.963  1.00  0.00     0.029 A 
ATOM     52  C   UNL A   1      38.872  31.122  33.230  1.00  0.00     0.049 A 
ATOM     53  H   UNL A   1      39.981  29.933  31.926  1.00  0.00     0.167 HD
ATOM     54  C   UNL A   1      42.099  27.272  29.130  1.00  0.00     0.034 A 
ATOM     55  C   UNL A   1      39.552  31.188  34.392  1.00  0.00     0.034 A 
ATOM     56  C   UNL A   1      42.943  27.363  30.296  1.00  0.00     0.049 A 
ATOM     57  C   UNL A   1      40.863  30.449  34.507  1.00  0.00     0.074 A 
ATOM     58  C   UNL A   1      44.194  26.808  30.500  1.00  0.00     0.029 A 
ATOM     59  N   UNL A   1      42.619  28.048  31.462  1.00  0.00    -0.354 N 
ATOM     60  N   UNL A   1      41.469  29.699  33.615  1.00  0.00    -0.248 NA
ATOM     61  C   UNL A   1      41.582  30.573  35.780  1.00  0.00     0.031 C 
ATOM     62  C   UNL A   1      44.591  27.092  31.810  1.00  0.00     0.029 A 
ATOM     63  C   UNL A   1      43.630  27.900  32.398  1.00  0.00     0.049 A 
ATOM     64  H   UNL A   1      41.792  28.564  31.602  1.00  0.00     0.167 HD
ATOM     65  C   UNL A   1      42.660  29.292  34.210  1.00  0.00     0.074 A 
ATOM     66  C   UNL A   1      42.690  29.893  35.529  1.00  0.00     0.031 C 
ATOM     67  C   UNL A   1      43.643  28.498  33.713  1.00  0.00     0.034 A 
BRANCH  54  68
ATOM     68  C   UNL A   1      42.540  26.403  27.974  1.00  0.00     0.023 A 
ATOM     69  C   UNL A   1      42.180  25.046  27.888  1.00  0.00     0.031 A 
ATOM     70  C   UNL A   1      43.354  26.930  26.955  1.00  0.00     0.131 A 
ATOM     71  C   UNL A   1      42.697  24.247  26.858  1.00  0.00     0.055 A 
ATOM     72  C   UNL A   1      43.792  26.150  25.883  1.00  0.00     0.041 A 
ATOM     73  F   UNL A   1      43.750  28.212  26.991  1.00  0.00    -0.206 F 
ATOM     74  C   UNL A   1      43.479  24.795  25.838  1.00  0.00     0.022 A 
BRANCH  71  75
ATOM     75  S   UNL A   1      42.463  22.451  26.957  1.00  0.00     0.124 S 
ATOM     76  O   UNL A   1      43.731  21.959  26.422  1.00  0.00    -0.237 OA
ATOM     77  O   UNL A   1      42.246  22.239  28.383  1.00  0.00    -0.237 OA
ATOM     78  O   UNL A   1      41.300  22.209  26.105  1.00  0.00    -0.744 OA
ENDBRANCH  71  75
ENDBRANCH  54  68
BRANCH  55  79
ATOM     79  C   UNL A   1      39.015  31.971  35.543  1.00  0.00     0.023 A 
ATOM     80  C   UNL A   1      38.407  31.330  36.634  1.00  0.00     0.031 A 
ATOM     81  C   UNL A   1      39.061  33.376  35.550  1.00  0.00     0.131 A 
ATOM     82  C   UNL A   1      37.825  32.090  37.659  1.00  0.00     0.055 A 
ATOM     83  C   UNL A   1      38.533  34.128  36.602  1.00  0.00     0.041 A 
ATOM     84  F   UNL A   1      39.633  34.043  34.535  1.00  0.00    -0.206 F 
ATOM     85  C   UNL A   1      37.897  33.485  37.659  1.00  0.00     0.022 A 
BRANCH  82  86
ATOM     86  S   UNL A   1      36.882  31.231  38.950  1.00  0.00     0.124 S 
ATOM     87  O   UNL A   1      35.675  32.047  39.027  1.00  0.00    -0.237 OA
ATOM     88  O   UNL A   1      36.722  29.901  38.373  1.00  0.00    -0.237 OA
ATOM     89  O   UNL A   1      37.759  31.301  40.116  1.00  0.00    -0.744 OA
ENDBRANCH  82  86
ENDBRANCH  55  79
BRANCH  67  90
ATOM     90  C   UNL A   1      44.857  28.278  34.583  1.00  0.00     0.023 A 
ATOM     91  C   UNL A   1      44.938  27.205  35.488  1.00  0.00     0.031 A 
ATOM     92  C   UNL A   1      45.947  29.164  34.510  1.00  0.00     0.131 A 
ATOM     93  C   UNL A   1      46.058  27.080  36.324  1.00  0.00     0.055 A 
ATOM     94  C   UNL A   1      47.088  28.995  35.295  1.00  0.00     0.041 A 
ATOM     95  F   UNL A   1      45.923  30.209  33.666  1.00  0.00    -0.206 F 
ATOM     96  C   UNL A   1      47.141  27.956  36.219  1.00  0.00     0.022 A 
BRANCH  93  97
ATOM     97  S   UNL A   1      46.037  25.815  37.624  1.00  0.00     0.124 S 
ATOM     98  O   UNL A   1      47.306  25.130  37.401  1.00  0.00    -0.237 OA
ATOM     99  O   UNL A   1      45.951  26.618  38.839  1.00  0.00    -0.237 OA
ATOM    100  O   UNL A   1      44.845  25.027  37.316  1.00  0.00    -0.744 OA
ENDBRANCH  93  97
ENDBRANCH  67  90
ENDBRANCH  41  42
ENDBRANCH  33  36
ENDBRANCH  31  32
ENDBRANCH   1  31
TORSDOF 17
ENDMDL
MODEL 3
REMARK VINA RESULT:     -12.5      1.945      7.536
REMARK SMILES CC[NH+]1CCN(c2ccc(NC(=O)C3CCCC3)c(C(=O)NCCCNC(=O)c3ccc(-c4c5nc(c(-c6cc(S(=O)(=O)[O-])ccc6F)c6ccc([nH]6)c(-c6cc(S(=O)(=O)[O-])ccc6F)c6nc(c(-c7cc(S(=O)(=O)[O-])ccc7F)c7ccc4[nH]7)C=C6)C=C5)cc3)c2)CC1
REMARK SMILES IDX 24 1 23 2 22 3 20 4 21 5 19 7 7 8 8 9 92 10 9 11 10 12 6 13
REMARK SMILES IDX 3 14 4 15 94 16 5 18 93 19 2 20 1 21 11 22 12 23 13 25 14 26
REMARK SMILES IDX 15 27 18 28 16 29 17 30 25 31 26 32 27 33 28 35 29 36 30 37
REMARK SMILES IDX 91 38 31 39 90 40 32 41 33 42 34 43 84 44 35 45 89 46 83 47
REMARK SMILES IDX 85 48 36 49 88 50 82 51 81 52 37 54 69 55 49 56 68 57 50 58
REMARK SMILES IDX 53 59 67 60 86 61 51 62 52 63 66 65 87 66 54 67 38 68 39 69
REMARK SMILES IDX 47 70 40 71 46 72 48 73 45 74 41 75 42 76 43 77 44 78 70 79
REMARK SMILES IDX 71 80 79 81 72 82 78 83 80 84 77 85 73 86 74 87 75 88 76 89
REMARK SMILES IDX 55 90 56 91 64 92 57 93 63 94 65 95 62 96 58 97 59 98 60 99
REMARK SMILES IDX 61 100
REMARK H PARENT 22 6 3 17 11 24 26 34 85 53 53 64
REMARK Flexibility Score: inf
ROOT
ATOM      1  C   UNL A   1      35.565  23.211  26.145  1.00  0.00     0.042 C 
ENDROOT
BRANCH   1   2
ATOM      2  C   UNL A   1      34.626  24.337  25.743  1.00  0.00     0.118 C 
BRANCH   2   3
ATOM      3  N   UNL A   1      33.396  24.461  26.532  1.00  0.00    -0.352 N 
ATOM      4  C   UNL A   1      32.152  23.854  26.452  1.00  0.00     0.253 C 
ATOM      5  O   UNL A   1      31.315  24.099  27.321  1.00  0.00    -0.269 OA
ATOM      6  H   UNL A   1      33.468  25.110  27.269  1.00  0.00     0.163 HD
BRANCH   4   7
ATOM      7  C   UNL A   1      31.757  23.037  25.275  1.00  0.00     0.065 A 
ATOM      8  C   UNL A   1      32.362  21.067  23.966  1.00  0.00     0.038 A 
ATOM      9  C   UNL A   1      32.116  21.866  22.839  1.00  0.00     0.028 A 
ATOM     10  C   UNL A   1      32.114  21.688  25.190  1.00  0.00     0.042 A 
ATOM     11  C   UNL A   1      31.554  23.137  22.927  1.00  0.00     0.029 A 
ATOM     12  C   UNL A   1      31.188  23.637  24.153  1.00  0.00     0.054 A 
BRANCH   8  13
ATOM     13  N   UNL A   1      32.874  19.792  23.865  1.00  0.00    -0.360 N 
ATOM     14  N   UNL A   1      32.677  16.899  24.460  1.00  0.00    -0.332 N 
ATOM     15  C   UNL A   1      32.810  17.947  25.486  1.00  0.00     0.283 C 
ATOM     16  C   UNL A   1      31.994  17.503  23.287  1.00  0.00     0.283 C 
ATOM     17  H   UNL A   1      32.131  16.137  24.860  1.00  0.00     0.348 HD
ATOM     18  C   UNL A   1      33.593  19.173  24.991  1.00  0.00     0.178 C 
ATOM     19  C   UNL A   1      32.607  18.838  22.760  1.00  0.00     0.178 C 
BRANCH  14  20
ATOM     20  C   UNL A   1      33.945  16.260  24.070  1.00  0.00     0.258 C 
ATOM     21  C   UNL A   1      34.875  15.838  25.210  1.00  0.00     0.071 C 
ENDBRANCH  14  20
ENDBRANCH   8  13
BRANCH  12  22
ATOM     22  N   UNL A   1      30.251  24.672  24.252  1.00  0.00    -0.325 N 
ATOM     23  C   UNL A   1      30.391  26.030  24.182  1.00  0.00     0.227 C 
ATOM     24  H   UNL A   1      29.327  24.367  24.398  1.00  0.00     0.169 HD
ATOM     25  O   UNL A   1      29.377  26.696  24.455  1.00  0.00    -0.274 OA
BRANCH  23  26
ATOM     26  C   UNL A   1      31.626  26.824  23.664  1.00  0.00     0.079 C 
ATOM     27  C   UNL A   1      31.607  28.045  22.754  1.00  0.00     0.013 C 
ATOM     28  C   UNL A   1      32.415  27.377  24.872  1.00  0.00     0.013 C 
ATOM     29  C   UNL A   1      32.994  28.649  22.876  1.00  0.00     0.001 C 
ATOM     30  C   UNL A   1      33.333  28.487  24.344  1.00  0.00     0.001 C 
ENDBRANCH  23  26
ENDBRANCH  12  22
ENDBRANCH   4   7
ENDBRANCH   2   3
ENDBRANCH   1   2
BRANCH   1  31
ATOM     31  C   UNL A   1      36.779  23.040  25.249  1.00  0.00     0.118 C 
BRANCH  31  32
ATOM     32  N   UNL A   1      37.805  22.185  25.835  1.00  0.00    -0.352 N 
ATOM     33  C   UNL A   1      38.991  22.480  26.466  1.00  0.00     0.251 C 
ATOM     34  H   UNL A   1      37.614  21.221  25.767  1.00  0.00     0.163 HD
ATOM     35  O   UNL A   1      39.787  21.571  26.680  1.00  0.00    -0.269 OA
BRANCH  33  36
ATOM     36  C   UNL A   1      39.325  23.868  26.863  1.00  0.00     0.039 A 
ATOM     37  C   UNL A   1      39.082  24.277  28.179  1.00  0.00     0.014 A 
ATOM     38  C   UNL A   1      39.841  24.780  25.944  1.00  0.00     0.014 A 
ATOM     39  C   UNL A   1      39.436  25.568  28.584  1.00  0.00     0.010 A 
ATOM     40  C   UNL A   1      40.295  26.023  26.373  1.00  0.00     0.010 A 
ATOM     41  C   UNL A   1      40.090  26.438  27.697  1.00  0.00    -0.014 A 
BRANCH  41  42
ATOM     42  C   UNL A   1      40.554  27.786  28.121  1.00  0.00     0.031 A 
ATOM     43  C   UNL A   1      42.022  28.123  28.086  1.00  0.00     0.074 A 
ATOM     44  C   UNL A   1      39.666  28.676  28.608  1.00  0.00     0.049 A 
ATOM     45  N   UNL A   1      42.637  29.198  28.508  1.00  0.00    -0.248 NA
ATOM     46  C   UNL A   1      42.922  27.099  27.536  1.00  0.00     0.031 C 
ATOM     47  C   UNL A   1      38.224  28.450  28.734  1.00  0.00     0.029 A 
ATOM     48  N   UNL A   1      39.843  29.948  29.096  1.00  0.00    -0.354 N 
ATOM     49  C   UNL A   1      43.992  28.970  28.294  1.00  0.00     0.074 A 
ATOM     50  C   UNL A   1      44.113  27.627  27.771  1.00  0.00     0.031 C 
ATOM     51  C   UNL A   1      37.646  29.555  29.232  1.00  0.00     0.029 A 
ATOM     52  C   UNL A   1      38.677  30.548  29.515  1.00  0.00     0.049 A 
ATOM     53  H   UNL A   1      40.721  30.389  29.143  1.00  0.00     0.167 HD
ATOM     54  C   UNL A   1      45.038  29.812  28.491  1.00  0.00     0.034 A 
ATOM     55  C   UNL A   1      38.463  31.754  30.079  1.00  0.00     0.034 A 
ATOM     56  C   UNL A   1      44.896  31.156  28.996  1.00  0.00     0.049 A 
ATOM     57  C   UNL A   1      39.644  32.664  30.311  1.00  0.00     0.074 A 
ATOM     58  C   UNL A   1      45.875  32.116  29.178  1.00  0.00     0.029 A 
ATOM     59  N   UNL A   1      43.698  31.729  29.409  1.00  0.00    -0.354 N 
ATOM     60  N   UNL A   1      40.914  32.452  30.054  1.00  0.00    -0.248 NA
ATOM     61  C   UNL A   1      39.360  33.979  30.899  1.00  0.00     0.031 C 
ATOM     62  C   UNL A   1      45.286  33.237  29.770  1.00  0.00     0.029 A 
ATOM     63  C   UNL A   1      43.921  33.015  29.875  1.00  0.00     0.049 A 
ATOM     64  H   UNL A   1      42.819  31.287  29.373  1.00  0.00     0.167 HD
ATOM     65  C   UNL A   1      41.576  33.621  30.418  1.00  0.00     0.074 A 
ATOM     66  C   UNL A   1      40.560  34.538  30.896  1.00  0.00     0.031 C 
ATOM     67  C   UNL A   1      42.900  33.915  30.359  1.00  0.00     0.034 A 
BRANCH  54  68
ATOM     68  C   UNL A   1      46.422  29.291  28.180  1.00  0.00     0.023 A 
ATOM     69  C   UNL A   1      46.819  28.981  26.867  1.00  0.00     0.031 A 
ATOM     70  C   UNL A   1      47.352  29.076  29.212  1.00  0.00     0.131 A 
ATOM     71  C   UNL A   1      48.073  28.398  26.631  1.00  0.00     0.055 A 
ATOM     72  C   UNL A   1      48.633  28.579  28.960  1.00  0.00     0.041 A 
ATOM     73  F   UNL A   1      47.027  29.331  30.489  1.00  0.00    -0.206 F 
ATOM     74  C   UNL A   1      48.995  28.220  27.665  1.00  0.00     0.022 A 
BRANCH  71  75
ATOM     75  S   UNL A   1      48.421  27.733  24.980  1.00  0.00     0.124 S 
ATOM     76  O   UNL A   1      48.337  26.293  25.219  1.00  0.00    -0.237 OA
ATOM     77  O   UNL A   1      47.351  28.311  24.175  1.00  0.00    -0.237 OA
ATOM     78  O   UNL A   1      49.764  28.230  24.685  1.00  0.00    -0.744 OA
ENDBRANCH  71  75
ENDBRANCH  54  68
BRANCH  55  79
ATOM     79  C   UNL A   1      37.087  32.176  30.471  1.00  0.00     0.023 A 
ATOM     80  C   UNL A   1      36.204  32.728  29.529  1.00  0.00     0.031 A 
ATOM     81  C   UNL A   1      36.647  32.075  31.802  1.00  0.00     0.131 A 
ATOM     82  C   UNL A   1      34.949  33.205  29.940  1.00  0.00     0.055 A 
ATOM     83  C   UNL A   1      35.375  32.495  32.195  1.00  0.00     0.041 A 
ATOM     84  F   UNL A   1      37.448  31.552  32.745  1.00  0.00    -0.206 F 
ATOM     85  C   UNL A   1      34.522  33.079  31.263  1.00  0.00     0.022 A 
BRANCH  82  86
ATOM     86  S   UNL A   1      33.917  34.085  28.734  1.00  0.00     0.124 S 
ATOM     87  O   UNL A   1      34.849  35.081  28.218  1.00  0.00    -0.237 OA
ATOM     88  O   UNL A   1      33.547  33.015  27.815  1.00  0.00    -0.237 OA
ATOM     89  O   UNL A   1      32.823  34.614  29.545  1.00  0.00    -0.744 OA
ENDBRANCH  82  86
ENDBRANCH  55  79
BRANCH  67  90
ATOM     90  C   UNL A   1      43.316  35.305  30.776  1.00  0.00     0.023 A 
ATOM     91  C   UNL A   1      43.369  36.371  29.861  1.00  0.00     0.031 A 
ATOM     92  C   UNL A   1      43.673  35.564  32.112  1.00  0.00     0.131 A 
ATOM     93  C   UNL A   1      43.826  37.630  30.280  1.00  0.00     0.055 A 
ATOM     94  C   UNL A   1      44.060  36.834  32.538  1.00  0.00     0.041 A 
ATOM     95  F   UNL A   1      43.644  34.582  33.029  1.00  0.00    -0.206 F 
ATOM     96  C   UNL A   1      44.152  37.873  31.617  1.00  0.00     0.022 A 
BRANCH  93  97
ATOM     97  S   UNL A   1      44.086  38.921  29.033  1.00  0.00     0.124 S 
ATOM     98  O   UNL A   1      42.923  39.780  29.240  1.00  0.00    -0.237 OA
ATOM     99  O   UNL A   1      45.372  39.484  29.430  1.00  0.00    -0.237 OA
ATOM    100  O   UNL A   1      44.094  38.184  27.772  1.00  0.00    -0.744 OA
ENDBRANCH  93  97
ENDBRANCH  67  90
ENDBRANCH  41  42
ENDBRANCH  33  36
ENDBRANCH  31  32
ENDBRANCH   1  31
TORSDOF 17
ENDMDL
