MODEL 1
REMARK VINA RESULT:     -12.3      0.000      0.000
REMARK SMILES CCc1ccc2c(c1)C=C(C(=O)NCCCNC(=O)c1ccc(-c3c4nc(c(-c5cc(S(=O)(=O)[O-])ccc5F)c5ccc([nH]5)c(-c5cc(S(=O)(=O)[O-])ccc5F)c5nc(c(-c6cc(S(=O)(=O)[O-])ccc6F)c6ccc3[nH]6)C=C5)C=C4)cc1)[C@H](C(F)(F)F)O2
REMARK SMILES IDX 16 1 15 2 14 3 13 4 11 5 12 6 10 8 3 9 4 10 8 11 5 12 7 13
REMARK SMILES IDX 6 14 9 15 88 16 83 17 2 18 1 19 84 20 85 21 86 22 87 23
REMARK SMILES IDX 17 24 18 25 19 27 20 28 21 29 82 30 22 31 81 32 23 33 24 34
REMARK SMILES IDX 25 35 75 36 26 37 80 38 74 39 76 40 27 41 79 42 73 43 72 44
REMARK SMILES IDX 28 46 60 47 40 48 59 49 41 50 44 51 58 52 77 53 42 54 43 55
REMARK SMILES IDX 57 57 78 58 45 59 29 60 30 61 38 62 31 63 37 64 39 65 36 66
REMARK SMILES IDX 32 67 33 68 34 69 35 70 61 71 62 72 70 73 63 74 69 75 71 76
REMARK SMILES IDX 68 77 64 78 65 79 66 80 67 81 46 82 47 83 55 84 48 85 54 86
REMARK SMILES IDX 56 87 53 88 49 89 50 90 51 91 52 92
REMARK H PARENT 13 7 17 26 76 45 44 56
REMARK Flexibility Score: inf
ROOT
ATOM      1  C   UNL A   1      36.353  22.161  25.245  1.00  0.00     0.118 C 
ENDROOT
BRANCH   1   2
ATOM      2  C   UNL A   1      35.061  22.017  26.049  1.00  0.00     0.042 C 
BRANCH   2   3
ATOM      3  C   UNL A   1      33.798  22.057  25.184  1.00  0.00     0.118 C 
BRANCH   3   4
ATOM      4  N   UNL A   1      34.059  22.726  23.916  1.00  0.00    -0.352 N 
ATOM      5  C   UNL A   1      33.768  23.966  23.442  1.00  0.00     0.251 C 
ATOM      6  O   UNL A   1      34.028  24.205  22.265  1.00  0.00    -0.270 OA
ATOM      7  H   UNL A   1      34.546  22.165  23.272  1.00  0.00     0.163 HD
BRANCH   5   8
ATOM      8  C   UNL A   1      33.231  25.057  24.295  1.00  0.00     0.067 C 
ATOM      9  C   UNL A   1      33.670  29.021  27.048  1.00  0.00    -0.047 A 
ATOM     10  C   UNL A   1      32.280  29.187  27.003  1.00  0.00     0.007 A 
ATOM     11  C   UNL A   1      34.234  27.909  26.404  1.00  0.00     0.015 A 
ATOM     12  C   UNL A   1      31.475  28.261  26.335  1.00  0.00     0.047 A 
ATOM     13  C   UNL A   1      33.428  26.985  25.727  1.00  0.00     0.017 A 
ATOM     14  C   UNL A   1      32.049  27.165  25.696  1.00  0.00     0.128 A 
ATOM     15  C   UNL A   1      34.028  25.900  24.967  1.00  0.00     0.025 C 
ATOM     16  O   UNL A   1      31.207  26.358  24.994  1.00  0.00    -0.475 OA
ATOM     17  C   UNL A   1      31.719  25.077  24.515  1.00  0.00     0.314 C 
BRANCH   9  18
ATOM     18  C   UNL A   1      34.578  30.049  27.682  1.00  0.00     0.032 C 
ATOM     19  C   UNL A   1      36.059  29.702  27.626  1.00  0.00     0.009 C 
ENDBRANCH   9  18
BRANCH  17  20
ATOM     20  C   UNL A   1      30.833  24.665  23.317  1.00  0.00     0.429 C 
ATOM     21  F   UNL A   1      30.750  23.327  23.153  1.00  0.00    -0.167 F 
ATOM     22  F   UNL A   1      29.549  25.082  23.501  1.00  0.00    -0.167 F 
ATOM     23  F   UNL A   1      31.251  25.211  22.151  1.00  0.00    -0.167 F 
ENDBRANCH  17  20
ENDBRANCH   5   8
ENDBRANCH   3   4
ENDBRANCH   2   3
ENDBRANCH   1   2
BRANCH   1  24
ATOM     24  N   UNL A   1      37.271  21.059  25.493  1.00  0.00    -0.352 N 
ATOM     25  C   UNL A   1      38.599  21.078  25.840  1.00  0.00     0.251 C 
ATOM     26  H   UNL A   1      36.879  20.161  25.395  1.00  0.00     0.163 HD
ATOM     27  O   UNL A   1      39.253  20.044  25.752  1.00  0.00    -0.269 OA
BRANCH  25  28
ATOM     28  C   UNL A   1      39.244  22.330  26.301  1.00  0.00     0.039 A 
ATOM     29  C   UNL A   1      40.313  22.248  27.199  1.00  0.00     0.014 A 
ATOM     30  C   UNL A   1      38.776  23.580  25.887  1.00  0.00     0.014 A 
ATOM     31  C   UNL A   1      40.952  23.413  27.629  1.00  0.00     0.010 A 
ATOM     32  C   UNL A   1      39.455  24.737  26.265  1.00  0.00     0.010 A 
ATOM     33  C   UNL A   1      40.552  24.666  27.136  1.00  0.00    -0.014 A 
BRANCH  33  34
ATOM     34  C   UNL A   1      41.283  25.908  27.499  1.00  0.00     0.031 A 
ATOM     35  C   UNL A   1      40.624  26.962  28.344  1.00  0.00     0.074 A 
ATOM     36  C   UNL A   1      42.517  26.119  26.999  1.00  0.00     0.049 A 
ATOM     37  N   UNL A   1      41.068  28.142  28.695  1.00  0.00    -0.248 NA
ATOM     38  C   UNL A   1      39.273  26.657  28.834  1.00  0.00     0.031 C 
ATOM     39  C   UNL A   1      43.249  25.183  26.144  1.00  0.00     0.029 A 
ATOM     40  N   UNL A   1      43.368  27.186  27.128  1.00  0.00    -0.354 N 
ATOM     41  C   UNL A   1      40.045  28.730  29.433  1.00  0.00     0.074 A 
ATOM     42  C   UNL A   1      38.940  27.793  29.426  1.00  0.00     0.031 C 
ATOM     43  C   UNL A   1      44.452  25.704  25.851  1.00  0.00     0.029 A 
ATOM     44  C   UNL A   1      44.555  27.030  26.451  1.00  0.00     0.049 A 
ATOM     45  H   UNL A   1      43.150  27.988  27.656  1.00  0.00     0.167 HD
ATOM     46  C   UNL A   1      40.037  29.928  30.071  1.00  0.00     0.034 A 
ATOM     47  C   UNL A   1      45.603  27.866  26.316  1.00  0.00     0.034 A 
ATOM     48  C   UNL A   1      41.154  30.845  30.066  1.00  0.00     0.049 A 
ATOM     49  C   UNL A   1      45.551  29.215  26.982  1.00  0.00     0.074 A 
ATOM     50  C   UNL A   1      41.286  32.049  30.738  1.00  0.00     0.029 A 
ATOM     51  N   UNL A   1      42.324  30.672  29.336  1.00  0.00    -0.354 N 
ATOM     52  N   UNL A   1      44.601  29.733  27.726  1.00  0.00    -0.248 NA
ATOM     53  C   UNL A   1      46.713  30.091  26.789  1.00  0.00     0.031 C 
ATOM     54  C   UNL A   1      42.496  32.638  30.352  1.00  0.00     0.029 A 
ATOM     55  C   UNL A   1      43.160  31.767  29.501  1.00  0.00     0.049 A 
ATOM     56  H   UNL A   1      42.530  29.885  28.780  1.00  0.00     0.167 HD
ATOM     57  C   UNL A   1      45.065  30.987  28.112  1.00  0.00     0.074 A 
ATOM     58  C   UNL A   1      46.382  31.141  27.526  1.00  0.00     0.031 C 
ATOM     59  C   UNL A   1      44.460  31.923  28.889  1.00  0.00     0.034 A 
BRANCH  46  60
ATOM     60  C   UNL A   1      38.766  30.322  30.788  1.00  0.00     0.023 A 
ATOM     61  C   UNL A   1      37.829  31.196  30.209  1.00  0.00     0.031 A 
ATOM     62  C   UNL A   1      38.511  29.863  32.093  1.00  0.00     0.131 A 
ATOM     63  C   UNL A   1      36.742  31.664  30.965  1.00  0.00     0.055 A 
ATOM     64  C   UNL A   1      37.377  30.258  32.807  1.00  0.00     0.041 A 
ATOM     65  F   UNL A   1      39.374  29.041  32.710  1.00  0.00    -0.206 F 
ATOM     66  C   UNL A   1      36.495  31.182  32.252  1.00  0.00     0.022 A 
BRANCH  63  67
ATOM     67  S   UNL A   1      35.770  33.049  30.311  1.00  0.00     0.124 S 
ATOM     68  O   UNL A   1      34.403  32.578  30.522  1.00  0.00    -0.237 OA
ATOM     69  O   UNL A   1      36.202  34.160  31.151  1.00  0.00    -0.237 OA
ATOM     70  O   UNL A   1      36.183  33.126  28.911  1.00  0.00    -0.744 OA
ENDBRANCH  63  67
ENDBRANCH  46  60
BRANCH  47  71
ATOM     71  C   UNL A   1      46.791  27.453  25.517  1.00  0.00     0.023 A 
ATOM     72  C   UNL A   1      46.936  27.869  24.184  1.00  0.00     0.031 A 
ATOM     73  C   UNL A   1      47.791  26.633  26.068  1.00  0.00     0.131 A 
ATOM     74  C   UNL A   1      48.041  27.438  23.435  1.00  0.00     0.055 A 
ATOM     75  C   UNL A   1      48.912  26.244  25.332  1.00  0.00     0.041 A 
ATOM     76  F   UNL A   1      47.703  26.217  27.340  1.00  0.00    -0.206 F 
ATOM     77  C   UNL A   1      49.037  26.641  24.004  1.00  0.00     0.022 A 
BRANCH  74  78
ATOM     78  S   UNL A   1      48.133  27.899  21.684  1.00  0.00     0.124 S 
ATOM     79  O   UNL A   1      48.278  26.598  21.042  1.00  0.00    -0.237 OA
ATOM     80  O   UNL A   1      46.859  28.578  21.481  1.00  0.00    -0.237 OA
ATOM     81  O   UNL A   1      49.312  28.762  21.622  1.00  0.00    -0.744 OA
ENDBRANCH  74  78
ENDBRANCH  47  71
BRANCH  59  82
ATOM     82  C   UNL A   1      45.239  33.185  29.169  1.00  0.00     0.023 A 
ATOM     83  C   UNL A   1      45.089  34.338  28.378  1.00  0.00     0.031 A 
ATOM     84  C   UNL A   1      46.156  33.229  30.234  1.00  0.00     0.131 A 
ATOM     85  C   UNL A   1      45.880  35.469  28.632  1.00  0.00     0.055 A 
ATOM     86  C   UNL A   1      46.896  34.377  30.520  1.00  0.00     0.041 A 
ATOM     87  F   UNL A   1      46.344  32.156  31.018  1.00  0.00    -0.206 F 
ATOM     88  C   UNL A   1      46.769  35.501  29.709  1.00  0.00     0.022 A 
BRANCH  85  89
ATOM     89  S   UNL A   1      45.795  36.869  27.483  1.00  0.00     0.124 S 
ATOM     90  O   UNL A   1      47.112  36.826  26.855  1.00  0.00    -0.237 OA
ATOM     91  O   UNL A   1      44.670  36.505  26.629  1.00  0.00    -0.237 OA
ATOM     92  O   UNL A   1      45.562  38.018  28.357  1.00  0.00    -0.744 OA
ENDBRANCH  85  89
ENDBRANCH  59  82
ENDBRANCH  33  34
ENDBRANCH  25  28
ENDBRANCH   1  24
TORSDOF 15
ENDMDL
MODEL 2
REMARK VINA RESULT:     -12.1      5.076     10.226
REMARK SMILES CCc1ccc2c(c1)C=C(C(=O)NCCCNC(=O)c1ccc(-c3c4nc(c(-c5cc(S(=O)(=O)[O-])ccc5F)c5ccc([nH]5)c(-c5cc(S(=O)(=O)[O-])ccc5F)c5nc(c(-c6cc(S(=O)(=O)[O-])ccc6F)c6ccc3[nH]6)C=C5)C=C4)cc1)[C@H](C(F)(F)F)O2
REMARK SMILES IDX 16 1 15 2 14 3 13 4 11 5 12 6 10 8 3 9 4 10 8 11 5 12 7 13
REMARK SMILES IDX 6 14 9 15 88 16 83 17 2 18 1 19 84 20 85 21 86 22 87 23
REMARK SMILES IDX 17 24 18 25 19 27 20 28 21 29 82 30 22 31 81 32 23 33 24 34
REMARK SMILES IDX 25 35 75 36 26 37 80 38 74 39 76 40 27 41 79 42 73 43 72 44
REMARK SMILES IDX 28 46 60 47 40 48 59 49 41 50 44 51 58 52 77 53 42 54 43 55
REMARK SMILES IDX 57 57 78 58 45 59 29 60 30 61 38 62 31 63 37 64 39 65 36 66
REMARK SMILES IDX 32 67 33 68 34 69 35 70 61 71 62 72 70 73 63 74 69 75 71 76
REMARK SMILES IDX 68 77 64 78 65 79 66 80 67 81 46 82 47 83 55 84 48 85 54 86
REMARK SMILES IDX 56 87 53 88 49 89 50 90 51 91 52 92
REMARK H PARENT 13 7 17 26 76 45 44 56
REMARK Flexibility Score: inf
ROOT
ATOM      1  C   UNL A   1      32.769  29.591  25.420  1.00  0.00     0.118 C 
ENDROOT
BRANCH   1   2
ATOM      2  C   UNL A   1      31.713  28.528  25.722  1.00  0.00     0.042 C 
BRANCH   2   3
ATOM      3  C   UNL A   1      32.052  27.661  26.938  1.00  0.00     0.118 C 
BRANCH   3   4
ATOM      4  N   UNL A   1      31.218  26.467  26.972  1.00  0.00    -0.352 N 
ATOM      5  C   UNL A   1      31.289  25.264  26.342  1.00  0.00     0.251 C 
ATOM      6  O   UNL A   1      30.354  24.482  26.493  1.00  0.00    -0.270 OA
ATOM      7  H   UNL A   1      30.444  26.547  27.574  1.00  0.00     0.163 HD
BRANCH   5   8
ATOM      8  C   UNL A   1      32.469  24.829  25.553  1.00  0.00     0.067 C 
ATOM      9  C   UNL A   1      36.816  22.745  25.047  1.00  0.00    -0.047 A 
ATOM     10  C   UNL A   1      36.650  22.773  23.657  1.00  0.00     0.007 A 
ATOM     11  C   UNL A   1      35.809  23.299  25.853  1.00  0.00     0.015 A 
ATOM     12  C   UNL A   1      35.509  23.345  23.088  1.00  0.00     0.047 A 
ATOM     13  C   UNL A   1      34.661  23.865  25.285  1.00  0.00     0.017 A 
ATOM     14  C   UNL A   1      34.516  23.885  23.902  1.00  0.00     0.128 A 
ATOM     15  C   UNL A   1      33.573  24.332  26.128  1.00  0.00     0.025 C 
ATOM     16  O   UNL A   1      33.397  24.344  23.276  1.00  0.00    -0.475 OA
ATOM     17  C   UNL A   1      32.445  25.131  24.055  1.00  0.00     0.314 C 
BRANCH   9  18
ATOM     18  C   UNL A   1      37.992  22.055  25.698  1.00  0.00     0.032 C 
ATOM     19  C   UNL A   1      38.899  22.978  26.500  1.00  0.00     0.009 C 
ENDBRANCH   9  18
BRANCH  17  20
ATOM     20  C   UNL A   1      31.080  25.010  23.340  1.00  0.00     0.429 C 
ATOM     21  F   UNL A   1      30.187  25.942  23.738  1.00  0.00    -0.167 F 
ATOM     22  F   UNL A   1      31.219  25.201  21.998  1.00  0.00    -0.167 F 
ATOM     23  F   UNL A   1      30.518  23.788  23.498  1.00  0.00    -0.167 F 
ENDBRANCH  17  20
ENDBRANCH   5   8
ENDBRANCH   3   4
ENDBRANCH   2   3
ENDBRANCH   1   2
BRANCH   1  24
ATOM     24  N   UNL A   1      32.365  30.905  25.895  1.00  0.00    -0.352 N 
ATOM     25  C   UNL A   1      32.840  31.647  26.949  1.00  0.00     0.251 C 
ATOM     26  H   UNL A   1      31.639  31.328  25.382  1.00  0.00     0.163 HD
ATOM     27  O   UNL A   1      32.193  32.615  27.335  1.00  0.00    -0.269 OA
BRANCH  25  28
ATOM     28  C   UNL A   1      34.106  31.279  27.624  1.00  0.00     0.039 A 
ATOM     29  C   UNL A   1      35.062  32.274  27.854  1.00  0.00     0.014 A 
ATOM     30  C   UNL A   1      34.372  29.959  27.995  1.00  0.00     0.014 A 
ATOM     31  C   UNL A   1      36.253  31.956  28.511  1.00  0.00     0.010 A 
ATOM     32  C   UNL A   1      35.531  29.655  28.707  1.00  0.00     0.010 A 
ATOM     33  C   UNL A   1      36.481  30.651  28.976  1.00  0.00    -0.014 A 
BRANCH  33  34
ATOM     34  C   UNL A   1      37.693  30.314  29.767  1.00  0.00     0.031 A 
ATOM     35  C   UNL A   1      38.761  29.429  29.188  1.00  0.00     0.074 A 
ATOM     36  C   UNL A   1      37.793  30.745  31.040  1.00  0.00     0.049 A 
ATOM     37  N   UNL A   1      39.845  28.958  29.750  1.00  0.00    -0.248 NA
ATOM     38  C   UNL A   1      38.565  28.992  27.799  1.00  0.00     0.031 C 
ATOM     39  C   UNL A   1      36.808  31.586  31.723  1.00  0.00     0.029 A 
ATOM     40  N   UNL A   1      38.760  30.531  31.989  1.00  0.00    -0.354 N 
ATOM     41  C   UNL A   1      40.455  28.156  28.791  1.00  0.00     0.074 A 
ATOM     42  C   UNL A   1      39.583  28.162  27.633  1.00  0.00     0.031 C 
ATOM     43  C   UNL A   1      37.236  31.841  32.970  1.00  0.00     0.029 A 
ATOM     44  C   UNL A   1      38.497  31.141  33.193  1.00  0.00     0.049 A 
ATOM     45  H   UNL A   1      39.567  29.992  31.823  1.00  0.00     0.167 HD
ATOM     46  C   UNL A   1      41.637  27.493  28.864  1.00  0.00     0.034 A 
ATOM     47  C   UNL A   1      39.185  31.126  34.352  1.00  0.00     0.034 A 
ATOM     48  C   UNL A   1      42.491  27.504  30.029  1.00  0.00     0.049 A 
ATOM     49  C   UNL A   1      40.465  30.337  34.430  1.00  0.00     0.074 A 
ATOM     50  C   UNL A   1      43.743  26.933  30.188  1.00  0.00     0.029 A 
ATOM     51  N   UNL A   1      42.173  28.099  31.244  1.00  0.00    -0.354 N 
ATOM     52  N   UNL A   1      41.059  29.630  33.496  1.00  0.00    -0.248 NA
ATOM     53  C   UNL A   1      41.165  30.344  35.720  1.00  0.00     0.031 C 
ATOM     54  C   UNL A   1      44.143  27.114  31.517  1.00  0.00     0.029 A 
ATOM     55  C   UNL A   1      43.179  27.867  32.171  1.00  0.00     0.049 A 
ATOM     56  H   UNL A   1      41.350  28.611  31.422  1.00  0.00     0.167 HD
ATOM     57  C   UNL A   1      42.218  29.130  34.081  1.00  0.00     0.074 A 
ATOM     58  C   UNL A   1      42.243  29.625  35.443  1.00  0.00     0.031 C 
ATOM     59  C   UNL A   1      43.180  28.341  33.536  1.00  0.00     0.034 A 
BRANCH  46  60
ATOM     60  C   UNL A   1      42.045  26.672  27.661  1.00  0.00     0.023 A 
ATOM     61  C   UNL A   1      41.964  25.268  27.659  1.00  0.00     0.031 A 
ATOM     62  C   UNL A   1      42.576  27.297  26.518  1.00  0.00     0.131 A 
ATOM     63  C   UNL A   1      42.500  24.534  26.590  1.00  0.00     0.055 A 
ATOM     64  C   UNL A   1      43.021  26.563  25.415  1.00  0.00     0.041 A 
ATOM     65  F   UNL A   1      42.698  28.632  26.462  1.00  0.00    -0.206 F 
ATOM     66  C   UNL A   1      43.005  25.172  25.455  1.00  0.00     0.022 A 
BRANCH  63  67
ATOM     67  S   UNL A   1      42.696  22.741  26.788  1.00  0.00     0.124 S 
ATOM     68  O   UNL A   1      41.966  22.497  28.029  1.00  0.00    -0.237 OA
ATOM     69  O   UNL A   1      42.083  22.222  25.571  1.00  0.00    -0.237 OA
ATOM     70  O   UNL A   1      44.145  22.564  26.883  1.00  0.00    -0.744 OA
ENDBRANCH  63  67
ENDBRANCH  46  60
BRANCH  47  71
ATOM     71  C   UNL A   1      38.680  31.883  35.531  1.00  0.00     0.023 A 
ATOM     72  C   UNL A   1      38.122  31.208  36.628  1.00  0.00     0.031 A 
ATOM     73  C   UNL A   1      38.738  33.287  35.577  1.00  0.00     0.131 A 
ATOM     74  C   UNL A   1      37.616  31.938  37.713  1.00  0.00     0.055 A 
ATOM     75  C   UNL A   1      38.274  34.007  36.679  1.00  0.00     0.041 A 
ATOM     76  F   UNL A   1      39.270  33.978  34.557  1.00  0.00    -0.206 F 
ATOM     77  C   UNL A   1      37.701  33.332  37.752  1.00  0.00     0.022 A 
BRANCH  74  78
ATOM     78  S   UNL A   1      36.797  31.038  39.058  1.00  0.00     0.124 S 
ATOM     79  O   UNL A   1      36.650  29.708  38.478  1.00  0.00    -0.237 OA
ATOM     80  O   UNL A   1      37.766  31.164  40.141  1.00  0.00    -0.237 OA
ATOM     81  O   UNL A   1      35.551  31.778  39.252  1.00  0.00    -0.744 OA
ENDBRANCH  74  78
ENDBRANCH  47  71
BRANCH  59  82
ATOM     82  C   UNL A   1      44.355  27.991  34.417  1.00  0.00     0.023 A 
ATOM     83  C   UNL A   1      44.381  26.812  35.182  1.00  0.00     0.031 A 
ATOM     84  C   UNL A   1      45.459  28.859  34.502  1.00  0.00     0.131 A 
ATOM     85  C   UNL A   1      45.464  26.556  36.038  1.00  0.00     0.055 A 
ATOM     86  C   UNL A   1      46.561  28.570  35.308  1.00  0.00     0.041 A 
ATOM     87  F   UNL A   1      45.486  30.001  33.798  1.00  0.00    -0.206 F 
ATOM     88  C   UNL A   1      46.561  27.419  36.092  1.00  0.00     0.022 A 
BRANCH  85  89
ATOM     89  S   UNL A   1      45.381  25.124  37.147  1.00  0.00     0.124 S 
ATOM     90  O   UNL A   1      44.837  25.715  38.366  1.00  0.00    -0.237 OA
ATOM     91  O   UNL A   1      44.490  24.221  36.425  1.00  0.00    -0.237 OA
ATOM     92  O   UNL A   1      46.770  24.679  37.239  1.00  0.00    -0.744 OA
ENDBRANCH  85  89
ENDBRANCH  59  82
ENDBRANCH  33  34
ENDBRANCH  25  28
ENDBRANCH   1  24
TORSDOF 15
ENDMDL
MODEL 3
REMARK VINA RESULT:     -12.0      4.884      9.866
REMARK SMILES CCc1ccc2c(c1)C=C(C(=O)NCCCNC(=O)c1ccc(-c3c4nc(c(-c5cc(S(=O)(=O)[O-])ccc5F)c5ccc([nH]5)c(-c5cc(S(=O)(=O)[O-])ccc5F)c5nc(c(-c6cc(S(=O)(=O)[O-])ccc6F)c6ccc3[nH]6)C=C5)C=C4)cc1)[C@H](C(F)(F)F)O2
REMARK SMILES IDX 16 1 15 2 14 3 13 4 11 5 12 6 10 8 3 9 4 10 8 11 5 12 7 13
REMARK SMILES IDX 6 14 9 15 88 16 83 17 2 18 1 19 84 20 85 21 86 22 87 23
REMARK SMILES IDX 17 24 18 25 19 27 20 28 21 29 82 30 22 31 81 32 23 33 24 34
REMARK SMILES IDX 25 35 75 36 26 37 80 38 74 39 76 40 27 41 79 42 73 43 72 44
REMARK SMILES IDX 28 46 60 47 40 48 59 49 41 50 44 51 58 52 77 53 42 54 43 55
REMARK SMILES IDX 57 57 78 58 45 59 29 60 30 61 38 62 31 63 37 64 39 65 36 66
REMARK SMILES IDX 32 67 33 68 34 69 35 70 61 71 62 72 70 73 63 74 69 75 71 76
REMARK SMILES IDX 68 77 64 78 65 79 66 80 67 81 46 82 47 83 55 84 48 85 54 86
REMARK SMILES IDX 56 87 53 88 49 89 50 90 51 91 52 92
REMARK H PARENT 13 7 17 26 76 45 44 56
REMARK Flexibility Score: inf
ROOT
ATOM      1  C   UNL A   1      32.808  29.203  25.837  1.00  0.00     0.118 C 
ENDROOT
BRANCH   1   2
ATOM      2  C   UNL A   1      32.718  28.885  24.345  1.00  0.00     0.042 C 
BRANCH   2   3
ATOM      3  C   UNL A   1      31.660  27.830  24.010  1.00  0.00     0.118 C 
BRANCH   3   4
ATOM      4  N   UNL A   1      31.246  27.112  25.208  1.00  0.00    -0.352 N 
ATOM      5  C   UNL A   1      31.592  25.910  25.739  1.00  0.00     0.251 C 
ATOM      6  O   UNL A   1      30.973  25.519  26.726  1.00  0.00    -0.270 OA
ATOM      7  H   UNL A   1      30.578  27.598  25.743  1.00  0.00     0.163 HD
BRANCH   5   8
ATOM      8  C   UNL A   1      32.726  25.095  25.233  1.00  0.00     0.067 C 
ATOM      9  C   UNL A   1      37.256  23.381  25.420  1.00  0.00    -0.047 A 
ATOM     10  C   UNL A   1      36.925  22.446  24.431  1.00  0.00     0.007 A 
ATOM     11  C   UNL A   1      36.276  24.300  25.826  1.00  0.00     0.015 A 
ATOM     12  C   UNL A   1      35.651  22.435  23.860  1.00  0.00     0.047 A 
ATOM     13  C   UNL A   1      34.995  24.285  25.260  1.00  0.00     0.017 A 
ATOM     14  C   UNL A   1      34.688  23.350  24.277  1.00  0.00     0.128 A 
ATOM     15  C   UNL A   1      33.954  25.164  25.767  1.00  0.00     0.025 C 
ATOM     16  O   UNL A   1      33.445  23.218  23.737  1.00  0.00    -0.475 OA
ATOM     17  C   UNL A   1      32.480  24.291  23.957  1.00  0.00     0.314 C 
BRANCH   9  18
ATOM     18  C   UNL A   1      38.593  23.363  26.123  1.00  0.00     0.032 C 
ATOM     19  C   UNL A   1      38.768  24.453  27.172  1.00  0.00     0.009 C 
ENDBRANCH   9  18
BRANCH  17  20
ATOM     20  C   UNL A   1      31.076  23.667  23.784  1.00  0.00     0.429 C 
ATOM     21  F   UNL A   1      30.148  24.553  23.361  1.00  0.00    -0.167 F 
ATOM     22  F   UNL A   1      31.095  22.691  22.834  1.00  0.00    -0.167 F 
ATOM     23  F   UNL A   1      30.623  23.087  24.921  1.00  0.00    -0.167 F 
ENDBRANCH  17  20
ENDBRANCH   5   8
ENDBRANCH   3   4
ENDBRANCH   2   3
ENDBRANCH   1   2
BRANCH   1  24
ATOM     24  N   UNL A   1      32.505  30.599  26.113  1.00  0.00    -0.352 N 
ATOM     25  C   UNL A   1      33.092  31.472  26.996  1.00  0.00     0.251 C 
ATOM     26  H   UNL A   1      31.764  30.976  25.585  1.00  0.00     0.163 HD
ATOM     27  O   UNL A   1      32.523  32.527  27.257  1.00  0.00    -0.269 OA
BRANCH  25  28
ATOM     28  C   UNL A   1      34.386  31.144  27.638  1.00  0.00     0.039 A 
ATOM     29  C   UNL A   1      35.330  32.160  27.814  1.00  0.00     0.014 A 
ATOM     30  C   UNL A   1      34.689  29.837  28.030  1.00  0.00     0.014 A 
ATOM     31  C   UNL A   1      36.547  31.880  28.440  1.00  0.00     0.010 A 
ATOM     32  C   UNL A   1      35.875  29.572  28.711  1.00  0.00     0.010 A 
ATOM     33  C   UNL A   1      36.815  30.591  28.927  1.00  0.00    -0.014 A 
BRANCH  33  34
ATOM     34  C   UNL A   1      38.057  30.295  29.686  1.00  0.00     0.031 A 
ATOM     35  C   UNL A   1      39.113  29.399  29.102  1.00  0.00     0.074 A 
ATOM     36  C   UNL A   1      38.197  30.773  30.938  1.00  0.00     0.049 A 
ATOM     37  N   UNL A   1      40.222  28.960  29.642  1.00  0.00    -0.248 NA
ATOM     38  C   UNL A   1      38.873  28.909  27.738  1.00  0.00     0.031 C 
ATOM     39  C   UNL A   1      37.227  31.630  31.625  1.00  0.00     0.029 A 
ATOM     40  N   UNL A   1      39.199  30.603  31.859  1.00  0.00    -0.354 N 
ATOM     41  C   UNL A   1      40.806  28.128  28.691  1.00  0.00     0.074 A 
ATOM     42  C   UNL A   1      39.894  28.083  27.566  1.00  0.00     0.031 C 
ATOM     43  C   UNL A   1      37.697  31.935  32.845  1.00  0.00     0.029 A 
ATOM     44  C   UNL A   1      38.972  31.255  33.048  1.00  0.00     0.049 A 
ATOM     45  H   UNL A   1      40.005  30.066  31.684  1.00  0.00     0.167 HD
ATOM     46  C   UNL A   1      41.997  27.479  28.746  1.00  0.00     0.034 A 
ATOM     47  C   UNL A   1      39.701  31.289  34.182  1.00  0.00     0.034 A 
ATOM     48  C   UNL A   1      42.891  27.542  29.879  1.00  0.00     0.049 A 
ATOM     49  C   UNL A   1      40.991  30.515  34.243  1.00  0.00     0.074 A 
ATOM     50  C   UNL A   1      44.154  26.989  30.014  1.00  0.00     0.029 A 
ATOM     51  N   UNL A   1      42.609  28.178  31.082  1.00  0.00    -0.354 N 
ATOM     52  N   UNL A   1      41.559  29.781  33.315  1.00  0.00    -0.248 NA
ATOM     53  C   UNL A   1      41.736  30.577  35.507  1.00  0.00     0.031 C 
ATOM     54  C   UNL A   1      44.599  27.222  31.321  1.00  0.00     0.029 A 
ATOM     55  C   UNL A   1      43.651  27.990  31.980  1.00  0.00     0.049 A 
ATOM     56  H   UNL A   1      41.788  28.688  31.271  1.00  0.00     0.167 HD
ATOM     57  C   UNL A   1      42.744  29.314  33.876  1.00  0.00     0.074 A 
ATOM     58  C   UNL A   1      42.811  29.858  35.217  1.00  0.00     0.031 C 
ATOM     59  C   UNL A   1      43.694  28.513  33.327  1.00  0.00     0.034 A 
BRANCH  46  60
ATOM     60  C   UNL A   1      42.371  26.619  27.560  1.00  0.00     0.023 A 
ATOM     61  C   UNL A   1      42.125  25.234  27.542  1.00  0.00     0.031 A 
ATOM     62  C   UNL A   1      43.035  27.179  26.454  1.00  0.00     0.131 A 
ATOM     63  C   UNL A   1      42.629  24.444  26.497  1.00  0.00     0.055 A 
ATOM     64  C   UNL A   1      43.450  26.400  25.370  1.00  0.00     0.041 A 
ATOM     65  F   UNL A   1      43.316  28.490  26.416  1.00  0.00    -0.206 F 
ATOM     66  C   UNL A   1      43.268  25.021  25.397  1.00  0.00     0.022 A 
BRANCH  63  67
ATOM     67  S   UNL A   1      42.601  22.640  26.690  1.00  0.00     0.124 S 
ATOM     68  O   UNL A   1      42.099  22.210  25.387  1.00  0.00    -0.237 OA
ATOM     69  O   UNL A   1      43.999  22.333  26.970  1.00  0.00    -0.237 OA
ATOM     70  O   UNL A   1      41.679  22.429  27.804  1.00  0.00    -0.744 OA
ENDBRANCH  63  67
ENDBRANCH  46  60
BRANCH  47  71
ATOM     71  C   UNL A   1      39.229  32.084  35.350  1.00  0.00     0.023 A 
ATOM     72  C   UNL A   1      39.701  33.389  35.563  1.00  0.00     0.031 A 
ATOM     73  C   UNL A   1      38.311  31.553  36.272  1.00  0.00     0.131 A 
ATOM     74  C   UNL A   1      39.276  34.109  36.690  1.00  0.00     0.055 A 
ATOM     75  C   UNL A   1      37.857  32.290  37.367  1.00  0.00     0.041 A 
ATOM     76  F   UNL A   1      37.824  30.313  36.107  1.00  0.00    -0.206 F 
ATOM     77  C   UNL A   1      38.347  33.574  37.585  1.00  0.00     0.022 A 
BRANCH  74  78
ATOM     78  S   UNL A   1      39.996  35.745  36.995  1.00  0.00     0.124 S 
ATOM     79  O   UNL A   1      39.653  36.454  35.768  1.00  0.00    -0.237 OA
ATOM     80  O   UNL A   1      39.290  36.167  38.200  1.00  0.00    -0.237 OA
ATOM     81  O   UNL A   1      41.418  35.462  37.177  1.00  0.00    -0.744 OA
ENDBRANCH  74  78
ENDBRANCH  47  71
BRANCH  59  82
ATOM     82  C   UNL A   1      44.903  28.208  34.177  1.00  0.00     0.023 A 
ATOM     83  C   UNL A   1      44.949  27.085  35.022  1.00  0.00     0.031 A 
ATOM     84  C   UNL A   1      46.021  29.062  34.152  1.00  0.00     0.131 A 
ATOM     85  C   UNL A   1      46.066  26.873  35.845  1.00  0.00     0.055 A 
ATOM     86  C   UNL A   1      47.154  28.812  34.927  1.00  0.00     0.041 A 
ATOM     87  F   UNL A   1      46.030  30.152  33.369  1.00  0.00    -0.206 F 
ATOM     88  C   UNL A   1      47.175  27.720  35.790  1.00  0.00     0.022 A 
BRANCH  85  89
ATOM     89  S   UNL A   1      46.014  25.523  37.055  1.00  0.00     0.124 S 
ATOM     90  O   UNL A   1      44.631  25.583  37.518  1.00  0.00    -0.237 OA
ATOM     91  O   UNL A   1      46.365  24.362  36.243  1.00  0.00    -0.237 OA
ATOM     92  O   UNL A   1      47.017  25.911  38.045  1.00  0.00    -0.744 OA
ENDBRANCH  85  89
ENDBRANCH  59  82
ENDBRANCH  33  34
ENDBRANCH  25  28
ENDBRANCH   1  24
TORSDOF 15
ENDMDL
