MODEL 1
REMARK VINA RESULT:     -12.3      0.000      0.000
REMARK SMILES NS(=O)(=O)c1ccc(NS(=O)(=O)c2cccc(C(=O)NCCCNC(=O)c3ccc(-c4c5nc(c(-c6cc(S(=O)(=O)[O-])ccc6F)c6ccc([nH]6)c(-c6cc(S(=O)(=O)[O-])ccc6F)c6nc(c(-c7cc(S(=O)(=O)[O-])ccc7F)c7ccc4[nH]7)C=C6)C=C5)cc3)c2)cc1
REMARK SMILES IDX 21 1 20 2 18 3 19 4 17 6 13 7 14 8 90 9 15 10 16 11 10 12
REMARK SMILES IDX 11 13 12 14 9 15 8 17 5 18 6 19 92 20 7 21 91 22 2 23 3 24
REMARK SMILES IDX 4 25 1 26 22 29 23 30 24 31 25 32 26 34 27 35 28 36 89 37
REMARK SMILES IDX 29 38 88 39 30 40 31 41 32 42 82 43 33 44 87 45 81 46 83 47
REMARK SMILES IDX 34 48 86 49 80 50 79 51 35 53 67 54 47 55 66 56 48 57 51 58
REMARK SMILES IDX 65 59 84 60 49 61 50 62 64 64 85 65 52 66 36 67 37 68 45 69
REMARK SMILES IDX 38 70 44 71 46 72 43 73 39 74 40 75 41 76 42 77 68 78 69 79
REMARK SMILES IDX 77 80 70 81 76 82 78 83 75 84 71 85 72 86 73 87 74 88 53 89
REMARK SMILES IDX 54 90 62 91 55 92 61 93 63 94 60 95 56 96 57 97 58 98 59 99
REMARK H PARENT 20 5 9 16 1 27 1 28 24 33 83 52 51 63
REMARK Flexibility Score: inf
ROOT
ATOM      1  C   UNL A   1      31.465  29.528  24.976  1.00  0.00     0.118 C 
ENDROOT
BRANCH   1   2
ATOM      2  N   UNL A   1      30.627  29.591  23.779  1.00  0.00    -0.352 N 
ATOM      3  C   UNL A   1      30.166  28.647  22.889  1.00  0.00     0.251 C 
ATOM      4  O   UNL A   1      29.456  29.011  21.952  1.00  0.00    -0.269 OA
ATOM      5  H   UNL A   1      30.326  30.504  23.565  1.00  0.00     0.163 HD
BRANCH   3   6
ATOM      6  C   UNL A   1      30.557  27.218  22.977  1.00  0.00     0.041 A 
ATOM      7  C   UNL A   1      30.925  25.232  24.302  1.00  0.00     0.088 A 
ATOM      8  C   UNL A   1      31.692  24.666  23.284  1.00  0.00     0.022 A 
ATOM      9  C   UNL A   1      30.271  26.445  24.090  1.00  0.00     0.036 A 
ATOM     10  C   UNL A   1      31.790  25.338  22.059  1.00  0.00     0.002 A 
ATOM     11  C   UNL A   1      31.252  26.623  21.917  1.00  0.00     0.014 A 
BRANCH   7  12
ATOM     12  S   UNL A   1      30.644  24.471  25.886  1.00  0.00     0.261 S 
ATOM     13  O   UNL A   1      30.557  23.042  25.667  1.00  0.00    -0.201 OA
ATOM     14  O   UNL A   1      29.558  25.203  26.501  1.00  0.00    -0.201 OA
BRANCH  12  15
ATOM     15  N   UNL A   1      31.981  24.748  26.828  1.00  0.00    -0.280 N 
ATOM     16  H   UNL A   1      31.859  25.328  27.614  1.00  0.00     0.180 HD
BRANCH  15  17
ATOM     17  C   UNL A   1      33.281  24.231  26.610  1.00  0.00     0.049 A 
ATOM     18  C   UNL A   1      35.467  23.009  25.420  1.00  0.00     0.082 A 
ATOM     19  C   UNL A   1      34.756  22.331  26.407  1.00  0.00     0.024 A 
ATOM     20  C   UNL A   1      35.193  24.349  25.139  1.00  0.00     0.024 A 
ATOM     21  C   UNL A   1      33.692  22.969  27.041  1.00  0.00     0.028 A 
ATOM     22  C   UNL A   1      34.091  24.957  25.735  1.00  0.00     0.028 A 
BRANCH  18  23
ATOM     23  S   UNL A   1      36.662  22.180  24.423  1.00  0.00     0.238 S 
ATOM     24  O   UNL A   1      36.672  22.792  23.115  1.00  0.00    -0.207 OA
ATOM     25  O   UNL A   1      36.500  20.761  24.626  1.00  0.00    -0.207 OA
BRANCH  23  26
ATOM     26  N   UNL A   1      38.138  22.573  25.120  1.00  0.00    -0.225 NA
ATOM     27  H   UNL A   1      38.112  23.537  25.449  1.00  0.00     0.137 HD
ATOM     28  H   UNL A   1      38.879  22.469  24.428  1.00  0.00     0.137 HD
ENDBRANCH  23  26
ENDBRANCH  18  23
ENDBRANCH  15  17
ENDBRANCH  12  15
ENDBRANCH   7  12
ENDBRANCH   3   6
ENDBRANCH   1   2
BRANCH   1  29
ATOM     29  C   UNL A   1      32.911  29.152  24.709  1.00  0.00     0.042 C 
BRANCH  29  30
ATOM     30  C   UNL A   1      33.811  29.302  25.922  1.00  0.00     0.118 C 
BRANCH  30  31
ATOM     31  N   UNL A   1      33.725  30.631  26.519  1.00  0.00    -0.352 N 
ATOM     32  C   UNL A   1      34.409  31.195  27.568  1.00  0.00     0.251 C 
ATOM     33  H   UNL A   1      33.063  31.226  26.098  1.00  0.00     0.163 HD
ATOM     34  O   UNL A   1      33.990  32.241  28.057  1.00  0.00    -0.269 OA
BRANCH  32  35
ATOM     35  C   UNL A   1      35.625  30.552  28.108  1.00  0.00     0.039 A 
ATOM     36  C   UNL A   1      36.853  30.770  27.480  1.00  0.00     0.014 A 
ATOM     37  C   UNL A   1      35.553  29.700  29.212  1.00  0.00     0.014 A 
ATOM     38  C   UNL A   1      38.009  30.180  27.995  1.00  0.00     0.010 A 
ATOM     39  C   UNL A   1      36.716  29.215  29.795  1.00  0.00     0.010 A 
ATOM     40  C   UNL A   1      37.956  29.425  29.178  1.00  0.00    -0.014 A 
BRANCH  40  41
ATOM     41  C   UNL A   1      39.171  28.800  29.760  1.00  0.00     0.031 A 
ATOM     42  C   UNL A   1      39.740  29.332  31.051  1.00  0.00     0.074 A 
ATOM     43  C   UNL A   1      39.788  27.796  29.106  1.00  0.00     0.049 A 
ATOM     44  N   UNL A   1      40.834  28.985  31.680  1.00  0.00    -0.248 NA
ATOM     45  C   UNL A   1      38.999  30.427  31.698  1.00  0.00     0.031 C 
ATOM     46  C   UNL A   1      39.355  27.230  27.825  1.00  0.00     0.029 A 
ATOM     47  N   UNL A   1      40.912  27.077  29.422  1.00  0.00    -0.354 N 
ATOM     48  C   UNL A   1      40.914  29.824  32.788  1.00  0.00     0.074 A 
ATOM     49  C   UNL A   1      39.809  30.752  32.693  1.00  0.00     0.031 C 
ATOM     50  C   UNL A   1      40.185  26.231  27.485  1.00  0.00     0.029 A 
ATOM     51  C   UNL A   1      41.236  26.119  28.489  1.00  0.00     0.049 A 
ATOM     52  H   UNL A   1      41.438  27.232  30.240  1.00  0.00     0.167 HD
ATOM     53  C   UNL A   1      41.806  29.799  33.809  1.00  0.00     0.034 A 
ATOM     54  C   UNL A   1      42.272  25.258  28.443  1.00  0.00     0.034 A 
ATOM     55  C   UNL A   1      42.897  28.859  33.889  1.00  0.00     0.049 A 
ATOM     56  C   UNL A   1      43.268  25.264  29.576  1.00  0.00     0.074 A 
ATOM     57  C   UNL A   1      43.845  28.723  34.887  1.00  0.00     0.029 A 
ATOM     58  N   UNL A   1      43.186  27.896  32.931  1.00  0.00    -0.354 N 
ATOM     59  N   UNL A   1      43.309  26.040  30.636  1.00  0.00    -0.248 NA
ATOM     60  C   UNL A   1      44.342  24.267  29.518  1.00  0.00     0.031 C 
ATOM     61  C   UNL A   1      44.747  27.727  34.499  1.00  0.00     0.029 A 
ATOM     62  C   UNL A   1      44.311  27.176  33.304  1.00  0.00     0.049 A 
ATOM     63  H   UNL A   1      42.669  27.745  32.107  1.00  0.00     0.167 HD
ATOM     64  C   UNL A   1      44.392  25.593  31.390  1.00  0.00     0.074 A 
ATOM     65  C   UNL A   1      44.962  24.474  30.670  1.00  0.00     0.031 C 
ATOM     66  C   UNL A   1      44.870  26.062  32.573  1.00  0.00     0.034 A 
BRANCH  53  67
ATOM     67  C   UNL A   1      41.637  30.830  34.902  1.00  0.00     0.023 A 
ATOM     68  C   UNL A   1      40.471  30.887  35.688  1.00  0.00     0.031 A 
ATOM     69  C   UNL A   1      42.636  31.789  35.145  1.00  0.00     0.131 A 
ATOM     70  C   UNL A   1      40.297  31.927  36.613  1.00  0.00     0.055 A 
ATOM     71  C   UNL A   1      42.497  32.766  36.132  1.00  0.00     0.041 A 
ATOM     72  F   UNL A   1      43.762  31.803  34.413  1.00  0.00    -0.206 F 
ATOM     73  C   UNL A   1      41.315  32.850  36.863  1.00  0.00     0.022 A 
BRANCH  70  74
ATOM     74  S   UNL A   1      38.663  32.149  37.368  1.00  0.00     0.124 S 
ATOM     75  O   UNL A   1      39.012  32.329  38.776  1.00  0.00    -0.237 OA
ATOM     76  O   UNL A   1      38.154  33.328  36.679  1.00  0.00    -0.237 OA
ATOM     77  O   UNL A   1      37.971  30.899  37.062  1.00  0.00    -0.744 OA
ENDBRANCH  70  74
ENDBRANCH  53  67
BRANCH  54  78
ATOM     78  C   UNL A   1      42.431  24.324  27.289  1.00  0.00     0.023 A 
ATOM     79  C   UNL A   1      41.850  23.045  27.301  1.00  0.00     0.031 A 
ATOM     80  C   UNL A   1      43.208  24.681  26.173  1.00  0.00     0.131 A 
ATOM     81  C   UNL A   1      42.103  22.151  26.249  1.00  0.00     0.055 A 
ATOM     82  C   UNL A   1      43.403  23.812  25.098  1.00  0.00     0.041 A 
ATOM     83  F   UNL A   1      43.784  25.892  26.105  1.00  0.00    -0.206 F 
ATOM     84  C   UNL A   1      42.862  22.531  25.141  1.00  0.00     0.022 A 
BRANCH  81  85
ATOM     85  S   UNL A   1      41.512  20.442  26.401  1.00  0.00     0.124 S 
ATOM     86  O   UNL A   1      41.873  20.126  27.778  1.00  0.00    -0.237 OA
ATOM     87  O   UNL A   1      40.087  20.589  26.127  1.00  0.00    -0.237 OA
ATOM     88  O   UNL A   1      42.272  19.728  25.377  1.00  0.00    -0.744 OA
ENDBRANCH  81  85
ENDBRANCH  54  78
BRANCH  66  89
ATOM     89  C   UNL A   1      46.028  25.315  33.190  1.00  0.00     0.023 A 
ATOM     90  C   UNL A   1      45.840  24.189  34.010  1.00  0.00     0.031 A 
ATOM     91  C   UNL A   1      47.346  25.755  32.968  1.00  0.00     0.131 A 
ATOM     92  C   UNL A   1      46.942  23.589  34.637  1.00  0.00     0.055 A 
ATOM     93  C   UNL A   1      48.445  25.107  33.533  1.00  0.00     0.041 A 
ATOM     94  F   UNL A   1      47.588  26.827  32.196  1.00  0.00    -0.206 F 
ATOM     95  C   UNL A   1      48.245  24.028  34.388  1.00  0.00     0.022 A 
BRANCH  92  96
ATOM     96  S   UNL A   1      46.640  22.307  35.885  1.00  0.00     0.124 S 
ATOM     97  O   UNL A   1      45.324  22.681  36.391  1.00  0.00    -0.237 OA
ATOM     98  O   UNL A   1      46.695  21.082  35.092  1.00  0.00    -0.237 OA
ATOM     99  O   UNL A   1      47.742  22.483  36.830  1.00  0.00    -0.744 OA
ENDBRANCH  92  96
ENDBRANCH  66  89
ENDBRANCH  40  41
ENDBRANCH  32  35
ENDBRANCH  30  31
ENDBRANCH  29  30
ENDBRANCH   1  29
TORSDOF 18
ENDMDL
MODEL 2
REMARK VINA RESULT:     -12.2      3.385      8.547
REMARK SMILES NS(=O)(=O)c1ccc(NS(=O)(=O)c2cccc(C(=O)NCCCNC(=O)c3ccc(-c4c5nc(c(-c6cc(S(=O)(=O)[O-])ccc6F)c6ccc([nH]6)c(-c6cc(S(=O)(=O)[O-])ccc6F)c6nc(c(-c7cc(S(=O)(=O)[O-])ccc7F)c7ccc4[nH]7)C=C6)C=C5)cc3)c2)cc1
REMARK SMILES IDX 21 1 20 2 18 3 19 4 17 6 13 7 14 8 90 9 15 10 16 11 10 12
REMARK SMILES IDX 11 13 12 14 9 15 8 17 5 18 6 19 92 20 7 21 91 22 2 23 3 24
REMARK SMILES IDX 4 25 1 26 22 29 23 30 24 31 25 32 26 34 27 35 28 36 89 37
REMARK SMILES IDX 29 38 88 39 30 40 31 41 32 42 82 43 33 44 87 45 81 46 83 47
REMARK SMILES IDX 34 48 86 49 80 50 79 51 35 53 67 54 47 55 66 56 48 57 51 58
REMARK SMILES IDX 65 59 84 60 49 61 50 62 64 64 85 65 52 66 36 67 37 68 45 69
REMARK SMILES IDX 38 70 44 71 46 72 43 73 39 74 40 75 41 76 42 77 68 78 69 79
REMARK SMILES IDX 77 80 70 81 76 82 78 83 75 84 71 85 72 86 73 87 74 88 53 89
REMARK SMILES IDX 54 90 62 91 55 92 61 93 63 94 60 95 56 96 57 97 58 98 59 99
REMARK H PARENT 20 5 9 16 1 27 1 28 24 33 83 52 51 63
REMARK Flexibility Score: inf
ROOT
ATOM      1  C   UNL A   1      31.706  30.515  26.590  1.00  0.00     0.118 C 
ENDROOT
BRANCH   1   2
ATOM      2  N   UNL A   1      32.488  30.235  25.387  1.00  0.00    -0.352 N 
ATOM      3  C   UNL A   1      32.438  29.250  24.427  1.00  0.00     0.251 C 
ATOM      4  O   UNL A   1      33.251  29.280  23.503  1.00  0.00    -0.269 OA
ATOM      5  H   UNL A   1      33.203  30.894  25.228  1.00  0.00     0.163 HD
BRANCH   3   6
ATOM      6  C   UNL A   1      31.487  28.113  24.507  1.00  0.00     0.041 A 
ATOM      7  C   UNL A   1      31.037  25.803  25.045  1.00  0.00     0.088 A 
ATOM      8  C   UNL A   1      29.874  25.825  24.276  1.00  0.00     0.022 A 
ATOM      9  C   UNL A   1      31.763  26.976  25.246  1.00  0.00     0.036 A 
ATOM     10  C   UNL A   1      29.458  27.039  23.716  1.00  0.00     0.002 A 
ATOM     11  C   UNL A   1      30.278  28.171  23.803  1.00  0.00     0.014 A 
BRANCH   7  12
ATOM     12  S   UNL A   1      31.658  24.359  25.881  1.00  0.00     0.261 S 
ATOM     13  O   UNL A   1      30.943  24.246  27.134  1.00  0.00    -0.201 OA
ATOM     14  O   UNL A   1      33.101  24.460  25.847  1.00  0.00    -0.201 OA
BRANCH  12  15
ATOM     15  N   UNL A   1      31.266  23.032  24.965  1.00  0.00    -0.280 N 
ATOM     16  H   UNL A   1      30.372  23.024  24.554  1.00  0.00     0.180 HD
BRANCH  15  17
ATOM     17  C   UNL A   1      32.094  21.911  24.718  1.00  0.00     0.049 A 
ATOM     18  C   UNL A   1      32.949  19.307  24.293  1.00  0.00     0.082 A 
ATOM     19  C   UNL A   1      33.185  19.914  25.525  1.00  0.00     0.024 A 
ATOM     20  C   UNL A   1      32.434  20.043  23.224  1.00  0.00     0.024 A 
ATOM     21  C   UNL A   1      32.803  21.240  25.716  1.00  0.00     0.028 A 
ATOM     22  C   UNL A   1      32.001  21.348  23.443  1.00  0.00     0.028 A 
BRANCH  18  23
ATOM     23  S   UNL A   1      33.192  17.575  24.068  1.00  0.00     0.238 S 
ATOM     24  O   UNL A   1      34.377  17.181  24.794  1.00  0.00    -0.207 OA
ATOM     25  O   UNL A   1      32.990  17.277  22.672  1.00  0.00    -0.207 OA
BRANCH  23  26
ATOM     26  N   UNL A   1      31.906  16.861  24.877  1.00  0.00    -0.225 NA
ATOM     27  H   UNL A   1      31.240  17.580  25.159  1.00  0.00     0.137 HD
ATOM     28  H   UNL A   1      32.252  16.374  25.703  1.00  0.00     0.137 HD
ENDBRANCH  23  26
ENDBRANCH  18  23
ENDBRANCH  15  17
ENDBRANCH  12  15
ENDBRANCH   7  12
ENDBRANCH   3   6
ENDBRANCH   1   2
BRANCH   1  29
ATOM     29  C   UNL A   1      31.500  31.991  26.876  1.00  0.00     0.042 C 
BRANCH  29  30
ATOM     30  C   UNL A   1      32.795  32.774  26.989  1.00  0.00     0.118 C 
BRANCH  30  31
ATOM     31  N   UNL A   1      32.599  34.091  27.588  1.00  0.00    -0.352 N 
ATOM     32  C   UNL A   1      33.132  34.654  28.721  1.00  0.00     0.251 C 
ATOM     33  H   UNL A   1      31.978  34.675  27.096  1.00  0.00     0.163 HD
ATOM     34  O   UNL A   1      32.628  35.682  29.168  1.00  0.00    -0.269 OA
BRANCH  32  35
ATOM     35  C   UNL A   1      34.290  34.034  29.399  1.00  0.00     0.039 A 
ATOM     36  C   UNL A   1      35.581  34.450  29.070  1.00  0.00     0.014 A 
ATOM     37  C   UNL A   1      34.108  33.012  30.333  1.00  0.00     0.014 A 
ATOM     38  C   UNL A   1      36.679  33.880  29.719  1.00  0.00     0.010 A 
ATOM     39  C   UNL A   1      35.188  32.536  31.064  1.00  0.00     0.010 A 
ATOM     40  C   UNL A   1      36.490  32.943  30.747  1.00  0.00    -0.014 A 
BRANCH  40  41
ATOM     41  C   UNL A   1      37.636  32.334  31.468  1.00  0.00     0.031 A 
ATOM     42  C   UNL A   1      38.391  31.190  30.840  1.00  0.00     0.074 A 
ATOM     43  C   UNL A   1      37.963  32.770  32.700  1.00  0.00     0.049 A 
ATOM     44  N   UNL A   1      39.363  30.467  31.334  1.00  0.00    -0.248 NA
ATOM     45  C   UNL A   1      37.968  30.781  29.490  1.00  0.00     0.031 C 
ATOM     46  C   UNL A   1      37.274  33.839  33.429  1.00  0.00     0.029 A 
ATOM     47  N   UNL A   1      38.952  32.368  33.562  1.00  0.00    -0.354 N 
ATOM     48  C   UNL A   1      39.658  29.516  30.361  1.00  0.00     0.074 A 
ATOM     49  C   UNL A   1      38.704  29.699  29.291  1.00  0.00     0.031 C 
ATOM     50  C   UNL A   1      37.884  34.028  34.610  1.00  0.00     0.029 A 
ATOM     51  C   UNL A   1      38.968  33.063  34.749  1.00  0.00     0.049 A 
ATOM     52  H   UNL A   1      39.590  31.648  33.350  1.00  0.00     0.167 HD
ATOM     53  C   UNL A   1      40.657  28.598  30.346  1.00  0.00     0.034 A 
ATOM     54  C   UNL A   1      39.760  32.928  35.831  1.00  0.00     0.034 A 
ATOM     55  C   UNL A   1      41.604  28.437  31.422  1.00  0.00     0.049 A 
ATOM     56  C   UNL A   1      40.848  31.884  35.804  1.00  0.00     0.074 A 
ATOM     57  C   UNL A   1      42.672  27.561  31.505  1.00  0.00     0.029 A 
ATOM     58  N   UNL A   1      41.597  29.168  32.603  1.00  0.00    -0.354 N 
ATOM     59  N   UNL A   1      41.138  31.016  34.861  1.00  0.00    -0.248 NA
ATOM     60  C   UNL A   1      41.727  31.815  36.977  1.00  0.00     0.031 C 
ATOM     61  C   UNL A   1      43.264  27.713  32.763  1.00  0.00     0.029 A 
ATOM     62  C   UNL A   1      42.627  28.748  33.430  1.00  0.00     0.049 A 
ATOM     63  H   UNL A   1      40.954  29.880  32.822  1.00  0.00     0.167 HD
ATOM     64  C   UNL A   1      42.261  30.326  35.313  1.00  0.00     0.074 A 
ATOM     65  C   UNL A   1      42.600  30.892  36.603  1.00  0.00     0.031 C 
ATOM     66  C   UNL A   1      42.953  29.321  34.716  1.00  0.00     0.034 A 
BRANCH  53  67
ATOM     67  C   UNL A   1      40.754  27.698  29.136  1.00  0.00     0.023 A 
ATOM     68  C   UNL A   1      41.696  27.931  28.117  1.00  0.00     0.031 A 
ATOM     69  C   UNL A   1      39.875  26.612  28.977  1.00  0.00     0.131 A 
ATOM     70  C   UNL A   1      41.681  27.149  26.953  1.00  0.00     0.055 A 
ATOM     71  C   UNL A   1      39.926  25.779  27.857  1.00  0.00     0.041 A 
ATOM     72  F   UNL A   1      38.937  26.351  29.901  1.00  0.00    -0.206 F 
ATOM     73  C   UNL A   1      40.823  26.054  26.829  1.00  0.00     0.022 A 
BRANCH  70  74
ATOM     74  S   UNL A   1      42.689  27.679  25.541  1.00  0.00     0.124 S 
ATOM     75  O   UNL A   1      42.669  26.484  24.701  1.00  0.00    -0.237 OA
ATOM     76  O   UNL A   1      41.946  28.828  25.037  1.00  0.00    -0.237 OA
ATOM     77  O   UNL A   1      43.985  27.987  26.141  1.00  0.00    -0.744 OA
ENDBRANCH  70  74
ENDBRANCH  53  67
BRANCH  54  78
ATOM     78  C   UNL A   1      39.555  33.791  37.032  1.00  0.00     0.023 A 
ATOM     79  C   UNL A   1      38.914  33.301  38.181  1.00  0.00     0.031 A 
ATOM     80  C   UNL A   1      39.959  35.138  37.030  1.00  0.00     0.131 A 
ATOM     81  C   UNL A   1      38.642  34.165  39.254  1.00  0.00     0.055 A 
ATOM     82  C   UNL A   1      39.745  35.976  38.125  1.00  0.00     0.041 A 
ATOM     83  F   UNL A   1      40.580  35.660  35.960  1.00  0.00    -0.206 F 
ATOM     84  C   UNL A   1      39.068  35.495  39.240  1.00  0.00     0.022 A 
BRANCH  81  85
ATOM     85  S   UNL A   1      37.628  33.551  40.628  1.00  0.00     0.124 S 
ATOM     86  O   UNL A   1      38.567  32.675  41.319  1.00  0.00    -0.237 OA
ATOM     87  O   UNL A   1      37.274  34.787  41.319  1.00  0.00    -0.237 OA
ATOM     88  O   UNL A   1      36.521  32.874  39.956  1.00  0.00    -0.744 OA
ENDBRANCH  81  85
ENDBRANCH  54  78
BRANCH  66  89
ATOM     89  C   UNL A   1      44.186  28.818  35.428  1.00  0.00     0.023 A 
ATOM     90  C   UNL A   1      44.135  27.766  36.358  1.00  0.00     0.031 A 
ATOM     91  C   UNL A   1      45.433  29.422  35.184  1.00  0.00     0.131 A 
ATOM     92  C   UNL A   1      45.291  27.400  37.063  1.00  0.00     0.055 A 
ATOM     93  C   UNL A   1      46.595  29.002  35.833  1.00  0.00     0.041 A 
ATOM     94  F   UNL A   1      45.543  30.434  34.309  1.00  0.00    -0.206 F 
ATOM     95  C   UNL A   1      46.524  27.998  36.792  1.00  0.00     0.022 A 
BRANCH  92  96
ATOM     96  S   UNL A   1      45.136  26.220  38.433  1.00  0.00     0.124 S 
ATOM     97  O   UNL A   1      46.531  25.894  38.710  1.00  0.00    -0.237 OA
ATOM     98  O   UNL A   1      44.452  27.013  39.450  1.00  0.00    -0.237 OA
ATOM     99  O   UNL A   1      44.346  25.132  37.860  1.00  0.00    -0.744 OA
ENDBRANCH  92  96
ENDBRANCH  66  89
ENDBRANCH  40  41
ENDBRANCH  32  35
ENDBRANCH  30  31
ENDBRANCH  29  30
ENDBRANCH   1  29
TORSDOF 18
ENDMDL
MODEL 3
REMARK VINA RESULT:     -12.0      5.287      8.707
REMARK SMILES NS(=O)(=O)c1ccc(NS(=O)(=O)c2cccc(C(=O)NCCCNC(=O)c3ccc(-c4c5nc(c(-c6cc(S(=O)(=O)[O-])ccc6F)c6ccc([nH]6)c(-c6cc(S(=O)(=O)[O-])ccc6F)c6nc(c(-c7cc(S(=O)(=O)[O-])ccc7F)c7ccc4[nH]7)C=C6)C=C5)cc3)c2)cc1
REMARK SMILES IDX 21 1 20 2 18 3 19 4 17 6 13 7 14 8 90 9 15 10 16 11 10 12
REMARK SMILES IDX 11 13 12 14 9 15 8 17 5 18 6 19 92 20 7 21 91 22 2 23 3 24
REMARK SMILES IDX 4 25 1 26 22 29 23 30 24 31 25 32 26 34 27 35 28 36 89 37
REMARK SMILES IDX 29 38 88 39 30 40 31 41 32 42 82 43 33 44 87 45 81 46 83 47
REMARK SMILES IDX 34 48 86 49 80 50 79 51 35 53 67 54 47 55 66 56 48 57 51 58
REMARK SMILES IDX 65 59 84 60 49 61 50 62 64 64 85 65 52 66 36 67 37 68 45 69
REMARK SMILES IDX 38 70 44 71 46 72 43 73 39 74 40 75 41 76 42 77 68 78 69 79
REMARK SMILES IDX 77 80 70 81 76 82 78 83 75 84 71 85 72 86 73 87 74 88 53 89
REMARK SMILES IDX 54 90 62 91 55 92 61 93 63 94 60 95 56 96 57 97 58 98 59 99
REMARK H PARENT 20 5 9 16 1 27 1 28 24 33 83 52 51 63
REMARK Flexibility Score: inf
ROOT
ATOM      1  C   UNL A   1      36.259  20.229  24.961  1.00  0.00     0.118 C 
ENDROOT
BRANCH   1   2
ATOM      2  N   UNL A   1      35.167  19.257  25.001  1.00  0.00    -0.352 N 
ATOM      3  C   UNL A   1      33.812  19.338  24.776  1.00  0.00     0.251 C 
ATOM      4  O   UNL A   1      33.130  18.319  24.886  1.00  0.00    -0.269 OA
ATOM      5  H   UNL A   1      35.466  18.349  25.239  1.00  0.00     0.163 HD
BRANCH   3   6
ATOM      6  C   UNL A   1      33.134  20.624  24.478  1.00  0.00     0.041 A 
ATOM      7  C   UNL A   1      32.058  22.644  25.248  1.00  0.00     0.088 A 
ATOM      8  C   UNL A   1      31.471  22.837  23.998  1.00  0.00     0.022 A 
ATOM      9  C   UNL A   1      32.973  21.610  25.437  1.00  0.00     0.036 A 
ATOM     10  C   UNL A   1      31.817  21.976  22.950  1.00  0.00     0.002 A 
ATOM     11  C   UNL A   1      32.620  20.854  23.196  1.00  0.00     0.014 A 
BRANCH   7  12
ATOM     12  S   UNL A   1      31.778  23.693  26.659  1.00  0.00     0.261 S 
ATOM     13  O   UNL A   1      32.204  22.959  27.831  1.00  0.00    -0.201 OA
ATOM     14  O   UNL A   1      30.424  24.187  26.534  1.00  0.00    -0.201 OA
BRANCH  12  15
ATOM     15  N   UNL A   1      32.768  25.016  26.515  1.00  0.00    -0.280 N 
ATOM     16  H   UNL A   1      33.569  25.036  27.086  1.00  0.00     0.180 HD
BRANCH  15  17
ATOM     17  C   UNL A   1      32.571  26.119  25.650  1.00  0.00     0.049 A 
ATOM     18  C   UNL A   1      31.360  28.016  24.029  1.00  0.00     0.082 A 
ATOM     19  C   UNL A   1      32.073  26.971  23.446  1.00  0.00     0.024 A 
ATOM     20  C   UNL A   1      31.382  28.209  25.412  1.00  0.00     0.024 A 
ATOM     21  C   UNL A   1      32.726  26.052  24.265  1.00  0.00     0.028 A 
ATOM     22  C   UNL A   1      31.986  27.251  26.222  1.00  0.00     0.028 A 
BRANCH  18  23
ATOM     23  S   UNL A   1      30.325  29.065  23.061  1.00  0.00     0.238 S 
ATOM     24  O   UNL A   1      29.917  30.185  23.876  1.00  0.00    -0.207 OA
ATOM     25  O   UNL A   1      29.389  28.230  22.349  1.00  0.00    -0.207 OA
BRANCH  23  26
ATOM     26  N   UNL A   1      31.347  29.703  21.891  1.00  0.00    -0.225 NA
ATOM     27  H   UNL A   1      30.792  30.157  21.167  1.00  0.00     0.137 HD
ATOM     28  H   UNL A   1      31.899  28.953  21.478  1.00  0.00     0.137 HD
ENDBRANCH  23  26
ENDBRANCH  18  23
ENDBRANCH  15  17
ENDBRANCH  12  15
ENDBRANCH   7  12
ENDBRANCH   3   6
ENDBRANCH   1   2
BRANCH   1  29
ATOM     29  C   UNL A   1      37.638  19.618  24.799  1.00  0.00     0.042 C 
BRANCH  29  30
ATOM     30  C   UNL A   1      38.683  20.221  25.719  1.00  0.00     0.118 C 
BRANCH  30  31
ATOM     31  N   UNL A   1      39.786  19.303  25.987  1.00  0.00    -0.352 N 
ATOM     32  C   UNL A   1      41.124  19.536  26.189  1.00  0.00     0.251 C 
ATOM     33  H   UNL A   1      39.526  18.354  26.031  1.00  0.00     0.163 HD
ATOM     34  O   UNL A   1      41.905  18.589  26.144  1.00  0.00    -0.269 OA
BRANCH  32  35
ATOM     35  C   UNL A   1      41.621  20.903  26.448  1.00  0.00     0.039 A 
ATOM     36  C   UNL A   1      41.811  21.778  25.376  1.00  0.00     0.014 A 
ATOM     37  C   UNL A   1      41.941  21.315  27.743  1.00  0.00     0.014 A 
ATOM     38  C   UNL A   1      42.265  23.078  25.614  1.00  0.00     0.010 A 
ATOM     39  C   UNL A   1      42.273  22.640  27.992  1.00  0.00     0.010 A 
ATOM     40  C   UNL A   1      42.466  23.530  26.928  1.00  0.00    -0.014 A 
BRANCH  40  41
ATOM     41  C   UNL A   1      42.931  24.912  27.214  1.00  0.00     0.031 A 
ATOM     42  C   UNL A   1      41.999  25.891  27.883  1.00  0.00     0.074 A 
ATOM     43  C   UNL A   1      44.163  25.298  26.829  1.00  0.00     0.049 A 
ATOM     44  N   UNL A   1      42.179  27.160  28.144  1.00  0.00    -0.248 NA
ATOM     45  C   UNL A   1      40.674  25.381  28.273  1.00  0.00     0.031 C 
ATOM     46  C   UNL A   1      45.135  24.452  26.132  1.00  0.00     0.029 A 
ATOM     47  N   UNL A   1      44.808  26.502  26.961  1.00  0.00    -0.354 N 
ATOM     48  C   UNL A   1      40.989  27.599  28.719  1.00  0.00     0.074 A 
ATOM     49  C   UNL A   1      40.069  26.484  28.685  1.00  0.00     0.031 C 
ATOM     50  C   UNL A   1      46.262  25.153  25.930  1.00  0.00     0.029 A 
ATOM     51  C   UNL A   1      46.077  26.510  26.431  1.00  0.00     0.049 A 
ATOM     52  H   UNL A   1      44.400  27.286  27.395  1.00  0.00     0.167 HD
ATOM     53  C   UNL A   1      40.703  28.809  29.259  1.00  0.00     0.034 A 
ATOM     54  C   UNL A   1      46.984  27.504  26.347  1.00  0.00     0.034 A 
ATOM     55  C   UNL A   1      41.638  29.906  29.292  1.00  0.00     0.049 A 
ATOM     56  C   UNL A   1      46.636  28.850  26.931  1.00  0.00     0.074 A 
ATOM     57  C   UNL A   1      41.469  31.168  29.836  1.00  0.00     0.029 A 
ATOM     58  N   UNL A   1      42.920  29.874  28.756  1.00  0.00    -0.354 N 
ATOM     59  N   UNL A   1      45.519  29.239  27.505  1.00  0.00    -0.248 NA
ATOM     60  C   UNL A   1      47.675  29.884  26.876  1.00  0.00     0.031 C 
ATOM     61  C   UNL A   1      42.619  31.917  29.566  1.00  0.00     0.029 A 
ATOM     62  C   UNL A   1      43.543  31.099  28.936  1.00  0.00     0.049 A 
ATOM     63  H   UNL A   1      43.326  29.095  28.312  1.00  0.00     0.167 HD
ATOM     64  C   UNL A   1      45.741  30.552  27.915  1.00  0.00     0.074 A 
ATOM     65  C   UNL A   1      47.100  30.878  27.536  1.00  0.00     0.031 C 
ATOM     66  C   UNL A   1      44.901  31.410  28.551  1.00  0.00     0.034 A 
BRANCH  53  67
ATOM     67  C   UNL A   1      39.320  29.001  29.839  1.00  0.00     0.023 A 
ATOM     68  C   UNL A   1      38.281  29.585  29.090  1.00  0.00     0.031 A 
ATOM     69  C   UNL A   1      39.039  28.627  31.165  1.00  0.00     0.131 A 
ATOM     70  C   UNL A   1      37.045  29.856  29.696  1.00  0.00     0.055 A 
ATOM     71  C   UNL A   1      37.778  28.815  31.733  1.00  0.00     0.041 A 
ATOM     72  F   UNL A   1      39.994  28.087  31.940  1.00  0.00    -0.206 F 
ATOM     73  C   UNL A   1      36.776  29.447  31.004  1.00  0.00     0.022 A 
BRANCH  70  74
ATOM     74  S   UNL A   1      35.853  30.891  28.802  1.00  0.00     0.124 S 
ATOM     75  O   UNL A   1      36.738  31.734  28.002  1.00  0.00    -0.237 OA
ATOM     76  O   UNL A   1      35.068  29.906  28.067  1.00  0.00    -0.237 OA
ATOM     77  O   UNL A   1      35.138  31.589  29.869  1.00  0.00    -0.744 OA
ENDBRANCH  70  74
ENDBRANCH  53  67
BRANCH  54  78
ATOM     78  C   UNL A   1      48.301  27.275  25.682  1.00  0.00     0.023 A 
ATOM     79  C   UNL A   1      48.465  27.473  24.302  1.00  0.00     0.031 A 
ATOM     80  C   UNL A   1      49.407  26.807  26.414  1.00  0.00     0.131 A 
ATOM     81  C   UNL A   1      49.685  27.149  23.688  1.00  0.00     0.055 A 
ATOM     82  C   UNL A   1      50.638  26.547  25.810  1.00  0.00     0.041 A 
ATOM     83  F   UNL A   1      49.309  26.602  27.738  1.00  0.00    -0.206 F 
ATOM     84  C   UNL A   1      50.777  26.703  24.435  1.00  0.00     0.022 A 
BRANCH  81  85
ATOM     85  S   UNL A   1      49.792  27.217  21.878  1.00  0.00     0.124 S 
ATOM     86  O   UNL A   1      49.589  28.639  21.624  1.00  0.00    -0.237 OA
ATOM     87  O   UNL A   1      51.136  26.706  21.634  1.00  0.00    -0.237 OA
ATOM     88  O   UNL A   1      48.704  26.344  21.440  1.00  0.00    -0.744 OA
ENDBRANCH  81  85
ENDBRANCH  54  78
BRANCH  66  89
ATOM     89  C   UNL A   1      45.458  32.760  28.935  1.00  0.00     0.023 A 
ATOM     90  C   UNL A   1      45.390  33.868  28.073  1.00  0.00     0.031 A 
ATOM     91  C   UNL A   1      46.089  32.931  30.181  1.00  0.00     0.131 A 
ATOM     92  C   UNL A   1      46.008  35.074  28.436  1.00  0.00     0.055 A 
ATOM     93  C   UNL A   1      46.634  34.155  30.568  1.00  0.00     0.041 A 
ATOM     94  F   UNL A   1      46.186  31.908  31.044  1.00  0.00    -0.206 F 
ATOM     95  C   UNL A   1      46.611  35.231  29.687  1.00  0.00     0.022 A 
BRANCH  92  96
ATOM     96  S   UNL A   1      46.124  36.397  27.200  1.00  0.00     0.124 S 
ATOM     97  O   UNL A   1      44.764  36.924  27.191  1.00  0.00    -0.237 OA
ATOM     98  O   UNL A   1      47.142  37.271  27.776  1.00  0.00    -0.237 OA
ATOM     99  O   UNL A   1      46.527  35.695  25.983  1.00  0.00    -0.744 OA
ENDBRANCH  92  96
ENDBRANCH  66  89
ENDBRANCH  40  41
ENDBRANCH  32  35
ENDBRANCH  30  31
ENDBRANCH  29  30
ENDBRANCH   1  29
TORSDOF 18
ENDMDL
