MODEL 1
REMARK VINA RESULT:     -12.3      0.000      0.000
REMARK SMILES O=C(CCC(=O)/[NH+]=C1\S[C@H]2CS(=O)(=O)C[C@@H]2N1c1ccc2c(c1)OCO2)NCCCNC(=O)c1ccc(-c2c3nc(c(-c4cc(S(=O)(=O)[O-])ccc4F)c4ccc([nH]4)c(-c4cc(S(=O)(=O)[O-])ccc4F)c4nc(c(-c5cc(S(=O)(=O)[O-])ccc5F)c5ccc2[nH]5)C=C4)C=C3)cc1
REMARK SMILES IDX 29 1 28 2 27 3 2 4 1 5 3 7 4 8 5 9 6 10 7 11 8 12 9 14 17 15
REMARK SMILES IDX 10 16 16 17 11 18 15 19 12 20 13 21 14 22 18 23 19 24 23 25
REMARK SMILES IDX 20 26 22 27 21 28 24 29 26 30 25 31 30 32 31 33 32 34 33 36
REMARK SMILES IDX 34 37 35 38 96 39 36 40 95 41 37 42 38 43 39 44 89 45 40 46
REMARK SMILES IDX 94 47 88 48 90 49 41 50 93 51 87 52 86 53 42 55 74 56 54 57
REMARK SMILES IDX 73 58 55 59 58 60 72 61 91 62 56 63 57 64 71 66 92 67 59 68
REMARK SMILES IDX 43 69 44 70 52 71 45 72 51 73 53 74 50 75 46 76 47 77 48 78
REMARK SMILES IDX 49 79 75 80 76 81 84 82 77 83 83 84 85 85 82 86 78 87 79 88
REMARK SMILES IDX 80 89 81 90 60 91 61 92 69 93 62 94 68 95 70 96 67 97 63 98
REMARK SMILES IDX 64 99 65 100 66 101
REMARK H PARENT 27 6 7 13 31 35 90 54 58 65
REMARK Flexibility Score: inf
ROOT
ATOM      1  C   UNL A   1      31.108  32.054  26.665  1.00  0.00     0.042 C 
ENDROOT
BRANCH   1   2
ATOM      2  C   UNL A   1      31.108  30.964  25.589  1.00  0.00     0.117 C 
BRANCH   2   3
ATOM      3  N   UNL A   1      30.217  31.198  24.463  1.00  0.00    -0.356 N 
ATOM      4  C   UNL A   1      29.721  30.342  23.529  1.00  0.00     0.220 C 
ATOM      5  O   UNL A   1      28.886  30.762  22.725  1.00  0.00    -0.275 OA
ATOM      6  H   UNL A   1      29.926  32.133  24.358  1.00  0.00     0.163 HD
BRANCH   4   7
ATOM      7  C   UNL A   1      30.191  28.911  23.472  1.00  0.00     0.112 C 
BRANCH   7   8
ATOM      8  C   UNL A   1      31.349  28.577  22.538  1.00  0.00     0.138 C 
BRANCH   8   9
ATOM      9  C   UNL A   1      32.753  28.266  23.052  1.00  0.00     0.308 C 
ATOM     10  O   UNL A   1      33.513  29.201  23.296  1.00  0.00    -0.247 OA
ATOM     11  N   UNL A   1      33.154  26.967  23.188  1.00  0.00    -0.204 N 
ATOM     12  C   UNL A   1      32.652  26.193  24.090  1.00  0.00     0.319 C 
ATOM     13  H   UNL A   1      33.844  26.612  22.582  1.00  0.00     0.316 HD
ATOM     14  S   UNL A   1      31.395  26.673  25.271  1.00  0.00    -0.029 SA
ATOM     15  N   UNL A   1      32.936  24.835  24.229  1.00  0.00    -0.216 N 
ATOM     16  C   UNL A   1      31.483  25.059  26.075  1.00  0.00     0.120 C 
ATOM     17  C   UNL A   1      31.878  24.119  24.933  1.00  0.00     0.212 C 
ATOM     18  C   UNL A   1      30.251  24.431  26.673  1.00  0.00     0.156 C 
ATOM     19  C   UNL A   1      32.128  22.788  25.607  1.00  0.00     0.188 C 
ATOM     20  S   UNL A   1      30.747  22.701  26.761  1.00  0.00     0.155 S 
ATOM     21  O   UNL A   1      31.274  22.448  28.088  1.00  0.00    -0.229 OA
ATOM     22  O   UNL A   1      29.701  21.893  26.180  1.00  0.00    -0.229 OA
BRANCH  15  23
ATOM     23  C   UNL A   1      34.230  24.303  24.252  1.00  0.00     0.132 A 
ATOM     24  C   UNL A   1      34.694  23.502  23.182  1.00  0.00     0.056 A 
ATOM     25  C   UNL A   1      35.045  24.473  25.382  1.00  0.00     0.102 A 
ATOM     26  C   UNL A   1      35.945  22.875  23.234  1.00  0.00     0.055 A 
ATOM     27  C   UNL A   1      36.264  23.831  25.414  1.00  0.00     0.170 A 
ATOM     28  C   UNL A   1      36.705  23.058  24.369  1.00  0.00     0.166 A 
ATOM     29  O   UNL A   1      37.148  23.867  26.445  1.00  0.00    -0.453 OA
ATOM     30  O   UNL A   1      37.947  22.552  24.592  1.00  0.00    -0.454 OA
ATOM     31  C   UNL A   1      38.251  23.121  25.887  1.00  0.00     0.468 C 
ENDBRANCH  15  23
ENDBRANCH   8   9
ENDBRANCH   7   8
ENDBRANCH   4   7
ENDBRANCH   2   3
ENDBRANCH   1   2
BRANCH   1  32
ATOM     32  C   UNL A   1      32.483  32.537  27.123  1.00  0.00     0.118 C 
BRANCH  32  33
ATOM     33  N   UNL A   1      32.453  33.893  27.654  1.00  0.00    -0.352 N 
ATOM     34  C   UNL A   1      33.215  34.484  28.640  1.00  0.00     0.251 C 
ATOM     35  H   UNL A   1      31.780  34.484  27.244  1.00  0.00     0.163 HD
ATOM     36  O   UNL A   1      32.870  35.581  29.073  1.00  0.00    -0.269 OA
BRANCH  34  37
ATOM     37  C   UNL A   1      34.440  33.835  29.175  1.00  0.00     0.039 A 
ATOM     38  C   UNL A   1      35.705  34.308  28.808  1.00  0.00     0.014 A 
ATOM     39  C   UNL A   1      34.351  32.707  29.986  1.00  0.00     0.014 A 
ATOM     40  C   UNL A   1      36.866  33.686  29.304  1.00  0.00     0.010 A 
ATOM     41  C   UNL A   1      35.501  32.120  30.515  1.00  0.00     0.010 A 
ATOM     42  C   UNL A   1      36.774  32.595  30.184  1.00  0.00    -0.014 A 
BRANCH  42  43
ATOM     43  C   UNL A   1      37.955  32.003  30.877  1.00  0.00     0.031 A 
ATOM     44  C   UNL A   1      38.743  30.864  30.277  1.00  0.00     0.074 A 
ATOM     45  C   UNL A   1      38.209  32.379  32.147  1.00  0.00     0.049 A 
ATOM     46  N   UNL A   1      39.736  30.182  30.796  1.00  0.00    -0.248 NA
ATOM     47  C   UNL A   1      38.336  30.403  28.943  1.00  0.00     0.031 C 
ATOM     48  C   UNL A   1      37.445  33.380  32.893  1.00  0.00     0.029 A 
ATOM     49  N   UNL A   1      39.148  31.938  33.048  1.00  0.00    -0.354 N 
ATOM     50  C   UNL A   1      40.079  29.217  29.853  1.00  0.00     0.074 A 
ATOM     51  C   UNL A   1      39.138  29.361  28.760  1.00  0.00     0.031 C 
ATOM     52  C   UNL A   1      37.946  33.480  34.133  1.00  0.00     0.029 A 
ATOM     53  C   UNL A   1      39.050  32.537  34.283  1.00  0.00     0.049 A 
ATOM     54  H   UNL A   1      39.825  31.258  32.831  1.00  0.00     0.167 HD
ATOM     55  C   UNL A   1      41.097  28.316  29.885  1.00  0.00     0.034 A 
ATOM     56  C   UNL A   1      39.760  32.349  35.413  1.00  0.00     0.034 A 
ATOM     57  C   UNL A   1      42.029  28.181  30.982  1.00  0.00     0.049 A 
ATOM     58  C   UNL A   1      40.886  31.346  35.425  1.00  0.00     0.074 A 
ATOM     59  C   UNL A   1      43.162  27.386  31.059  1.00  0.00     0.029 A 
ATOM     60  N   UNL A   1      41.931  28.836  32.203  1.00  0.00    -0.354 N 
ATOM     61  N   UNL A   1      41.285  30.542  34.469  1.00  0.00    -0.248 NA
ATOM     62  C   UNL A   1      41.668  31.242  36.666  1.00  0.00     0.031 C 
ATOM     63  C   UNL A   1      43.698  27.498  32.346  1.00  0.00     0.029 A 
ATOM     64  C   UNL A   1      42.953  28.428  33.049  1.00  0.00     0.049 A 
ATOM     65  H   UNL A   1      41.235  29.494  32.434  1.00  0.00     0.167 HD
ATOM     66  C   UNL A   1      42.387  29.862  34.984  1.00  0.00     0.074 A 
ATOM     67  C   UNL A   1      42.598  30.362  36.325  1.00  0.00     0.031 C 
ATOM     68  C   UNL A   1      43.158  28.914  34.393  1.00  0.00     0.034 A 
BRANCH  55  69
ATOM     69  C   UNL A   1      41.279  27.405  28.690  1.00  0.00     0.023 A 
ATOM     70  C   UNL A   1      42.286  27.641  27.738  1.00  0.00     0.031 A 
ATOM     71  C   UNL A   1      40.477  26.261  28.521  1.00  0.00     0.131 A 
ATOM     72  C   UNL A   1      42.428  26.787  26.634  1.00  0.00     0.055 A 
ATOM     73  C   UNL A   1      40.675  25.369  27.463  1.00  0.00     0.041 A 
ATOM     74  F   UNL A   1      39.490  25.984  29.388  1.00  0.00    -0.206 F 
ATOM     75  C   UNL A   1      41.647  25.636  26.504  1.00  0.00     0.022 A 
BRANCH  72  76
ATOM     76  S   UNL A   1      43.568  27.270  25.311  1.00  0.00     0.124 S 
ATOM     77  O   UNL A   1      44.203  25.993  24.989  1.00  0.00    -0.237 OA
ATOM     78  O   UNL A   1      42.668  27.808  24.299  1.00  0.00    -0.237 OA
ATOM     79  O   UNL A   1      44.444  28.248  25.952  1.00  0.00    -0.744 OA
ENDBRANCH  72  76
ENDBRANCH  55  69
BRANCH  56  80
ATOM     80  C   UNL A   1      39.456  33.154  36.629  1.00  0.00     0.023 A 
ATOM     81  C   UNL A   1      38.691  32.604  37.668  1.00  0.00     0.031 A 
ATOM     82  C   UNL A   1      39.892  34.484  36.758  1.00  0.00     0.131 A 
ATOM     83  C   UNL A   1      38.331  33.397  38.766  1.00  0.00     0.055 A 
ATOM     84  C   UNL A   1      39.583  35.250  37.884  1.00  0.00     0.041 A 
ATOM     85  F   UNL A   1      40.634  35.053  35.795  1.00  0.00    -0.206 F 
ATOM     86  C   UNL A   1      38.785  34.712  38.889  1.00  0.00     0.022 A 
BRANCH  83  87
ATOM     87  S   UNL A   1      37.174  32.710  39.980  1.00  0.00     0.124 S 
ATOM     88  O   UNL A   1      36.014  32.413  39.147  1.00  0.00    -0.237 OA
ATOM     89  O   UNL A   1      37.913  31.558  40.485  1.00  0.00    -0.237 OA
ATOM     90  O   UNL A   1      36.995  33.802  40.934  1.00  0.00    -0.744 OA
ENDBRANCH  83  87
ENDBRANCH  56  80
BRANCH  68  91
ATOM     91  C   UNL A   1      44.327  28.380  35.184  1.00  0.00     0.023 A 
ATOM     92  C   UNL A   1      44.233  27.200  35.944  1.00  0.00     0.031 A 
ATOM     93  C   UNL A   1      45.556  29.064  35.182  1.00  0.00     0.131 A 
ATOM     94  C   UNL A   1      45.329  26.766  36.704  1.00  0.00     0.055 A 
ATOM     95  C   UNL A   1      46.662  28.596  35.893  1.00  0.00     0.041 A 
ATOM     96  F   UNL A   1      45.706  30.199  34.479  1.00  0.00    -0.206 F 
ATOM     97  C   UNL A   1      46.549  27.445  36.669  1.00  0.00     0.022 A 
BRANCH  94  98
ATOM     98  S   UNL A   1      45.121  25.337  37.802  1.00  0.00     0.124 S 
ATOM     99  O   UNL A   1      43.675  25.138  37.770  1.00  0.00    -0.237 OA
ATOM    100  O   UNL A   1      45.919  24.311  37.137  1.00  0.00    -0.237 OA
ATOM    101  O   UNL A   1      45.654  25.803  39.080  1.00  0.00    -0.744 OA
ENDBRANCH  94  98
ENDBRANCH  68  91
ENDBRANCH  42  43
ENDBRANCH  34  37
ENDBRANCH  32  33
ENDBRANCH   1  32
TORSDOF 16
ENDMDL
MODEL 2
REMARK VINA RESULT:     -12.1      5.159     10.273
REMARK SMILES O=C(CCC(=O)/[NH+]=C1\S[C@H]2CS(=O)(=O)C[C@@H]2N1c1ccc2c(c1)OCO2)NCCCNC(=O)c1ccc(-c2c3nc(c(-c4cc(S(=O)(=O)[O-])ccc4F)c4ccc([nH]4)c(-c4cc(S(=O)(=O)[O-])ccc4F)c4nc(c(-c5cc(S(=O)(=O)[O-])ccc5F)c5ccc2[nH]5)C=C4)C=C3)cc1
REMARK SMILES IDX 29 1 28 2 27 3 2 4 1 5 3 7 4 8 5 9 6 10 7 11 8 12 9 14 17 15
REMARK SMILES IDX 10 16 16 17 11 18 15 19 12 20 13 21 14 22 18 23 19 24 23 25
REMARK SMILES IDX 20 26 22 27 21 28 24 29 26 30 25 31 30 32 31 33 32 34 33 36
REMARK SMILES IDX 34 37 35 38 96 39 36 40 95 41 37 42 38 43 39 44 89 45 40 46
REMARK SMILES IDX 94 47 88 48 90 49 41 50 93 51 87 52 86 53 42 55 74 56 54 57
REMARK SMILES IDX 73 58 55 59 58 60 72 61 91 62 56 63 57 64 71 66 92 67 59 68
REMARK SMILES IDX 43 69 44 70 52 71 45 72 51 73 53 74 50 75 46 76 47 77 48 78
REMARK SMILES IDX 49 79 75 80 76 81 84 82 77 83 83 84 85 85 82 86 78 87 79 88
REMARK SMILES IDX 80 89 81 90 60 91 61 92 69 93 62 94 68 95 70 96 67 97 63 98
REMARK SMILES IDX 64 99 65 100 66 101
REMARK H PARENT 27 6 7 13 31 35 90 54 58 65
REMARK Flexibility Score: inf
ROOT
ATOM      1  C   UNL A   1      46.670  32.318  26.541  1.00  0.00     0.042 C 
ENDROOT
BRANCH   1   2
ATOM      2  C   UNL A   1      45.729  31.312  27.210  1.00  0.00     0.117 C 
BRANCH   2   3
ATOM      3  N   UNL A   1      44.615  30.858  26.392  1.00  0.00    -0.356 N 
ATOM      4  C   UNL A   1      43.607  29.988  26.668  1.00  0.00     0.220 C 
ATOM      5  O   UNL A   1      42.705  29.843  25.839  1.00  0.00    -0.275 OA
ATOM      6  H   UNL A   1      44.588  31.244  25.487  1.00  0.00     0.163 HD
BRANCH   4   7
ATOM      7  C   UNL A   1      43.596  29.207  27.958  1.00  0.00     0.112 C 
BRANCH   7   8
ATOM      8  C   UNL A   1      42.845  27.880  27.982  1.00  0.00     0.138 C 
BRANCH   8   9
ATOM      9  C   UNL A   1      41.338  27.786  27.752  1.00  0.00     0.308 C 
ATOM     10  O   UNL A   1      40.899  26.846  27.093  1.00  0.00    -0.247 OA
ATOM     11  N   UNL A   1      40.515  28.762  28.239  1.00  0.00    -0.204 N 
ATOM     12  C   UNL A   1      40.313  28.911  29.505  1.00  0.00     0.319 C 
ATOM     13  H   UNL A   1      40.064  29.369  27.607  1.00  0.00     0.316 HD
ATOM     14  S   UNL A   1      41.048  27.899  30.787  1.00  0.00    -0.029 SA
ATOM     15  N   UNL A   1      39.570  29.938  30.083  1.00  0.00    -0.216 N 
ATOM     16  C   UNL A   1      40.111  28.770  32.060  1.00  0.00     0.120 C 
ATOM     17  C   UNL A   1      39.940  30.173  31.474  1.00  0.00     0.212 C 
ATOM     18  C   UNL A   1      40.702  29.000  33.426  1.00  0.00     0.156 C 
ATOM     19  C   UNL A   1      39.012  30.878  32.439  1.00  0.00     0.188 C 
ATOM     20  S   UNL A   1      39.678  30.354  34.029  1.00  0.00     0.155 S 
ATOM     21  O   UNL A   1      38.596  29.790  34.814  1.00  0.00    -0.229 OA
ATOM     22  O   UNL A   1      40.542  31.392  34.540  1.00  0.00    -0.229 OA
BRANCH  15  23
ATOM     23  C   UNL A   1      38.287  30.309  29.663  1.00  0.00     0.132 A 
ATOM     24  C   UNL A   1      37.272  29.334  29.516  1.00  0.00     0.056 A 
ATOM     25  C   UNL A   1      38.021  31.634  29.285  1.00  0.00     0.102 A 
ATOM     26  C   UNL A   1      36.015  29.666  28.999  1.00  0.00     0.055 A 
ATOM     27  C   UNL A   1      36.781  31.930  28.762  1.00  0.00     0.170 A 
ATOM     28  C   UNL A   1      35.803  30.977  28.627  1.00  0.00     0.166 A 
ATOM     29  O   UNL A   1      36.382  33.152  28.321  1.00  0.00    -0.453 OA
ATOM     30  O   UNL A   1      34.648  31.492  28.129  1.00  0.00    -0.454 OA
ATOM     31  C   UNL A   1      35.000  32.888  27.996  1.00  0.00     0.468 C 
ENDBRANCH  15  23
ENDBRANCH   8   9
ENDBRANCH   7   8
ENDBRANCH   4   7
ENDBRANCH   2   3
ENDBRANCH   1   2
BRANCH   1  32
ATOM     32  C   UNL A   1      46.488  33.777  26.955  1.00  0.00     0.118 C 
BRANCH  32  33
ATOM     33  N   UNL A   1      45.454  34.455  26.183  1.00  0.00    -0.352 N 
ATOM     34  C   UNL A   1      44.153  34.768  26.514  1.00  0.00     0.251 C 
ATOM     35  H   UNL A   1      45.729  34.734  25.280  1.00  0.00     0.163 HD
ATOM     36  O   UNL A   1      43.396  35.153  25.625  1.00  0.00    -0.269 OA
BRANCH  34  37
ATOM     37  C   UNL A   1      43.655  34.665  27.910  1.00  0.00     0.039 A 
ATOM     38  C   UNL A   1      43.566  35.808  28.712  1.00  0.00     0.014 A 
ATOM     39  C   UNL A   1      43.340  33.427  28.463  1.00  0.00     0.014 A 
ATOM     40  C   UNL A   1      43.106  35.710  30.039  1.00  0.00     0.010 A 
ATOM     41  C   UNL A   1      42.840  33.336  29.762  1.00  0.00     0.010 A 
ATOM     42  C   UNL A   1      42.716  34.470  30.571  1.00  0.00    -0.014 A 
BRANCH  42  43
ATOM     43  C   UNL A   1      42.062  34.323  31.904  1.00  0.00     0.031 A 
ATOM     44  C   UNL A   1      42.841  33.929  33.136  1.00  0.00     0.074 A 
ATOM     45  C   UNL A   1      40.715  34.370  31.967  1.00  0.00     0.049 A 
ATOM     46  N   UNL A   1      42.402  33.671  34.344  1.00  0.00    -0.248 NA
ATOM     47  C   UNL A   1      44.292  33.758  32.979  1.00  0.00     0.031 C 
ATOM     48  C   UNL A   1      39.832  34.617  30.827  1.00  0.00     0.029 A 
ATOM     49  N   UNL A   1      39.854  34.172  33.019  1.00  0.00    -0.354 N 
ATOM     50  C   UNL A   1      43.519  33.317  35.096  1.00  0.00     0.074 A 
ATOM     51  C   UNL A   1      44.645  33.325  34.183  1.00  0.00     0.031 C 
ATOM     52  C   UNL A   1      38.557  34.561  31.239  1.00  0.00     0.029 A 
ATOM     53  C   UNL A   1      38.526  34.250  32.665  1.00  0.00     0.049 A 
ATOM     54  H   UNL A   1      40.158  33.992  33.937  1.00  0.00     0.167 HD
ATOM     55  C   UNL A   1      43.600  33.037  36.424  1.00  0.00     0.034 A 
ATOM     56  C   UNL A   1      37.407  34.086  33.398  1.00  0.00     0.034 A 
ATOM     57  C   UNL A   1      42.469  33.031  37.324  1.00  0.00     0.049 A 
ATOM     58  C   UNL A   1      37.522  33.778  34.870  1.00  0.00     0.074 A 
ATOM     59  C   UNL A   1      42.464  32.879  38.702  1.00  0.00     0.029 A 
ATOM     60  N   UNL A   1      41.141  33.159  36.943  1.00  0.00    -0.354 N 
ATOM     61  N   UNL A   1      38.600  33.586  35.592  1.00  0.00    -0.248 NA
ATOM     62  C   UNL A   1      36.265  33.683  35.627  1.00  0.00     0.031 C 
ATOM     63  C   UNL A   1      41.137  32.834  39.141  1.00  0.00     0.029 A 
ATOM     64  C   UNL A   1      40.311  33.044  38.050  1.00  0.00     0.049 A 
ATOM     65  H   UNL A   1      40.831  33.309  36.020  1.00  0.00     0.167 HD
ATOM     66  C   UNL A   1      38.150  33.384  36.895  1.00  0.00     0.074 A 
ATOM     67  C   UNL A   1      36.707  33.493  36.861  1.00  0.00     0.031 C 
ATOM     68  C   UNL A   1      38.870  33.138  38.018  1.00  0.00     0.034 A 
BRANCH  55  69
ATOM     69  C   UNL A   1      44.964  32.728  37.004  1.00  0.00     0.023 A 
ATOM     70  C   UNL A   1      45.425  31.405  37.123  1.00  0.00     0.031 A 
ATOM     71  C   UNL A   1      45.837  33.761  37.395  1.00  0.00     0.131 A 
ATOM     72  C   UNL A   1      46.690  31.145  37.672  1.00  0.00     0.055 A 
ATOM     73  C   UNL A   1      47.127  33.499  37.866  1.00  0.00     0.041 A 
ATOM     74  F   UNL A   1      45.455  35.045  37.318  1.00  0.00    -0.206 F 
ATOM     75  C   UNL A   1      47.556  32.184  38.018  1.00  0.00     0.022 A 
BRANCH  72  76
ATOM     76  S   UNL A   1      47.136  29.427  38.035  1.00  0.00     0.124 S 
ATOM     77  O   UNL A   1      46.171  29.086  39.079  1.00  0.00    -0.237 OA
ATOM     78  O   UNL A   1      46.942  28.772  36.748  1.00  0.00    -0.237 OA
ATOM     79  O   UNL A   1      48.523  29.520  38.486  1.00  0.00    -0.744 OA
ENDBRANCH  72  76
ENDBRANCH  55  69
BRANCH  56  80
ATOM     80  C   UNL A   1      36.069  34.244  32.764  1.00  0.00     0.023 A 
ATOM     81  C   UNL A   1      35.428  35.492  32.766  1.00  0.00     0.031 A 
ATOM     82  C   UNL A   1      35.398  33.154  32.183  1.00  0.00     0.131 A 
ATOM     83  C   UNL A   1      34.131  35.611  32.251  1.00  0.00     0.055 A 
ATOM     84  C   UNL A   1      34.130  33.292  31.615  1.00  0.00     0.041 A 
ATOM     85  F   UNL A   1      35.972  31.941  32.150  1.00  0.00    -0.206 F 
ATOM     86  C   UNL A   1      33.482  34.524  31.660  1.00  0.00     0.022 A 
BRANCH  83  87
ATOM     87  S   UNL A   1      33.265  37.190  32.458  1.00  0.00     0.124 S 
ATOM     88  O   UNL A   1      34.228  37.953  33.245  1.00  0.00    -0.237 OA
ATOM     89  O   UNL A   1      33.082  37.620  31.077  1.00  0.00    -0.237 OA
ATOM     90  O   UNL A   1      32.041  36.816  33.162  1.00  0.00    -0.744 OA
ENDBRANCH  83  87
ENDBRANCH  56  80
BRANCH  68  91
ATOM     91  C   UNL A   1      38.109  33.004  39.314  1.00  0.00     0.023 A 
ATOM     92  C   UNL A   1      38.223  33.955  40.344  1.00  0.00     0.031 A 
ATOM     93  C   UNL A   1      37.257  31.905  39.526  1.00  0.00     0.131 A 
ATOM     94  C   UNL A   1      37.536  33.766  41.553  1.00  0.00     0.055 A 
ATOM     95  C   UNL A   1      36.529  31.753  40.707  1.00  0.00     0.041 A 
ATOM     96  F   UNL A   1      37.110  30.962  38.581  1.00  0.00    -0.206 F 
ATOM     97  C   UNL A   1      36.675  32.681  41.734  1.00  0.00     0.022 A 
BRANCH  94  98
ATOM     98  S   UNL A   1      37.837  34.921  42.920  1.00  0.00     0.124 S 
ATOM     99  O   UNL A   1      38.313  36.108  42.215  1.00  0.00    -0.237 OA
ATOM    100  O   UNL A   1      36.518  35.032  43.533  1.00  0.00    -0.237 OA
ATOM    101  O   UNL A   1      38.842  34.238  43.733  1.00  0.00    -0.744 OA
ENDBRANCH  94  98
ENDBRANCH  68  91
ENDBRANCH  42  43
ENDBRANCH  34  37
ENDBRANCH  32  33
ENDBRANCH   1  32
TORSDOF 16
ENDMDL
MODEL 3
REMARK VINA RESULT:     -12.0      2.610      7.996
REMARK SMILES O=C(CCC(=O)/[NH+]=C1\S[C@H]2CS(=O)(=O)C[C@@H]2N1c1ccc2c(c1)OCO2)NCCCNC(=O)c1ccc(-c2c3nc(c(-c4cc(S(=O)(=O)[O-])ccc4F)c4ccc([nH]4)c(-c4cc(S(=O)(=O)[O-])ccc4F)c4nc(c(-c5cc(S(=O)(=O)[O-])ccc5F)c5ccc2[nH]5)C=C4)C=C3)cc1
REMARK SMILES IDX 29 1 28 2 27 3 2 4 1 5 3 7 4 8 5 9 6 10 7 11 8 12 9 14 17 15
REMARK SMILES IDX 10 16 16 17 11 18 15 19 12 20 13 21 14 22 18 23 19 24 23 25
REMARK SMILES IDX 20 26 22 27 21 28 24 29 26 30 25 31 30 32 31 33 32 34 33 36
REMARK SMILES IDX 34 37 35 38 96 39 36 40 95 41 37 42 38 43 39 44 89 45 40 46
REMARK SMILES IDX 94 47 88 48 90 49 41 50 93 51 87 52 86 53 42 55 74 56 54 57
REMARK SMILES IDX 73 58 55 59 58 60 72 61 91 62 56 63 57 64 71 66 92 67 59 68
REMARK SMILES IDX 43 69 44 70 52 71 45 72 51 73 53 74 50 75 46 76 47 77 48 78
REMARK SMILES IDX 49 79 75 80 76 81 84 82 77 83 83 84 85 85 82 86 78 87 79 88
REMARK SMILES IDX 80 89 81 90 60 91 61 92 69 93 62 94 68 95 70 96 67 97 63 98
REMARK SMILES IDX 64 99 65 100 66 101
REMARK H PARENT 27 6 7 13 31 35 90 54 58 65
REMARK Flexibility Score: inf
ROOT
ATOM      1  C   UNL A   1      31.612  28.189  25.314  1.00  0.00     0.042 C 
ENDROOT
BRANCH   1   2
ATOM      2  C   UNL A   1      31.278  27.716  23.897  1.00  0.00     0.117 C 
BRANCH   2   3
ATOM      3  N   UNL A   1      32.411  27.249  23.112  1.00  0.00    -0.356 N 
ATOM      4  C   UNL A   1      32.588  26.101  22.404  1.00  0.00     0.220 C 
ATOM      5  O   UNL A   1      33.607  25.976  21.721  1.00  0.00    -0.275 OA
ATOM      6  H   UNL A   1      33.177  27.866  23.091  1.00  0.00     0.163 HD
BRANCH   4   7
ATOM      7  C   UNL A   1      31.563  24.997  22.460  1.00  0.00     0.112 C 
BRANCH   7   8
ATOM      8  C   UNL A   1      31.771  23.881  23.479  1.00  0.00     0.138 C 
BRANCH   8   9
ATOM      9  C   UNL A   1      32.888  23.921  24.521  1.00  0.00     0.308 C 
ATOM     10  O   UNL A   1      32.837  24.770  25.408  1.00  0.00    -0.247 OA
ATOM     11  N   UNL A   1      33.936  23.050  24.425  1.00  0.00    -0.204 N 
ATOM     12  C   UNL A   1      33.789  21.785  24.630  1.00  0.00     0.319 C 
ATOM     13  H   UNL A   1      34.828  23.398  24.193  1.00  0.00     0.316 HD
ATOM     14  S   UNL A   1      32.245  20.988  25.062  1.00  0.00    -0.029 SA
ATOM     15  N   UNL A   1      34.784  20.824  24.457  1.00  0.00    -0.216 N 
ATOM     16  C   UNL A   1      33.074  19.394  25.230  1.00  0.00     0.120 C 
ATOM     17  C   UNL A   1      34.233  19.492  24.235  1.00  0.00     0.212 C 
ATOM     18  C   UNL A   1      32.365  18.117  24.861  1.00  0.00     0.156 C 
ATOM     19  C   UNL A   1      35.047  18.241  24.476  1.00  0.00     0.188 C 
ATOM     20  S   UNL A   1      33.757  16.994  24.639  1.00  0.00     0.155 S 
ATOM     21  O   UNL A   1      33.966  16.280  25.885  1.00  0.00    -0.229 OA
ATOM     22  O   UNL A   1      33.601  16.312  23.377  1.00  0.00    -0.229 OA
BRANCH  15  23
ATOM     23  C   UNL A   1      36.077  20.931  24.983  1.00  0.00     0.132 A 
ATOM     24  C   UNL A   1      36.549  22.170  25.477  1.00  0.00     0.056 A 
ATOM     25  C   UNL A   1      36.954  19.837  24.932  1.00  0.00     0.102 A 
ATOM     26  C   UNL A   1      37.871  22.323  25.909  1.00  0.00     0.055 A 
ATOM     27  C   UNL A   1      38.255  20.019  25.348  1.00  0.00     0.170 A 
ATOM     28  C   UNL A   1      38.701  21.225  25.828  1.00  0.00     0.166 A 
ATOM     29  O   UNL A   1      39.230  19.073  25.329  1.00  0.00    -0.453 OA
ATOM     30  O   UNL A   1      40.002  21.173  26.218  1.00  0.00    -0.454 OA
ATOM     31  C   UNL A   1      40.316  19.786  25.959  1.00  0.00     0.468 C 
ENDBRANCH  15  23
ENDBRANCH   8   9
ENDBRANCH   7   8
ENDBRANCH   4   7
ENDBRANCH   2   3
ENDBRANCH   1   2
BRANCH   1  32
ATOM     32  C   UNL A   1      32.810  29.129  25.438  1.00  0.00     0.118 C 
BRANCH  32  33
ATOM     33  N   UNL A   1      32.432  30.464  25.883  1.00  0.00    -0.352 N 
ATOM     34  C   UNL A   1      32.951  31.250  26.890  1.00  0.00     0.251 C 
ATOM     35  H   UNL A   1      31.686  30.871  25.385  1.00  0.00     0.163 HD
ATOM     36  O   UNL A   1      32.334  32.258  27.227  1.00  0.00    -0.269 OA
BRANCH  34  37
ATOM     37  C   UNL A   1      34.234  30.916  27.560  1.00  0.00     0.039 A 
ATOM     38  C   UNL A   1      35.180  31.917  27.811  1.00  0.00     0.014 A 
ATOM     39  C   UNL A   1      34.546  29.598  27.882  1.00  0.00     0.014 A 
ATOM     40  C   UNL A   1      36.401  31.599  28.435  1.00  0.00     0.010 A 
ATOM     41  C   UNL A   1      35.736  29.291  28.543  1.00  0.00     0.010 A 
ATOM     42  C   UNL A   1      36.682  30.281  28.829  1.00  0.00    -0.014 A 
BRANCH  42  43
ATOM     43  C   UNL A   1      37.875  29.909  29.643  1.00  0.00     0.031 A 
ATOM     44  C   UNL A   1      38.100  30.465  31.028  1.00  0.00     0.074 A 
ATOM     45  C   UNL A   1      38.860  29.202  29.052  1.00  0.00     0.049 A 
ATOM     46  N   UNL A   1      39.131  30.310  31.824  1.00  0.00    -0.248 NA
ATOM     47  C   UNL A   1      37.054  31.342  31.572  1.00  0.00     0.031 C 
ATOM     48  C   UNL A   1      38.828  28.710  27.674  1.00  0.00     0.029 A 
ATOM     49  N   UNL A   1      40.093  28.811  29.515  1.00  0.00    -0.354 N 
ATOM     50  C   UNL A   1      38.859  31.062  32.964  1.00  0.00     0.074 A 
ATOM     51  C   UNL A   1      37.594  31.727  32.721  1.00  0.00     0.031 C 
ATOM     52  C   UNL A   1      39.981  28.080  27.405  1.00  0.00     0.029 A 
ATOM     53  C   UNL A   1      40.847  28.142  28.578  1.00  0.00     0.049 A 
ATOM     54  H   UNL A   1      40.407  28.992  30.431  1.00  0.00     0.167 HD
ATOM     55  C   UNL A   1      39.581  31.165  34.111  1.00  0.00     0.034 A 
ATOM     56  C   UNL A   1      42.095  27.638  28.647  1.00  0.00     0.034 A 
ATOM     57  C   UNL A   1      40.843  30.496  34.340  1.00  0.00     0.049 A 
ATOM     58  C   UNL A   1      42.877  27.763  29.930  1.00  0.00     0.074 A 
ATOM     59  C   UNL A   1      41.590  30.440  35.507  1.00  0.00     0.029 A 
ATOM     60  N   UNL A   1      41.559  29.787  33.386  1.00  0.00    -0.354 N 
ATOM     61  N   UNL A   1      42.539  28.358  31.049  1.00  0.00    -0.248 NA
ATOM     62  C   UNL A   1      44.203  27.129  29.963  1.00  0.00     0.031 C 
ATOM     63  C   UNL A   1      42.788  29.771  35.237  1.00  0.00     0.029 A 
ATOM     64  C   UNL A   1      42.755  29.333  33.924  1.00  0.00     0.049 A 
ATOM     65  H   UNL A   1      41.262  29.630  32.459  1.00  0.00     0.167 HD
ATOM     66  C   UNL A   1      43.597  28.138  31.927  1.00  0.00     0.074 A 
ATOM     67  C   UNL A   1      44.575  27.344  31.216  1.00  0.00     0.031 C 
ATOM     68  C   UNL A   1      43.740  28.552  33.212  1.00  0.00     0.034 A 
BRANCH  55  69
ATOM     69  C   UNL A   1      39.024  32.020  35.228  1.00  0.00     0.023 A 
ATOM     70  C   UNL A   1      38.499  31.444  36.398  1.00  0.00     0.031 A 
ATOM     71  C   UNL A   1      39.060  33.425  35.153  1.00  0.00     0.131 A 
ATOM     72  C   UNL A   1      37.979  32.259  37.415  1.00  0.00     0.055 A 
ATOM     73  C   UNL A   1      38.615  34.233  36.204  1.00  0.00     0.041 A 
ATOM     74  F   UNL A   1      39.538  34.040  34.060  1.00  0.00    -0.206 F 
ATOM     75  C   UNL A   1      38.059  33.651  37.339  1.00  0.00     0.022 A 
BRANCH  72  76
ATOM     76  S   UNL A   1      37.092  31.470  38.784  1.00  0.00     0.124 S 
ATOM     77  O   UNL A   1      37.000  30.087  38.317  1.00  0.00    -0.237 OA
ATOM     78  O   UNL A   1      37.982  31.704  39.914  1.00  0.00    -0.237 OA
ATOM     79  O   UNL A   1      35.821  32.190  38.829  1.00  0.00    -0.744 OA
ENDBRANCH  72  76
ENDBRANCH  55  69
BRANCH  56  80
ATOM     80  C   UNL A   1      42.682  26.933  27.474  1.00  0.00     0.023 A 
ATOM     81  C   UNL A   1      42.636  25.533  27.394  1.00  0.00     0.031 A 
ATOM     82  C   UNL A   1      43.322  27.635  26.438  1.00  0.00     0.131 A 
ATOM     83  C   UNL A   1      43.272  24.873  26.334  1.00  0.00     0.055 A 
ATOM     84  C   UNL A   1      43.899  26.975  25.352  1.00  0.00     0.041 A 
ATOM     85  F   UNL A   1      43.385  28.976  26.464  1.00  0.00    -0.206 F 
ATOM     86  C   UNL A   1      43.890  25.584  25.304  1.00  0.00     0.022 A 
BRANCH  83  87
ATOM     87  S   UNL A   1      43.364  23.063  26.381  1.00  0.00     0.124 S 
ATOM     88  O   UNL A   1      42.758  22.704  25.104  1.00  0.00    -0.237 OA
ATOM     89  O   UNL A   1      44.800  22.835  26.496  1.00  0.00    -0.237 OA
ATOM     90  O   UNL A   1      42.581  22.714  27.564  1.00  0.00    -0.744 OA
ENDBRANCH  83  87
ENDBRANCH  56  80
BRANCH  68  91
ATOM     91  C   UNL A   1      44.988  28.122  33.944  1.00  0.00     0.023 A 
ATOM     92  C   UNL A   1      45.057  26.900  34.639  1.00  0.00     0.031 A 
ATOM     93  C   UNL A   1      46.126  28.948  33.952  1.00  0.00     0.131 A 
ATOM     94  C   UNL A   1      46.219  26.562  35.348  1.00  0.00     0.055 A 
ATOM     95  C   UNL A   1      47.301  28.579  34.609  1.00  0.00     0.041 A 
ATOM     96  F   UNL A   1      46.119  30.128  33.310  1.00  0.00    -0.206 F 
ATOM     97  C   UNL A   1      47.348  27.384  35.322  1.00  0.00     0.022 A 
BRANCH  94  98
ATOM     98  S   UNL A   1      46.215  25.062  36.369  1.00  0.00     0.124 S 
ATOM     99  O   UNL A   1      46.999  24.139  35.556  1.00  0.00    -0.237 OA
ATOM    100  O   UNL A   1      46.848  25.520  37.602  1.00  0.00    -0.237 OA
ATOM    101  O   UNL A   1      44.796  24.731  36.489  1.00  0.00    -0.744 OA
ENDBRANCH  94  98
ENDBRANCH  68  91
ENDBRANCH  42  43
ENDBRANCH  34  37
ENDBRANCH  32  33
ENDBRANCH   1  32
TORSDOF 16
ENDMDL
