MODEL 1
REMARK VINA RESULT:     -13.3      0.000      0.000
REMARK SMILES O=C(CSc1nnnn1-c1ccc(C(=O)NCCCNC(=O)c2ccc(-c3c4nc(c(-c5cc(S(=O)(=O)[O-])ccc5F)c5ccc([nH]5)c(-c5cc(S(=O)(=O)[O-])ccc5F)c5nc(c(-c6cc(S(=O)(=O)[O-])ccc6F)c6ccc3[nH]6)C=C5)C=C4)cc2)cc1)Nc1nc(-c2ccccc2)cs1
REMARK SMILES IDX 14 1 15 2 16 3 13 5 10 6 11 7 87 8 12 9 86 10 9 11 5 12 6 13
REMARK SMILES IDX 7 14 8 15 4 16 3 17 2 18 1 19 88 20 89 22 90 23 99 24 91 25
REMARK SMILES IDX 98 26 92 27 93 28 97 29 94 30 96 31 95 32 17 33 18 34 19 35
REMARK SMILES IDX 20 36 21 37 22 39 23 40 24 41 85 42 25 43 84 44 26 45 27 46
REMARK SMILES IDX 28 47 78 48 29 49 83 50 77 51 79 52 30 53 82 54 76 55 75 56
REMARK SMILES IDX 31 58 63 59 43 60 62 61 44 62 47 63 61 64 80 65 45 66 46 67
REMARK SMILES IDX 60 69 81 70 48 71 32 72 33 73 41 74 34 75 40 76 42 77 39 78
REMARK SMILES IDX 35 79 36 80 37 81 38 82 64 83 65 84 73 85 66 86 72 87 74 88
REMARK SMILES IDX 71 89 67 90 68 91 69 92 70 93 49 94 50 95 58 96 51 97 57 98
REMARK SMILES IDX 59 99 56 100 52 101 53 102 54 103 55 104
REMARK H PARENT 16 4 88 21 20 38 79 57 47 68
REMARK Flexibility Score: inf
ROOT
ATOM      1  C   UNL A   1      34.965  23.540  23.530  1.00  0.00     0.251 C 
ATOM      2  O   UNL A   1      34.807  23.084  22.400  1.00  0.00    -0.269 OA
ATOM      3  N   UNL A   1      35.707  22.826  24.437  1.00  0.00    -0.352 N 
ATOM      4  H   UNL A   1      35.982  21.931  24.129  1.00  0.00     0.163 HD
ENDROOT
BRANCH   1   5
ATOM      5  C   UNL A   1      34.421  24.890  23.840  1.00  0.00     0.039 A 
ATOM      6  C   UNL A   1      33.146  27.273  24.541  1.00  0.00     0.069 A 
ATOM      7  C   UNL A   1      33.499  26.362  25.541  1.00  0.00     0.029 A 
ATOM      8  C   UNL A   1      33.559  27.073  23.224  1.00  0.00     0.029 A 
ATOM      9  C   UNL A   1      34.112  25.160  25.181  1.00  0.00     0.016 A 
ATOM     10  C   UNL A   1      34.220  25.889  22.884  1.00  0.00     0.016 A 
BRANCH   6  11
ATOM     11  N   UNL A   1      32.385  28.400  24.887  1.00  0.00    -0.187 N 
ATOM     12  C   UNL A   1      31.141  28.851  24.474  1.00  0.00     0.214 A 
ATOM     13  N   UNL A   1      30.993  30.088  24.906  1.00  0.00    -0.101 NA
ATOM     14  N   UNL A   1      32.085  30.362  25.680  1.00  0.00    -0.022 NA
ATOM     15  N   UNL A   1      32.896  29.319  25.743  1.00  0.00    -0.039 NA
BRANCH  12  16
ATOM     16  S   UNL A   1      29.814  28.034  23.714  1.00  0.00    -0.074 SA
BRANCH  16  17
ATOM     17  C   UNL A   1      30.386  26.539  22.862  1.00  0.00     0.178 C 
BRANCH  17  18
ATOM     18  C   UNL A   1      30.397  25.304  23.774  1.00  0.00     0.236 C 
ATOM     19  O   UNL A   1      30.111  25.414  24.963  1.00  0.00    -0.274 OA
ATOM     20  N   UNL A   1      30.717  24.131  23.137  1.00  0.00    -0.301 N 
ATOM     21  H   UNL A   1      30.503  24.064  22.178  1.00  0.00     0.172 HD
BRANCH  20  22
ATOM     22  C   UNL A   1      31.306  23.050  23.726  1.00  0.00     0.189 A 
ATOM     23  N   UNL A   1      31.885  22.003  23.202  1.00  0.00    -0.220 NA
ATOM     24  S   UNL A   1      31.052  23.014  25.417  1.00  0.00    -0.105 S 
ATOM     25  C   UNL A   1      32.155  21.078  24.207  1.00  0.00     0.084 A 
ATOM     26  C   UNL A   1      31.758  21.455  25.474  1.00  0.00     0.097 A 
BRANCH  25  27
ATOM     27  C   UNL A   1      32.792  19.795  23.951  1.00  0.00     0.001 A 
ATOM     28  C   UNL A   1      32.252  18.919  23.002  1.00  0.00     0.010 A 
ATOM     29  C   UNL A   1      33.940  19.415  24.661  1.00  0.00     0.010 A 
ATOM     30  C   UNL A   1      32.846  17.675  22.771  1.00  0.00     0.001 A 
ATOM     31  C   UNL A   1      34.531  18.168  24.428  1.00  0.00     0.001 A 
ATOM     32  C   UNL A   1      33.982  17.298  23.486  1.00  0.00     0.000 A 
ENDBRANCH  25  27
ENDBRANCH  20  22
ENDBRANCH  17  18
ENDBRANCH  16  17
ENDBRANCH  12  16
ENDBRANCH   6  11
ENDBRANCH   1   5
BRANCH   3  33
ATOM     33  C   UNL A   1      36.155  23.172  25.776  1.00  0.00     0.118 C 
BRANCH  33  34
ATOM     34  C   UNL A   1      37.667  23.058  25.915  1.00  0.00     0.042 C 
BRANCH  34  35
ATOM     35  C   UNL A   1      38.290  24.310  26.488  1.00  0.00     0.118 C 
BRANCH  35  36
ATOM     36  N   UNL A   1      39.664  24.522  26.023  1.00  0.00    -0.352 N 
ATOM     37  C   UNL A   1      40.444  25.657  26.186  1.00  0.00     0.251 C 
ATOM     38  H   UNL A   1      40.082  23.773  25.540  1.00  0.00     0.163 HD
ATOM     39  O   UNL A   1      41.405  25.861  25.465  1.00  0.00    -0.269 OA
BRANCH  37  40
ATOM     40  C   UNL A   1      40.050  26.626  27.235  1.00  0.00     0.039 A 
ATOM     41  C   UNL A   1      39.706  26.216  28.522  1.00  0.00     0.014 A 
ATOM     42  C   UNL A   1      40.104  27.982  26.924  1.00  0.00     0.014 A 
ATOM     43  C   UNL A   1      39.526  27.190  29.505  1.00  0.00     0.010 A 
ATOM     44  C   UNL A   1      40.127  28.919  27.924  1.00  0.00     0.010 A 
ATOM     45  C   UNL A   1      39.783  28.545  29.211  1.00  0.00    -0.014 A 
BRANCH  45  46
ATOM     46  C   UNL A   1      39.884  29.556  30.271  1.00  0.00     0.031 A 
ATOM     47  C   UNL A   1      38.616  30.308  30.441  1.00  0.00     0.074 A 
ATOM     48  C   UNL A   1      40.929  29.674  31.128  1.00  0.00     0.049 A 
ATOM     49  N   UNL A   1      38.351  31.482  29.972  1.00  0.00    -0.248 NA
ATOM     50  C   UNL A   1      37.421  29.606  30.946  1.00  0.00     0.031 C 
ATOM     51  C   UNL A   1      42.119  28.815  31.207  1.00  0.00     0.029 A 
ATOM     52  N   UNL A   1      41.131  30.533  32.176  1.00  0.00    -0.354 N 
ATOM     53  C   UNL A   1      37.084  31.796  30.447  1.00  0.00     0.074 A 
ATOM     54  C   UNL A   1      36.477  30.537  30.775  1.00  0.00     0.031 C 
ATOM     55  C   UNL A   1      42.787  29.041  32.362  1.00  0.00     0.029 A 
ATOM     56  C   UNL A   1      42.193  30.189  33.024  1.00  0.00     0.049 A 
ATOM     57  H   UNL A   1      40.573  31.331  32.322  1.00  0.00     0.167 HD
ATOM     58  C   UNL A   1      36.824  33.068  30.863  1.00  0.00     0.034 A 
ATOM     59  C   UNL A   1      42.609  30.821  34.159  1.00  0.00     0.034 A 
ATOM     60  C   UNL A   1      37.893  33.948  30.429  1.00  0.00     0.049 A 
ATOM     61  C   UNL A   1      42.152  32.220  34.039  1.00  0.00     0.074 A 
ATOM     62  C   UNL A   1      38.364  34.429  29.227  1.00  0.00     0.029 A 
ATOM     63  N   UNL A   1      38.908  34.085  31.347  1.00  0.00    -0.354 N 
ATOM     64  N   UNL A   1      42.614  33.031  33.128  1.00  0.00    -0.248 NA
ATOM     65  C   UNL A   1      40.881  32.612  34.632  1.00  0.00     0.031 C 
ATOM     66  C   UNL A   1      39.769  34.613  29.406  1.00  0.00     0.029 A 
ATOM     67  C   UNL A   1      40.105  34.330  30.731  1.00  0.00     0.049 A 
ATOM     68  H   UNL A   1      38.789  34.015  32.321  1.00  0.00     0.167 HD
ATOM     69  C   UNL A   1      41.507  33.742  32.709  1.00  0.00     0.074 A 
ATOM     70  C   UNL A   1      40.530  33.584  33.783  1.00  0.00     0.031 C 
ATOM     71  C   UNL A   1      41.377  34.113  31.401  1.00  0.00     0.034 A 
BRANCH  58  72
ATOM     72  C   UNL A   1      35.974  33.445  32.071  1.00  0.00     0.023 A 
ATOM     73  C   UNL A   1      34.929  34.367  31.842  1.00  0.00     0.031 A 
ATOM     74  C   UNL A   1      36.302  33.228  33.427  1.00  0.00     0.131 A 
ATOM     75  C   UNL A   1      34.363  35.105  32.895  1.00  0.00     0.055 A 
ATOM     76  C   UNL A   1      35.702  33.932  34.477  1.00  0.00     0.041 A 
ATOM     77  F   UNL A   1      37.265  32.390  33.821  1.00  0.00    -0.206 F 
ATOM     78  C   UNL A   1      34.750  34.900  34.214  1.00  0.00     0.022 A 
BRANCH  75  79
ATOM     79  S   UNL A   1      33.226  36.457  32.492  1.00  0.00     0.124 S 
ATOM     80  O   UNL A   1      33.513  36.668  31.078  1.00  0.00    -0.237 OA
ATOM     81  O   UNL A   1      31.931  35.865  32.810  1.00  0.00    -0.237 OA
ATOM     82  O   UNL A   1      33.654  37.533  33.384  1.00  0.00    -0.744 OA
ENDBRANCH  75  79
ENDBRANCH  58  72
BRANCH  59  83
ATOM     83  C   UNL A   1      43.164  30.254  35.427  1.00  0.00     0.023 A 
ATOM     84  C   UNL A   1      42.955  28.919  35.861  1.00  0.00     0.031 A 
ATOM     85  C   UNL A   1      44.175  30.979  36.093  1.00  0.00     0.131 A 
ATOM     86  C   UNL A   1      43.751  28.368  36.901  1.00  0.00     0.055 A 
ATOM     87  C   UNL A   1      44.964  30.427  37.107  1.00  0.00     0.041 A 
ATOM     88  F   UNL A   1      44.492  32.227  35.712  1.00  0.00    -0.206 F 
ATOM     89  C   UNL A   1      44.764  29.115  37.507  1.00  0.00     0.022 A 
BRANCH  86  90
ATOM     90  S   UNL A   1      43.544  26.633  37.446  1.00  0.00     0.124 S 
ATOM     91  O   UNL A   1      44.197  25.885  36.379  1.00  0.00    -0.237 OA
ATOM     92  O   UNL A   1      44.206  26.629  38.744  1.00  0.00    -0.237 OA
ATOM     93  O   UNL A   1      42.089  26.463  37.507  1.00  0.00    -0.744 OA
ENDBRANCH  86  90
ENDBRANCH  59  83
BRANCH  71  94
ATOM     94  C   UNL A   1      42.642  34.211  30.578  1.00  0.00     0.023 A 
ATOM     95  C   UNL A   1      43.071  33.286  29.601  1.00  0.00     0.031 A 
ATOM     96  C   UNL A   1      43.431  35.355  30.789  1.00  0.00     0.131 A 
ATOM     97  C   UNL A   1      44.263  33.525  28.886  1.00  0.00     0.055 A 
ATOM     98  C   UNL A   1      44.593  35.601  30.062  1.00  0.00     0.041 A 
ATOM     99  F   UNL A   1      43.069  36.274  31.699  1.00  0.00    -0.206 F 
ATOM    100  C   UNL A   1      45.017  34.682  29.113  1.00  0.00     0.022 A 
BRANCH  97 101
ATOM    101  S   UNL A   1      44.882  32.318  27.667  1.00  0.00     0.124 S 
ATOM    102  O   UNL A   1      44.694  32.994  26.388  1.00  0.00    -0.237 OA
ATOM    103  O   UNL A   1      46.266  32.124  28.088  1.00  0.00    -0.237 OA
ATOM    104  O   UNL A   1      44.017  31.154  27.872  1.00  0.00    -0.744 OA
ENDBRANCH  97 101
ENDBRANCH  71  94
ENDBRANCH  45  46
ENDBRANCH  37  40
ENDBRANCH  35  36
ENDBRANCH  34  35
ENDBRANCH  33  34
ENDBRANCH   3  33
TORSDOF 19
ENDMDL
MODEL 2
REMARK VINA RESULT:     -13.2      3.964      7.635
REMARK SMILES O=C(CSc1nnnn1-c1ccc(C(=O)NCCCNC(=O)c2ccc(-c3c4nc(c(-c5cc(S(=O)(=O)[O-])ccc5F)c5ccc([nH]5)c(-c5cc(S(=O)(=O)[O-])ccc5F)c5nc(c(-c6cc(S(=O)(=O)[O-])ccc6F)c6ccc3[nH]6)C=C5)C=C4)cc2)cc1)Nc1nc(-c2ccccc2)cs1
REMARK SMILES IDX 14 1 15 2 16 3 13 5 10 6 11 7 87 8 12 9 86 10 9 11 5 12 6 13
REMARK SMILES IDX 7 14 8 15 4 16 3 17 2 18 1 19 88 20 89 22 90 23 99 24 91 25
REMARK SMILES IDX 98 26 92 27 93 28 97 29 94 30 96 31 95 32 17 33 18 34 19 35
REMARK SMILES IDX 20 36 21 37 22 39 23 40 24 41 85 42 25 43 84 44 26 45 27 46
REMARK SMILES IDX 28 47 78 48 29 49 83 50 77 51 79 52 30 53 82 54 76 55 75 56
REMARK SMILES IDX 31 58 63 59 43 60 62 61 44 62 47 63 61 64 80 65 45 66 46 67
REMARK SMILES IDX 60 69 81 70 48 71 32 72 33 73 41 74 34 75 40 76 42 77 39 78
REMARK SMILES IDX 35 79 36 80 37 81 38 82 64 83 65 84 73 85 66 86 72 87 74 88
REMARK SMILES IDX 71 89 67 90 68 91 69 92 70 93 49 94 50 95 58 96 51 97 57 98
REMARK SMILES IDX 59 99 56 100 52 101 53 102 54 103 55 104
REMARK H PARENT 16 4 88 21 20 38 79 57 47 68
REMARK Flexibility Score: inf
ROOT
ATOM      1  C   UNL A   1      34.314  21.306  25.782  1.00  0.00     0.251 C 
ATOM      2  O   UNL A   1      33.388  20.625  26.218  1.00  0.00    -0.269 OA
ATOM      3  N   UNL A   1      35.569  20.756  25.713  1.00  0.00    -0.352 N 
ATOM      4  H   UNL A   1      35.650  19.864  26.123  1.00  0.00     0.163 HD
ENDROOT
BRANCH   1   5
ATOM      5  C   UNL A   1      34.016  22.667  25.259  1.00  0.00     0.039 A 
ATOM      6  C   UNL A   1      33.646  25.149  24.033  1.00  0.00     0.069 A 
ATOM      7  C   UNL A   1      33.226  23.988  23.377  1.00  0.00     0.029 A 
ATOM      8  C   UNL A   1      34.103  25.091  25.349  1.00  0.00     0.029 A 
ATOM      9  C   UNL A   1      33.439  22.749  23.984  1.00  0.00     0.016 A 
ATOM     10  C   UNL A   1      34.262  23.847  25.967  1.00  0.00     0.016 A 
BRANCH   6  11
ATOM     11  N   UNL A   1      33.582  26.374  23.353  1.00  0.00    -0.187 N 
ATOM     12  C   UNL A   1      33.070  27.613  23.706  1.00  0.00     0.214 A 
ATOM     13  N   UNL A   1      33.028  28.359  22.619  1.00  0.00    -0.101 NA
ATOM     14  N   UNL A   1      33.617  27.631  21.625  1.00  0.00    -0.022 NA
ATOM     15  N   UNL A   1      34.030  26.459  22.077  1.00  0.00    -0.039 NA
BRANCH  12  16
ATOM     16  S   UNL A   1      32.698  28.309  25.250  1.00  0.00    -0.074 SA
BRANCH  16  17
ATOM     17  C   UNL A   1      33.565  29.886  25.467  1.00  0.00     0.178 C 
BRANCH  17  18
ATOM     18  C   UNL A   1      33.435  30.444  26.891  1.00  0.00     0.236 C 
ATOM     19  O   UNL A   1      32.493  30.105  27.601  1.00  0.00    -0.274 OA
ATOM     20  N   UNL A   1      34.450  31.289  27.265  1.00  0.00    -0.301 N 
ATOM     21  H   UNL A   1      35.327  31.159  26.839  1.00  0.00     0.172 HD
BRANCH  20  22
ATOM     22  C   UNL A   1      34.338  32.296  28.180  1.00  0.00     0.189 A 
ATOM     23  N   UNL A   1      34.722  32.361  29.427  1.00  0.00    -0.220 NA
ATOM     24  S   UNL A   1      33.367  33.584  27.614  1.00  0.00    -0.105 S 
ATOM     25  C   UNL A   1      34.209  33.520  30.004  1.00  0.00     0.084 A 
ATOM     26  C   UNL A   1      33.437  34.300  29.167  1.00  0.00     0.097 A 
BRANCH  25  27
ATOM     27  C   UNL A   1      34.448  33.884  31.392  1.00  0.00     0.001 A 
ATOM     28  C   UNL A   1      34.266  35.207  31.813  1.00  0.00     0.010 A 
ATOM     29  C   UNL A   1      34.878  32.923  32.318  1.00  0.00     0.010 A 
ATOM     30  C   UNL A   1      34.518  35.566  33.140  1.00  0.00     0.001 A 
ATOM     31  C   UNL A   1      35.131  33.287  33.645  1.00  0.00     0.001 A 
ATOM     32  C   UNL A   1      34.954  34.609  34.054  1.00  0.00     0.000 A 
ENDBRANCH  25  27
ENDBRANCH  20  22
ENDBRANCH  17  18
ENDBRANCH  16  17
ENDBRANCH  12  16
ENDBRANCH   6  11
ENDBRANCH   1   5
BRANCH   3  33
ATOM     33  C   UNL A   1      36.799  21.274  25.136  1.00  0.00     0.118 C 
BRANCH  33  34
ATOM     34  C   UNL A   1      37.878  20.203  25.049  1.00  0.00     0.042 C 
BRANCH  34  35
ATOM     35  C   UNL A   1      39.130  20.581  25.808  1.00  0.00     0.118 C 
BRANCH  35  36
ATOM     36  N   UNL A   1      40.151  19.530  25.773  1.00  0.00    -0.352 N 
ATOM     37  C   UNL A   1      41.524  19.685  25.891  1.00  0.00     0.251 C 
ATOM     38  H   UNL A   1      39.825  18.609  25.653  1.00  0.00     0.163 HD
ATOM     39  O   UNL A   1      42.284  18.821  25.492  1.00  0.00    -0.269 OA
BRANCH  37  40
ATOM     40  C   UNL A   1      42.034  20.945  26.481  1.00  0.00     0.039 A 
ATOM     41  C   UNL A   1      42.244  22.086  25.706  1.00  0.00     0.014 A 
ATOM     42  C   UNL A   1      42.231  20.988  27.858  1.00  0.00     0.014 A 
ATOM     43  C   UNL A   1      42.547  23.284  26.356  1.00  0.00     0.010 A 
ATOM     44  C   UNL A   1      42.327  22.193  28.504  1.00  0.00     0.010 A 
ATOM     45  C   UNL A   1      42.543  23.344  27.765  1.00  0.00    -0.014 A 
BRANCH  45  46
ATOM     46  C   UNL A   1      42.572  24.625  28.480  1.00  0.00     0.031 A 
ATOM     47  C   UNL A   1      41.331  25.410  28.261  1.00  0.00     0.074 A 
ATOM     48  C   UNL A   1      43.518  24.981  29.385  1.00  0.00     0.049 A 
ATOM     49  N   UNL A   1      41.180  26.391  27.436  1.00  0.00    -0.248 NA
ATOM     50  C   UNL A   1      40.053  24.908  28.801  1.00  0.00     0.031 C 
ATOM     51  C   UNL A   1      44.647  24.170  29.862  1.00  0.00     0.029 A 
ATOM     52  N   UNL A   1      43.641  26.114  30.147  1.00  0.00    -0.354 N 
ATOM     53  C   UNL A   1      39.884  26.850  27.637  1.00  0.00     0.074 A 
ATOM     54  C   UNL A   1      39.182  25.756  28.246  1.00  0.00     0.031 C 
ATOM     55  C   UNL A   1      45.190  24.725  30.970  1.00  0.00     0.029 A 
ATOM     56  C   UNL A   1      44.582  26.027  31.183  1.00  0.00     0.049 A 
ATOM     57  H   UNL A   1      43.110  26.925  29.979  1.00  0.00     0.167 HD
ATOM     58  C   UNL A   1      39.641  28.192  27.621  1.00  0.00     0.034 A 
ATOM     59  C   UNL A   1      44.897  26.965  32.121  1.00  0.00     0.034 A 
ATOM     60  C   UNL A   1      40.794  28.886  27.080  1.00  0.00     0.049 A 
ATOM     61  C   UNL A   1      44.526  28.269  31.536  1.00  0.00     0.074 A 
ATOM     62  C   UNL A   1      41.423  28.977  25.857  1.00  0.00     0.029 A 
ATOM     63  N   UNL A   1      41.704  29.280  28.034  1.00  0.00    -0.354 N 
ATOM     64  N   UNL A   1      45.128  28.763  30.489  1.00  0.00    -0.248 NA
ATOM     65  C   UNL A   1      43.217  28.838  31.824  1.00  0.00     0.031 C 
ATOM     66  C   UNL A   1      42.805  29.188  26.145  1.00  0.00     0.029 A 
ATOM     67  C   UNL A   1      42.974  29.313  27.525  1.00  0.00     0.049 A 
ATOM     68  H   UNL A   1      41.472  29.508  28.962  1.00  0.00     0.167 HD
ATOM     69  C   UNL A   1      44.112  29.329  29.745  1.00  0.00     0.074 A 
ATOM     70  C   UNL A   1      43.013  29.514  30.689  1.00  0.00     0.031 C 
ATOM     71  C   UNL A   1      44.149  29.291  28.381  1.00  0.00     0.034 A 
BRANCH  58  72
ATOM     72  C   UNL A   1      38.679  28.925  28.548  1.00  0.00     0.023 A 
ATOM     73  C   UNL A   1      39.022  28.954  29.918  1.00  0.00     0.031 A 
ATOM     74  C   UNL A   1      37.350  29.298  28.250  1.00  0.00     0.131 A 
ATOM     75  C   UNL A   1      38.057  29.207  30.907  1.00  0.00     0.055 A 
ATOM     76  C   UNL A   1      36.403  29.595  29.237  1.00  0.00     0.041 A 
ATOM     77  F   UNL A   1      36.859  29.326  27.007  1.00  0.00    -0.206 F 
ATOM     78  C   UNL A   1      36.744  29.519  30.575  1.00  0.00     0.022 A 
BRANCH  75  79
ATOM     79  S   UNL A   1      38.511  28.957  32.643  1.00  0.00     0.124 S 
ATOM     80  O   UNL A   1      39.584  27.977  32.527  1.00  0.00    -0.237 OA
ATOM     81  O   UNL A   1      38.902  30.304  33.046  1.00  0.00    -0.237 OA
ATOM     82  O   UNL A   1      37.275  28.463  33.246  1.00  0.00    -0.744 OA
ENDBRANCH  75  79
ENDBRANCH  58  72
BRANCH  59  83
ATOM     83  C   UNL A   1      45.276  26.799  33.558  1.00  0.00     0.023 A 
ATOM     84  C   UNL A   1      44.631  25.906  34.454  1.00  0.00     0.031 A 
ATOM     85  C   UNL A   1      46.507  27.338  33.989  1.00  0.00     0.131 A 
ATOM     86  C   UNL A   1      45.231  25.580  35.700  1.00  0.00     0.055 A 
ATOM     87  C   UNL A   1      47.098  27.003  35.210  1.00  0.00     0.041 A 
ATOM     88  F   UNL A   1      47.224  28.141  33.186  1.00  0.00    -0.206 F 
ATOM     89  C   UNL A   1      46.469  26.113  36.066  1.00  0.00     0.022 A 
BRANCH  86  90
ATOM     90  S   UNL A   1      44.452  24.391  36.853  1.00  0.00     0.124 S 
ATOM     91  O   UNL A   1      45.165  24.643  38.099  1.00  0.00    -0.237 OA
ATOM     92  O   UNL A   1      43.049  24.784  36.813  1.00  0.00    -0.237 OA
ATOM     93  O   UNL A   1      44.734  23.087  36.244  1.00  0.00    -0.744 OA
ENDBRANCH  86  90
ENDBRANCH  59  83
BRANCH  71  94
ATOM     94  C   UNL A   1      45.503  29.121  27.727  1.00  0.00     0.023 A 
ATOM     95  C   UNL A   1      46.102  27.894  27.365  1.00  0.00     0.031 A 
ATOM     96  C   UNL A   1      46.198  30.304  27.424  1.00  0.00     0.131 A 
ATOM     97  C   UNL A   1      47.362  27.891  26.731  1.00  0.00     0.055 A 
ATOM     98  C   UNL A   1      47.429  30.298  26.774  1.00  0.00     0.041 A 
ATOM     99  F   UNL A   1      45.674  31.501  27.737  1.00  0.00    -0.206 F 
ATOM    100  C   UNL A   1      48.019  29.089  26.432  1.00  0.00     0.022 A 
BRANCH  97 101
ATOM    101  S   UNL A   1      48.195  26.323  26.312  1.00  0.00     0.124 S 
ATOM    102  O   UNL A   1      48.137  26.283  24.855  1.00  0.00    -0.237 OA
ATOM    103  O   UNL A   1      49.522  26.505  26.893  1.00  0.00    -0.237 OA
ATOM    104  O   UNL A   1      47.374  25.312  26.982  1.00  0.00    -0.744 OA
ENDBRANCH  97 101
ENDBRANCH  71  94
ENDBRANCH  45  46
ENDBRANCH  37  40
ENDBRANCH  35  36
ENDBRANCH  34  35
ENDBRANCH  33  34
ENDBRANCH   3  33
TORSDOF 19
ENDMDL
MODEL 3
REMARK VINA RESULT:     -13.2      2.905      7.340
REMARK SMILES O=C(CSc1nnnn1-c1ccc(C(=O)NCCCNC(=O)c2ccc(-c3c4nc(c(-c5cc(S(=O)(=O)[O-])ccc5F)c5ccc([nH]5)c(-c5cc(S(=O)(=O)[O-])ccc5F)c5nc(c(-c6cc(S(=O)(=O)[O-])ccc6F)c6ccc3[nH]6)C=C5)C=C4)cc2)cc1)Nc1nc(-c2ccccc2)cs1
REMARK SMILES IDX 14 1 15 2 16 3 13 5 10 6 11 7 87 8 12 9 86 10 9 11 5 12 6 13
REMARK SMILES IDX 7 14 8 15 4 16 3 17 2 18 1 19 88 20 89 22 90 23 99 24 91 25
REMARK SMILES IDX 98 26 92 27 93 28 97 29 94 30 96 31 95 32 17 33 18 34 19 35
REMARK SMILES IDX 20 36 21 37 22 39 23 40 24 41 85 42 25 43 84 44 26 45 27 46
REMARK SMILES IDX 28 47 78 48 29 49 83 50 77 51 79 52 30 53 82 54 76 55 75 56
REMARK SMILES IDX 31 58 63 59 43 60 62 61 44 62 47 63 61 64 80 65 45 66 46 67
REMARK SMILES IDX 60 69 81 70 48 71 32 72 33 73 41 74 34 75 40 76 42 77 39 78
REMARK SMILES IDX 35 79 36 80 37 81 38 82 64 83 65 84 73 85 66 86 72 87 74 88
REMARK SMILES IDX 71 89 67 90 68 91 69 92 70 93 49 94 50 95 58 96 51 97 57 98
REMARK SMILES IDX 59 99 56 100 52 101 53 102 54 103 55 104
REMARK H PARENT 16 4 88 21 20 38 79 57 47 68
REMARK Flexibility Score: inf
ROOT
ATOM      1  C   UNL A   1      34.721  30.667  28.037  1.00  0.00     0.251 C 
ATOM      2  O   UNL A   1      35.503  29.903  28.600  1.00  0.00    -0.269 OA
ATOM      3  N   UNL A   1      34.848  32.017  28.243  1.00  0.00    -0.352 N 
ATOM      4  H   UNL A   1      35.515  32.268  28.922  1.00  0.00     0.163 HD
ENDROOT
BRANCH   1   5
ATOM      5  C   UNL A   1      33.728  30.100  27.085  1.00  0.00     0.039 A 
ATOM      6  C   UNL A   1      32.062  29.131  25.064  1.00  0.00     0.069 A 
ATOM      7  C   UNL A   1      33.344  28.594  25.215  1.00  0.00     0.029 A 
ATOM      8  C   UNL A   1      31.557  30.031  26.002  1.00  0.00     0.029 A 
ATOM      9  C   UNL A   1      34.182  29.102  26.210  1.00  0.00     0.016 A 
ATOM     10  C   UNL A   1      32.388  30.493  27.027  1.00  0.00     0.016 A 
BRANCH   6  11
ATOM     11  N   UNL A   1      31.286  28.736  23.964  1.00  0.00    -0.187 N 
ATOM     12  C   UNL A   1      31.177  27.535  23.280  1.00  0.00     0.214 A 
ATOM     13  N   UNL A   1      30.503  27.760  22.169  1.00  0.00    -0.101 NA
ATOM     14  N   UNL A   1      30.097  29.064  22.218  1.00  0.00    -0.022 NA
ATOM     15  N   UNL A   1      30.496  29.643  23.339  1.00  0.00    -0.039 NA
BRANCH  12  16
ATOM     16  S   UNL A   1      31.591  25.913  23.729  1.00  0.00    -0.074 SA
BRANCH  16  17
ATOM     17  C   UNL A   1      30.806  25.464  25.300  1.00  0.00     0.178 C 
BRANCH  17  18
ATOM     18  C   UNL A   1      31.151  24.036  25.750  1.00  0.00     0.236 C 
ATOM     19  O   UNL A   1      31.112  23.741  26.941  1.00  0.00    -0.274 OA
ATOM     20  N   UNL A   1      31.459  23.177  24.725  1.00  0.00    -0.301 N 
ATOM     21  H   UNL A   1      31.056  23.358  23.846  1.00  0.00     0.172 HD
BRANCH  20  22
ATOM     22  C   UNL A   1      32.278  22.090  24.829  1.00  0.00     0.189 A 
ATOM     23  N   UNL A   1      32.058  20.828  24.575  1.00  0.00    -0.220 NA
ATOM     24  S   UNL A   1      33.759  22.465  25.599  1.00  0.00    -0.105 S 
ATOM     25  C   UNL A   1      33.138  20.074  25.024  1.00  0.00     0.084 A 
ATOM     26  C   UNL A   1      34.151  20.798  25.620  1.00  0.00     0.097 A 
BRANCH  25  27
ATOM     27  C   UNL A   1      33.200  18.627  24.898  1.00  0.00     0.001 A 
ATOM     28  C   UNL A   1      33.793  18.044  23.771  1.00  0.00     0.010 A 
ATOM     29  C   UNL A   1      32.653  17.800  25.890  1.00  0.00     0.010 A 
ATOM     30  C   UNL A   1      33.832  16.653  23.634  1.00  0.00     0.001 A 
ATOM     31  C   UNL A   1      32.692  16.408  25.747  1.00  0.00     0.001 A 
ATOM     32  C   UNL A   1      33.279  15.836  24.618  1.00  0.00     0.000 A 
ENDBRANCH  25  27
ENDBRANCH  20  22
ENDBRANCH  17  18
ENDBRANCH  16  17
ENDBRANCH  12  16
ENDBRANCH   6  11
ENDBRANCH   1   5
BRANCH   3  33
ATOM     33  C   UNL A   1      34.161  33.138  27.622  1.00  0.00     0.118 C 
BRANCH  33  34
ATOM     34  C   UNL A   1      33.221  33.836  28.596  1.00  0.00     0.042 C 
BRANCH  34  35
ATOM     35  C   UNL A   1      33.871  35.020  29.276  1.00  0.00     0.118 C 
BRANCH  35  36
ATOM     36  N   UNL A   1      33.119  35.481  30.447  1.00  0.00    -0.352 N 
ATOM     37  C   UNL A   1      33.244  35.039  31.756  1.00  0.00     0.251 C 
ATOM     38  H   UNL A   1      32.449  36.184  30.287  1.00  0.00     0.163 HD
ATOM     39  O   UNL A   1      32.347  35.216  32.561  1.00  0.00    -0.269 OA
BRANCH  37  40
ATOM     40  C   UNL A   1      34.482  34.317  32.131  1.00  0.00     0.039 A 
ATOM     41  C   UNL A   1      34.530  32.924  32.190  1.00  0.00     0.014 A 
ATOM     42  C   UNL A   1      35.633  35.066  32.353  1.00  0.00     0.014 A 
ATOM     43  C   UNL A   1      35.769  32.308  32.368  1.00  0.00     0.010 A 
ATOM     44  C   UNL A   1      36.865  34.465  32.325  1.00  0.00     0.010 A 
ATOM     45  C   UNL A   1      36.946  33.084  32.390  1.00  0.00    -0.014 A 
BRANCH  45  46
ATOM     46  C   UNL A   1      38.275  32.469  32.288  1.00  0.00     0.031 A 
ATOM     47  C   UNL A   1      38.927  32.338  33.616  1.00  0.00     0.074 A 
ATOM     48  C   UNL A   1      38.781  31.906  31.162  1.00  0.00     0.049 A 
ATOM     49  N   UNL A   1      39.827  33.123  34.108  1.00  0.00    -0.248 NA
ATOM     50  C   UNL A   1      38.355  31.417  34.616  1.00  0.00     0.031 C 
ATOM     51  C   UNL A   1      38.112  31.756  29.862  1.00  0.00     0.029 A 
ATOM     52  N   UNL A   1      39.973  31.268  30.942  1.00  0.00    -0.354 N 
ATOM     53  C   UNL A   1      40.182  32.562  35.329  1.00  0.00     0.074 A 
ATOM     54  C   UNL A   1      39.078  31.722  35.698  1.00  0.00     0.031 C 
ATOM     55  C   UNL A   1      38.794  30.888  29.079  1.00  0.00     0.029 A 
ATOM     56  C   UNL A   1      40.048  30.561  29.734  1.00  0.00     0.049 A 
ATOM     57  H   UNL A   1      40.720  31.304  31.583  1.00  0.00     0.167 HD
ATOM     58  C   UNL A   1      41.492  32.563  35.708  1.00  0.00     0.034 A 
ATOM     59  C   UNL A   1      41.079  29.803  29.259  1.00  0.00     0.034 A 
ATOM     60  C   UNL A   1      42.244  33.457  34.848  1.00  0.00     0.049 A 
ATOM     61  C   UNL A   1      42.297  30.307  29.924  1.00  0.00     0.074 A 
ATOM     62  C   UNL A   1      42.299  34.815  34.621  1.00  0.00     0.029 A 
ATOM     63  N   UNL A   1      42.788  32.839  33.745  1.00  0.00    -0.354 N 
ATOM     64  N   UNL A   1      42.763  31.508  29.715  1.00  0.00    -0.248 NA
ATOM     65  C   UNL A   1      42.767  29.664  31.143  1.00  0.00     0.031 C 
ATOM     66  C   UNL A   1      42.654  34.966  33.247  1.00  0.00     0.029 A 
ATOM     67  C   UNL A   1      42.896  33.708  32.692  1.00  0.00     0.049 A 
ATOM     68  H   UNL A   1      43.063  31.895  33.716  1.00  0.00     0.167 HD
ATOM     69  C   UNL A   1      43.179  31.936  30.959  1.00  0.00     0.074 A 
ATOM     70  C   UNL A   1      43.335  30.714  31.744  1.00  0.00     0.031 C 
ATOM     71  C   UNL A   1      43.043  33.245  31.322  1.00  0.00     0.034 A 
BRANCH  58  72
ATOM     72  C   UNL A   1      42.203  31.424  36.427  1.00  0.00     0.023 A 
ATOM     73  C   UNL A   1      43.061  31.787  37.490  1.00  0.00     0.031 A 
ATOM     74  C   UNL A   1      42.349  30.099  35.959  1.00  0.00     0.131 A 
ATOM     75  C   UNL A   1      44.070  30.921  37.942  1.00  0.00     0.055 A 
ATOM     76  C   UNL A   1      43.327  29.223  36.446  1.00  0.00     0.041 A 
ATOM     77  F   UNL A   1      41.619  29.592  34.962  1.00  0.00    -0.206 F 
ATOM     78  C   UNL A   1      44.215  29.642  37.419  1.00  0.00     0.022 A 
BRANCH  75  79
ATOM     79  S   UNL A   1      45.297  31.559  39.112  1.00  0.00     0.124 S 
ATOM     80  O   UNL A   1      44.915  30.873  40.341  1.00  0.00    -0.237 OA
ATOM     81  O   UNL A   1      46.549  31.135  38.494  1.00  0.00    -0.237 OA
ATOM     82  O   UNL A   1      45.055  33.000  39.100  1.00  0.00    -0.744 OA
ENDBRANCH  75  79
ENDBRANCH  58  72
BRANCH  59  83
ATOM     83  C   UNL A   1      41.055  28.541  28.458  1.00  0.00     0.023 A 
ATOM     84  C   UNL A   1      41.865  28.305  27.317  1.00  0.00     0.031 A 
ATOM     85  C   UNL A   1      40.407  27.415  29.010  1.00  0.00     0.131 A 
ATOM     86  C   UNL A   1      42.010  26.991  26.797  1.00  0.00     0.055 A 
ATOM     87  C   UNL A   1      40.564  26.122  28.502  1.00  0.00     0.041 A 
ATOM     88  F   UNL A   1      39.670  27.525  30.128  1.00  0.00    -0.206 F 
ATOM     89  C   UNL A   1      41.376  25.902  27.401  1.00  0.00     0.022 A 
BRANCH  86  90
ATOM     90  S   UNL A   1      43.092  26.645  25.362  1.00  0.00     0.124 S 
ATOM     91  O   UNL A   1      42.592  27.574  24.356  1.00  0.00    -0.237 OA
ATOM     92  O   UNL A   1      44.421  26.916  25.896  1.00  0.00    -0.237 OA
ATOM     93  O   UNL A   1      42.833  25.232  25.069  1.00  0.00    -0.744 OA
ENDBRANCH  86  90
ENDBRANCH  59  83
BRANCH  71  94
ATOM     94  C   UNL A   1      42.946  34.267  30.211  1.00  0.00     0.023 A 
ATOM     95  C   UNL A   1      44.021  34.759  29.438  1.00  0.00     0.031 A 
ATOM     96  C   UNL A   1      41.654  34.732  29.908  1.00  0.00     0.131 A 
ATOM     97  C   UNL A   1      43.775  35.692  28.410  1.00  0.00     0.055 A 
ATOM     98  C   UNL A   1      41.413  35.633  28.874  1.00  0.00     0.041 A 
ATOM     99  F   UNL A   1      40.592  34.294  30.603  1.00  0.00    -0.206 F 
ATOM    100  C   UNL A   1      42.474  36.122  28.126  1.00  0.00     0.022 A 
BRANCH  97 101
ATOM    101  S   UNL A   1      45.147  36.398  27.438  1.00  0.00     0.124 S 
ATOM    102  O   UNL A   1      44.776  37.800  27.288  1.00  0.00    -0.237 OA
ATOM    103  O   UNL A   1      46.306  36.133  28.287  1.00  0.00    -0.237 OA
ATOM    104  O   UNL A   1      45.118  35.624  26.196  1.00  0.00    -0.744 OA
ENDBRANCH  97 101
ENDBRANCH  71  94
ENDBRANCH  45  46
ENDBRANCH  37  40
ENDBRANCH  35  36
ENDBRANCH  34  35
ENDBRANCH  33  34
ENDBRANCH   3  33
TORSDOF 19
ENDMDL
