MODEL 1
REMARK VINA RESULT:     -12.6      0.000      0.000
REMARK SMILES Nc1ccc(-c2cc3ccccc3s2)c(C(=O)NCCCNC(=O)c2ccc(-c3c4nc(c(-c5cc(S(=O)(=O)[O-])ccc5F)c5ccc([nH]5)c(-c5cc(S(=O)(=O)[O-])ccc5F)c5nc(c(-c6cc(S(=O)(=O)[O-])ccc6F)c6ccc3[nH]6)C=C5)C=C4)cc2)n1
REMARK SMILES IDX 21 1 20 2 19 3 18 4 16 5 17 6 15 8 2 9 3 10 88 11 4 12 5 13
REMARK SMILES IDX 1 14 6 17 7 18 14 19 8 20 13 21 9 22 12 23 10 24 11 25 22 26
REMARK SMILES IDX 23 27 24 29 25 30 26 31 87 32 27 33 86 34 28 35 29 36 30 37
REMARK SMILES IDX 80 38 31 39 85 40 79 41 81 42 32 43 84 44 78 45 77 46 33 48
REMARK SMILES IDX 65 49 45 50 64 51 46 52 49 53 63 54 82 55 47 56 48 57 62 59
REMARK SMILES IDX 83 60 50 61 34 62 35 63 43 64 36 65 42 66 44 67 41 68 37 69
REMARK SMILES IDX 38 70 39 71 40 72 66 73 67 74 75 75 68 76 74 77 76 78 73 79
REMARK SMILES IDX 69 80 70 81 71 82 72 83 51 84 52 85 60 86 53 87 59 88 61 89
REMARK SMILES IDX 58 90 54 91 55 92 56 93 57 94
REMARK H PARENT 18 7 1 15 1 16 22 28 81 47 49 58
REMARK Flexibility Score: inf
ROOT
ATOM      1  C   UNL A   1      32.217  28.964  26.328  1.00  0.00     0.118 C 
ENDROOT
BRANCH   1   2
ATOM      2  C   UNL A   1      31.401  28.032  27.214  1.00  0.00     0.042 C 
BRANCH   2   3
ATOM      3  C   UNL A   1      31.474  26.562  26.848  1.00  0.00     0.118 C 
BRANCH   3   4
ATOM      4  N   UNL A   1      30.562  26.077  25.839  1.00  0.00    -0.351 N 
ATOM      5  C   UNL A   1      30.704  26.083  24.463  1.00  0.00     0.270 C 
ATOM      6  O   UNL A   1      29.926  25.370  23.821  1.00  0.00    -0.267 OA
ATOM      7  H   UNL A   1      29.723  25.688  26.176  1.00  0.00     0.163 HD
BRANCH   5   8
ATOM      8  C   UNL A   1      31.665  26.973  23.710  1.00  0.00     0.139 A 
ATOM      9  C   UNL A   1      31.684  28.927  22.426  1.00  0.00     0.124 A 
ATOM     10  C   UNL A   1      33.046  28.827  22.233  1.00  0.00     0.047 A 
ATOM     11  N   UNL A   1      31.002  28.045  23.165  1.00  0.00    -0.225 NA
ATOM     12  C   UNL A   1      33.720  27.730  22.763  1.00  0.00     0.016 A 
ATOM     13  C   UNL A   1      33.036  26.751  23.502  1.00  0.00     0.023 A 
BRANCH   9  14
ATOM     14  N   UNL A   1      30.968  29.981  21.896  1.00  0.00    -0.384 N 
ATOM     15  H   UNL A   1      30.919  30.101  20.920  1.00  0.00     0.158 HD
ATOM     16  H   UNL A   1      30.507  30.613  22.494  1.00  0.00     0.158 HD
ENDBRANCH   9  14
BRANCH  13  17
ATOM     17  C   UNL A   1      33.793  25.596  23.996  1.00  0.00     0.038 A 
ATOM     18  C   UNL A   1      34.518  25.438  25.159  1.00  0.00     0.029 A 
ATOM     19  S   UNL A   1      33.886  24.175  23.029  1.00  0.00    -0.135 S 
ATOM     20  C   UNL A   1      35.399  24.297  25.109  1.00  0.00    -0.007 A 
ATOM     21  C   UNL A   1      35.210  23.561  23.936  1.00  0.00     0.035 A 
ATOM     22  C   UNL A   1      36.443  23.906  25.978  1.00  0.00     0.009 A 
ATOM     23  C   UNL A   1      36.048  22.486  23.587  1.00  0.00     0.019 A 
ATOM     24  C   UNL A   1      37.292  22.852  25.626  1.00  0.00     0.001 A 
ATOM     25  C   UNL A   1      37.103  22.159  24.438  1.00  0.00     0.001 A 
ENDBRANCH  13  17
ENDBRANCH   5   8
ENDBRANCH   3   4
ENDBRANCH   2   3
ENDBRANCH   1   2
BRANCH   1  26
ATOM     26  N   UNL A   1      31.968  30.391  26.515  1.00  0.00    -0.352 N 
ATOM     27  C   UNL A   1      32.713  31.419  27.047  1.00  0.00     0.251 C 
ATOM     28  H   UNL A   1      31.084  30.678  26.194  1.00  0.00     0.163 HD
ATOM     29  O   UNL A   1      32.242  32.558  27.033  1.00  0.00    -0.269 OA
BRANCH  27  30
ATOM     30  C   UNL A   1      34.034  31.198  27.682  1.00  0.00     0.039 A 
ATOM     31  C   UNL A   1      34.841  32.308  27.969  1.00  0.00     0.014 A 
ATOM     32  C   UNL A   1      34.515  29.924  27.964  1.00  0.00     0.014 A 
ATOM     33  C   UNL A   1      36.072  32.141  28.618  1.00  0.00     0.010 A 
ATOM     34  C   UNL A   1      35.675  29.765  28.714  1.00  0.00     0.010 A 
ATOM     35  C   UNL A   1      36.476  30.868  29.041  1.00  0.00    -0.014 A 
BRANCH  35  36
ATOM     36  C   UNL A   1      37.752  30.630  29.771  1.00  0.00     0.031 A 
ATOM     37  C   UNL A   1      38.815  29.770  29.135  1.00  0.00     0.074 A 
ATOM     38  C   UNL A   1      37.910  31.080  31.032  1.00  0.00     0.049 A 
ATOM     39  N   UNL A   1      39.890  29.245  29.663  1.00  0.00    -0.248 NA
ATOM     40  C   UNL A   1      38.603  29.407  27.724  1.00  0.00     0.031 C 
ATOM     41  C   UNL A   1      36.940  31.892  31.771  1.00  0.00     0.029 A 
ATOM     42  N   UNL A   1      38.936  30.898  31.925  1.00  0.00    -0.354 N 
ATOM     43  C   UNL A   1      40.452  28.451  28.666  1.00  0.00     0.074 A 
ATOM     44  C   UNL A   1      39.563  28.518  27.527  1.00  0.00     0.031 C 
ATOM     45  C   UNL A   1      37.425  32.150  32.997  1.00  0.00     0.029 A 
ATOM     46  C   UNL A   1      38.711  31.478  33.154  1.00  0.00     0.049 A 
ATOM     47  H   UNL A   1      39.757  30.400  31.708  1.00  0.00     0.167 HD
ATOM     48  C   UNL A   1      41.612  27.748  28.693  1.00  0.00     0.034 A 
ATOM     49  C   UNL A   1      39.446  31.451  34.284  1.00  0.00     0.034 A 
ATOM     50  C   UNL A   1      42.507  27.738  29.823  1.00  0.00     0.049 A 
ATOM     51  C   UNL A   1      40.744  30.685  34.285  1.00  0.00     0.074 A 
ATOM     52  C   UNL A   1      43.743  27.126  29.941  1.00  0.00     0.029 A 
ATOM     53  N   UNL A   1      42.266  28.380  31.032  1.00  0.00    -0.354 N 
ATOM     54  N   UNL A   1      41.278  29.962  33.326  1.00  0.00    -0.248 NA
ATOM     55  C   UNL A   1      41.545  30.740  35.514  1.00  0.00     0.031 C 
ATOM     56  C   UNL A   1      44.220  27.348  31.237  1.00  0.00     0.029 A 
ATOM     57  C   UNL A   1      43.319  28.161  31.906  1.00  0.00     0.049 A 
ATOM     58  H   UNL A   1      41.464  28.912  31.238  1.00  0.00     0.167 HD
ATOM     59  C   UNL A   1      42.492  29.500  33.829  1.00  0.00     0.074 A 
ATOM     60  C   UNL A   1      42.616  30.040  35.168  1.00  0.00     0.031 C 
ATOM     61  C   UNL A   1      43.421  28.705  33.240  1.00  0.00     0.034 A 
BRANCH  48  62
ATOM     62  C   UNL A   1      41.955  26.923  27.474  1.00  0.00     0.023 A 
ATOM     63  C   UNL A   1      41.692  25.543  27.415  1.00  0.00     0.031 A 
ATOM     64  C   UNL A   1      42.594  27.516  26.371  1.00  0.00     0.131 A 
ATOM     65  C   UNL A   1      42.146  24.788  26.323  1.00  0.00     0.055 A 
ATOM     66  C   UNL A   1      42.963  26.773  25.246  1.00  0.00     0.041 A 
ATOM     67  F   UNL A   1      42.891  28.825  26.374  1.00  0.00    -0.206 F 
ATOM     68  C   UNL A   1      42.756  25.397  25.225  1.00  0.00     0.022 A 
BRANCH  65  69
ATOM     69  S   UNL A   1      42.068  22.979  26.432  1.00  0.00     0.124 S 
ATOM     70  O   UNL A   1      40.653  22.763  26.723  1.00  0.00    -0.237 OA
ATOM     71  O   UNL A   1      42.519  22.563  25.109  1.00  0.00    -0.237 OA
ATOM     72  O   UNL A   1      42.978  22.661  27.531  1.00  0.00    -0.744 OA
ENDBRANCH  65  69
ENDBRANCH  48  62
BRANCH  49  73
ATOM     73  C   UNL A   1      38.974  32.156  35.512  1.00  0.00     0.023 A 
ATOM     74  C   UNL A   1      38.356  31.450  36.556  1.00  0.00     0.031 A 
ATOM     75  C   UNL A   1      39.106  33.549  35.646  1.00  0.00     0.131 A 
ATOM     76  C   UNL A   1      37.853  32.143  37.669  1.00  0.00     0.055 A 
ATOM     77  C   UNL A   1      38.649  34.228  36.777  1.00  0.00     0.041 A 
ATOM     78  F   UNL A   1      39.697  34.272  34.682  1.00  0.00    -0.206 F 
ATOM     79  C   UNL A   1      38.006  33.526  37.792  1.00  0.00     0.022 A 
BRANCH  76  80
ATOM     80  S   UNL A   1      36.924  31.217  38.923  1.00  0.00     0.124 S 
ATOM     81  O   UNL A   1      36.877  29.884  38.333  1.00  0.00    -0.237 OA
ATOM     82  O   UNL A   1      37.772  31.369  40.099  1.00  0.00    -0.237 OA
ATOM     83  O   UNL A   1      35.644  31.918  38.984  1.00  0.00    -0.744 OA
ENDBRANCH  76  80
ENDBRANCH  49  73
BRANCH  61  84
ATOM     84  C   UNL A   1      44.675  28.418  34.027  1.00  0.00     0.023 A 
ATOM     85  C   UNL A   1      44.768  27.318  34.896  1.00  0.00     0.031 A 
ATOM     86  C   UNL A   1      45.791  29.266  33.907  1.00  0.00     0.131 A 
ATOM     87  C   UNL A   1      45.932  27.124  35.653  1.00  0.00     0.055 A 
ATOM     88  C   UNL A   1      46.969  29.032  34.616  1.00  0.00     0.041 A 
ATOM     89  F   UNL A   1      45.755  30.331  33.091  1.00  0.00    -0.206 F 
ATOM     90  C   UNL A   1      47.040  27.963  35.505  1.00  0.00     0.022 A 
BRANCH  87  91
ATOM     91  S   UNL A   1      45.950  25.808  36.901  1.00  0.00     0.124 S 
ATOM     92  O   UNL A   1      46.477  24.678  36.141  1.00  0.00    -0.237 OA
ATOM     93  O   UNL A   1      46.837  26.358  37.922  1.00  0.00    -0.237 OA
ATOM     94  O   UNL A   1      44.548  25.691  37.295  1.00  0.00    -0.744 OA
ENDBRANCH  87  91
ENDBRANCH  61  84
ENDBRANCH  35  36
ENDBRANCH  27  30
ENDBRANCH   1  26
TORSDOF 15
ENDMDL
MODEL 2
REMARK VINA RESULT:     -12.6      1.307      3.076
REMARK SMILES Nc1ccc(-c2cc3ccccc3s2)c(C(=O)NCCCNC(=O)c2ccc(-c3c4nc(c(-c5cc(S(=O)(=O)[O-])ccc5F)c5ccc([nH]5)c(-c5cc(S(=O)(=O)[O-])ccc5F)c5nc(c(-c6cc(S(=O)(=O)[O-])ccc6F)c6ccc3[nH]6)C=C5)C=C4)cc2)n1
REMARK SMILES IDX 21 1 20 2 19 3 18 4 16 5 17 6 15 8 2 9 3 10 88 11 4 12 5 13
REMARK SMILES IDX 1 14 6 17 7 18 14 19 8 20 13 21 9 22 12 23 10 24 11 25 22 26
REMARK SMILES IDX 23 27 24 29 25 30 26 31 87 32 27 33 86 34 28 35 29 36 30 37
REMARK SMILES IDX 80 38 31 39 85 40 79 41 81 42 32 43 84 44 78 45 77 46 33 48
REMARK SMILES IDX 65 49 45 50 64 51 46 52 49 53 63 54 82 55 47 56 48 57 62 59
REMARK SMILES IDX 83 60 50 61 34 62 35 63 43 64 36 65 42 66 44 67 41 68 37 69
REMARK SMILES IDX 38 70 39 71 40 72 66 73 67 74 75 75 68 76 74 77 76 78 73 79
REMARK SMILES IDX 69 80 70 81 71 82 72 83 51 84 52 85 60 86 53 87 59 88 61 89
REMARK SMILES IDX 58 90 54 91 55 92 56 93 57 94
REMARK H PARENT 18 7 1 15 1 16 22 28 81 47 49 58
REMARK Flexibility Score: inf
ROOT
ATOM      1  C   UNL A   1      32.375  30.066  25.958  1.00  0.00     0.118 C 
ENDROOT
BRANCH   1   2
ATOM      2  C   UNL A   1      31.571  28.958  26.627  1.00  0.00     0.042 C 
BRANCH   2   3
ATOM      3  C   UNL A   1      32.341  27.685  26.921  1.00  0.00     0.118 C 
BRANCH   3   4
ATOM      4  N   UNL A   1      31.584  26.467  27.083  1.00  0.00    -0.351 N 
ATOM      5  C   UNL A   1      31.930  25.174  26.735  1.00  0.00     0.270 C 
ATOM      6  O   UNL A   1      31.247  24.266  27.219  1.00  0.00    -0.267 OA
ATOM      7  H   UNL A   1      30.698  26.570  27.500  1.00  0.00     0.163 HD
BRANCH   5   8
ATOM      8  C   UNL A   1      33.008  24.821  25.736  1.00  0.00     0.139 A 
ATOM      9  C   UNL A   1      35.051  23.691  25.612  1.00  0.00     0.124 A 
ATOM     10  C   UNL A   1      35.172  23.989  24.271  1.00  0.00     0.047 A 
ATOM     11  N   UNL A   1      33.989  24.068  26.333  1.00  0.00    -0.225 NA
ATOM     12  C   UNL A   1      34.193  24.772  23.666  1.00  0.00     0.016 A 
ATOM     13  C   UNL A   1      33.085  25.234  24.396  1.00  0.00     0.023 A 
BRANCH   9  14
ATOM     14  N   UNL A   1      36.010  22.943  26.262  1.00  0.00    -0.384 N 
ATOM     15  H   UNL A   1      36.949  23.240  26.263  1.00  0.00     0.158 HD
ATOM     16  H   UNL A   1      35.757  22.111  26.724  1.00  0.00     0.158 HD
ENDBRANCH   9  14
BRANCH  13  17
ATOM     17  C   UNL A   1      32.111  26.092  23.714  1.00  0.00     0.038 A 
ATOM     18  C   UNL A   1      32.285  27.301  23.073  1.00  0.00     0.029 A 
ATOM     19  S   UNL A   1      30.455  25.625  23.683  1.00  0.00    -0.135 S 
ATOM     20  C   UNL A   1      31.038  27.990  22.847  1.00  0.00    -0.007 A 
ATOM     21  C   UNL A   1      29.947  27.202  23.226  1.00  0.00     0.035 A 
ATOM     22  C   UNL A   1      30.785  29.315  22.425  1.00  0.00     0.009 A 
ATOM     23  C   UNL A   1      28.633  27.704  23.237  1.00  0.00     0.019 A 
ATOM     24  C   UNL A   1      29.484  29.825  22.453  1.00  0.00     0.001 A 
ATOM     25  C   UNL A   1      28.423  29.032  22.867  1.00  0.00     0.001 A 
ENDBRANCH  13  17
ENDBRANCH   5   8
ENDBRANCH   3   4
ENDBRANCH   2   3
ENDBRANCH   1   2
BRANCH   1  26
ATOM     26  N   UNL A   1      32.117  31.417  26.448  1.00  0.00    -0.352 N 
ATOM     27  C   UNL A   1      32.833  32.291  27.235  1.00  0.00     0.251 C 
ATOM     28  H   UNL A   1      31.251  31.779  26.153  1.00  0.00     0.163 HD
ATOM     29  O   UNL A   1      32.363  33.410  27.452  1.00  0.00    -0.269 OA
BRANCH  27  30
ATOM     30  C   UNL A   1      34.118  31.918  27.871  1.00  0.00     0.039 A 
ATOM     31  C   UNL A   1      35.123  32.889  27.986  1.00  0.00     0.014 A 
ATOM     32  C   UNL A   1      34.373  30.627  28.320  1.00  0.00     0.014 A 
ATOM     33  C   UNL A   1      36.330  32.587  28.630  1.00  0.00     0.010 A 
ATOM     34  C   UNL A   1      35.516  30.359  29.064  1.00  0.00     0.010 A 
ATOM     35  C   UNL A   1      36.516  31.329  29.220  1.00  0.00    -0.014 A 
BRANCH  35  36
ATOM     36  C   UNL A   1      37.759  30.961  29.954  1.00  0.00     0.031 A 
ATOM     37  C   UNL A   1      38.746  30.023  29.305  1.00  0.00     0.074 A 
ATOM     38  C   UNL A   1      37.945  31.366  31.226  1.00  0.00     0.049 A 
ATOM     39  N   UNL A   1      39.765  29.392  29.829  1.00  0.00    -0.248 NA
ATOM     40  C   UNL A   1      38.516  29.714  27.884  1.00  0.00     0.031 C 
ATOM     41  C   UNL A   1      37.044  32.245  31.977  1.00  0.00     0.029 A 
ATOM     42  N   UNL A   1      38.941  31.072  32.123  1.00  0.00    -0.354 N 
ATOM     43  C   UNL A   1      40.262  28.574  28.818  1.00  0.00     0.074 A 
ATOM     44  C   UNL A   1      39.394  28.747  27.674  1.00  0.00     0.031 C 
ATOM     45  C   UNL A   1      37.538  32.429  33.212  1.00  0.00     0.029 A 
ATOM     46  C   UNL A   1      38.757  31.641  33.363  1.00  0.00     0.049 A 
ATOM     47  H   UNL A   1      39.716  30.507  31.900  1.00  0.00     0.167 HD
ATOM     48  C   UNL A   1      41.355  27.769  28.837  1.00  0.00     0.034 A 
ATOM     49  C   UNL A   1      39.475  31.522  34.498  1.00  0.00     0.034 A 
ATOM     50  C   UNL A   1      42.234  27.653  29.973  1.00  0.00     0.049 A 
ATOM     51  C   UNL A   1      40.700  30.643  34.490  1.00  0.00     0.074 A 
ATOM     52  C   UNL A   1      43.409  26.929  30.085  1.00  0.00     0.029 A 
ATOM     53  N   UNL A   1      42.040  28.285  31.195  1.00  0.00    -0.354 N 
ATOM     54  N   UNL A   1      41.176  29.897  33.518  1.00  0.00    -0.248 NA
ATOM     55  C   UNL A   1      41.490  30.597  35.726  1.00  0.00     0.031 C 
ATOM     56  C   UNL A   1      43.892  27.077  31.390  1.00  0.00     0.029 A 
ATOM     57  C   UNL A   1      43.061  27.952  32.072  1.00  0.00     0.049 A 
ATOM     58  H   UNL A   1      41.287  28.883  31.407  1.00  0.00     0.167 HD
ATOM     59  C   UNL A   1      42.338  29.316  34.020  1.00  0.00     0.074 A 
ATOM     60  C   UNL A   1      42.498  29.811  35.372  1.00  0.00     0.031 C 
ATOM     61  C   UNL A   1      43.198  28.455  33.418  1.00  0.00     0.034 A 
BRANCH  48  62
ATOM     62  C   UNL A   1      41.634  26.944  27.601  1.00  0.00     0.023 A 
ATOM     63  C   UNL A   1      41.316  25.576  27.535  1.00  0.00     0.031 A 
ATOM     64  C   UNL A   1      42.267  27.524  26.487  1.00  0.00     0.131 A 
ATOM     65  C   UNL A   1      41.712  24.816  26.425  1.00  0.00     0.055 A 
ATOM     66  C   UNL A   1      42.577  26.781  25.346  1.00  0.00     0.041 A 
ATOM     67  F   UNL A   1      42.614  28.821  26.495  1.00  0.00    -0.206 F 
ATOM     68  C   UNL A   1      42.317  25.414  25.317  1.00  0.00     0.022 A 
BRANCH  65  69
ATOM     69  S   UNL A   1      41.568  23.011  26.517  1.00  0.00     0.124 S 
ATOM     70  O   UNL A   1      40.118  22.832  26.500  1.00  0.00    -0.237 OA
ATOM     71  O   UNL A   1      42.280  22.575  25.322  1.00  0.00    -0.237 OA
ATOM     72  O   UNL A   1      42.214  22.678  27.786  1.00  0.00    -0.744 OA
ENDBRANCH  65  69
ENDBRANCH  48  62
BRANCH  49  73
ATOM     73  C   UNL A   1      39.057  32.238  35.738  1.00  0.00     0.023 A 
ATOM     74  C   UNL A   1      38.373  31.565  36.763  1.00  0.00     0.031 A 
ATOM     75  C   UNL A   1      39.308  33.611  35.904  1.00  0.00     0.131 A 
ATOM     76  C   UNL A   1      37.923  32.275  37.888  1.00  0.00     0.055 A 
ATOM     77  C   UNL A   1      38.902  34.302  37.048  1.00  0.00     0.041 A 
ATOM     78  F   UNL A   1      39.966  34.301  34.960  1.00  0.00    -0.206 F 
ATOM     79  C   UNL A   1      38.194  33.636  38.044  1.00  0.00     0.022 A 
BRANCH  76  80
ATOM     80  S   UNL A   1      36.909  31.405  39.116  1.00  0.00     0.124 S 
ATOM     81  O   UNL A   1      35.725  32.255  39.179  1.00  0.00    -0.237 OA
ATOM     82  O   UNL A   1      36.730  30.100  38.490  1.00  0.00    -0.237 OA
ATOM     83  O   UNL A   1      37.746  31.410  40.314  1.00  0.00    -0.744 OA
ENDBRANCH  76  80
ENDBRANCH  49  73
BRANCH  61  84
ATOM     84  C   UNL A   1      44.414  28.038  34.208  1.00  0.00     0.023 A 
ATOM     85  C   UNL A   1      44.407  26.898  35.029  1.00  0.00     0.031 A 
ATOM     86  C   UNL A   1      45.593  28.800  34.139  1.00  0.00     0.131 A 
ATOM     87  C   UNL A   1      45.542  26.582  35.791  1.00  0.00     0.055 A 
ATOM     88  C   UNL A   1      46.738  28.446  34.852  1.00  0.00     0.041 A 
ATOM     89  F   UNL A   1      45.652  29.899  33.370  1.00  0.00    -0.206 F 
ATOM     90  C   UNL A   1      46.713  27.338  35.694  1.00  0.00     0.022 A 
BRANCH  87  91
ATOM     91  S   UNL A   1      45.438  25.216  36.981  1.00  0.00     0.124 S 
ATOM     92  O   UNL A   1      44.519  25.754  37.980  1.00  0.00    -0.237 OA
ATOM     93  O   UNL A   1      44.920  24.126  36.160  1.00  0.00    -0.237 OA
ATOM     94  O   UNL A   1      46.819  25.051  37.432  1.00  0.00    -0.744 OA
ENDBRANCH  87  91
ENDBRANCH  61  84
ENDBRANCH  35  36
ENDBRANCH  27  30
ENDBRANCH   1  26
TORSDOF 15
ENDMDL
MODEL 3
REMARK VINA RESULT:     -12.5      5.191     10.085
REMARK SMILES Nc1ccc(-c2cc3ccccc3s2)c(C(=O)NCCCNC(=O)c2ccc(-c3c4nc(c(-c5cc(S(=O)(=O)[O-])ccc5F)c5ccc([nH]5)c(-c5cc(S(=O)(=O)[O-])ccc5F)c5nc(c(-c6cc(S(=O)(=O)[O-])ccc6F)c6ccc3[nH]6)C=C5)C=C4)cc2)n1
REMARK SMILES IDX 21 1 20 2 19 3 18 4 16 5 17 6 15 8 2 9 3 10 88 11 4 12 5 13
REMARK SMILES IDX 1 14 6 17 7 18 14 19 8 20 13 21 9 22 12 23 10 24 11 25 22 26
REMARK SMILES IDX 23 27 24 29 25 30 26 31 87 32 27 33 86 34 28 35 29 36 30 37
REMARK SMILES IDX 80 38 31 39 85 40 79 41 81 42 32 43 84 44 78 45 77 46 33 48
REMARK SMILES IDX 65 49 45 50 64 51 46 52 49 53 63 54 82 55 47 56 48 57 62 59
REMARK SMILES IDX 83 60 50 61 34 62 35 63 43 64 36 65 42 66 44 67 41 68 37 69
REMARK SMILES IDX 38 70 39 71 40 72 66 73 67 74 75 75 68 76 74 77 76 78 73 79
REMARK SMILES IDX 69 80 70 81 71 82 72 83 51 84 52 85 60 86 53 87 59 88 61 89
REMARK SMILES IDX 58 90 54 91 55 92 56 93 57 94
REMARK H PARENT 18 7 1 15 1 16 22 28 81 47 49 58
REMARK Flexibility Score: inf
ROOT
ATOM      1  C   UNL A   1      35.653  22.317  25.744  1.00  0.00     0.118 C 
ENDROOT
BRANCH   1   2
ATOM      2  C   UNL A   1      35.289  22.472  27.216  1.00  0.00     0.042 C 
BRANCH   2   3
ATOM      3  C   UNL A   1      33.969  21.848  27.625  1.00  0.00     0.118 C 
BRANCH   3   4
ATOM      4  N   UNL A   1      32.820  22.717  27.727  1.00  0.00    -0.351 N 
ATOM      5  C   UNL A   1      31.896  23.055  26.756  1.00  0.00     0.270 C 
ATOM      6  O   UNL A   1      30.852  23.589  27.144  1.00  0.00    -0.267 OA
ATOM      7  H   UNL A   1      32.674  23.125  28.611  1.00  0.00     0.163 HD
BRANCH   5   8
ATOM      8  C   UNL A   1      32.129  22.908  25.270  1.00  0.00     0.139 A 
ATOM      9  C   UNL A   1      32.256  21.257  23.620  1.00  0.00     0.124 A 
ATOM     10  C   UNL A   1      32.517  22.200  22.648  1.00  0.00     0.047 A 
ATOM     11  N   UNL A   1      32.040  21.589  24.897  1.00  0.00    -0.225 NA
ATOM     12  C   UNL A   1      32.633  23.536  23.024  1.00  0.00     0.016 A 
ATOM     13  C   UNL A   1      32.465  23.926  24.363  1.00  0.00     0.023 A 
BRANCH   9  14
ATOM     14  N   UNL A   1      32.161  19.917  23.301  1.00  0.00    -0.384 N 
ATOM     15  H   UNL A   1      32.428  19.235  23.958  1.00  0.00     0.158 HD
ATOM     16  H   UNL A   1      31.826  19.644  22.416  1.00  0.00     0.158 HD
ENDBRANCH   9  14
BRANCH  13  17
ATOM     17  C   UNL A   1      32.644  25.341  24.703  1.00  0.00     0.038 A 
ATOM     18  C   UNL A   1      33.518  25.940  25.587  1.00  0.00     0.029 A 
ATOM     19  S   UNL A   1      31.628  26.519  23.966  1.00  0.00    -0.135 S 
ATOM     20  C   UNL A   1      33.143  27.298  25.897  1.00  0.00    -0.007 A 
ATOM     21  C   UNL A   1      32.051  27.712  25.128  1.00  0.00     0.035 A 
ATOM     22  C   UNL A   1      33.627  28.179  26.891  1.00  0.00     0.009 A 
ATOM     23  C   UNL A   1      31.409  28.945  25.347  1.00  0.00     0.019 A 
ATOM     24  C   UNL A   1      32.980  29.396  27.127  1.00  0.00     0.001 A 
ATOM     25  C   UNL A   1      31.876  29.768  26.372  1.00  0.00     0.001 A 
ENDBRANCH  13  17
ENDBRANCH   5   8
ENDBRANCH   3   4
ENDBRANCH   2   3
ENDBRANCH   1   2
BRANCH   1  26
ATOM     26  N   UNL A   1      36.683  21.324  25.451  1.00  0.00    -0.352 N 
ATOM     27  C   UNL A   1      38.047  21.294  25.631  1.00  0.00     0.251 C 
ATOM     28  H   UNL A   1      36.327  20.504  25.040  1.00  0.00     0.163 HD
ATOM     29  O   UNL A   1      38.663  20.274  25.314  1.00  0.00    -0.269 OA
BRANCH  27  30
ATOM     30  C   UNL A   1      38.807  22.460  26.141  1.00  0.00     0.039 A 
ATOM     31  C   UNL A   1      39.922  22.234  26.961  1.00  0.00     0.014 A 
ATOM     32  C   UNL A   1      38.427  23.769  25.865  1.00  0.00     0.014 A 
ATOM     33  C   UNL A   1      40.696  23.310  27.417  1.00  0.00     0.010 A 
ATOM     34  C   UNL A   1      39.259  24.827  26.213  1.00  0.00     0.010 A 
ATOM     35  C   UNL A   1      40.398  24.615  27.004  1.00  0.00    -0.014 A 
BRANCH  35  36
ATOM     36  C   UNL A   1      41.206  25.795  27.419  1.00  0.00     0.031 A 
ATOM     37  C   UNL A   1      40.569  26.858  28.280  1.00  0.00     0.074 A 
ATOM     38  C   UNL A   1      42.453  25.971  26.939  1.00  0.00     0.049 A 
ATOM     39  N   UNL A   1      40.992  28.059  28.571  1.00  0.00    -0.248 NA
ATOM     40  C   UNL A   1      39.246  26.536  28.840  1.00  0.00     0.031 C 
ATOM     41  C   UNL A   1      43.167  25.034  26.068  1.00  0.00     0.029 A 
ATOM     42  N   UNL A   1      43.333  27.012  27.093  1.00  0.00    -0.354 N 
ATOM     43  C   UNL A   1      39.967  28.655  29.303  1.00  0.00     0.074 A 
ATOM     44  C   UNL A   1      38.882  27.700  29.355  1.00  0.00     0.031 C 
ATOM     45  C   UNL A   1      44.379  25.535  25.781  1.00  0.00     0.029 A 
ATOM     46  C   UNL A   1      44.510  26.852  26.396  1.00  0.00     0.049 A 
ATOM     47  H   UNL A   1      43.142  27.800  27.651  1.00  0.00     0.167 HD
ATOM     48  C   UNL A   1      39.944  29.876  29.893  1.00  0.00     0.034 A 
ATOM     49  C   UNL A   1      45.563  27.681  26.251  1.00  0.00     0.034 A 
ATOM     50  C   UNL A   1      41.059  30.789  29.872  1.00  0.00     0.049 A 
ATOM     51  C   UNL A   1      45.527  29.023  26.937  1.00  0.00     0.074 A 
ATOM     52  C   UNL A   1      41.180  32.019  30.494  1.00  0.00     0.029 A 
ATOM     53  N   UNL A   1      42.253  30.567  29.195  1.00  0.00    -0.354 N 
ATOM     54  N   UNL A   1      44.563  29.562  27.650  1.00  0.00    -0.248 NA
ATOM     55  C   UNL A   1      46.723  29.865  26.809  1.00  0.00     0.031 C 
ATOM     56  C   UNL A   1      42.420  32.565  30.148  1.00  0.00     0.029 A 
ATOM     57  C   UNL A   1      43.106  31.646  29.369  1.00  0.00     0.049 A 
ATOM     58  H   UNL A   1      42.462  29.763  28.670  1.00  0.00     0.167 HD
ATOM     59  C   UNL A   1      45.051  30.794  28.079  1.00  0.00     0.074 A 
ATOM     60  C   UNL A   1      46.398  30.909  27.557  1.00  0.00     0.031 C 
ATOM     61  C   UNL A   1      44.444  31.743  28.836  1.00  0.00     0.034 A 
BRANCH  48  62
ATOM     62  C   UNL A   1      38.666  30.290  30.588  1.00  0.00     0.023 A 
ATOM     63  C   UNL A   1      37.643  30.976  29.910  1.00  0.00     0.031 A 
ATOM     64  C   UNL A   1      38.485  30.031  31.958  1.00  0.00     0.131 A 
ATOM     65  C   UNL A   1      36.534  31.460  30.619  1.00  0.00     0.055 A 
ATOM     66  C   UNL A   1      37.334  30.436  32.639  1.00  0.00     0.041 A 
ATOM     67  F   UNL A   1      39.433  29.396  32.666  1.00  0.00    -0.206 F 
ATOM     68  C   UNL A   1      36.359  31.172  31.974  1.00  0.00     0.022 A 
BRANCH  65  69
ATOM     69  S   UNL A   1      35.405  32.605  29.780  1.00  0.00     0.124 S 
ATOM     70  O   UNL A   1      36.279  33.748  29.529  1.00  0.00    -0.237 OA
ATOM     71  O   UNL A   1      34.997  31.842  28.606  1.00  0.00    -0.237 OA
ATOM     72  O   UNL A   1      34.354  32.839  30.769  1.00  0.00    -0.744 OA
ENDBRANCH  65  69
ENDBRANCH  48  62
BRANCH  49  73
ATOM     73  C   UNL A   1      46.734  27.281  25.417  1.00  0.00     0.023 A 
ATOM     74  C   UNL A   1      46.912  27.802  24.126  1.00  0.00     0.031 A 
ATOM     75  C   UNL A   1      47.676  26.348  25.887  1.00  0.00     0.131 A 
ATOM     76  C   UNL A   1      47.979  27.355  23.331  1.00  0.00     0.055 A 
ATOM     77  C   UNL A   1      48.764  25.944  25.111  1.00  0.00     0.041 A 
ATOM     78  F   UNL A   1      47.559  25.825  27.118  1.00  0.00    -0.206 F 
ATOM     79  C   UNL A   1      48.914  26.438  23.819  1.00  0.00     0.022 A 
BRANCH  76  80
ATOM     80  S   UNL A   1      48.086  27.933  21.615  1.00  0.00     0.124 S 
ATOM     81  O   UNL A   1      48.296  26.683  20.893  1.00  0.00    -0.237 OA
ATOM     82  O   UNL A   1      46.788  28.571  21.429  1.00  0.00    -0.237 OA
ATOM     83  O   UNL A   1      49.230  28.843  21.633  1.00  0.00    -0.744 OA
ENDBRANCH  76  80
ENDBRANCH  49  73
BRANCH  61  84
ATOM     84  C   UNL A   1      45.258  32.964  29.185  1.00  0.00     0.023 A 
ATOM     85  C   UNL A   1      45.236  34.121  28.387  1.00  0.00     0.031 A 
ATOM     86  C   UNL A   1      46.072  32.964  30.332  1.00  0.00     0.131 A 
ATOM     87  C   UNL A   1      46.054  35.210  28.718  1.00  0.00     0.055 A 
ATOM     88  C   UNL A   1      46.836  34.074  30.689  1.00  0.00     0.041 A 
ATOM     89  F   UNL A   1      46.130  31.884  31.128  1.00  0.00    -0.206 F 
ATOM     90  C   UNL A   1      46.840  35.202  29.874  1.00  0.00     0.022 A 
BRANCH  87  91
ATOM     91  S   UNL A   1      46.145  36.611  27.569  1.00  0.00     0.124 S 
ATOM     92  O   UNL A   1      47.109  36.131  26.583  1.00  0.00    -0.237 OA
ATOM     93  O   UNL A   1      44.765  36.725  27.106  1.00  0.00    -0.237 OA
ATOM     94  O   UNL A   1      46.610  37.713  28.408  1.00  0.00    -0.744 OA
ENDBRANCH  87  91
ENDBRANCH  61  84
ENDBRANCH  35  36
ENDBRANCH  27  30
ENDBRANCH   1  26
TORSDOF 15
ENDMDL
