MODEL 1
REMARK VINA RESULT:     -11.4      0.000      0.000
REMARK SMILES COc1cc(-c2ccc(NC(=O)CCC(=O)NCCCNC(=O)c3ccc(-c4c5nc(c(-c6cc(S(=O)(=O)[O-])ccc6F)c6ccc([nH]6)c(-c6cc(S(=O)(=O)[O-])ccc6F)c6nc(c(-c7cc(S(=O)(=O)[O-])ccc7F)c7ccc4[nH]7)C=C6)C=C5)cc3)c(OC)c2)ccc1N
REMARK SMILES IDX 18 1 17 2 15 3 16 4 14 6 13 7 11 8 10 9 12 11 9 12 6 13 7 14
REMARK SMILES IDX 90 15 8 16 87 17 5 18 3 19 4 20 93 21 92 22 91 23 2 24 1 25
REMARK SMILES IDX 94 26 88 29 89 30 19 31 20 32 21 33 22 34 23 36 24 37 25 38
REMARK SMILES IDX 86 39 26 40 85 41 27 42 28 43 29 44 79 45 30 46 84 47 78 48
REMARK SMILES IDX 80 49 31 50 83 51 77 52 76 53 32 55 64 56 44 57 63 58 45 59
REMARK SMILES IDX 48 60 62 61 81 62 46 63 47 64 61 66 82 67 49 68 33 69 34 70
REMARK SMILES IDX 42 71 35 72 41 73 43 74 40 75 36 76 37 77 38 78 39 79 65 80
REMARK SMILES IDX 66 81 74 82 67 83 73 84 75 85 72 86 68 87 69 88 70 89 71 90
REMARK SMILES IDX 50 91 51 92 59 93 52 94 58 95 60 96 57 97 53 98 54 99 55 100
REMARK SMILES IDX 56 101
REMARK H PARENT 17 5 10 10 94 27 94 28 21 35 80 54 48 65
REMARK Flexibility Score: inf
ROOT
ATOM      1  C   UNL A   1      32.481  27.270  27.374  1.00  0.00     0.117 C 
ENDROOT
BRANCH   1   2
ATOM      2  N   UNL A   1      31.480  26.161  27.121  1.00  0.00    -0.356 N 
ATOM      3  C   UNL A   1      30.719  25.546  26.133  1.00  0.00     0.220 C 
ATOM      4  O   UNL A   1      30.273  24.440  26.504  1.00  0.00    -0.275 OA
ATOM      5  H   UNL A   1      31.303  25.705  27.976  1.00  0.00     0.163 HD
BRANCH   3   6
ATOM      6  C   UNL A   1      30.296  26.012  24.653  1.00  0.00     0.110 C 
BRANCH   6   7
ATOM      7  C   UNL A   1      30.376  27.549  24.124  1.00  0.00     0.110 C 
BRANCH   7   8
ATOM      8  C   UNL A   1      30.604  28.067  22.604  1.00  0.00     0.224 C 
ATOM      9  N   UNL A   1      31.837  28.012  21.938  1.00  0.00    -0.323 N 
ATOM     10  H   UNL A   1      31.923  28.514  21.096  1.00  0.00     0.170 HD
ATOM     11  O   UNL A   1      29.659  28.571  21.983  1.00  0.00    -0.275 OA
BRANCH   9  12
ATOM     12  C   UNL A   1      32.953  27.300  22.385  1.00  0.00     0.083 A 
ATOM     13  C   UNL A   1      33.758  25.065  23.805  1.00  0.00    -0.014 A 
ATOM     14  C   UNL A   1      34.071  26.361  24.259  1.00  0.00     0.011 A 
ATOM     15  C   UNL A   1      33.506  25.021  22.429  1.00  0.00     0.057 A 
ATOM     16  C   UNL A   1      33.617  27.503  23.573  1.00  0.00     0.031 A 
ATOM     17  C   UNL A   1      33.288  26.202  21.679  1.00  0.00     0.142 A 
BRANCH  13  18
ATOM     18  C   UNL A   1      33.625  23.888  24.753  1.00  0.00    -0.014 A 
ATOM     19  C   UNL A   1      32.733  21.681  25.491  1.00  0.00     0.142 A 
ATOM     20  C   UNL A   1      32.887  22.701  24.505  1.00  0.00     0.057 A 
ATOM     21  C   UNL A   1      33.386  21.773  26.728  1.00  0.00     0.074 A 
ATOM     22  C   UNL A   1      34.024  22.971  27.021  1.00  0.00     0.030 A 
ATOM     23  C   UNL A   1      34.143  23.987  26.061  1.00  0.00     0.011 A 
BRANCH  19  24
ATOM     24  O   UNL A   1      31.997  20.568  25.132  1.00  0.00    -0.495 OA
ATOM     25  C   UNL A   1      32.382  20.009  23.869  1.00  0.00     0.278 C 
ENDBRANCH  19  24
BRANCH  21  26
ATOM     26  N   UNL A   1      33.336  20.784  27.709  1.00  0.00    -0.396 N 
ATOM     27  H   UNL A   1      33.246  21.036  28.657  1.00  0.00     0.156 HD
ATOM     28  H   UNL A   1      33.391  19.835  27.454  1.00  0.00     0.156 HD
ENDBRANCH  21  26
ENDBRANCH  13  18
BRANCH  17  29
ATOM     29  O   UNL A   1      33.181  26.245  20.320  1.00  0.00    -0.495 OA
ATOM     30  C   UNL A   1      32.416  25.376  19.436  1.00  0.00     0.278 C 
ENDBRANCH  17  29
ENDBRANCH   9  12
ENDBRANCH   7   8
ENDBRANCH   6   7
ENDBRANCH   3   6
ENDBRANCH   1   2
BRANCH   1  31
ATOM     31  C   UNL A   1      32.405  28.810  26.959  1.00  0.00     0.042 C 
BRANCH  31  32
ATOM     32  C   UNL A   1      33.499  29.589  26.204  1.00  0.00     0.118 C 
BRANCH  32  33
ATOM     33  N   UNL A   1      33.610  30.954  26.719  1.00  0.00    -0.352 N 
ATOM     34  C   UNL A   1      34.300  31.542  27.756  1.00  0.00     0.251 C 
ATOM     35  H   UNL A   1      33.068  31.599  26.207  1.00  0.00     0.163 HD
ATOM     36  O   UNL A   1      33.869  32.635  28.137  1.00  0.00    -0.269 OA
BRANCH  34  37
ATOM     37  C   UNL A   1      35.516  30.995  28.440  1.00  0.00     0.039 A 
ATOM     38  C   UNL A   1      36.766  31.521  28.060  1.00  0.00     0.014 A 
ATOM     39  C   UNL A   1      35.514  29.882  29.286  1.00  0.00     0.014 A 
ATOM     40  C   UNL A   1      37.974  30.961  28.515  1.00  0.00     0.010 A 
ATOM     41  C   UNL A   1      36.730  29.344  29.774  1.00  0.00     0.010 A 
ATOM     42  C   UNL A   1      37.980  29.868  29.391  1.00  0.00    -0.014 A 
BRANCH  42  43
ATOM     43  C   UNL A   1      39.279  29.289  29.883  1.00  0.00     0.031 A 
ATOM     44  C   UNL A   1      40.002  29.875  31.076  1.00  0.00     0.074 A 
ATOM     45  C   UNL A   1      39.826  28.219  29.263  1.00  0.00     0.049 A 
ATOM     46  N   UNL A   1      41.140  29.514  31.622  1.00  0.00    -0.248 NA
ATOM     47  C   UNL A   1      39.367  31.026  31.732  1.00  0.00     0.031 C 
ATOM     48  C   UNL A   1      39.252  27.539  28.102  1.00  0.00     0.029 A 
ATOM     49  N   UNL A   1      40.982  27.512  29.517  1.00  0.00    -0.354 N 
ATOM     50  C   UNL A   1      41.363  30.396  32.678  1.00  0.00     0.074 A 
ATOM     51  C   UNL A   1      40.261  31.338  32.661  1.00  0.00     0.031 C 
ATOM     52  C   UNL A   1      40.043  26.510  27.756  1.00  0.00     0.029 A 
ATOM     53  C   UNL A   1      41.208  26.476  28.637  1.00  0.00     0.049 A 
ATOM     54  H   UNL A   1      41.591  27.729  30.259  1.00  0.00     0.167 HD
ATOM     55  C   UNL A   1      42.377  30.415  33.585  1.00  0.00     0.034 A 
ATOM     56  C   UNL A   1      42.234  25.605  28.530  1.00  0.00     0.034 A 
ATOM     57  C   UNL A   1      43.471  29.469  33.607  1.00  0.00     0.049 A 
ATOM     58  C   UNL A   1      43.376  25.677  29.517  1.00  0.00     0.074 A 
ATOM     59  C   UNL A   1      44.516  29.381  34.514  1.00  0.00     0.029 A 
ATOM     60  N   UNL A   1      43.676  28.457  32.679  1.00  0.00    -0.354 N 
ATOM     61  N   UNL A   1      43.544  26.498  30.527  1.00  0.00    -0.248 NA
ATOM     62  C   UNL A   1      44.460  24.697  29.354  1.00  0.00     0.031 C 
ATOM     63  C   UNL A   1      45.390  28.374  34.090  1.00  0.00     0.029 A 
ATOM     64  C   UNL A   1      44.848  27.770  32.969  1.00  0.00     0.049 A 
ATOM     65  H   UNL A   1      43.077  28.255  31.923  1.00  0.00     0.167 HD
ATOM     66  C   UNL A   1      44.736  26.109  31.137  1.00  0.00     0.074 A 
ATOM     67  C   UNL A   1      45.234  24.973  30.393  1.00  0.00     0.031 C 
ATOM     68  C   UNL A   1      45.356  26.642  32.221  1.00  0.00     0.034 A 
BRANCH  55  69
ATOM     69  C   UNL A   1      42.374  31.521  34.619  1.00  0.00     0.023 A 
ATOM     70  C   UNL A   1      41.474  31.527  35.699  1.00  0.00     0.031 A 
ATOM     71  C   UNL A   1      43.290  32.587  34.526  1.00  0.00     0.131 A 
ATOM     72  C   UNL A   1      41.459  32.607  36.595  1.00  0.00     0.055 A 
ATOM     73  C   UNL A   1      43.325  33.616  35.468  1.00  0.00     0.041 A 
ATOM     74  F   UNL A   1      44.166  32.648  33.511  1.00  0.00    -0.206 F 
ATOM     75  C   UNL A   1      42.395  33.640  36.503  1.00  0.00     0.022 A 
BRANCH  72  76
ATOM     76  S   UNL A   1      40.103  32.721  37.796  1.00  0.00     0.124 S 
ATOM     77  O   UNL A   1      39.715  34.122  37.670  1.00  0.00    -0.237 OA
ATOM     78  O   UNL A   1      39.146  31.743  37.281  1.00  0.00    -0.237 OA
ATOM     79  O   UNL A   1      40.736  32.367  39.062  1.00  0.00    -0.744 OA
ENDBRANCH  72  76
ENDBRANCH  55  69
BRANCH  56  80
ATOM     80  C   UNL A   1      42.260  24.595  27.427  1.00  0.00     0.023 A 
ATOM     81  C   UNL A   1      41.497  23.418  27.495  1.00  0.00     0.031 A 
ATOM     82  C   UNL A   1      43.102  24.767  26.313  1.00  0.00     0.131 A 
ATOM     83  C   UNL A   1      41.626  22.439  26.495  1.00  0.00     0.055 A 
ATOM     84  C   UNL A   1      43.182  23.819  25.291  1.00  0.00     0.041 A 
ATOM     85  F   UNL A   1      43.858  25.871  26.197  1.00  0.00    -0.206 F 
ATOM     86  C   UNL A   1      42.451  22.639  25.387  1.00  0.00     0.022 A 
BRANCH  83  87
ATOM     87  S   UNL A   1      40.776  20.851  26.716  1.00  0.00     0.124 S 
ATOM     88  O   UNL A   1      41.636  19.947  25.961  1.00  0.00    -0.237 OA
ATOM     89  O   UNL A   1      40.798  20.696  28.166  1.00  0.00    -0.237 OA
ATOM     90  O   UNL A   1      39.456  21.089  26.135  1.00  0.00    -0.744 OA
ENDBRANCH  83  87
ENDBRANCH  56  80
BRANCH  68  91
ATOM     91  C   UNL A   1      46.623  25.970  32.698  1.00  0.00     0.023 A 
ATOM     92  C   UNL A   1      47.870  26.218  32.096  1.00  0.00     0.031 A 
ATOM     93  C   UNL A   1      46.580  25.055  33.766  1.00  0.00     0.131 A 
ATOM     94  C   UNL A   1      49.009  25.518  32.527  1.00  0.00     0.055 A 
ATOM     95  C   UNL A   1      47.727  24.410  34.233  1.00  0.00     0.041 A 
ATOM     96  F   UNL A   1      45.418  24.773  34.378  1.00  0.00    -0.206 F 
ATOM     97  C   UNL A   1      48.948  24.629  33.603  1.00  0.00     0.022 A 
BRANCH  94  98
ATOM     98  S   UNL A   1      50.556  25.709  31.597  1.00  0.00     0.124 S 
ATOM     99  O   UNL A   1      50.697  24.399  30.970  1.00  0.00    -0.237 OA
ATOM    100  O   UNL A   1      50.245  26.817  30.699  1.00  0.00    -0.237 OA
ATOM    101  O   UNL A   1      51.544  26.012  32.632  1.00  0.00    -0.744 OA
ENDBRANCH  94  98
ENDBRANCH  68  91
ENDBRANCH  42  43
ENDBRANCH  34  37
ENDBRANCH  32  33
ENDBRANCH  31  32
ENDBRANCH   1  31
TORSDOF 20
ENDMDL
MODEL 2
REMARK VINA RESULT:     -11.1      1.773      2.026
REMARK SMILES COc1cc(-c2ccc(NC(=O)CCC(=O)NCCCNC(=O)c3ccc(-c4c5nc(c(-c6cc(S(=O)(=O)[O-])ccc6F)c6ccc([nH]6)c(-c6cc(S(=O)(=O)[O-])ccc6F)c6nc(c(-c7cc(S(=O)(=O)[O-])ccc7F)c7ccc4[nH]7)C=C6)C=C5)cc3)c(OC)c2)ccc1N
REMARK SMILES IDX 18 1 17 2 15 3 16 4 14 6 13 7 11 8 10 9 12 11 9 12 6 13 7 14
REMARK SMILES IDX 90 15 8 16 87 17 5 18 3 19 4 20 93 21 92 22 91 23 2 24 1 25
REMARK SMILES IDX 94 26 88 29 89 30 19 31 20 32 21 33 22 34 23 36 24 37 25 38
REMARK SMILES IDX 86 39 26 40 85 41 27 42 28 43 29 44 79 45 30 46 84 47 78 48
REMARK SMILES IDX 80 49 31 50 83 51 77 52 76 53 32 55 64 56 44 57 63 58 45 59
REMARK SMILES IDX 48 60 62 61 81 62 46 63 47 64 61 66 82 67 49 68 33 69 34 70
REMARK SMILES IDX 42 71 35 72 41 73 43 74 40 75 36 76 37 77 38 78 39 79 65 80
REMARK SMILES IDX 66 81 74 82 67 83 73 84 75 85 72 86 68 87 69 88 70 89 71 90
REMARK SMILES IDX 50 91 51 92 59 93 52 94 58 95 60 96 57 97 53 98 54 99 55 100
REMARK SMILES IDX 56 101
REMARK H PARENT 17 5 10 10 94 27 94 28 21 35 80 54 48 65
REMARK Flexibility Score: inf
ROOT
ATOM      1  C   UNL A   1      32.497  27.236  27.348  1.00  0.00     0.117 C 
ENDROOT
BRANCH   1   2
ATOM      2  N   UNL A   1      31.493  26.131  27.089  1.00  0.00    -0.356 N 
ATOM      3  C   UNL A   1      30.719  25.533  26.100  1.00  0.00     0.220 C 
ATOM      4  O   UNL A   1      30.279  24.420  26.457  1.00  0.00    -0.275 OA
ATOM      5  H   UNL A   1      31.329  25.659  27.937  1.00  0.00     0.163 HD
BRANCH   3   6
ATOM      6  C   UNL A   1      30.276  26.025  24.635  1.00  0.00     0.110 C 
BRANCH   6   7
ATOM      7  C   UNL A   1      30.345  27.572  24.134  1.00  0.00     0.110 C 
BRANCH   7   8
ATOM      8  C   UNL A   1      30.561  28.118  22.621  1.00  0.00     0.224 C 
ATOM      9  N   UNL A   1      31.786  28.071  21.942  1.00  0.00    -0.323 N 
ATOM     10  H   UNL A   1      31.866  28.588  21.109  1.00  0.00     0.170 HD
ATOM     11  O   UNL A   1      29.611  28.638  22.020  1.00  0.00    -0.275 OA
BRANCH   9  12
ATOM     12  C   UNL A   1      32.904  27.346  22.364  1.00  0.00     0.083 A 
ATOM     13  C   UNL A   1      33.714  25.102  23.766  1.00  0.00    -0.014 A 
ATOM     14  C   UNL A   1      34.053  26.394  24.212  1.00  0.00     0.011 A 
ATOM     15  C   UNL A   1      33.431  25.060  22.395  1.00  0.00     0.057 A 
ATOM     16  C   UNL A   1      33.597  27.540  23.536  1.00  0.00     0.031 A 
ATOM     17  C   UNL A   1      33.210  26.243  21.650  1.00  0.00     0.142 A 
BRANCH  13  18
ATOM     18  C   UNL A   1      33.589  23.926  24.717  1.00  0.00    -0.014 A 
ATOM     19  C   UNL A   1      32.651  21.754  25.501  1.00  0.00     0.142 A 
ATOM     20  C   UNL A   1      32.789  22.772  24.511  1.00  0.00     0.057 A 
ATOM     21  C   UNL A   1      33.380  21.813  26.697  1.00  0.00     0.074 A 
ATOM     22  C   UNL A   1      34.084  22.982  26.954  1.00  0.00     0.030 A 
ATOM     23  C   UNL A   1      34.188  23.997  25.991  1.00  0.00     0.011 A 
BRANCH  19  24
ATOM     24  O   UNL A   1      31.849  20.675  25.184  1.00  0.00    -0.495 OA
ATOM     25  C   UNL A   1      32.500  19.700  24.359  1.00  0.00     0.278 C 
ENDBRANCH  19  24
BRANCH  21  26
ATOM     26  N   UNL A   1      33.348  20.822  27.677  1.00  0.00    -0.396 N 
ATOM     27  H   UNL A   1      32.535  20.278  27.800  1.00  0.00     0.156 HD
ATOM     28  H   UNL A   1      34.136  20.665  28.244  1.00  0.00     0.156 HD
ENDBRANCH  21  26
ENDBRANCH  13  18
BRANCH  17  29
ATOM     29  O   UNL A   1      33.072  26.287  20.295  1.00  0.00    -0.495 OA
ATOM     30  C   UNL A   1      32.562  25.263  19.394  1.00  0.00     0.278 C 
ENDBRANCH  17  29
ENDBRANCH   9  12
ENDBRANCH   7   8
ENDBRANCH   6   7
ENDBRANCH   3   6
ENDBRANCH   1   2
BRANCH   1  31
ATOM     31  C   UNL A   1      32.430  28.776  26.931  1.00  0.00     0.042 C 
BRANCH  31  32
ATOM     32  C   UNL A   1      33.566  29.573  26.261  1.00  0.00     0.118 C 
BRANCH  32  33
ATOM     33  N   UNL A   1      33.643  30.925  26.813  1.00  0.00    -0.352 N 
ATOM     34  C   UNL A   1      34.313  31.500  27.872  1.00  0.00     0.251 C 
ATOM     35  H   UNL A   1      33.091  31.572  26.315  1.00  0.00     0.163 HD
ATOM     36  O   UNL A   1      33.856  32.573  28.279  1.00  0.00    -0.269 OA
BRANCH  34  37
ATOM     37  C   UNL A   1      35.536  30.960  28.550  1.00  0.00     0.039 A 
ATOM     38  C   UNL A   1      36.784  31.457  28.129  1.00  0.00     0.014 A 
ATOM     39  C   UNL A   1      35.537  29.876  29.432  1.00  0.00     0.014 A 
ATOM     40  C   UNL A   1      37.995  30.898  28.579  1.00  0.00     0.010 A 
ATOM     41  C   UNL A   1      36.756  29.339  29.915  1.00  0.00     0.010 A 
ATOM     42  C   UNL A   1      38.004  29.834  29.491  1.00  0.00    -0.014 A 
BRANCH  42  43
ATOM     43  C   UNL A   1      39.306  29.255  29.976  1.00  0.00     0.031 A 
ATOM     44  C   UNL A   1      40.025  29.830  31.178  1.00  0.00     0.074 A 
ATOM     45  C   UNL A   1      39.858  28.196  29.344  1.00  0.00     0.049 A 
ATOM     46  N   UNL A   1      41.164  29.467  31.720  1.00  0.00    -0.248 NA
ATOM     47  C   UNL A   1      39.384  30.970  31.847  1.00  0.00     0.031 C 
ATOM     48  C   UNL A   1      39.289  27.527  28.174  1.00  0.00     0.029 A 
ATOM     49  N   UNL A   1      41.017  27.491  29.590  1.00  0.00    -0.354 N 
ATOM     50  C   UNL A   1      41.382  30.338  32.787  1.00  0.00     0.074 A 
ATOM     51  C   UNL A   1      40.276  31.274  32.780  1.00  0.00     0.031 C 
ATOM     52  C   UNL A   1      40.085  26.506  27.816  1.00  0.00     0.029 A 
ATOM     53  C   UNL A   1      41.249  26.467  28.698  1.00  0.00     0.049 A 
ATOM     54  H   UNL A   1      41.625  27.702  30.336  1.00  0.00     0.167 HD
ATOM     55  C   UNL A   1      42.395  30.350  33.695  1.00  0.00     0.034 A 
ATOM     56  C   UNL A   1      42.280  25.603  28.581  1.00  0.00     0.034 A 
ATOM     57  C   UNL A   1      43.494  29.409  33.706  1.00  0.00     0.049 A 
ATOM     58  C   UNL A   1      43.420  25.668  29.570  1.00  0.00     0.074 A 
ATOM     59  C   UNL A   1      44.538  29.315  34.614  1.00  0.00     0.029 A 
ATOM     60  N   UNL A   1      43.705  28.410  32.766  1.00  0.00    -0.354 N 
ATOM     61  N   UNL A   1      43.584  26.477  30.590  1.00  0.00    -0.248 NA
ATOM     62  C   UNL A   1      44.510  24.695  29.396  1.00  0.00     0.031 C 
ATOM     63  C   UNL A   1      45.417  28.317  34.178  1.00  0.00     0.029 A 
ATOM     64  C   UNL A   1      44.879  27.725  33.048  1.00  0.00     0.049 A 
ATOM     65  H   UNL A   1      43.107  28.214  32.008  1.00  0.00     0.167 HD
ATOM     66  C   UNL A   1      44.777  26.086  31.197  1.00  0.00     0.074 A 
ATOM     67  C   UNL A   1      45.281  24.962  30.439  1.00  0.00     0.031 C 
ATOM     68  C   UNL A   1      45.393  26.609  32.287  1.00  0.00     0.034 A 
BRANCH  55  69
ATOM     69  C   UNL A   1      42.386  31.443  34.743  1.00  0.00     0.023 A 
ATOM     70  C   UNL A   1      42.989  32.693  34.517  1.00  0.00     0.031 A 
ATOM     71  C   UNL A   1      41.762  31.233  35.987  1.00  0.00     0.131 A 
ATOM     72  C   UNL A   1      43.019  33.653  35.542  1.00  0.00     0.055 A 
ATOM     73  C   UNL A   1      41.723  32.223  36.972  1.00  0.00     0.041 A 
ATOM     74  F   UNL A   1      41.181  30.056  36.271  1.00  0.00    -0.206 F 
ATOM     75  C   UNL A   1      42.368  33.437  36.759  1.00  0.00     0.022 A 
BRANCH  72  76
ATOM     76  S   UNL A   1      44.048  35.131  35.317  1.00  0.00     0.124 S 
ATOM     77  O   UNL A   1      43.661  35.937  36.470  1.00  0.00    -0.237 OA
ATOM     78  O   UNL A   1      45.401  34.579  35.348  1.00  0.00    -0.237 OA
ATOM     79  O   UNL A   1      43.618  35.656  34.025  1.00  0.00    -0.744 OA
ENDBRANCH  72  76
ENDBRANCH  55  69
BRANCH  56  80
ATOM     80  C   UNL A   1      42.312  24.607  27.465  1.00  0.00     0.023 A 
ATOM     81  C   UNL A   1      41.729  23.336  27.603  1.00  0.00     0.031 A 
ATOM     82  C   UNL A   1      42.984  24.893  26.263  1.00  0.00     0.131 A 
ATOM     83  C   UNL A   1      41.871  22.385  26.578  1.00  0.00     0.055 A 
ATOM     84  C   UNL A   1      43.070  23.966  25.223  1.00  0.00     0.041 A 
ATOM     85  F   UNL A   1      43.565  26.090  26.078  1.00  0.00    -0.206 F 
ATOM     86  C   UNL A   1      42.523  22.697  25.384  1.00  0.00     0.022 A 
BRANCH  83  87
ATOM     87  S   UNL A   1      41.277  20.695  26.870  1.00  0.00     0.124 S 
ATOM     88  O   UNL A   1      42.487  19.912  26.646  1.00  0.00    -0.237 OA
ATOM     89  O   UNL A   1      40.809  20.773  28.250  1.00  0.00    -0.237 OA
ATOM     90  O   UNL A   1      40.228  20.525  25.866  1.00  0.00    -0.744 OA
ENDBRANCH  83  87
ENDBRANCH  56  80
BRANCH  68  91
ATOM     91  C   UNL A   1      46.663  25.937  32.757  1.00  0.00     0.023 A 
ATOM     92  C   UNL A   1      46.645  24.852  33.651  1.00  0.00     0.031 A 
ATOM     93  C   UNL A   1      47.915  26.398  32.310  1.00  0.00     0.131 A 
ATOM     94  C   UNL A   1      47.852  24.304  34.115  1.00  0.00     0.055 A 
ATOM     95  C   UNL A   1      49.111  25.808  32.724  1.00  0.00     0.041 A 
ATOM     96  F   UNL A   1      47.998  27.434  31.459  1.00  0.00    -0.206 F 
ATOM     97  C   UNL A   1      49.084  24.763  33.642  1.00  0.00     0.022 A 
BRANCH  94  98
ATOM     98  S   UNL A   1      47.797  23.044  35.420  1.00  0.00     0.124 S 
ATOM     99  O   UNL A   1      46.589  23.416  36.150  1.00  0.00    -0.237 OA
ATOM    100  O   UNL A   1      47.722  21.804  34.653  1.00  0.00    -0.237 OA
ATOM    101  O   UNL A   1      49.049  23.247  36.147  1.00  0.00    -0.744 OA
ENDBRANCH  94  98
ENDBRANCH  68  91
ENDBRANCH  42  43
ENDBRANCH  34  37
ENDBRANCH  32  33
ENDBRANCH  31  32
ENDBRANCH   1  31
TORSDOF 20
ENDMDL
MODEL 3
REMARK VINA RESULT:     -11.0      2.442      8.225
REMARK SMILES COc1cc(-c2ccc(NC(=O)CCC(=O)NCCCNC(=O)c3ccc(-c4c5nc(c(-c6cc(S(=O)(=O)[O-])ccc6F)c6ccc([nH]6)c(-c6cc(S(=O)(=O)[O-])ccc6F)c6nc(c(-c7cc(S(=O)(=O)[O-])ccc7F)c7ccc4[nH]7)C=C6)C=C5)cc3)c(OC)c2)ccc1N
REMARK SMILES IDX 18 1 17 2 15 3 16 4 14 6 13 7 11 8 10 9 12 11 9 12 6 13 7 14
REMARK SMILES IDX 90 15 8 16 87 17 5 18 3 19 4 20 93 21 92 22 91 23 2 24 1 25
REMARK SMILES IDX 94 26 88 29 89 30 19 31 20 32 21 33 22 34 23 36 24 37 25 38
REMARK SMILES IDX 86 39 26 40 85 41 27 42 28 43 29 44 79 45 30 46 84 47 78 48
REMARK SMILES IDX 80 49 31 50 83 51 77 52 76 53 32 55 64 56 44 57 63 58 45 59
REMARK SMILES IDX 48 60 62 61 81 62 46 63 47 64 61 66 82 67 49 68 33 69 34 70
REMARK SMILES IDX 42 71 35 72 41 73 43 74 40 75 36 76 37 77 38 78 39 79 65 80
REMARK SMILES IDX 66 81 74 82 67 83 73 84 75 85 72 86 68 87 69 88 70 89 71 90
REMARK SMILES IDX 50 91 51 92 59 93 52 94 58 95 60 96 57 97 53 98 54 99 55 100
REMARK SMILES IDX 56 101
REMARK H PARENT 17 5 10 10 94 27 94 28 21 35 80 54 48 65
REMARK Flexibility Score: inf
ROOT
ATOM      1  C   UNL A   1      31.897  27.007  26.734  1.00  0.00     0.117 C 
ENDROOT
BRANCH   1   2
ATOM      2  N   UNL A   1      30.920  25.852  26.636  1.00  0.00    -0.356 N 
ATOM      3  C   UNL A   1      30.805  24.472  26.768  1.00  0.00     0.220 C 
ATOM      4  O   UNL A   1      29.614  24.106  26.840  1.00  0.00    -0.275 OA
ATOM      5  H   UNL A   1      30.039  26.213  26.388  1.00  0.00     0.163 HD
BRANCH   3   6
ATOM      6  C   UNL A   1      31.903  23.299  26.807  1.00  0.00     0.110 C 
BRANCH   6   7
ATOM      7  C   UNL A   1      32.197  22.284  25.568  1.00  0.00     0.110 C 
BRANCH   7   8
ATOM      8  C   UNL A   1      33.603  21.576  25.176  1.00  0.00     0.224 C 
ATOM      9  N   UNL A   1      34.405  21.977  24.099  1.00  0.00    -0.323 N 
ATOM     10  H   UNL A   1      35.138  21.379  23.827  1.00  0.00     0.170 HD
ATOM     11  O   UNL A   1      34.000  20.603  25.831  1.00  0.00    -0.275 OA
BRANCH   9  12
ATOM     12  C   UNL A   1      34.239  23.165  23.380  1.00  0.00     0.083 A 
ATOM     13  C   UNL A   1      32.558  25.330  23.000  1.00  0.00    -0.014 A 
ATOM     14  C   UNL A   1      32.815  24.422  21.954  1.00  0.00     0.011 A 
ATOM     15  C   UNL A   1      33.564  25.332  23.974  1.00  0.00     0.057 A 
ATOM     16  C   UNL A   1      33.623  23.288  22.157  1.00  0.00     0.031 A 
ATOM     17  C   UNL A   1      34.540  24.308  24.030  1.00  0.00     0.142 A 
BRANCH  13  18
ATOM     18  C   UNL A   1      31.273  26.133  23.074  1.00  0.00    -0.014 A 
ATOM     19  C   UNL A   1      29.927  28.230  23.105  1.00  0.00     0.142 A 
ATOM     20  C   UNL A   1      31.163  27.540  22.924  1.00  0.00     0.057 A 
ATOM     21  C   UNL A   1      28.741  27.525  23.354  1.00  0.00     0.074 A 
ATOM     22  C   UNL A   1      28.852  26.164  23.603  1.00  0.00     0.030 A 
ATOM     23  C   UNL A   1      30.076  25.495  23.459  1.00  0.00     0.011 A 
BRANCH  19  24
ATOM     24  O   UNL A   1      29.941  29.600  22.928  1.00  0.00    -0.495 OA
ATOM     25  C   UNL A   1      29.690  30.006  21.576  1.00  0.00     0.278 C 
ENDBRANCH  19  24
BRANCH  21  26
ATOM     26  N   UNL A   1      27.489  28.128  23.472  1.00  0.00    -0.396 N 
ATOM     27  H   UNL A   1      27.268  28.649  24.278  1.00  0.00     0.156 HD
ATOM     28  H   UNL A   1      26.827  28.032  22.750  1.00  0.00     0.156 HD
ENDBRANCH  21  26
ENDBRANCH  13  18
BRANCH  17  29
ATOM     29  O   UNL A   1      35.625  24.321  24.855  1.00  0.00    -0.495 OA
ATOM     30  C   UNL A   1      36.849  23.535  24.767  1.00  0.00     0.278 C 
ENDBRANCH  17  29
ENDBRANCH   9  12
ENDBRANCH   7   8
ENDBRANCH   6   7
ENDBRANCH   3   6
ENDBRANCH   1   2
BRANCH   1  31
ATOM     31  C   UNL A   1      31.631  28.570  26.535  1.00  0.00     0.042 C 
BRANCH  31  32
ATOM     32  C   UNL A   1      32.413  29.495  25.583  1.00  0.00     0.118 C 
BRANCH  32  33
ATOM     33  N   UNL A   1      32.328  30.886  26.031  1.00  0.00    -0.352 N 
ATOM     34  C   UNL A   1      32.994  31.639  26.973  1.00  0.00     0.251 C 
ATOM     35  H   UNL A   1      31.638  31.400  25.550  1.00  0.00     0.163 HD
ATOM     36  O   UNL A   1      32.414  32.663  27.351  1.00  0.00    -0.269 OA
BRANCH  34  37
ATOM     37  C   UNL A   1      34.343  31.346  27.557  1.00  0.00     0.039 A 
ATOM     38  C   UNL A   1      34.584  30.032  28.003  1.00  0.00     0.014 A 
ATOM     39  C   UNL A   1      35.302  32.317  27.857  1.00  0.00     0.014 A 
ATOM     40  C   UNL A   1      35.750  29.695  28.717  1.00  0.00     0.010 A 
ATOM     41  C   UNL A   1      36.493  31.968  28.542  1.00  0.00     0.010 A 
ATOM     42  C   UNL A   1      36.733  30.655  28.990  1.00  0.00    -0.014 A 
BRANCH  42  43
ATOM     43  C   UNL A   1      37.981  30.278  29.741  1.00  0.00     0.031 A 
ATOM     44  C   UNL A   1      38.987  29.306  29.161  1.00  0.00     0.074 A 
ATOM     45  C   UNL A   1      38.232  30.811  30.957  1.00  0.00     0.049 A 
ATOM     46  N   UNL A   1      40.106  28.856  29.679  1.00  0.00    -0.248 NA
ATOM     47  C   UNL A   1      38.687  28.762  27.830  1.00  0.00     0.031 C 
ATOM     48  C   UNL A   1      37.364  31.762  31.652  1.00  0.00     0.029 A 
ATOM     49  N   UNL A   1      39.286  30.636  31.829  1.00  0.00    -0.354 N 
ATOM     50  C   UNL A   1      40.638  27.969  28.745  1.00  0.00     0.074 A 
ATOM     51  C   UNL A   1      39.690  27.915  27.650  1.00  0.00     0.031 C 
ATOM     52  C   UNL A   1      37.923  32.098  32.826  1.00  0.00     0.029 A 
ATOM     53  C   UNL A   1      39.169  31.355  32.999  1.00  0.00     0.049 A 
ATOM     54  H   UNL A   1      40.051  30.049  31.634  1.00  0.00     0.167 HD
ATOM     55  C   UNL A   1      41.809  27.278  28.784  1.00  0.00     0.034 A 
ATOM     56  C   UNL A   1      39.956  31.408  34.095  1.00  0.00     0.034 A 
ATOM     57  C   UNL A   1      42.759  27.340  29.873  1.00  0.00     0.049 A 
ATOM     58  C   UNL A   1      41.226  30.592  34.138  1.00  0.00     0.074 A 
ATOM     59  C   UNL A   1      43.992  26.714  29.978  1.00  0.00     0.029 A 
ATOM     60  N   UNL A   1      42.586  28.056  31.050  1.00  0.00    -0.354 N 
ATOM     61  N   UNL A   1      41.725  29.790  33.227  1.00  0.00    -0.248 NA
ATOM     62  C   UNL A   1      42.045  30.697  35.356  1.00  0.00     0.031 C 
ATOM     63  C   UNL A   1      44.522  26.985  31.245  1.00  0.00     0.029 A 
ATOM     64  C   UNL A   1      43.666  27.854  31.899  1.00  0.00     0.049 A 
ATOM     65  H   UNL A   1      41.808  28.626  31.253  1.00  0.00     0.167 HD
ATOM     66  C   UNL A   1      42.930  29.324  33.749  1.00  0.00     0.074 A 
ATOM     67  C   UNL A   1      43.091  29.946  35.045  1.00  0.00     0.031 C 
ATOM     68  C   UNL A   1      43.825  28.463  33.200  1.00  0.00     0.034 A 
BRANCH  55  69
ATOM     69  C   UNL A   1      42.121  26.357  27.623  1.00  0.00     0.023 A 
ATOM     70  C   UNL A   1      41.638  25.037  27.571  1.00  0.00     0.031 A 
ATOM     71  C   UNL A   1      42.911  26.806  26.548  1.00  0.00     0.131 A 
ATOM     72  C   UNL A   1      42.009  24.195  26.511  1.00  0.00     0.055 A 
ATOM     73  C   UNL A   1      43.207  25.990  25.455  1.00  0.00     0.041 A 
ATOM     74  F   UNL A   1      43.415  28.051  26.543  1.00  0.00    -0.206 F 
ATOM     75  C   UNL A   1      42.769  24.669  25.439  1.00  0.00     0.022 A 
BRANCH  72  76
ATOM     76  S   UNL A   1      41.609  22.429  26.624  1.00  0.00     0.124 S 
ATOM     77  O   UNL A   1      42.330  21.890  25.476  1.00  0.00    -0.237 OA
ATOM     78  O   UNL A   1      42.139  22.071  27.938  1.00  0.00    -0.237 OA
ATOM     79  O   UNL A   1      40.154  22.398  26.509  1.00  0.00    -0.744 OA
ENDBRANCH  72  76
ENDBRANCH  55  69
BRANCH  56  80
ATOM     80  C   UNL A   1      39.561  32.243  35.272  1.00  0.00     0.023 A 
ATOM     81  C   UNL A   1      38.854  31.692  36.354  1.00  0.00     0.031 A 
ATOM     82  C   UNL A   1      39.833  33.622  35.301  1.00  0.00     0.131 A 
ATOM     83  C   UNL A   1      38.403  32.523  37.393  1.00  0.00     0.055 A 
ATOM     84  C   UNL A   1      39.436  34.434  36.365  1.00  0.00     0.041 A 
ATOM     85  F   UNL A   1      40.501  34.204  34.292  1.00  0.00    -0.206 F 
ATOM     86  C   UNL A   1      38.703  33.886  37.413  1.00  0.00     0.022 A 
BRANCH  83  87
ATOM     87  S   UNL A   1      37.327  31.814  38.671  1.00  0.00     0.124 S 
ATOM     88  O   UNL A   1      37.093  30.471  38.152  1.00  0.00    -0.237 OA
ATOM     89  O   UNL A   1      38.169  31.905  39.859  1.00  0.00    -0.237 OA
ATOM     90  O   UNL A   1      36.163  32.698  38.664  1.00  0.00    -0.744 OA
ENDBRANCH  83  87
ENDBRANCH  56  80
BRANCH  68  91
ATOM     91  C   UNL A   1      45.087  28.180  33.982  1.00  0.00     0.023 A 
ATOM     92  C   UNL A   1      45.178  27.108  34.887  1.00  0.00     0.031 A 
ATOM     93  C   UNL A   1      46.216  29.005  33.827  1.00  0.00     0.131 A 
ATOM     94  C   UNL A   1      46.347  26.924  35.644  1.00  0.00     0.055 A 
ATOM     95  C   UNL A   1      47.399  28.780  34.534  1.00  0.00     0.041 A 
ATOM     96  F   UNL A   1      46.189  30.048  32.981  1.00  0.00    -0.206 F 
ATOM     97  C   UNL A   1      47.464  27.743  35.459  1.00  0.00     0.022 A 
BRANCH  94  98
ATOM     98  S   UNL A   1      46.357  25.660  36.946  1.00  0.00     0.124 S 
ATOM     99  O   UNL A   1      46.669  26.450  38.133  1.00  0.00    -0.237 OA
ATOM    100  O   UNL A   1      45.000  25.127  36.873  1.00  0.00    -0.237 OA
ATOM    101  O   UNL A   1      47.407  24.736  36.520  1.00  0.00    -0.744 OA
ENDBRANCH  94  98
ENDBRANCH  68  91
ENDBRANCH  42  43
ENDBRANCH  34  37
ENDBRANCH  32  33
ENDBRANCH  31  32
ENDBRANCH   1  31
TORSDOF 20
ENDMDL
