MODEL 1
REMARK VINA RESULT:     -12.1      0.000      0.000
REMARK SMILES COc1ccc(-c2noc(C[N@H+]3CCCC[C@@H]3C(=O)NCCCNC(=O)c3ccc(-c4c5nc(c(-c6cc(S(=O)(=O)[O-])ccc6F)c6ccc([nH]6)c(-c6cc(S(=O)(=O)[O-])ccc6F)c6nc(c(-c7cc(S(=O)(=O)[O-])ccc7F)c7ccc4[nH]7)C=C6)C=C5)cc3)n2)cc1OC
REMARK SMILES IDX 21 1 20 2 18 3 19 4 17 6 12 7 13 8 14 10 16 11 15 12 11 13
REMARK SMILES IDX 10 14 7 15 8 16 90 17 9 18 6 19 3 20 4 21 92 22 5 23 91 24
REMARK SMILES IDX 2 25 1 26 93 27 94 28 22 29 23 30 24 31 25 32 26 34 27 35
REMARK SMILES IDX 28 36 89 37 29 38 88 39 30 40 31 41 32 42 82 43 33 44 87 45
REMARK SMILES IDX 81 46 83 47 34 48 86 49 80 50 79 51 35 53 67 54 47 55 66 56
REMARK SMILES IDX 48 57 51 58 65 59 84 60 49 61 50 62 64 64 85 65 52 66 36 67
REMARK SMILES IDX 37 68 45 69 38 70 44 71 46 72 43 73 39 74 40 75 41 76 42 77
REMARK SMILES IDX 68 78 69 79 77 80 70 81 76 82 78 83 75 84 71 85 72 86 73 87
REMARK SMILES IDX 74 88 53 89 54 90 62 91 55 92 61 93 63 94 60 95 56 96 57 97
REMARK SMILES IDX 58 98 59 99
REMARK H PARENT 20 5 12 9 24 33 83 52 51 63
REMARK Flexibility Score: inf
ROOT
ATOM      1  C   UNL A   1      31.836  30.460  25.944  1.00  0.00     0.118 C 
ENDROOT
BRANCH   1   2
ATOM      2  N   UNL A   1      32.837  29.535  26.449  1.00  0.00    -0.351 N 
ATOM      3  C   UNL A   1      33.376  28.423  25.871  1.00  0.00     0.278 C 
ATOM      4  O   UNL A   1      34.225  27.799  26.513  1.00  0.00    -0.268 OA
ATOM      5  H   UNL A   1      33.179  29.742  27.348  1.00  0.00     0.163 HD
BRANCH   3   6
ATOM      6  C   UNL A   1      33.000  27.995  24.435  1.00  0.00     0.274 C 
ATOM      7  N   UNL A   1      32.936  26.512  24.339  1.00  0.00    -0.317 N 
ATOM      8  C   UNL A   1      32.706  26.037  22.971  1.00  0.00     0.263 C 
ATOM      9  H   UNL A   1      33.863  26.189  24.613  1.00  0.00     0.349 HD
ATOM     10  C   UNL A   1      33.729  26.611  21.993  1.00  0.00     0.062 C 
ATOM     11  C   UNL A   1      33.941  28.649  23.412  1.00  0.00     0.076 C 
ATOM     12  C   UNL A   1      33.687  28.133  22.002  1.00  0.00     0.012 C 
BRANCH   7  13
ATOM     13  C   UNL A   1      31.976  25.904  25.298  1.00  0.00     0.364 C 
BRANCH  13  14
ATOM     14  C   UNL A   1      32.186  24.465  25.640  1.00  0.00     0.282 A 
ATOM     15  C   UNL A   1      32.580  22.412  25.735  1.00  0.00     0.202 A 
ATOM     16  N   UNL A   1      32.024  22.670  26.925  1.00  0.00    -0.057 NA
ATOM     17  N   UNL A   1      32.693  23.501  24.904  1.00  0.00    -0.186 NA
ATOM     18  O   UNL A   1      31.799  24.045  26.880  1.00  0.00    -0.333 OA
BRANCH  15  19
ATOM     19  C   UNL A   1      33.117  21.122  25.365  1.00  0.00     0.027 A 
ATOM     20  C   UNL A   1      34.247  18.662  24.664  1.00  0.00     0.160 A 
ATOM     21  C   UNL A   1      32.852  18.808  24.730  1.00  0.00     0.051 A 
ATOM     22  C   UNL A   1      35.085  19.752  24.927  1.00  0.00     0.161 A 
ATOM     23  C   UNL A   1      32.286  20.032  25.097  1.00  0.00     0.016 A 
ATOM     24  C   UNL A   1      34.505  20.977  25.268  1.00  0.00     0.062 A 
BRANCH  20  25
ATOM     25  O   UNL A   1      34.752  17.465  24.230  1.00  0.00    -0.493 OA
ATOM     26  C   UNL A   1      34.030  16.966  23.104  1.00  0.00     0.278 C 
ENDBRANCH  20  25
BRANCH  22  27
ATOM     27  O   UNL A   1      36.450  19.813  24.870  1.00  0.00    -0.493 OA
ATOM     28  C   UNL A   1      37.053  21.093  24.792  1.00  0.00     0.278 C 
ENDBRANCH  22  27
ENDBRANCH  15  19
ENDBRANCH  13  14
ENDBRANCH   7  13
ENDBRANCH   3   6
ENDBRANCH   1   2
BRANCH   1  29
ATOM     29  C   UNL A   1      31.567  31.586  26.935  1.00  0.00     0.042 C 
BRANCH  29  30
ATOM     30  C   UNL A   1      32.816  32.368  27.322  1.00  0.00     0.118 C 
BRANCH  30  31
ATOM     31  N   UNL A   1      32.533  33.773  27.578  1.00  0.00    -0.352 N 
ATOM     32  C   UNL A   1      33.058  34.616  28.529  1.00  0.00     0.251 C 
ATOM     33  H   UNL A   1      31.866  34.181  26.979  1.00  0.00     0.163 HD
ATOM     34  O   UNL A   1      32.538  35.707  28.723  1.00  0.00    -0.269 OA
BRANCH  32  35
ATOM     35  C   UNL A   1      34.226  34.186  29.329  1.00  0.00     0.039 A 
ATOM     36  C   UNL A   1      34.013  33.439  30.490  1.00  0.00     0.014 A 
ATOM     37  C   UNL A   1      35.527  34.508  28.931  1.00  0.00     0.014 A 
ATOM     38  C   UNL A   1      35.107  32.944  31.205  1.00  0.00     0.010 A 
ATOM     39  C   UNL A   1      36.613  33.946  29.596  1.00  0.00     0.010 A 
ATOM     40  C   UNL A   1      36.415  33.153  30.736  1.00  0.00    -0.014 A 
BRANCH  40  41
ATOM     41  C   UNL A   1      37.588  32.537  31.411  1.00  0.00     0.031 A 
ATOM     42  C   UNL A   1      38.321  31.398  30.759  1.00  0.00     0.074 A 
ATOM     43  C   UNL A   1      37.942  32.954  32.643  1.00  0.00     0.049 A 
ATOM     44  N   UNL A   1      39.297  30.663  31.229  1.00  0.00    -0.248 NA
ATOM     45  C   UNL A   1      37.880  31.017  29.408  1.00  0.00     0.031 C 
ATOM     46  C   UNL A   1      37.288  34.030  33.392  1.00  0.00     0.029 A 
ATOM     47  N   UNL A   1      38.931  32.518  33.490  1.00  0.00    -0.354 N 
ATOM     48  C   UNL A   1      39.578  29.728  30.238  1.00  0.00     0.074 A 
ATOM     49  C   UNL A   1      38.628  29.952  29.169  1.00  0.00     0.031 C 
ATOM     50  C   UNL A   1      37.906  34.185  34.572  1.00  0.00     0.029 A 
ATOM     51  C   UNL A   1      38.962  33.184  34.695  1.00  0.00     0.049 A 
ATOM     52  H   UNL A   1      39.559  31.798  33.259  1.00  0.00     0.167 HD
ATOM     53  C   UNL A   1      40.553  28.785  30.216  1.00  0.00     0.034 A 
ATOM     54  C   UNL A   1      39.736  32.998  35.783  1.00  0.00     0.034 A 
ATOM     55  C   UNL A   1      41.494  28.580  31.291  1.00  0.00     0.049 A 
ATOM     56  C   UNL A   1      40.777  31.906  35.755  1.00  0.00     0.074 A 
ATOM     57  C   UNL A   1      42.554  27.691  31.349  1.00  0.00     0.029 A 
ATOM     58  N   UNL A   1      41.483  29.262  32.501  1.00  0.00    -0.354 N 
ATOM     59  N   UNL A   1      41.063  31.062  34.791  1.00  0.00    -0.248 NA
ATOM     60  C   UNL A   1      41.601  31.745  36.960  1.00  0.00     0.031 C 
ATOM     61  C   UNL A   1      43.132  27.779  32.620  1.00  0.00     0.029 A 
ATOM     62  C   UNL A   1      42.490  28.784  33.327  1.00  0.00     0.049 A 
ATOM     63  H   UNL A   1      40.852  29.980  32.739  1.00  0.00     0.167 HD
ATOM     64  C   UNL A   1      42.121  30.290  35.265  1.00  0.00     0.074 A 
ATOM     65  C   UNL A   1      42.430  30.779  36.592  1.00  0.00     0.031 C 
ATOM     66  C   UNL A   1      42.781  29.273  34.655  1.00  0.00     0.034 A 
BRANCH  53  67
ATOM     67  C   UNL A   1      40.628  27.890  29.002  1.00  0.00     0.023 A 
ATOM     68  C   UNL A   1      41.584  28.092  27.992  1.00  0.00     0.031 A 
ATOM     69  C   UNL A   1      39.720  26.829  28.841  1.00  0.00     0.131 A 
ATOM     70  C   UNL A   1      41.562  27.300  26.835  1.00  0.00     0.055 A 
ATOM     71  C   UNL A   1      39.757  25.988  27.726  1.00  0.00     0.041 A 
ATOM     72  F   UNL A   1      38.770  26.596  29.761  1.00  0.00    -0.206 F 
ATOM     73  C   UNL A   1      40.673  26.232  26.707  1.00  0.00     0.022 A 
BRANCH  70  74
ATOM     74  S   UNL A   1      42.612  27.781  25.436  1.00  0.00     0.124 S 
ATOM     75  O   UNL A   1      42.658  26.543  24.663  1.00  0.00    -0.237 OA
ATOM     76  O   UNL A   1      41.860  28.879  24.839  1.00  0.00    -0.237 OA
ATOM     77  O   UNL A   1      43.874  28.159  26.069  1.00  0.00    -0.744 OA
ENDBRANCH  70  74
ENDBRANCH  53  67
BRANCH  54  78
ATOM     78  C   UNL A   1      39.549  33.842  36.999  1.00  0.00     0.023 A 
ATOM     79  C   UNL A   1      38.930  33.326  38.148  1.00  0.00     0.031 A 
ATOM     80  C   UNL A   1      39.945  35.192  37.014  1.00  0.00     0.131 A 
ATOM     81  C   UNL A   1      38.680  34.165  39.245  1.00  0.00     0.055 A 
ATOM     82  C   UNL A   1      39.747  36.007  38.130  1.00  0.00     0.041 A 
ATOM     83  F   UNL A   1      40.542  35.737  35.942  1.00  0.00    -0.206 F 
ATOM     84  C   UNL A   1      39.099  35.497  39.250  1.00  0.00     0.022 A 
BRANCH  81  85
ATOM     85  S   UNL A   1      37.712  33.513  40.633  1.00  0.00     0.124 S 
ATOM     86  O   UNL A   1      37.460  34.720  41.411  1.00  0.00    -0.237 OA
ATOM     87  O   UNL A   1      36.560  32.933  39.953  1.00  0.00    -0.237 OA
ATOM     88  O   UNL A   1      38.618  32.548  41.254  1.00  0.00    -0.744 OA
ENDBRANCH  81  85
ENDBRANCH  54  78
BRANCH  66  89
ATOM     89  C   UNL A   1      43.934  28.650  35.405  1.00  0.00     0.023 A 
ATOM     90  C   UNL A   1      43.789  27.449  36.121  1.00  0.00     0.031 A 
ATOM     91  C   UNL A   1      45.196  29.268  35.398  1.00  0.00     0.131 A 
ATOM     92  C   UNL A   1      44.877  26.929  36.839  1.00  0.00     0.055 A 
ATOM     93  C   UNL A   1      46.291  28.713  36.062  1.00  0.00     0.041 A 
ATOM     94  F   UNL A   1      45.390  30.419  34.735  1.00  0.00    -0.206 F 
ATOM     95  C   UNL A   1      46.131  27.542  36.798  1.00  0.00     0.022 A 
BRANCH  92  96
ATOM     96  S   UNL A   1      44.610  25.480  37.897  1.00  0.00     0.124 S 
ATOM     97  O   UNL A   1      45.813  24.693  37.642  1.00  0.00    -0.237 OA
ATOM     98  O   UNL A   1      44.510  26.076  39.226  1.00  0.00    -0.237 OA
ATOM     99  O   UNL A   1      43.371  24.902  37.382  1.00  0.00    -0.744 OA
ENDBRANCH  92  96
ENDBRANCH  66  89
ENDBRANCH  40  41
ENDBRANCH  32  35
ENDBRANCH  30  31
ENDBRANCH  29  30
ENDBRANCH   1  29
TORSDOF 18
ENDMDL
MODEL 2
REMARK VINA RESULT:     -12.0      3.564      9.362
REMARK SMILES COc1ccc(-c2noc(C[N@H+]3CCCC[C@@H]3C(=O)NCCCNC(=O)c3ccc(-c4c5nc(c(-c6cc(S(=O)(=O)[O-])ccc6F)c6ccc([nH]6)c(-c6cc(S(=O)(=O)[O-])ccc6F)c6nc(c(-c7cc(S(=O)(=O)[O-])ccc7F)c7ccc4[nH]7)C=C6)C=C5)cc3)n2)cc1OC
REMARK SMILES IDX 21 1 20 2 18 3 19 4 17 6 12 7 13 8 14 10 16 11 15 12 11 13
REMARK SMILES IDX 10 14 7 15 8 16 90 17 9 18 6 19 3 20 4 21 92 22 5 23 91 24
REMARK SMILES IDX 2 25 1 26 93 27 94 28 22 29 23 30 24 31 25 32 26 34 27 35
REMARK SMILES IDX 28 36 89 37 29 38 88 39 30 40 31 41 32 42 82 43 33 44 87 45
REMARK SMILES IDX 81 46 83 47 34 48 86 49 80 50 79 51 35 53 67 54 47 55 66 56
REMARK SMILES IDX 48 57 51 58 65 59 84 60 49 61 50 62 64 64 85 65 52 66 36 67
REMARK SMILES IDX 37 68 45 69 38 70 44 71 46 72 43 73 39 74 40 75 41 76 42 77
REMARK SMILES IDX 68 78 69 79 77 80 70 81 76 82 78 83 75 84 71 85 72 86 73 87
REMARK SMILES IDX 74 88 53 89 54 90 62 91 55 92 61 93 63 94 60 95 56 96 57 97
REMARK SMILES IDX 58 98 59 99
REMARK H PARENT 20 5 12 9 24 33 83 52 51 63
REMARK Flexibility Score: inf
ROOT
ATOM      1  C   UNL A   1      32.630  27.264  25.755  1.00  0.00     0.118 C 
ENDROOT
BRANCH   1   2
ATOM      2  N   UNL A   1      31.982  26.218  26.527  1.00  0.00    -0.351 N 
ATOM      3  C   UNL A   1      32.110  24.862  26.448  1.00  0.00     0.278 C 
ATOM      4  O   UNL A   1      31.442  24.178  27.229  1.00  0.00    -0.268 OA
ATOM      5  H   UNL A   1      31.352  26.536  27.213  1.00  0.00     0.163 HD
BRANCH   3   6
ATOM      6  C   UNL A   1      33.107  24.199  25.472  1.00  0.00     0.274 C 
ATOM      7  N   UNL A   1      32.491  23.002  24.838  1.00  0.00    -0.317 N 
ATOM      8  C   UNL A   1      33.429  22.255  23.995  1.00  0.00     0.263 C 
ATOM      9  H   UNL A   1      32.238  22.392  25.615  1.00  0.00     0.349 HD
ATOM     10  C   UNL A   1      34.701  21.885  24.755  1.00  0.00     0.062 C 
ATOM     11  C   UNL A   1      34.444  23.916  26.175  1.00  0.00     0.076 C 
ATOM     12  C   UNL A   1      35.396  23.133  25.281  1.00  0.00     0.012 C 
BRANCH   7  13
ATOM     13  C   UNL A   1      31.228  23.308  24.115  1.00  0.00     0.364 C 
BRANCH  13  14
ATOM     14  C   UNL A   1      31.122  24.658  23.484  1.00  0.00     0.282 A 
ATOM     15  C   UNL A   1      30.617  26.563  22.782  1.00  0.00     0.202 A 
ATOM     16  N   UNL A   1      31.728  26.269  22.093  1.00  0.00    -0.057 NA
ATOM     17  N   UNL A   1      30.205  25.584  23.653  1.00  0.00    -0.186 NA
ATOM     18  O   UNL A   1      32.088  25.018  22.591  1.00  0.00    -0.333 OA
BRANCH  15  19
ATOM     19  C   UNL A   1      29.944  27.839  22.705  1.00  0.00     0.027 A 
ATOM     20  C   UNL A   1      28.560  30.267  22.598  1.00  0.00     0.160 A 
ATOM     21  C   UNL A   1      29.897  30.194  22.177  1.00  0.00     0.051 A 
ATOM     22  C   UNL A   1      27.900  29.120  23.055  1.00  0.00     0.161 A 
ATOM     23  C   UNL A   1      30.595  28.986  22.246  1.00  0.00     0.016 A 
ATOM     24  C   UNL A   1      28.602  27.912  23.095  1.00  0.00     0.062 A 
BRANCH  20  25
ATOM     25  O   UNL A   1      27.896  31.455  22.444  1.00  0.00    -0.493 OA
ATOM     26  C   UNL A   1      28.789  32.516  22.106  1.00  0.00     0.278 C 
ENDBRANCH  20  25
BRANCH  22  27
ATOM     27  O   UNL A   1      26.600  28.987  23.462  1.00  0.00    -0.493 OA
ATOM     28  C   UNL A   1      26.178  27.717  23.924  1.00  0.00     0.278 C 
ENDBRANCH  22  27
ENDBRANCH  15  19
ENDBRANCH  13  14
ENDBRANCH   7  13
ENDBRANCH   3   6
ENDBRANCH   1   2
BRANCH   1  29
ATOM     29  C   UNL A   1      32.560  28.609  26.469  1.00  0.00     0.042 C 
BRANCH  29  30
ATOM     30  C   UNL A   1      33.742  29.522  26.168  1.00  0.00     0.118 C 
BRANCH  30  31
ATOM     31  N   UNL A   1      33.661  30.787  26.884  1.00  0.00    -0.352 N 
ATOM     32  C   UNL A   1      34.431  31.261  27.920  1.00  0.00     0.251 C 
ATOM     33  H   UNL A   1      32.948  31.395  26.579  1.00  0.00     0.163 HD
ATOM     34  O   UNL A   1      34.074  32.260  28.531  1.00  0.00    -0.269 OA
BRANCH  32  35
ATOM     35  C   UNL A   1      35.666  30.545  28.306  1.00  0.00     0.039 A 
ATOM     36  C   UNL A   1      36.852  30.822  27.621  1.00  0.00     0.014 A 
ATOM     37  C   UNL A   1      35.660  29.611  29.346  1.00  0.00     0.014 A 
ATOM     38  C   UNL A   1      38.046  30.226  28.035  1.00  0.00     0.010 A 
ATOM     39  C   UNL A   1      36.861  29.082  29.809  1.00  0.00     0.010 A 
ATOM     40  C   UNL A   1      38.067  29.388  29.163  1.00  0.00    -0.014 A 
BRANCH  40  41
ATOM     41  C   UNL A   1      39.343  28.838  29.695  1.00  0.00     0.031 A 
ATOM     42  C   UNL A   1      40.047  29.528  30.830  1.00  0.00     0.074 A 
ATOM     43  C   UNL A   1      39.901  27.762  29.105  1.00  0.00     0.049 A 
ATOM     44  N   UNL A   1      41.213  29.266  31.363  1.00  0.00    -0.248 NA
ATOM     45  C   UNL A   1      39.360  30.684  31.426  1.00  0.00     0.031 C 
ATOM     46  C   UNL A   1      39.329  27.025  27.975  1.00  0.00     0.029 A 
ATOM     47  N   UNL A   1      41.080  27.106  29.361  1.00  0.00    -0.354 N 
ATOM     48  C   UNL A   1      41.404  30.228  32.349  1.00  0.00     0.074 A 
ATOM     49  C   UNL A   1      40.261  31.115  32.295  1.00  0.00     0.031 C 
ATOM     50  C   UNL A   1      40.142  26.009  27.654  1.00  0.00     0.029 A 
ATOM     51  C   UNL A   1      41.323  26.052  28.510  1.00  0.00     0.049 A 
ATOM     52  H   UNL A   1      41.693  27.365  30.085  1.00  0.00     0.167 HD
ATOM     53  C   UNL A   1      42.429  30.347  33.230  1.00  0.00     0.034 A 
ATOM     54  C   UNL A   1      42.385  25.227  28.414  1.00  0.00     0.034 A 
ATOM     55  C   UNL A   1      43.558  29.449  33.271  1.00  0.00     0.049 A 
ATOM     56  C   UNL A   1      43.539  25.414  29.369  1.00  0.00     0.074 A 
ATOM     57  C   UNL A   1      44.623  29.446  34.155  1.00  0.00     0.029 A 
ATOM     58  N   UNL A   1      43.779  28.404  32.382  1.00  0.00    -0.354 N 
ATOM     59  N   UNL A   1      43.681  26.299  30.328  1.00  0.00    -0.248 NA
ATOM     60  C   UNL A   1      44.670  24.487  29.232  1.00  0.00     0.031 C 
ATOM     61  C   UNL A   1      45.524  28.453  33.754  1.00  0.00     0.029 A 
ATOM     62  C   UNL A   1      44.982  27.777  32.672  1.00  0.00     0.049 A 
ATOM     63  H   UNL A   1      43.170  28.146  31.652  1.00  0.00     0.167 HD
ATOM     64  C   UNL A   1      44.907  26.015  30.926  1.00  0.00     0.074 A 
ATOM     65  C   UNL A   1      45.453  24.869  30.231  1.00  0.00     0.031 C 
ATOM     66  C   UNL A   1      45.522  26.641  31.962  1.00  0.00     0.034 A 
BRANCH  53  67
ATOM     67  C   UNL A   1      42.383  31.504  34.200  1.00  0.00     0.023 A 
ATOM     68  C   UNL A   1      41.537  31.495  35.322  1.00  0.00     0.031 A 
ATOM     69  C   UNL A   1      43.183  32.642  33.990  1.00  0.00     0.131 A 
ATOM     70  C   UNL A   1      41.452  32.627  36.146  1.00  0.00     0.055 A 
ATOM     71  C   UNL A   1      43.157  33.732  34.863  1.00  0.00     0.041 A 
ATOM     72  F   UNL A   1      43.996  32.720  32.925  1.00  0.00    -0.206 F 
ATOM     73  C   UNL A   1      42.276  33.734  35.941  1.00  0.00     0.022 A 
BRANCH  70  74
ATOM     74  S   UNL A   1      40.142  32.688  37.400  1.00  0.00     0.124 S 
ATOM     75  O   UNL A   1      39.599  34.027  37.193  1.00  0.00    -0.237 OA
ATOM     76  O   UNL A   1      39.278  31.581  37.008  1.00  0.00    -0.237 OA
ATOM     77  O   UNL A   1      40.863  32.503  38.657  1.00  0.00    -0.744 OA
ENDBRANCH  70  74
ENDBRANCH  53  67
BRANCH  54  78
ATOM     78  C   UNL A   1      42.428  24.165  27.367  1.00  0.00     0.023 A 
ATOM     79  C   UNL A   1      41.827  22.914  27.582  1.00  0.00     0.031 A 
ATOM     80  C   UNL A   1      43.110  24.368  26.154  1.00  0.00     0.131 A 
ATOM     81  C   UNL A   1      41.961  21.900  26.621  1.00  0.00     0.055 A 
ATOM     82  C   UNL A   1      43.191  23.375  25.176  1.00  0.00     0.041 A 
ATOM     83  F   UNL A   1      43.703  25.545  25.896  1.00  0.00    -0.206 F 
ATOM     84  C   UNL A   1      42.625  22.126  25.414  1.00  0.00     0.022 A 
BRANCH  81  85
ATOM     85  S   UNL A   1      41.334  20.244  27.016  1.00  0.00     0.124 S 
ATOM     86  O   UNL A   1      40.812  20.439  28.363  1.00  0.00    -0.237 OA
ATOM     87  O   UNL A   1      40.343  20.038  25.966  1.00  0.00    -0.237 OA
ATOM     88  O   UNL A   1      42.524  19.399  26.923  1.00  0.00    -0.744 OA
ENDBRANCH  81  85
ENDBRANCH  54  78
BRANCH  66  89
ATOM     89  C   UNL A   1      46.838  26.070  32.431  1.00  0.00     0.023 A 
ATOM     90  C   UNL A   1      46.902  25.067  33.412  1.00  0.00     0.031 A 
ATOM     91  C   UNL A   1      48.046  26.538  31.882  1.00  0.00     0.131 A 
ATOM     92  C   UNL A   1      48.150  24.596  33.849  1.00  0.00     0.055 A 
ATOM     93  C   UNL A   1      49.281  26.021  32.275  1.00  0.00     0.041 A 
ATOM     94  F   UNL A   1      48.044  27.498  30.945  1.00  0.00    -0.206 F 
ATOM     95  C   UNL A   1      49.338  25.052  33.273  1.00  0.00     0.022 A 
BRANCH  92  96
ATOM     96  S   UNL A   1      48.206  23.435  35.242  1.00  0.00     0.124 S 
ATOM     97  O   UNL A   1      49.631  23.134  35.329  1.00  0.00    -0.237 OA
ATOM     98  O   UNL A   1      47.655  24.230  36.335  1.00  0.00    -0.237 OA
ATOM     99  O   UNL A   1      47.364  22.326  34.798  1.00  0.00    -0.744 OA
ENDBRANCH  92  96
ENDBRANCH  66  89
ENDBRANCH  40  41
ENDBRANCH  32  35
ENDBRANCH  30  31
ENDBRANCH  29  30
ENDBRANCH   1  29
TORSDOF 18
ENDMDL
MODEL 3
REMARK VINA RESULT:     -11.8      0.876      7.591
REMARK SMILES COc1ccc(-c2noc(C[N@H+]3CCCC[C@@H]3C(=O)NCCCNC(=O)c3ccc(-c4c5nc(c(-c6cc(S(=O)(=O)[O-])ccc6F)c6ccc([nH]6)c(-c6cc(S(=O)(=O)[O-])ccc6F)c6nc(c(-c7cc(S(=O)(=O)[O-])ccc7F)c7ccc4[nH]7)C=C6)C=C5)cc3)n2)cc1OC
REMARK SMILES IDX 21 1 20 2 18 3 19 4 17 6 12 7 13 8 14 10 16 11 15 12 11 13
REMARK SMILES IDX 10 14 7 15 8 16 90 17 9 18 6 19 3 20 4 21 92 22 5 23 91 24
REMARK SMILES IDX 2 25 1 26 93 27 94 28 22 29 23 30 24 31 25 32 26 34 27 35
REMARK SMILES IDX 28 36 89 37 29 38 88 39 30 40 31 41 32 42 82 43 33 44 87 45
REMARK SMILES IDX 81 46 83 47 34 48 86 49 80 50 79 51 35 53 67 54 47 55 66 56
REMARK SMILES IDX 48 57 51 58 65 59 84 60 49 61 50 62 64 64 85 65 52 66 36 67
REMARK SMILES IDX 37 68 45 69 38 70 44 71 46 72 43 73 39 74 40 75 41 76 42 77
REMARK SMILES IDX 68 78 69 79 77 80 70 81 76 82 78 83 75 84 71 85 72 86 73 87
REMARK SMILES IDX 74 88 53 89 54 90 62 91 55 92 61 93 63 94 60 95 56 96 57 97
REMARK SMILES IDX 58 98 59 99
REMARK H PARENT 20 5 12 9 24 33 83 52 51 63
REMARK Flexibility Score: inf
ROOT
ATOM      1  C   UNL A   1      32.184  30.708  26.314  1.00  0.00     0.118 C 
ENDROOT
BRANCH   1   2
ATOM      2  N   UNL A   1      31.763  29.611  27.169  1.00  0.00    -0.351 N 
ATOM      3  C   UNL A   1      31.451  28.321  26.852  1.00  0.00     0.278 C 
ATOM      4  O   UNL A   1      31.121  27.569  27.773  1.00  0.00    -0.268 OA
ATOM      5  H   UNL A   1      31.692  29.831  28.125  1.00  0.00     0.163 HD
BRANCH   3   6
ATOM      6  C   UNL A   1      31.576  27.791  25.406  1.00  0.00     0.274 C 
ATOM      7  N   UNL A   1      33.006  27.566  25.061  1.00  0.00    -0.317 N 
ATOM      8  C   UNL A   1      33.203  27.181  23.659  1.00  0.00     0.263 C 
ATOM      9  H   UNL A   1      33.454  28.474  25.185  1.00  0.00     0.349 HD
ATOM     10  C   UNL A   1      32.552  28.179  22.703  1.00  0.00     0.062 C 
ATOM     11  C   UNL A   1      30.833  28.711  24.426  1.00  0.00     0.076 C 
ATOM     12  C   UNL A   1      31.059  28.295  22.980  1.00  0.00     0.012 C 
BRANCH   7  13
ATOM     13  C   UNL A   1      33.692  26.627  25.987  1.00  0.00     0.364 C 
BRANCH  13  14
ATOM     14  C   UNL A   1      33.271  25.195  25.930  1.00  0.00     0.282 A 
ATOM     15  C   UNL A   1      32.998  23.146  25.609  1.00  0.00     0.202 A 
ATOM     16  N   UNL A   1      31.880  23.505  26.251  1.00  0.00    -0.057 NA
ATOM     17  N   UNL A   1      33.887  24.170  25.384  1.00  0.00    -0.186 NA
ATOM     18  O   UNL A   1      32.079  24.861  26.503  1.00  0.00    -0.333 OA
BRANCH  15  19
ATOM     19  C   UNL A   1      33.315  21.780  25.256  1.00  0.00     0.027 A 
ATOM     20  C   UNL A   1      34.023  19.158  24.590  1.00  0.00     0.160 A 
ATOM     21  C   UNL A   1      32.673  19.546  24.607  1.00  0.00     0.051 A 
ATOM     22  C   UNL A   1      35.028  20.087  24.885  1.00  0.00     0.161 A 
ATOM     23  C   UNL A   1      32.317  20.850  24.956  1.00  0.00     0.016 A 
ATOM     24  C   UNL A   1      34.659  21.396  25.208  1.00  0.00     0.062 A 
BRANCH  20  25
ATOM     25  O   UNL A   1      34.327  17.890  24.172  1.00  0.00    -0.493 OA
ATOM     26  C   UNL A   1      33.152  17.144  23.858  1.00  0.00     0.278 C 
ENDBRANCH  20  25
BRANCH  22  27
ATOM     27  O   UNL A   1      36.384  19.909  24.878  1.00  0.00    -0.493 OA
ATOM     28  C   UNL A   1      37.202  21.038  25.130  1.00  0.00     0.278 C 
ENDBRANCH  22  27
ENDBRANCH  15  19
ENDBRANCH  13  14
ENDBRANCH   7  13
ENDBRANCH   3   6
ENDBRANCH   1   2
BRANCH   1  29
ATOM     29  C   UNL A   1      31.839  32.059  26.931  1.00  0.00     0.042 C 
BRANCH  29  30
ATOM     30  C   UNL A   1      33.061  32.873  27.336  1.00  0.00     0.118 C 
BRANCH  30  31
ATOM     31  N   UNL A   1      32.708  34.204  27.810  1.00  0.00    -0.352 N 
ATOM     32  C   UNL A   1      33.137  34.881  28.928  1.00  0.00     0.251 C 
ATOM     33  H   UNL A   1      32.066  34.692  27.244  1.00  0.00     0.163 HD
ATOM     34  O   UNL A   1      32.564  35.907  29.270  1.00  0.00    -0.269 OA
BRANCH  32  35
ATOM     35  C   UNL A   1      34.265  34.348  29.723  1.00  0.00     0.039 A 
ATOM     36  C   UNL A   1      33.991  33.594  30.866  1.00  0.00     0.014 A 
ATOM     37  C   UNL A   1      35.588  34.582  29.338  1.00  0.00     0.014 A 
ATOM     38  C   UNL A   1      35.042  33.004  31.574  1.00  0.00     0.010 A 
ATOM     39  C   UNL A   1      36.626  33.927  29.994  1.00  0.00     0.010 A 
ATOM     40  C   UNL A   1      36.364  33.127  31.115  1.00  0.00    -0.014 A 
BRANCH  40  41
ATOM     41  C   UNL A   1      37.485  32.411  31.782  1.00  0.00     0.031 A 
ATOM     42  C   UNL A   1      37.976  32.864  33.128  1.00  0.00     0.074 A 
ATOM     43  C   UNL A   1      38.106  31.402  31.138  1.00  0.00     0.049 A 
ATOM     44  N   UNL A   1      39.001  32.440  33.822  1.00  0.00    -0.248 NA
ATOM     45  C   UNL A   1      37.231  33.961  33.766  1.00  0.00     0.031 C 
ATOM     46  C   UNL A   1      37.741  30.891  29.814  1.00  0.00     0.029 A 
ATOM     47  N   UNL A   1      39.183  30.632  31.501  1.00  0.00    -0.354 N 
ATOM     48  C   UNL A   1      39.030  33.223  34.972  1.00  0.00     0.074 A 
ATOM     49  C   UNL A   1      37.957  34.187  34.849  1.00  0.00     0.031 C 
ATOM     50  C   UNL A   1      38.561  29.881  29.489  1.00  0.00     0.029 A 
ATOM     51  C   UNL A   1      39.549  29.707  30.549  1.00  0.00     0.049 A 
ATOM     52  H   UNL A   1      39.649  30.731  32.362  1.00  0.00     0.167 HD
ATOM     53  C   UNL A   1      39.863  33.130  36.039  1.00  0.00     0.034 A 
ATOM     54  C   UNL A   1      40.575  28.832  30.522  1.00  0.00     0.034 A 
ATOM     55  C   UNL A   1      40.925  32.158  36.144  1.00  0.00     0.049 A 
ATOM     56  C   UNL A   1      41.521  28.786  31.696  1.00  0.00     0.074 A 
ATOM     57  C   UNL A   1      41.791  31.942  37.201  1.00  0.00     0.029 A 
ATOM     58  N   UNL A   1      41.276  31.250  35.153  1.00  0.00    -0.354 N 
ATOM     59  N   UNL A   1      41.505  29.500  32.798  1.00  0.00    -0.248 NA
ATOM     60  C   UNL A   1      42.619  27.814  31.625  1.00  0.00     0.031 C 
ATOM     61  C   UNL A   1      42.713  30.961  36.820  1.00  0.00     0.029 A 
ATOM     62  C   UNL A   1      42.371  30.501  35.558  1.00  0.00     0.049 A 
ATOM     63  H   UNL A   1      40.815  31.152  34.288  1.00  0.00     0.167 HD
ATOM     64  C   UNL A   1      42.575  29.040  33.563  1.00  0.00     0.074 A 
ATOM     65  C   UNL A   1      43.202  27.979  32.803  1.00  0.00     0.031 C 
ATOM     66  C   UNL A   1      42.996  29.453  34.785  1.00  0.00     0.034 A 
BRANCH  53  67
ATOM     67  C   UNL A   1      39.671  34.124  37.160  1.00  0.00     0.023 A 
ATOM     68  C   UNL A   1      39.193  33.731  38.422  1.00  0.00     0.031 A 
ATOM     69  C   UNL A   1      39.953  35.487  36.960  1.00  0.00     0.131 A 
ATOM     70  C   UNL A   1      38.938  34.696  39.407  1.00  0.00     0.055 A 
ATOM     71  C   UNL A   1      39.778  36.432  37.974  1.00  0.00     0.041 A 
ATOM     72  F   UNL A   1      40.392  35.928  35.771  1.00  0.00    -0.206 F 
ATOM     73  C   UNL A   1      39.252  36.040  39.202  1.00  0.00     0.022 A 
BRANCH  70  74
ATOM     74  S   UNL A   1      38.049  34.189  40.905  1.00  0.00     0.124 S 
ATOM     75  O   UNL A   1      39.072  33.418  41.607  1.00  0.00    -0.237 OA
ATOM     76  O   UNL A   1      37.688  35.467  41.507  1.00  0.00    -0.237 OA
ATOM     77  O   UNL A   1      36.930  33.402  40.390  1.00  0.00    -0.744 OA
ENDBRANCH  70  74
ENDBRANCH  53  67
BRANCH  54  78
ATOM     78  C   UNL A   1      40.782  27.945  29.341  1.00  0.00     0.023 A 
ATOM     79  C   UNL A   1      41.747  28.251  28.368  1.00  0.00     0.031 A 
ATOM     80  C   UNL A   1      39.986  26.802  29.142  1.00  0.00     0.131 A 
ATOM     81  C   UNL A   1      41.859  27.454  27.219  1.00  0.00     0.055 A 
ATOM     82  C   UNL A   1      40.142  25.979  28.026  1.00  0.00     0.041 A 
ATOM     83  F   UNL A   1      39.048  26.462  30.040  1.00  0.00    -0.206 F 
ATOM     84  C   UNL A   1      41.075  26.311  27.049  1.00  0.00     0.022 A 
BRANCH  81  85
ATOM     85  S   UNL A   1      42.985  27.987  25.900  1.00  0.00     0.124 S 
ATOM     86  O   UNL A   1      44.183  27.215  26.205  1.00  0.00    -0.237 OA
ATOM     87  O   UNL A   1      42.254  27.593  24.701  1.00  0.00    -0.237 OA
ATOM     88  O   UNL A   1      43.099  29.428  26.113  1.00  0.00    -0.744 OA
ENDBRANCH  81  85
ENDBRANCH  54  78
BRANCH  66  89
ATOM     89  C   UNL A   1      44.169  28.724  35.395  1.00  0.00     0.023 A 
ATOM     90  C   UNL A   1      43.991  27.648  36.281  1.00  0.00     0.031 A 
ATOM     91  C   UNL A   1      45.483  29.112  35.079  1.00  0.00     0.131 A 
ATOM     92  C   UNL A   1      45.111  27.026  36.857  1.00  0.00     0.055 A 
ATOM     93  C   UNL A   1      46.592  28.450  35.606  1.00  0.00     0.041 A 
ATOM     94  F   UNL A   1      45.710  30.137  34.242  1.00  0.00    -0.206 F 
ATOM     95  C   UNL A   1      46.409  27.407  36.510  1.00  0.00     0.022 A 
BRANCH  92  96
ATOM     96  S   UNL A   1      44.847  25.764  38.133  1.00  0.00     0.124 S 
ATOM     97  O   UNL A   1      44.188  24.704  37.378  1.00  0.00    -0.237 OA
ATOM     98  O   UNL A   1      46.208  25.478  38.577  1.00  0.00    -0.237 OA
ATOM     99  O   UNL A   1      44.004  26.441  39.116  1.00  0.00    -0.744 OA
ENDBRANCH  92  96
ENDBRANCH  66  89
ENDBRANCH  40  41
ENDBRANCH  32  35
ENDBRANCH  30  31
ENDBRANCH  29  30
ENDBRANCH   1  29
TORSDOF 18
ENDMDL
