MODEL 1
REMARK VINA RESULT:     -11.0      0.000      0.000
REMARK SMILES O=C(NCCCNC(=O)[C@]1([NH2+]C2CC2)CCC[C@H](SC[C@H](O)CO)C1)c1ccc(-c2c3nc(c(-c4cc(S(=O)(=O)[O-])ccc4F)c4ccc([nH]4)c(-c4cc(S(=O)(=O)[O-])ccc4F)c4nc(c(-c5cc(S(=O)(=O)[O-])ccc5F)c5ccc2[nH]5)C=C4)C=C3)cc1
REMARK SMILES IDX 6 1 5 2 4 3 3 4 1 5 2 6 26 8 27 9 88 10 28 11 87 12 29 13
REMARK SMILES IDX 30 14 31 15 81 16 32 17 86 18 80 19 82 20 33 21 85 22 79 23
REMARK SMILES IDX 78 24 34 26 66 27 46 28 65 29 47 30 50 31 64 32 83 33 48 34
REMARK SMILES IDX 49 35 63 37 84 38 51 39 35 40 36 41 44 42 37 43 43 44 45 45
REMARK SMILES IDX 42 46 38 47 39 48 40 49 41 50 67 51 68 52 76 53 69 54 75 55
REMARK SMILES IDX 77 56 74 57 70 58 71 59 72 60 73 61 52 62 53 63 61 64 54 65
REMARK SMILES IDX 60 66 62 67 59 68 55 69 56 70 57 71 58 72 7 73 8 74 9 76
REMARK SMILES IDX 10 77 15 78 25 79 16 80 18 81 17 82 11 83 12 86 13 87 14 88
REMARK SMILES IDX 19 89 20 90 21 91 23 92 24 93 22 95
REMARK H PARENT 3 7 82 25 50 36 7 75 11 84 11 85 24 94 22 96
REMARK Flexibility Score: inf
ROOT
ATOM      1  C   UNL A   1      33.689  27.780  24.531  1.00  0.00     0.118 C 
ENDROOT
BRANCH   1   2
ATOM      2  C   UNL A   1      33.111  29.152  24.808  1.00  0.00     0.042 C 
BRANCH   2   3
ATOM      3  C   UNL A   1      32.698  29.385  26.252  1.00  0.00     0.118 C 
BRANCH   3   4
ATOM      4  N   UNL A   1      32.400  30.769  26.614  1.00  0.00    -0.352 N 
ATOM      5  O   UNL A   1      32.845  32.830  27.437  1.00  0.00    -0.269 OA
ATOM      6  C   UNL A   1      33.235  31.692  27.219  1.00  0.00     0.251 C 
ATOM      7  H   UNL A   1      31.492  31.085  26.400  1.00  0.00     0.163 HD
BRANCH   6   8
ATOM      8  C   UNL A   1      34.572  31.240  27.663  1.00  0.00     0.039 A 
ATOM      9  C   UNL A   1      34.776  29.906  28.014  1.00  0.00     0.014 A 
ATOM     10  C   UNL A   1      35.570  32.194  27.880  1.00  0.00     0.014 A 
ATOM     11  C   UNL A   1      35.879  29.573  28.787  1.00  0.00     0.010 A 
ATOM     12  C   UNL A   1      36.734  31.827  28.561  1.00  0.00     0.010 A 
ATOM     13  C   UNL A   1      36.870  30.527  29.073  1.00  0.00    -0.014 A 
BRANCH  13  14
ATOM     14  C   UNL A   1      38.056  30.126  29.873  1.00  0.00     0.031 A 
ATOM     15  C   UNL A   1      39.086  29.172  29.324  1.00  0.00     0.074 A 
ATOM     16  C   UNL A   1      38.207  30.662  31.100  1.00  0.00     0.049 A 
ATOM     17  N   UNL A   1      40.158  28.696  29.906  1.00  0.00    -0.248 NA
ATOM     18  C   UNL A   1      38.888  28.682  27.951  1.00  0.00     0.031 C 
ATOM     19  C   UNL A   1      37.270  31.600  31.727  1.00  0.00     0.029 A 
ATOM     20  N   UNL A   1      39.197  30.512  32.035  1.00  0.00    -0.354 N 
ATOM     21  C   UNL A   1      40.743  27.828  28.989  1.00  0.00     0.074 A 
ATOM     22  C   UNL A   1      39.901  27.836  27.812  1.00  0.00     0.031 C 
ATOM     23  C   UNL A   1      37.747  31.969  32.922  1.00  0.00     0.029 A 
ATOM     24  C   UNL A   1      38.975  31.232  33.186  1.00  0.00     0.049 A 
ATOM     25  H   UNL A   1      39.988  29.944  31.897  1.00  0.00     0.167 HD
ATOM     26  C   UNL A   1      41.875  27.094  29.125  1.00  0.00     0.034 A 
ATOM     27  C   UNL A   1      39.658  31.264  34.345  1.00  0.00     0.034 A 
ATOM     28  C   UNL A   1      42.716  27.123  30.300  1.00  0.00     0.049 A 
ATOM     29  C   UNL A   1      40.894  30.419  34.474  1.00  0.00     0.074 A 
ATOM     30  C   UNL A   1      43.922  26.476  30.514  1.00  0.00     0.029 A 
ATOM     31  N   UNL A   1      42.436  27.830  31.463  1.00  0.00    -0.354 N 
ATOM     32  N   UNL A   1      41.441  29.621  33.586  1.00  0.00    -0.248 NA
ATOM     33  C   UNL A   1      41.599  30.474  35.758  1.00  0.00     0.031 C 
ATOM     34  C   UNL A   1      44.336  26.737  31.824  1.00  0.00     0.029 A 
ATOM     35  C   UNL A   1      43.423  27.600  32.410  1.00  0.00     0.049 A 
ATOM     36  H   UNL A   1      41.652  28.409  31.595  1.00  0.00     0.167 HD
ATOM     37  C   UNL A   1      42.560  29.079  34.208  1.00  0.00     0.074 A 
ATOM     38  C   UNL A   1      42.625  29.668  35.531  1.00  0.00     0.031 C 
ATOM     39  C   UNL A   1      43.451  28.173  33.734  1.00  0.00     0.034 A 
BRANCH  26  40
ATOM     40  C   UNL A   1      42.255  26.156  28.006  1.00  0.00     0.023 A 
ATOM     41  C   UNL A   1      41.726  24.859  27.900  1.00  0.00     0.031 A 
ATOM     42  C   UNL A   1      43.142  26.590  27.003  1.00  0.00     0.131 A 
ATOM     43  C   UNL A   1      42.113  24.029  26.834  1.00  0.00     0.055 A 
ATOM     44  C   UNL A   1      43.480  25.782  25.915  1.00  0.00     0.041 A 
ATOM     45  F   UNL A   1      43.692  27.813  27.061  1.00  0.00    -0.206 F 
ATOM     46  C   UNL A   1      42.969  24.490  25.830  1.00  0.00     0.022 A 
BRANCH  43  47
ATOM     47  S   UNL A   1      41.548  22.306  26.816  1.00  0.00     0.124 S 
ATOM     48  O   UNL A   1      41.939  21.879  25.475  1.00  0.00    -0.237 OA
ATOM     49  O   UNL A   1      42.297  21.715  27.918  1.00  0.00    -0.237 OA
ATOM     50  O   UNL A   1      40.106  22.415  27.032  1.00  0.00    -0.744 OA
ENDBRANCH  43  47
ENDBRANCH  26  40
BRANCH  27  51
ATOM     51  C   UNL A   1      39.151  32.071  35.488  1.00  0.00     0.023 A 
ATOM     52  C   UNL A   1      38.515  31.466  36.582  1.00  0.00     0.031 A 
ATOM     53  C   UNL A   1      39.272  33.474  35.487  1.00  0.00     0.131 A 
ATOM     54  C   UNL A   1      37.992  32.262  37.611  1.00  0.00     0.055 A 
ATOM     55  C   UNL A   1      38.801  34.256  36.541  1.00  0.00     0.041 A 
ATOM     56  F   UNL A   1      39.874  34.103  34.465  1.00  0.00    -0.206 F 
ATOM     57  C   UNL A   1      38.144  33.651  37.605  1.00  0.00     0.022 A 
BRANCH  54  58
ATOM     58  S   UNL A   1      37.023  31.461  38.917  1.00  0.00     0.124 S 
ATOM     59  O   UNL A   1      37.921  31.560  40.061  1.00  0.00    -0.237 OA
ATOM     60  O   UNL A   1      35.829  32.299  38.964  1.00  0.00    -0.237 OA
ATOM     61  O   UNL A   1      36.814  30.109  38.403  1.00  0.00    -0.744 OA
ENDBRANCH  54  58
ENDBRANCH  27  51
BRANCH  39  62
ATOM     62  C   UNL A   1      44.568  27.787  34.665  1.00  0.00     0.023 A 
ATOM     63  C   UNL A   1      44.427  26.718  35.568  1.00  0.00     0.031 A 
ATOM     64  C   UNL A   1      45.765  28.523  34.684  1.00  0.00     0.131 A 
ATOM     65  C   UNL A   1      45.442  26.454  36.497  1.00  0.00     0.055 A 
ATOM     66  C   UNL A   1      46.795  28.218  35.575  1.00  0.00     0.041 A 
ATOM     67  F   UNL A   1      45.947  29.554  33.845  1.00  0.00    -0.206 F 
ATOM     68  C   UNL A   1      46.632  27.188  36.497  1.00  0.00     0.022 A 
BRANCH  65  69
ATOM     69  S   UNL A   1      45.149  25.195  37.769  1.00  0.00     0.124 S 
ATOM     70  O   UNL A   1      45.318  25.962  38.999  1.00  0.00    -0.237 OA
ATOM     71  O   UNL A   1      43.790  24.759  37.470  1.00  0.00    -0.237 OA
ATOM     72  O   UNL A   1      46.189  24.200  37.511  1.00  0.00    -0.744 OA
ENDBRANCH  65  69
ENDBRANCH  39  62
ENDBRANCH  13  14
ENDBRANCH   6   8
ENDBRANCH   3   4
ENDBRANCH   2   3
ENDBRANCH   1   2
BRANCH   1  73
ATOM     73  N   UNL A   1      33.558  27.271  23.171  1.00  0.00    -0.351 N 
ATOM     74  C   UNL A   1      33.358  25.964  22.750  1.00  0.00     0.281 C 
ATOM     75  H   UNL A   1      33.621  27.945  22.455  1.00  0.00     0.163 HD
ATOM     76  O   UNL A   1      33.065  25.778  21.565  1.00  0.00    -0.268 OA
BRANCH  74  77
ATOM     77  C   UNL A   1      33.552  24.770  23.750  1.00  0.00     0.176 C 
ATOM     78  C   UNL A   1      33.111  23.363  23.221  1.00  0.00     0.079 C 
ATOM     79  C   UNL A   1      32.783  25.036  25.064  1.00  0.00     0.093 C 
ATOM     80  C   UNL A   1      31.673  22.884  23.471  1.00  0.00     0.008 C 
ATOM     81  C   UNL A   1      31.249  24.857  24.996  1.00  0.00     0.053 C 
ATOM     82  C   UNL A   1      31.062  23.343  24.798  1.00  0.00     0.015 C 
BRANCH  77  83
ATOM     83  N   UNL A   1      35.048  24.696  23.970  1.00  0.00    -0.331 N 
ATOM     84  H   UNL A   1      35.298  25.339  24.721  1.00  0.00     0.347 HD
ATOM     85  H   UNL A   1      35.497  24.941  23.087  1.00  0.00     0.347 HD
BRANCH  83  86
ATOM     86  C   UNL A   1      35.523  23.332  24.341  1.00  0.00     0.183 C 
ATOM     87  C   UNL A   1      36.752  23.155  25.194  1.00  0.00     0.071 C 
ATOM     88  C   UNL A   1      35.400  22.837  25.755  1.00  0.00     0.071 C 
ENDBRANCH  83  86
ENDBRANCH  77  83
BRANCH  81  89
ATOM     89  S   UNL A   1      30.121  25.589  23.709  1.00  0.00    -0.156 SA
BRANCH  89  90
ATOM     90  C   UNL A   1      30.045  27.392  23.967  1.00  0.00     0.104 C 
BRANCH  90  91
ATOM     91  C   UNL A   1      29.853  28.076  22.590  1.00  0.00     0.149 C 
BRANCH  91  92
ATOM     92  C   UNL A   1      29.980  29.600  22.666  1.00  0.00     0.188 C 
BRANCH  92  93
ATOM     93  O   UNL A   1      30.836  30.053  21.612  1.00  0.00    -0.394 OA
ATOM     94  H   UNL A   1      31.539  30.609  21.984  1.00  0.00     0.210 HD
ENDBRANCH  92  93
ENDBRANCH  91  92
BRANCH  91  95
ATOM     95  O   UNL A   1      30.844  27.664  21.626  1.00  0.00    -0.390 OA
ATOM     96  H   UNL A   1      30.452  27.665  20.738  1.00  0.00     0.211 HD
ENDBRANCH  91  95
ENDBRANCH  90  91
ENDBRANCH  89  90
ENDBRANCH  81  89
ENDBRANCH  74  77
ENDBRANCH   1  73
TORSDOF 21
ENDMDL
MODEL 2
REMARK VINA RESULT:     -10.9      2.114      2.808
REMARK SMILES O=C(NCCCNC(=O)[C@]1([NH2+]C2CC2)CCC[C@H](SC[C@H](O)CO)C1)c1ccc(-c2c3nc(c(-c4cc(S(=O)(=O)[O-])ccc4F)c4ccc([nH]4)c(-c4cc(S(=O)(=O)[O-])ccc4F)c4nc(c(-c5cc(S(=O)(=O)[O-])ccc5F)c5ccc2[nH]5)C=C4)C=C3)cc1
REMARK SMILES IDX 6 1 5 2 4 3 3 4 1 5 2 6 26 8 27 9 88 10 28 11 87 12 29 13
REMARK SMILES IDX 30 14 31 15 81 16 32 17 86 18 80 19 82 20 33 21 85 22 79 23
REMARK SMILES IDX 78 24 34 26 66 27 46 28 65 29 47 30 50 31 64 32 83 33 48 34
REMARK SMILES IDX 49 35 63 37 84 38 51 39 35 40 36 41 44 42 37 43 43 44 45 45
REMARK SMILES IDX 42 46 38 47 39 48 40 49 41 50 67 51 68 52 76 53 69 54 75 55
REMARK SMILES IDX 77 56 74 57 70 58 71 59 72 60 73 61 52 62 53 63 61 64 54 65
REMARK SMILES IDX 60 66 62 67 59 68 55 69 56 70 57 71 58 72 7 73 8 74 9 76
REMARK SMILES IDX 10 77 15 78 25 79 16 80 18 81 17 82 11 83 12 86 13 87 14 88
REMARK SMILES IDX 19 89 20 90 21 91 23 92 24 93 22 95
REMARK H PARENT 3 7 82 25 50 36 7 75 11 84 11 85 24 94 22 96
REMARK Flexibility Score: inf
ROOT
ATOM      1  C   UNL A   1      32.975  29.597  26.384  1.00  0.00     0.118 C 
ENDROOT
BRANCH   1   2
ATOM      2  C   UNL A   1      32.313  30.900  26.784  1.00  0.00     0.042 C 
BRANCH   2   3
ATOM      3  C   UNL A   1      33.245  31.906  27.440  1.00  0.00     0.118 C 
BRANCH   3   4
ATOM      4  N   UNL A   1      32.682  33.234  27.676  1.00  0.00    -0.352 N 
ATOM      5  O   UNL A   1      32.586  35.303  28.587  1.00  0.00    -0.269 OA
ATOM      6  C   UNL A   1      33.159  34.226  28.516  1.00  0.00     0.251 C 
ATOM      7  H   UNL A   1      31.861  33.450  27.176  1.00  0.00     0.163 HD
BRANCH   6   8
ATOM      8  C   UNL A   1      34.323  33.917  29.375  1.00  0.00     0.039 A 
ATOM      9  C   UNL A   1      35.613  34.197  28.926  1.00  0.00     0.014 A 
ATOM     10  C   UNL A   1      34.120  33.197  30.555  1.00  0.00     0.014 A 
ATOM     11  C   UNL A   1      36.691  33.564  29.530  1.00  0.00     0.010 A 
ATOM     12  C   UNL A   1      35.220  32.655  31.226  1.00  0.00     0.010 A 
ATOM     13  C   UNL A   1      36.509  32.783  30.684  1.00  0.00    -0.014 A 
BRANCH  13  14
ATOM     14  C   UNL A   1      37.690  32.150  31.326  1.00  0.00     0.031 A 
ATOM     15  C   UNL A   1      38.465  31.057  30.636  1.00  0.00     0.074 A 
ATOM     16  C   UNL A   1      38.072  32.597  32.537  1.00  0.00     0.049 A 
ATOM     17  N   UNL A   1      39.496  30.378  31.074  1.00  0.00    -0.248 NA
ATOM     18  C   UNL A   1      38.027  30.668  29.286  1.00  0.00     0.031 C 
ATOM     19  C   UNL A   1      37.393  33.655  33.294  1.00  0.00     0.029 A 
ATOM     20  N   UNL A   1      39.120  32.239  33.343  1.00  0.00    -0.354 N 
ATOM     21  C   UNL A   1      39.809  29.463  30.073  1.00  0.00     0.074 A 
ATOM     22  C   UNL A   1      38.853  29.667  29.007  1.00  0.00     0.031 C 
ATOM     23  C   UNL A   1      38.062  33.884  34.431  1.00  0.00     0.029 A 
ATOM     24  C   UNL A   1      39.162  32.935  34.528  1.00  0.00     0.049 A 
ATOM     25  H   UNL A   1      39.778  31.549  33.098  1.00  0.00     0.167 HD
ATOM     26  C   UNL A   1      40.802  28.539  30.056  1.00  0.00     0.034 A 
ATOM     27  C   UNL A   1      39.969  32.799  35.598  1.00  0.00     0.034 A 
ATOM     28  C   UNL A   1      41.764  28.372  31.121  1.00  0.00     0.049 A 
ATOM     29  C   UNL A   1      41.042  31.749  35.557  1.00  0.00     0.074 A 
ATOM     30  C   UNL A   1      42.853  27.517  31.173  1.00  0.00     0.029 A 
ATOM     31  N   UNL A   1      41.748  29.065  32.324  1.00  0.00    -0.354 N 
ATOM     32  N   UNL A   1      41.334  30.907  34.592  1.00  0.00    -0.248 NA
ATOM     33  C   UNL A   1      41.889  31.625  36.748  1.00  0.00     0.031 C 
ATOM     34  C   UNL A   1      43.453  27.646  32.430  1.00  0.00     0.029 A 
ATOM     35  C   UNL A   1      42.781  28.627  33.141  1.00  0.00     0.049 A 
ATOM     36  H   UNL A   1      41.099  29.765  32.564  1.00  0.00     0.167 HD
ATOM     37  C   UNL A   1      42.404  30.154  35.062  1.00  0.00     0.074 A 
ATOM     38  C   UNL A   1      42.724  30.665  36.381  1.00  0.00     0.031 C 
ATOM     39  C   UNL A   1      43.061  29.129  34.464  1.00  0.00     0.034 A 
BRANCH  26  40
ATOM     40  C   UNL A   1      40.879  27.598  28.878  1.00  0.00     0.023 A 
ATOM     41  C   UNL A   1      41.817  27.763  27.845  1.00  0.00     0.031 A 
ATOM     42  C   UNL A   1      40.013  26.491  28.812  1.00  0.00     0.131 A 
ATOM     43  C   UNL A   1      41.845  26.854  26.774  1.00  0.00     0.055 A 
ATOM     44  C   UNL A   1      40.083  25.559  27.774  1.00  0.00     0.041 A 
ATOM     45  F   UNL A   1      39.085  26.293  29.762  1.00  0.00    -0.206 F 
ATOM     46  C   UNL A   1      40.999  25.742  26.743  1.00  0.00     0.022 A 
BRANCH  43  47
ATOM     47  S   UNL A   1      42.950  27.186  25.374  1.00  0.00     0.124 S 
ATOM     48  O   UNL A   1      44.174  27.600  26.054  1.00  0.00    -0.237 OA
ATOM     49  O   UNL A   1      43.001  25.896  24.697  1.00  0.00    -0.237 OA
ATOM     50  O   UNL A   1      42.264  28.248  24.638  1.00  0.00    -0.744 OA
ENDBRANCH  43  47
ENDBRANCH  26  40
BRANCH  27  51
ATOM     51  C   UNL A   1      39.746  33.632  36.811  1.00  0.00     0.023 A 
ATOM     52  C   UNL A   1      39.107  33.109  37.945  1.00  0.00     0.031 A 
ATOM     53  C   UNL A   1      40.149  34.981  36.841  1.00  0.00     0.131 A 
ATOM     54  C   UNL A   1      38.857  33.940  39.047  1.00  0.00     0.055 A 
ATOM     55  C   UNL A   1      39.949  35.786  37.961  1.00  0.00     0.041 A 
ATOM     56  F   UNL A   1      40.768  35.529  35.782  1.00  0.00    -0.206 F 
ATOM     57  C   UNL A   1      39.286  35.269  39.069  1.00  0.00     0.022 A 
BRANCH  54  58
ATOM     58  S   UNL A   1      37.872  33.282  40.419  1.00  0.00     0.124 S 
ATOM     59  O   UNL A   1      38.707  32.181  40.886  1.00  0.00    -0.237 OA
ATOM     60  O   UNL A   1      37.780  34.437  41.305  1.00  0.00    -0.237 OA
ATOM     61  O   UNL A   1      36.620  32.886  39.780  1.00  0.00    -0.744 OA
ENDBRANCH  54  58
ENDBRANCH  27  51
BRANCH  39  62
ATOM     62  C   UNL A   1      44.192  28.516  35.245  1.00  0.00     0.023 A 
ATOM     63  C   UNL A   1      43.973  27.433  36.114  1.00  0.00     0.031 A 
ATOM     64  C   UNL A   1      45.489  29.049  35.157  1.00  0.00     0.131 A 
ATOM     65  C   UNL A   1      45.024  26.956  36.910  1.00  0.00     0.055 A 
ATOM     66  C   UNL A   1      46.543  28.532  35.910  1.00  0.00     0.041 A 
ATOM     67  F   UNL A   1      45.748  30.085  34.344  1.00  0.00    -0.206 F 
ATOM     68  C   UNL A   1      46.311  27.490  36.803  1.00  0.00     0.022 A 
BRANCH  65  69
ATOM     69  S   UNL A   1      44.663  25.688  38.155  1.00  0.00     0.124 S 
ATOM     70  O   UNL A   1      43.585  24.938  37.520  1.00  0.00    -0.237 OA
ATOM     71  O   UNL A   1      45.940  24.993  38.274  1.00  0.00    -0.237 OA
ATOM     72  O   UNL A   1      44.270  26.465  39.330  1.00  0.00    -0.744 OA
ENDBRANCH  65  69
ENDBRANCH  39  62
ENDBRANCH  13  14
ENDBRANCH   6   8
ENDBRANCH   3   4
ENDBRANCH   2   3
ENDBRANCH   1   2
BRANCH   1  73
ATOM     73  N   UNL A   1      33.597  29.551  25.066  1.00  0.00    -0.351 N 
ATOM     74  C   UNL A   1      33.521  28.551  24.107  1.00  0.00     0.281 C 
ATOM     75  H   UNL A   1      34.144  30.333  24.824  1.00  0.00     0.163 HD
ATOM     76  O   UNL A   1      33.949  28.803  22.977  1.00  0.00    -0.268 OA
BRANCH  74  77
ATOM     77  C   UNL A   1      32.953  27.136  24.479  1.00  0.00     0.176 C 
ATOM     78  C   UNL A   1      32.704  26.166  23.274  1.00  0.00     0.079 C 
ATOM     79  C   UNL A   1      31.620  27.275  25.249  1.00  0.00     0.093 C 
ATOM     80  C   UNL A   1      31.328  26.156  22.591  1.00  0.00     0.008 C 
ATOM     81  C   UNL A   1      30.386  27.654  24.398  1.00  0.00     0.053 C 
ATOM     82  C   UNL A   1      30.143  26.411  23.526  1.00  0.00     0.015 C 
BRANCH  77  83
ATOM     83  N   UNL A   1      34.036  26.500  25.325  1.00  0.00    -0.331 N 
ATOM     84  H   UNL A   1      33.768  26.577  26.306  1.00  0.00     0.347 HD
ATOM     85  H   UNL A   1      34.906  26.993  25.124  1.00  0.00     0.347 HD
BRANCH  83  86
ATOM     86  C   UNL A   1      34.262  25.061  25.010  1.00  0.00     0.183 C 
ATOM     87  C   UNL A   1      35.128  24.209  25.900  1.00  0.00     0.071 C 
ATOM     88  C   UNL A   1      33.648  23.985  25.859  1.00  0.00     0.071 C 
ENDBRANCH  83  86
ENDBRANCH  77  83
BRANCH  81  89
ATOM     89  S   UNL A   1      30.295  29.050  23.170  1.00  0.00    -0.156 SA
BRANCH  89  90
ATOM     90  C   UNL A   1      28.547  29.307  22.717  1.00  0.00     0.104 C 
BRANCH  90  91
ATOM     91  C   UNL A   1      28.490  30.314  21.540  1.00  0.00     0.149 C 
BRANCH  91  92
ATOM     92  C   UNL A   1      28.206  31.745  22.003  1.00  0.00     0.188 C 
BRANCH  92  93
ATOM     93  O   UNL A   1      29.447  32.432  22.194  1.00  0.00    -0.394 OA
ATOM     94  H   UNL A   1      29.871  32.578  21.334  1.00  0.00     0.210 HD
ENDBRANCH  92  93
ENDBRANCH  91  92
BRANCH  91  95
ATOM     95  O   UNL A   1      29.737  30.392  20.820  1.00  0.00    -0.390 OA
ATOM     96  H   UNL A   1      29.601  30.101  19.905  1.00  0.00     0.211 HD
ENDBRANCH  91  95
ENDBRANCH  90  91
ENDBRANCH  89  90
ENDBRANCH  81  89
ENDBRANCH  74  77
ENDBRANCH   1  73
TORSDOF 21
ENDMDL
MODEL 3
REMARK VINA RESULT:     -10.8      0.716      7.562
REMARK SMILES O=C(NCCCNC(=O)[C@]1([NH2+]C2CC2)CCC[C@H](SC[C@H](O)CO)C1)c1ccc(-c2c3nc(c(-c4cc(S(=O)(=O)[O-])ccc4F)c4ccc([nH]4)c(-c4cc(S(=O)(=O)[O-])ccc4F)c4nc(c(-c5cc(S(=O)(=O)[O-])ccc5F)c5ccc2[nH]5)C=C4)C=C3)cc1
REMARK SMILES IDX 6 1 5 2 4 3 3 4 1 5 2 6 26 8 27 9 88 10 28 11 87 12 29 13
REMARK SMILES IDX 30 14 31 15 81 16 32 17 86 18 80 19 82 20 33 21 85 22 79 23
REMARK SMILES IDX 78 24 34 26 66 27 46 28 65 29 47 30 50 31 64 32 83 33 48 34
REMARK SMILES IDX 49 35 63 37 84 38 51 39 35 40 36 41 44 42 37 43 43 44 45 45
REMARK SMILES IDX 42 46 38 47 39 48 40 49 41 50 67 51 68 52 76 53 69 54 75 55
REMARK SMILES IDX 77 56 74 57 70 58 71 59 72 60 73 61 52 62 53 63 61 64 54 65
REMARK SMILES IDX 60 66 62 67 59 68 55 69 56 70 57 71 58 72 7 73 8 74 9 76
REMARK SMILES IDX 10 77 15 78 25 79 16 80 18 81 17 82 11 83 12 86 13 87 14 88
REMARK SMILES IDX 19 89 20 90 21 91 23 92 24 93 22 95
REMARK H PARENT 3 7 82 25 50 36 7 75 11 84 11 85 24 94 22 96
REMARK Flexibility Score: inf
ROOT
ATOM      1  C   UNL A   1      33.821  27.801  25.090  1.00  0.00     0.118 C 
ENDROOT
BRANCH   1   2
ATOM      2  C   UNL A   1      33.093  29.126  25.186  1.00  0.00     0.042 C 
BRANCH   2   3
ATOM      3  C   UNL A   1      32.559  29.455  26.570  1.00  0.00     0.118 C 
BRANCH   3   4
ATOM      4  N   UNL A   1      32.375  30.876  26.860  1.00  0.00    -0.352 N 
ATOM      5  O   UNL A   1      32.998  32.941  27.543  1.00  0.00    -0.269 OA
ATOM      6  C   UNL A   1      33.297  31.767  27.379  1.00  0.00     0.251 C 
ATOM      7  H   UNL A   1      31.483  31.244  26.662  1.00  0.00     0.163 HD
BRANCH   6   8
ATOM      8  C   UNL A   1      34.616  31.245  27.799  1.00  0.00     0.039 A 
ATOM      9  C   UNL A   1      34.751  29.905  28.166  1.00  0.00     0.014 A 
ATOM     10  C   UNL A   1      35.673  32.141  27.979  1.00  0.00     0.014 A 
ATOM     11  C   UNL A   1      35.850  29.519  28.919  1.00  0.00     0.010 A 
ATOM     12  C   UNL A   1      36.829  31.716  28.639  1.00  0.00     0.010 A 
ATOM     13  C   UNL A   1      36.902  30.418  29.167  1.00  0.00    -0.014 A 
BRANCH  13  14
ATOM     14  C   UNL A   1      38.081  29.960  29.946  1.00  0.00     0.031 A 
ATOM     15  C   UNL A   1      38.288  30.385  31.377  1.00  0.00     0.074 A 
ATOM     16  C   UNL A   1      38.953  29.126  29.349  1.00  0.00     0.049 A 
ATOM     17  N   UNL A   1      39.281  30.102  32.183  1.00  0.00    -0.248 NA
ATOM     18  C   UNL A   1      37.257  31.243  31.983  1.00  0.00     0.031 C 
ATOM     19  C   UNL A   1      38.845  28.648  27.966  1.00  0.00     0.029 A 
ATOM     20  N   UNL A   1      40.090  28.521  29.816  1.00  0.00    -0.354 N 
ATOM     21  C   UNL A   1      39.014  30.769  33.375  1.00  0.00     0.074 A 
ATOM     22  C   UNL A   1      37.768  31.481  33.185  1.00  0.00     0.031 C 
ATOM     23  C   UNL A   1      39.849  27.799  27.711  1.00  0.00     0.029 A 
ATOM     24  C   UNL A   1      40.719  27.738  28.877  1.00  0.00     0.049 A 
ATOM     25  H   UNL A   1      40.424  28.638  30.735  1.00  0.00     0.167 HD
ATOM     26  C   UNL A   1      39.748  30.785  34.516  1.00  0.00     0.034 A 
ATOM     27  C   UNL A   1      41.890  27.076  28.929  1.00  0.00     0.034 A 
ATOM     28  C   UNL A   1      40.975  30.045  34.693  1.00  0.00     0.049 A 
ATOM     29  C   UNL A   1      42.691  27.135  30.199  1.00  0.00     0.074 A 
ATOM     30  C   UNL A   1      41.759  29.932  35.830  1.00  0.00     0.029 A 
ATOM     31  N   UNL A   1      41.604  29.297  33.705  1.00  0.00    -0.354 N 
ATOM     32  N   UNL A   1      42.410  27.756  31.321  1.00  0.00    -0.248 NA
ATOM     33  C   UNL A   1      43.967  26.412  30.207  1.00  0.00     0.031 C 
ATOM     34  C   UNL A   1      42.891  29.175  35.511  1.00  0.00     0.029 A 
ATOM     35  C   UNL A   1      42.785  28.758  34.194  1.00  0.00     0.049 A 
ATOM     36  H   UNL A   1      41.263  29.169  32.791  1.00  0.00     0.167 HD
ATOM     37  C   UNL A   1      43.478  27.494  32.172  1.00  0.00     0.074 A 
ATOM     38  C   UNL A   1      44.388  26.633  31.443  1.00  0.00     0.031 C 
ATOM     39  C   UNL A   1      43.693  27.928  33.439  1.00  0.00     0.034 A 
BRANCH  26  40
ATOM     40  C   UNL A   1      39.282  31.665  35.650  1.00  0.00     0.023 A 
ATOM     41  C   UNL A   1      38.493  31.176  36.705  1.00  0.00     0.031 A 
ATOM     42  C   UNL A   1      39.670  33.018  35.689  1.00  0.00     0.131 A 
ATOM     43  C   UNL A   1      38.090  32.040  37.737  1.00  0.00     0.055 A 
ATOM     44  C   UNL A   1      39.314  33.858  36.746  1.00  0.00     0.041 A 
ATOM     45  F   UNL A   1      40.409  33.543  34.700  1.00  0.00    -0.206 F 
ATOM     46  C   UNL A   1      38.514  33.372  37.775  1.00  0.00     0.022 A 
BRANCH  43  47
ATOM     47  S   UNL A   1      36.936  31.425  38.993  1.00  0.00     0.124 S 
ATOM     48  O   UNL A   1      36.655  30.078  38.503  1.00  0.00    -0.237 OA
ATOM     49  O   UNL A   1      37.725  31.507  40.216  1.00  0.00    -0.237 OA
ATOM     50  O   UNL A   1      35.811  32.356  38.913  1.00  0.00    -0.744 OA
ENDBRANCH  43  47
ENDBRANCH  26  40
BRANCH  27  51
ATOM     51  C   UNL A   1      42.398  26.362  27.726  1.00  0.00     0.023 A 
ATOM     52  C   UNL A   1      42.312  24.967  27.616  1.00  0.00     0.031 A 
ATOM     53  C   UNL A   1      43.007  27.073  26.674  1.00  0.00     0.131 A 
ATOM     54  C   UNL A   1      42.859  24.322  26.497  1.00  0.00     0.055 A 
ATOM     55  C   UNL A   1      43.497  26.431  25.537  1.00  0.00     0.041 A 
ATOM     56  F   UNL A   1      43.113  28.411  26.728  1.00  0.00    -0.206 F 
ATOM     57  C   UNL A   1      43.437  25.045  25.451  1.00  0.00     0.022 A 
BRANCH  54  58
ATOM     58  S   UNL A   1      42.889  22.510  26.473  1.00  0.00     0.124 S 
ATOM     59  O   UNL A   1      44.300  22.237  26.225  1.00  0.00    -0.237 OA
ATOM     60  O   UNL A   1      42.397  22.182  27.807  1.00  0.00    -0.237 OA
ATOM     61  O   UNL A   1      41.986  22.170  25.376  1.00  0.00    -0.744 OA
ENDBRANCH  54  58
ENDBRANCH  27  51
BRANCH  39  62
ATOM     62  C   UNL A   1      44.961  27.458  34.099  1.00  0.00     0.023 A 
ATOM     63  C   UNL A   1      45.005  26.246  34.810  1.00  0.00     0.031 A 
ATOM     64  C   UNL A   1      46.121  28.249  34.056  1.00  0.00     0.131 A 
ATOM     65  C   UNL A   1      46.169  25.889  35.506  1.00  0.00     0.055 A 
ATOM     66  C   UNL A   1      47.294  27.860  34.704  1.00  0.00     0.041 A 
ATOM     67  F   UNL A   1      46.129  29.415  33.392  1.00  0.00    -0.206 F 
ATOM     68  C   UNL A   1      47.318  26.682  35.445  1.00  0.00     0.022 A 
BRANCH  65  69
ATOM     69  S   UNL A   1      46.130  24.420  36.567  1.00  0.00     0.124 S 
ATOM     70  O   UNL A   1      46.457  23.356  35.622  1.00  0.00    -0.237 OA
ATOM     71  O   UNL A   1      47.150  24.725  37.563  1.00  0.00    -0.237 OA
ATOM     72  O   UNL A   1      44.757  24.399  37.072  1.00  0.00    -0.744 OA
ENDBRANCH  65  69
ENDBRANCH  39  62
ENDBRANCH  13  14
ENDBRANCH   6   8
ENDBRANCH   3   4
ENDBRANCH   2   3
ENDBRANCH   1   2
BRANCH   1  73
ATOM     73  N   UNL A   1      33.900  27.186  23.771  1.00  0.00    -0.351 N 
ATOM     74  C   UNL A   1      33.715  25.855  23.423  1.00  0.00     0.281 C 
ATOM     75  H   UNL A   1      34.113  27.795  23.027  1.00  0.00     0.163 HD
ATOM     76  O   UNL A   1      33.619  25.581  22.223  1.00  0.00    -0.268 OA
BRANCH  74  77
ATOM     77  C   UNL A   1      33.683  24.743  24.530  1.00  0.00     0.176 C 
ATOM     78  C   UNL A   1      33.355  23.295  24.029  1.00  0.00     0.079 C 
ATOM     79  C   UNL A   1      32.655  25.101  25.625  1.00  0.00     0.093 C 
ATOM     80  C   UNL A   1      31.893  22.824  24.003  1.00  0.00     0.008 C 
ATOM     81  C   UNL A   1      31.168  24.903  25.247  1.00  0.00     0.053 C 
ATOM     82  C   UNL A   1      31.018  23.377  25.130  1.00  0.00     0.015 C 
BRANCH  77  83
ATOM     83  N   UNL A   1      35.098  24.699  25.069  1.00  0.00    -0.331 N 
ATOM     84  H   UNL A   1      35.060  24.769  26.085  1.00  0.00     0.347 HD
ATOM     85  H   UNL A   1      35.606  25.478  24.648  1.00  0.00     0.347 HD
BRANCH  83  86
ATOM     86  C   UNL A   1      35.828  23.451  24.708  1.00  0.00     0.183 C 
ATOM     87  C   UNL A   1      37.243  23.230  25.176  1.00  0.00     0.071 C 
ATOM     88  C   UNL A   1      36.128  22.411  25.751  1.00  0.00     0.071 C 
ENDBRANCH  83  86
ENDBRANCH  77  83
BRANCH  81  89
ATOM     89  S   UNL A   1      30.346  25.524  23.697  1.00  0.00    -0.156 SA
BRANCH  89  90
ATOM     90  C   UNL A   1      30.069  27.318  23.869  1.00  0.00     0.104 C 
BRANCH  90  91
ATOM     91  C   UNL A   1      30.285  27.981  22.486  1.00  0.00     0.149 C 
BRANCH  91  92
ATOM     92  C   UNL A   1      30.080  29.498  22.522  1.00  0.00     0.188 C 
BRANCH  92  93
ATOM     93  O   UNL A   1      30.650  30.078  21.344  1.00  0.00    -0.394 OA
ATOM     94  H   UNL A   1      30.077  29.892  20.583  1.00  0.00     0.210 HD
ENDBRANCH  92  93
ENDBRANCH  91  92
BRANCH  91  95
ATOM     95  O   UNL A   1      31.625  27.794  21.987  1.00  0.00    -0.390 OA
ATOM     96  H   UNL A   1      32.196  27.476  22.704  1.00  0.00     0.211 HD
ENDBRANCH  91  95
ENDBRANCH  90  91
ENDBRANCH  89  90
ENDBRANCH  81  89
ENDBRANCH  74  77
ENDBRANCH   1  73
TORSDOF 21
ENDMDL
