MODEL 1
REMARK VINA RESULT:     -12.8      0.000      0.000
REMARK SMILES COC(=O)c1cc(F)cc(-c2ccc(C(=O)NCCCNC(=O)c3ccc(-c4c5nc(c(-c6cc(S(=O)(=O)[O-])ccc6F)c6ccc([nH]6)c(-c6cc(S(=O)(=O)[O-])ccc6F)c6nc(c(-c7cc(S(=O)(=O)[O-])ccc7F)c7ccc4[nH]7)C=C6)C=C5)cc3)cc2C)c1
REMARK SMILES IDX 19 1 18 2 17 3 15 4 16 5 14 7 11 8 12 9 88 10 13 11 87 12
REMARK SMILES IDX 89 13 10 14 5 15 6 16 90 17 7 18 8 19 9 20 3 21 4 22 2 23
REMARK SMILES IDX 1 24 20 25 21 26 22 27 23 29 24 30 25 31 86 32 26 33 85 34
REMARK SMILES IDX 27 35 28 36 29 37 79 38 30 39 84 40 78 41 80 42 31 43 83 44
REMARK SMILES IDX 77 45 76 46 32 48 64 49 44 50 63 51 45 52 48 53 62 54 81 55
REMARK SMILES IDX 46 56 47 57 61 59 82 60 49 61 33 62 34 63 42 64 35 65 41 66
REMARK SMILES IDX 43 67 40 68 36 69 37 70 38 71 39 72 65 73 66 74 74 75 67 76
REMARK SMILES IDX 73 77 75 78 72 79 68 80 69 81 70 82 71 83 50 84 51 85 59 86
REMARK SMILES IDX 52 87 58 88 60 89 57 90 53 91 54 92 55 93 56 94
REMARK H PARENT 17 6 21 28 80 47 48 58
REMARK Flexibility Score: inf
ROOT
ATOM      1  C   UNL A   1      31.478  29.005  25.539  1.00  0.00     0.042 C 
ENDROOT
BRANCH   1   2
ATOM      2  C   UNL A   1      31.276  28.563  24.086  1.00  0.00     0.118 C 
BRANCH   2   3
ATOM      3  N   UNL A   1      30.004  27.892  23.919  1.00  0.00    -0.352 N 
ATOM      4  C   UNL A   1      29.626  26.578  23.937  1.00  0.00     0.251 C 
ATOM      5  O   UNL A   1      28.423  26.347  23.803  1.00  0.00    -0.269 OA
ATOM      6  H   UNL A   1      29.256  28.511  23.757  1.00  0.00     0.163 HD
BRANCH   4   7
ATOM      7  C   UNL A   1      30.560  25.430  24.144  1.00  0.00     0.040 A 
ATOM      8  C   UNL A   1      32.347  23.216  24.273  1.00  0.00    -0.015 A 
ATOM      9  C   UNL A   1      31.617  23.647  25.396  1.00  0.00     0.010 A 
ATOM     10  C   UNL A   1      32.216  23.943  23.076  1.00  0.00    -0.042 A 
ATOM     11  C   UNL A   1      30.766  24.755  25.342  1.00  0.00     0.014 A 
ATOM     12  C   UNL A   1      31.315  25.027  23.029  1.00  0.00     0.018 A 
ATOM     13  C   UNL A   1      33.008  23.655  21.830  1.00  0.00     0.045 C 
BRANCH   8  14
ATOM     14  C   UNL A   1      33.197  22.031  24.426  1.00  0.00    -0.014 A 
ATOM     15  C   UNL A   1      33.406  19.597  24.516  1.00  0.00     0.063 A 
ATOM     16  C   UNL A   1      34.742  19.721  24.901  1.00  0.00     0.055 A 
ATOM     17  C   UNL A   1      32.645  20.748  24.266  1.00  0.00     0.024 A 
ATOM     18  C   UNL A   1      35.294  20.990  25.034  1.00  0.00     0.124 A 
ATOM     19  F   UNL A   1      36.576  21.111  25.402  1.00  0.00    -0.207 F 
ATOM     20  C   UNL A   1      34.539  22.137  24.809  1.00  0.00     0.048 A 
BRANCH  15  21
ATOM     21  C   UNL A   1      32.741  18.281  24.366  1.00  0.00     0.337 C 
ATOM     22  O   UNL A   1      32.053  17.772  25.231  1.00  0.00    -0.246 OA
BRANCH  21  23
ATOM     23  O   UNL A   1      33.072  17.724  23.174  1.00  0.00    -0.465 OA
ATOM     24  C   UNL A   1      33.903  16.567  23.294  1.00  0.00     0.282 C 
ENDBRANCH  21  23
ENDBRANCH  15  21
ENDBRANCH   8  14
ENDBRANCH   4   7
ENDBRANCH   2   3
ENDBRANCH   1   2
BRANCH   1  25
ATOM     25  C   UNL A   1      32.791  29.763  25.714  1.00  0.00     0.118 C 
BRANCH  25  26
ATOM     26  N   UNL A   1      32.544  31.088  26.255  1.00  0.00    -0.352 N 
ATOM     27  C   UNL A   1      33.216  31.850  27.165  1.00  0.00     0.251 C 
ATOM     28  H   UNL A   1      31.735  31.521  25.896  1.00  0.00     0.163 HD
ATOM     29  O   UNL A   1      32.669  32.894  27.527  1.00  0.00    -0.269 OA
BRANCH  27  30
ATOM     30  C   UNL A   1      34.535  31.473  27.725  1.00  0.00     0.039 A 
ATOM     31  C   UNL A   1      34.691  30.138  28.121  1.00  0.00     0.014 A 
ATOM     32  C   UNL A   1      35.573  32.379  27.963  1.00  0.00     0.014 A 
ATOM     33  C   UNL A   1      35.849  29.726  28.775  1.00  0.00     0.010 A 
ATOM     34  C   UNL A   1      36.766  31.949  28.544  1.00  0.00     0.010 A 
ATOM     35  C   UNL A   1      36.896  30.631  28.994  1.00  0.00    -0.014 A 
BRANCH  35  36
ATOM     36  C   UNL A   1      38.094  30.212  29.757  1.00  0.00     0.031 A 
ATOM     37  C   UNL A   1      38.267  30.663  31.184  1.00  0.00     0.074 A 
ATOM     38  C   UNL A   1      39.002  29.412  29.167  1.00  0.00     0.049 A 
ATOM     39  N   UNL A   1      39.231  30.386  32.020  1.00  0.00    -0.248 NA
ATOM     40  C   UNL A   1      37.234  31.556  31.743  1.00  0.00     0.031 C 
ATOM     41  C   UNL A   1      38.935  28.945  27.779  1.00  0.00     0.029 A 
ATOM     42  N   UNL A   1      40.149  28.838  29.653  1.00  0.00    -0.354 N 
ATOM     43  C   UNL A   1      38.927  31.067  33.193  1.00  0.00     0.074 A 
ATOM     44  C   UNL A   1      37.717  31.818  32.950  1.00  0.00     0.031 C 
ATOM     45  C   UNL A   1      39.969  28.125  27.540  1.00  0.00     0.029 A 
ATOM     46  C   UNL A   1      40.798  28.042  28.737  1.00  0.00     0.049 A 
ATOM     47  H   UNL A   1      40.477  28.982  30.569  1.00  0.00     0.167 HD
ATOM     48  C   UNL A   1      39.585  31.041  34.374  1.00  0.00     0.034 A 
ATOM     49  C   UNL A   1      41.938  27.331  28.851  1.00  0.00     0.034 A 
ATOM     50  C   UNL A   1      40.763  30.251  34.609  1.00  0.00     0.049 A 
ATOM     51  C   UNL A   1      42.661  27.341  30.173  1.00  0.00     0.074 A 
ATOM     52  C   UNL A   1      41.467  30.097  35.789  1.00  0.00     0.029 A 
ATOM     53  N   UNL A   1      41.407  29.486  33.649  1.00  0.00    -0.354 N 
ATOM     54  N   UNL A   1      42.328  27.957  31.284  1.00  0.00    -0.248 NA
ATOM     55  C   UNL A   1      43.907  26.569  30.262  1.00  0.00     0.031 C 
ATOM     56  C   UNL A   1      42.578  29.294  35.526  1.00  0.00     0.029 A 
ATOM     57  C   UNL A   1      42.527  28.890  34.200  1.00  0.00     0.049 A 
ATOM     58  H   UNL A   1      41.113  29.382  32.715  1.00  0.00     0.167 HD
ATOM     59  C   UNL A   1      43.316  27.635  32.206  1.00  0.00     0.074 A 
ATOM     60  C   UNL A   1      44.252  26.761  31.529  1.00  0.00     0.031 C 
ATOM     61  C   UNL A   1      43.442  28.026  33.497  1.00  0.00     0.034 A 
BRANCH  48  62
ATOM     62  C   UNL A   1      39.062  31.876  35.510  1.00  0.00     0.023 A 
ATOM     63  C   UNL A   1      38.346  31.301  36.574  1.00  0.00     0.031 A 
ATOM     64  C   UNL A   1      39.365  33.247  35.576  1.00  0.00     0.131 A 
ATOM     65  C   UNL A   1      37.949  32.099  37.657  1.00  0.00     0.055 A 
ATOM     66  C   UNL A   1      39.012  34.024  36.681  1.00  0.00     0.041 A 
ATOM     67  F   UNL A   1      40.032  33.846  34.578  1.00  0.00    -0.206 F 
ATOM     68  C   UNL A   1      38.300  33.451  37.730  1.00  0.00     0.022 A 
BRANCH  65  69
ATOM     69  S   UNL A   1      36.941  31.353  38.966  1.00  0.00     0.124 S 
ATOM     70  O   UNL A   1      37.856  31.397  40.104  1.00  0.00    -0.237 OA
ATOM     71  O   UNL A   1      35.793  32.251  39.037  1.00  0.00    -0.237 OA
ATOM     72  O   UNL A   1      36.653  30.014  38.456  1.00  0.00    -0.744 OA
ENDBRANCH  65  69
ENDBRANCH  48  62
BRANCH  49  73
ATOM     73  C   UNL A   1      42.470  26.576  27.682  1.00  0.00     0.023 A 
ATOM     74  C   UNL A   1      42.125  25.233  27.465  1.00  0.00     0.031 A 
ATOM     75  C   UNL A   1      43.342  27.190  26.765  1.00  0.00     0.131 A 
ATOM     76  C   UNL A   1      42.674  24.540  26.375  1.00  0.00     0.055 A 
ATOM     77  C   UNL A   1      43.847  26.510  25.656  1.00  0.00     0.041 A 
ATOM     78  F   UNL A   1      43.699  28.475  26.924  1.00  0.00    -0.206 F 
ATOM     79  C   UNL A   1      43.521  25.173  25.461  1.00  0.00     0.022 A 
BRANCH  76  80
ATOM     80  S   UNL A   1      42.311  22.771  26.196  1.00  0.00     0.124 S 
ATOM     81  O   UNL A   1      43.096  22.197  27.283  1.00  0.00    -0.237 OA
ATOM     82  O   UNL A   1      40.862  22.740  26.364  1.00  0.00    -0.237 OA
ATOM     83  O   UNL A   1      42.786  22.460  24.849  1.00  0.00    -0.744 OA
ENDBRANCH  76  80
ENDBRANCH  49  73
BRANCH  61  84
ATOM     84  C   UNL A   1      44.622  27.515  34.274  1.00  0.00     0.023 A 
ATOM     85  C   UNL A   1      44.582  26.264  34.907  1.00  0.00     0.031 A 
ATOM     86  C   UNL A   1      45.830  28.234  34.279  1.00  0.00     0.131 A 
ATOM     87  C   UNL A   1      45.734  25.766  35.528  1.00  0.00     0.055 A 
ATOM     88  C   UNL A   1      46.984  27.714  34.861  1.00  0.00     0.041 A 
ATOM     89  F   UNL A   1      45.914  29.431  33.675  1.00  0.00    -0.206 F 
ATOM     90  C   UNL A   1      46.941  26.473  35.489  1.00  0.00     0.022 A 
BRANCH  87  91
ATOM     91  S   UNL A   1      45.640  24.172  36.384  1.00  0.00     0.124 S 
ATOM     92  O   UNL A   1      45.411  24.585  37.765  1.00  0.00    -0.237 OA
ATOM     93  O   UNL A   1      44.517  23.519  35.720  1.00  0.00    -0.237 OA
ATOM     94  O   UNL A   1      46.946  23.566  36.126  1.00  0.00    -0.744 OA
ENDBRANCH  87  91
ENDBRANCH  61  84
ENDBRANCH  35  36
ENDBRANCH  27  30
ENDBRANCH  25  26
ENDBRANCH   1  25
TORSDOF 16
ENDMDL
MODEL 2
REMARK VINA RESULT:     -12.5      1.418      1.825
REMARK SMILES COC(=O)c1cc(F)cc(-c2ccc(C(=O)NCCCNC(=O)c3ccc(-c4c5nc(c(-c6cc(S(=O)(=O)[O-])ccc6F)c6ccc([nH]6)c(-c6cc(S(=O)(=O)[O-])ccc6F)c6nc(c(-c7cc(S(=O)(=O)[O-])ccc7F)c7ccc4[nH]7)C=C6)C=C5)cc3)cc2C)c1
REMARK SMILES IDX 19 1 18 2 17 3 15 4 16 5 14 7 11 8 12 9 88 10 13 11 87 12
REMARK SMILES IDX 89 13 10 14 5 15 6 16 90 17 7 18 8 19 9 20 3 21 4 22 2 23
REMARK SMILES IDX 1 24 20 25 21 26 22 27 23 29 24 30 25 31 86 32 26 33 85 34
REMARK SMILES IDX 27 35 28 36 29 37 79 38 30 39 84 40 78 41 80 42 31 43 83 44
REMARK SMILES IDX 77 45 76 46 32 48 64 49 44 50 63 51 45 52 48 53 62 54 81 55
REMARK SMILES IDX 46 56 47 57 61 59 82 60 49 61 33 62 34 63 42 64 35 65 41 66
REMARK SMILES IDX 43 67 40 68 36 69 37 70 38 71 39 72 65 73 66 74 74 75 67 76
REMARK SMILES IDX 73 77 75 78 72 79 68 80 69 81 70 82 71 83 50 84 51 85 59 86
REMARK SMILES IDX 52 87 58 88 60 89 57 90 53 91 54 92 55 93 56 94
REMARK H PARENT 17 6 21 28 80 47 48 58
REMARK Flexibility Score: inf
ROOT
ATOM      1  C   UNL A   1      31.406  29.412  25.573  1.00  0.00     0.042 C 
ENDROOT
BRANCH   1   2
ATOM      2  C   UNL A   1      31.392  28.853  24.146  1.00  0.00     0.118 C 
BRANCH   2   3
ATOM      3  N   UNL A   1      30.129  28.211  23.851  1.00  0.00    -0.352 N 
ATOM      4  C   UNL A   1      29.750  26.905  23.707  1.00  0.00     0.251 C 
ATOM      5  O   UNL A   1      28.553  26.697  23.498  1.00  0.00    -0.269 OA
ATOM      6  H   UNL A   1      29.388  28.848  23.728  1.00  0.00     0.163 HD
BRANCH   4   7
ATOM      7  C   UNL A   1      30.673  25.737  23.823  1.00  0.00     0.040 A 
ATOM      8  C   UNL A   1      32.406  23.530  24.310  1.00  0.00    -0.015 A 
ATOM      9  C   UNL A   1      32.370  24.185  23.066  1.00  0.00     0.010 A 
ATOM     10  C   UNL A   1      31.517  23.958  25.312  1.00  0.00    -0.042 A 
ATOM     11  C   UNL A   1      31.496  25.246  22.815  1.00  0.00     0.014 A 
ATOM     12  C   UNL A   1      30.677  25.061  25.056  1.00  0.00     0.018 A 
ATOM     13  C   UNL A   1      31.378  23.287  26.652  1.00  0.00     0.045 C 
BRANCH   8  14
ATOM     14  C   UNL A   1      33.374  22.441  24.480  1.00  0.00    -0.014 A 
ATOM     15  C   UNL A   1      33.830  20.045  24.637  1.00  0.00     0.063 A 
ATOM     16  C   UNL A   1      35.153  20.314  24.991  1.00  0.00     0.055 A 
ATOM     17  C   UNL A   1      32.952  21.105  24.369  1.00  0.00     0.024 A 
ATOM     18  C   UNL A   1      35.576  21.636  25.076  1.00  0.00     0.124 A 
ATOM     19  F   UNL A   1      36.845  21.897  25.414  1.00  0.00    -0.207 F 
ATOM     20  C   UNL A   1      34.705  22.694  24.832  1.00  0.00     0.048 A 
BRANCH  15  21
ATOM     21  C   UNL A   1      33.299  18.664  24.539  1.00  0.00     0.337 C 
ATOM     22  O   UNL A   1      32.116  18.391  24.623  1.00  0.00    -0.246 OA
BRANCH  21  23
ATOM     23  O   UNL A   1      34.320  17.779  24.416  1.00  0.00    -0.465 OA
ATOM     24  C   UNL A   1      33.998  16.642  23.614  1.00  0.00     0.282 C 
ENDBRANCH  21  23
ENDBRANCH  15  21
ENDBRANCH   8  14
ENDBRANCH   4   7
ENDBRANCH   2   3
ENDBRANCH   1   2
BRANCH   1  25
ATOM     25  C   UNL A   1      32.767  30.004  25.926  1.00  0.00     0.118 C 
BRANCH  25  26
ATOM     26  N   UNL A   1      32.618  31.363  26.418  1.00  0.00    -0.352 N 
ATOM     27  C   UNL A   1      33.360  32.116  27.279  1.00  0.00     0.251 C 
ATOM     28  H   UNL A   1      31.827  31.830  26.060  1.00  0.00     0.163 HD
ATOM     29  O   UNL A   1      32.889  33.206  27.611  1.00  0.00    -0.269 OA
BRANCH  27  30
ATOM     30  C   UNL A   1      34.668  31.679  27.822  1.00  0.00     0.039 A 
ATOM     31  C   UNL A   1      34.751  30.353  28.268  1.00  0.00     0.014 A 
ATOM     32  C   UNL A   1      35.765  32.526  27.999  1.00  0.00     0.014 A 
ATOM     33  C   UNL A   1      35.898  29.895  28.910  1.00  0.00     0.010 A 
ATOM     34  C   UNL A   1      36.945  32.046  28.568  1.00  0.00     0.010 A 
ATOM     35  C   UNL A   1      37.005  30.740  29.067  1.00  0.00    -0.014 A 
BRANCH  35  36
ATOM     36  C   UNL A   1      38.194  30.277  29.818  1.00  0.00     0.031 A 
ATOM     37  C   UNL A   1      38.414  30.745  31.233  1.00  0.00     0.074 A 
ATOM     38  C   UNL A   1      39.052  29.423  29.227  1.00  0.00     0.049 A 
ATOM     39  N   UNL A   1      39.379  30.437  32.057  1.00  0.00    -0.248 NA
ATOM     40  C   UNL A   1      37.437  31.698  31.791  1.00  0.00     0.031 C 
ATOM     41  C   UNL A   1      38.937  28.935  27.850  1.00  0.00     0.029 A 
ATOM     42  N   UNL A   1      40.178  28.802  29.705  1.00  0.00    -0.354 N 
ATOM     43  C   UNL A   1      39.129  31.153  33.222  1.00  0.00     0.074 A 
ATOM     44  C   UNL A   1      37.954  31.958  32.985  1.00  0.00     0.031 C 
ATOM     45  C   UNL A   1      39.925  28.060  27.609  1.00  0.00     0.029 A 
ATOM     46  C   UNL A   1      40.771  27.958  28.794  1.00  0.00     0.049 A 
ATOM     47  H   UNL A   1      40.528  28.947  30.613  1.00  0.00     0.167 HD
ATOM     48  C   UNL A   1      39.806  31.117  34.392  1.00  0.00     0.034 A 
ATOM     49  C   UNL A   1      41.877  27.195  28.902  1.00  0.00     0.034 A 
ATOM     50  C   UNL A   1      40.948  30.274  34.622  1.00  0.00     0.049 A 
ATOM     51  C   UNL A   1      42.623  27.194  30.210  1.00  0.00     0.074 A 
ATOM     52  C   UNL A   1      41.665  30.107  35.792  1.00  0.00     0.029 A 
ATOM     53  N   UNL A   1      41.537  29.460  33.666  1.00  0.00    -0.354 N 
ATOM     54  N   UNL A   1      42.339  27.845  31.315  1.00  0.00    -0.248 NA
ATOM     55  C   UNL A   1      43.830  26.363  30.293  1.00  0.00     0.031 C 
ATOM     56  C   UNL A   1      42.731  29.245  35.526  1.00  0.00     0.029 A 
ATOM     57  C   UNL A   1      42.636  28.821  34.209  1.00  0.00     0.049 A 
ATOM     58  H   UNL A   1      41.221  29.354  32.740  1.00  0.00     0.167 HD
ATOM     59  C   UNL A   1      43.328  27.492  32.226  1.00  0.00     0.074 A 
ATOM     60  C   UNL A   1      44.207  26.561  31.550  1.00  0.00     0.031 C 
ATOM     61  C   UNL A   1      43.495  27.900  33.508  1.00  0.00     0.034 A 
BRANCH  48  62
ATOM     62  C   UNL A   1      39.345  31.997  35.521  1.00  0.00     0.023 A 
ATOM     63  C   UNL A   1      39.826  33.308  35.671  1.00  0.00     0.031 A 
ATOM     64  C   UNL A   1      38.341  31.552  36.398  1.00  0.00     0.131 A 
ATOM     65  C   UNL A   1      39.308  34.127  36.686  1.00  0.00     0.055 A 
ATOM     66  C   UNL A   1      37.793  32.388  37.371  1.00  0.00     0.041 A 
ATOM     67  F   UNL A   1      37.860  30.302  36.304  1.00  0.00    -0.206 F 
ATOM     68  C   UNL A   1      38.276  33.685  37.519  1.00  0.00     0.022 A 
BRANCH  65  69
ATOM     69  S   UNL A   1      40.018  35.778  36.921  1.00  0.00     0.124 S 
ATOM     70  O   UNL A   1      41.429  35.464  37.138  1.00  0.00    -0.237 OA
ATOM     71  O   UNL A   1      39.700  36.446  35.663  1.00  0.00    -0.237 OA
ATOM     72  O   UNL A   1      39.312  36.292  38.093  1.00  0.00    -0.744 OA
ENDBRANCH  65  69
ENDBRANCH  48  62
BRANCH  49  73
ATOM     73  C   UNL A   1      42.350  26.393  27.738  1.00  0.00     0.023 A 
ATOM     74  C   UNL A   1      41.950  25.060  27.563  1.00  0.00     0.031 A 
ATOM     75  C   UNL A   1      43.220  26.953  26.785  1.00  0.00     0.131 A 
ATOM     76  C   UNL A   1      42.444  24.321  26.477  1.00  0.00     0.055 A 
ATOM     77  C   UNL A   1      43.671  26.228  25.681  1.00  0.00     0.041 A 
ATOM     78  F   UNL A   1      43.627  28.227  26.904  1.00  0.00    -0.206 F 
ATOM     79  C   UNL A   1      43.290  24.900  25.527  1.00  0.00     0.022 A 
BRANCH  76  80
ATOM     80  S   UNL A   1      42.013  22.563  26.350  1.00  0.00     0.124 S 
ATOM     81  O   UNL A   1      42.472  22.242  25.004  1.00  0.00    -0.237 OA
ATOM     82  O   UNL A   1      42.780  21.983  27.448  1.00  0.00    -0.237 OA
ATOM     83  O   UNL A   1      40.563  22.555  26.536  1.00  0.00    -0.744 OA
ENDBRANCH  76  80
ENDBRANCH  49  73
BRANCH  61  84
ATOM     84  C   UNL A   1      44.663  27.346  34.274  1.00  0.00     0.023 A 
ATOM     85  C   UNL A   1      44.574  26.108  34.927  1.00  0.00     0.031 A 
ATOM     86  C   UNL A   1      45.902  28.007  34.248  1.00  0.00     0.131 A 
ATOM     87  C   UNL A   1      45.713  25.566  35.538  1.00  0.00     0.055 A 
ATOM     88  C   UNL A   1      47.041  27.443  34.821  1.00  0.00     0.041 A 
ATOM     89  F   UNL A   1      46.033  29.189  33.624  1.00  0.00    -0.206 F 
ATOM     90  C   UNL A   1      46.950  26.214  35.469  1.00  0.00     0.022 A 
BRANCH  87  91
ATOM     91  S   UNL A   1      45.558  23.991  36.420  1.00  0.00     0.124 S 
ATOM     92  O   UNL A   1      44.191  23.595  36.093  1.00  0.00    -0.237 OA
ATOM     93  O   UNL A   1      46.614  23.183  35.820  1.00  0.00    -0.237 OA
ATOM     94  O   UNL A   1      45.779  24.357  37.819  1.00  0.00    -0.744 OA
ENDBRANCH  87  91
ENDBRANCH  61  84
ENDBRANCH  35  36
ENDBRANCH  27  30
ENDBRANCH  25  26
ENDBRANCH   1  25
TORSDOF 16
ENDMDL
MODEL 3
REMARK VINA RESULT:     -12.4      5.089     10.486
REMARK SMILES COC(=O)c1cc(F)cc(-c2ccc(C(=O)NCCCNC(=O)c3ccc(-c4c5nc(c(-c6cc(S(=O)(=O)[O-])ccc6F)c6ccc([nH]6)c(-c6cc(S(=O)(=O)[O-])ccc6F)c6nc(c(-c7cc(S(=O)(=O)[O-])ccc7F)c7ccc4[nH]7)C=C6)C=C5)cc3)cc2C)c1
REMARK SMILES IDX 19 1 18 2 17 3 15 4 16 5 14 7 11 8 12 9 88 10 13 11 87 12
REMARK SMILES IDX 89 13 10 14 5 15 6 16 90 17 7 18 8 19 9 20 3 21 4 22 2 23
REMARK SMILES IDX 1 24 20 25 21 26 22 27 23 29 24 30 25 31 86 32 26 33 85 34
REMARK SMILES IDX 27 35 28 36 29 37 79 38 30 39 84 40 78 41 80 42 31 43 83 44
REMARK SMILES IDX 77 45 76 46 32 48 64 49 44 50 63 51 45 52 48 53 62 54 81 55
REMARK SMILES IDX 46 56 47 57 61 59 82 60 49 61 33 62 34 63 42 64 35 65 41 66
REMARK SMILES IDX 43 67 40 68 36 69 37 70 38 71 39 72 65 73 66 74 74 75 67 76
REMARK SMILES IDX 73 77 75 78 72 79 68 80 69 81 70 82 71 83 50 84 51 85 59 86
REMARK SMILES IDX 52 87 58 88 60 89 57 90 53 91 54 92 55 93 56 94
REMARK H PARENT 17 6 21 28 80 47 48 58
REMARK Flexibility Score: inf
ROOT
ATOM      1  C   UNL A   1      35.734  21.283  25.717  1.00  0.00     0.042 C 
ENDROOT
BRANCH   1   2
ATOM      2  C   UNL A   1      35.398  19.986  24.973  1.00  0.00     0.118 C 
BRANCH   2   3
ATOM      3  N   UNL A   1      33.986  19.681  25.070  1.00  0.00    -0.352 N 
ATOM      4  C   UNL A   1      32.851  20.419  24.878  1.00  0.00     0.251 C 
ATOM      5  O   UNL A   1      31.778  19.825  25.001  1.00  0.00    -0.269 OA
ATOM      6  H   UNL A   1      33.806  18.749  25.330  1.00  0.00     0.163 HD
BRANCH   4   7
ATOM      7  C   UNL A   1      32.833  21.864  24.498  1.00  0.00     0.040 A 
ATOM      8  C   UNL A   1      32.644  24.659  23.987  1.00  0.00    -0.015 A 
ATOM      9  C   UNL A   1      33.072  23.752  23.001  1.00  0.00     0.010 A 
ATOM     10  C   UNL A   1      32.355  24.159  25.270  1.00  0.00    -0.042 A 
ATOM     11  C   UNL A   1      33.197  22.384  23.261  1.00  0.00     0.014 A 
ATOM     12  C   UNL A   1      32.441  22.770  25.498  1.00  0.00     0.018 A 
ATOM     13  C   UNL A   1      31.984  25.025  26.442  1.00  0.00     0.045 C 
BRANCH   8  14
ATOM     14  C   UNL A   1      32.525  26.071  23.609  1.00  0.00    -0.014 A 
ATOM     15  C   UNL A   1      31.122  27.938  22.888  1.00  0.00     0.063 A 
ATOM     16  C   UNL A   1      32.259  28.724  22.691  1.00  0.00     0.055 A 
ATOM     17  C   UNL A   1      31.257  26.625  23.359  1.00  0.00     0.024 A 
ATOM     18  C   UNL A   1      33.511  28.184  22.963  1.00  0.00     0.124 A 
ATOM     19  F   UNL A   1      34.603  28.935  22.776  1.00  0.00    -0.207 F 
ATOM     20  C   UNL A   1      33.655  26.874  23.410  1.00  0.00     0.048 A 
BRANCH  15  21
ATOM     21  C   UNL A   1      29.754  28.436  22.608  1.00  0.00     0.337 C 
ATOM     22  O   UNL A   1      28.754  27.996  23.145  1.00  0.00    -0.246 OA
BRANCH  21  23
ATOM     23  O   UNL A   1      29.791  29.382  21.636  1.00  0.00    -0.465 OA
ATOM     24  C   UNL A   1      28.648  30.238  21.625  1.00  0.00     0.282 C 
ENDBRANCH  21  23
ENDBRANCH  15  21
ENDBRANCH   8  14
ENDBRANCH   4   7
ENDBRANCH   2   3
ENDBRANCH   1   2
BRANCH   1  25
ATOM     25  C   UNL A   1      37.102  21.821  25.309  1.00  0.00     0.118 C 
BRANCH  25  26
ATOM     26  N   UNL A   1      38.141  20.855  25.621  1.00  0.00    -0.352 N 
ATOM     27  C   UNL A   1      39.395  20.988  26.141  1.00  0.00     0.251 C 
ATOM     28  H   UNL A   1      37.893  19.923  25.417  1.00  0.00     0.163 HD
ATOM     29  O   UNL A   1      40.099  19.977  26.158  1.00  0.00    -0.269 OA
BRANCH  27  30
ATOM     30  C   UNL A   1      39.928  22.269  26.662  1.00  0.00     0.039 A 
ATOM     31  C   UNL A   1      39.385  23.442  26.118  1.00  0.00     0.014 A 
ATOM     32  C   UNL A   1      40.983  22.367  27.573  1.00  0.00     0.014 A 
ATOM     33  C   UNL A   1      39.914  24.685  26.453  1.00  0.00     0.010 A 
ATOM     34  C   UNL A   1      41.460  23.616  27.971  1.00  0.00     0.010 A 
ATOM     35  C   UNL A   1      40.959  24.782  27.382  1.00  0.00    -0.014 A 
BRANCH  35  36
ATOM     36  C   UNL A   1      41.572  26.096  27.679  1.00  0.00     0.031 A 
ATOM     37  C   UNL A   1      42.921  26.439  27.102  1.00  0.00     0.074 A 
ATOM     38  C   UNL A   1      40.899  26.977  28.444  1.00  0.00     0.049 A 
ATOM     39  N   UNL A   1      43.610  27.542  27.230  1.00  0.00    -0.248 NA
ATOM     40  C   UNL A   1      43.596  25.406  26.295  1.00  0.00     0.031 C 
ATOM     41  C   UNL A   1      39.598  26.724  29.069  1.00  0.00     0.029 A 
ATOM     42  N   UNL A   1      41.202  28.261  28.818  1.00  0.00    -0.354 N 
ATOM     43  C   UNL A   1      44.791  27.336  26.526  1.00  0.00     0.074 A 
ATOM     44  C   UNL A   1      44.757  25.985  26.018  1.00  0.00     0.031 C 
ATOM     45  C   UNL A   1      39.196  27.831  29.712  1.00  0.00     0.029 A 
ATOM     46  C   UNL A   1      40.227  28.856  29.586  1.00  0.00     0.049 A 
ATOM     47  H   UNL A   1      42.037  28.714  28.561  1.00  0.00     0.167 HD
ATOM     48  C   UNL A   1      45.799  28.211  26.301  1.00  0.00     0.034 A 
ATOM     49  C   UNL A   1      40.176  30.087  30.133  1.00  0.00     0.034 A 
ATOM     50  C   UNL A   1      45.792  29.566  26.779  1.00  0.00     0.049 A 
ATOM     51  C   UNL A   1      41.324  31.031  29.884  1.00  0.00     0.074 A 
ATOM     52  C   UNL A   1      46.728  30.558  26.548  1.00  0.00     0.029 A 
ATOM     53  N   UNL A   1      44.805  30.120  27.579  1.00  0.00    -0.354 N 
ATOM     54  N   UNL A   1      42.411  30.829  29.175  1.00  0.00    -0.248 NA
ATOM     55  C   UNL A   1      41.246  32.359  30.504  1.00  0.00     0.031 C 
ATOM     56  C   UNL A   1      46.343  31.691  27.268  1.00  0.00     0.029 A 
ATOM     57  C   UNL A   1      45.131  31.428  27.888  1.00  0.00     0.049 A 
ATOM     58  H   UNL A   1      43.993  29.653  27.883  1.00  0.00     0.167 HD
ATOM     59  C   UNL A   1      43.139  32.010  29.254  1.00  0.00     0.074 A 
ATOM     60  C   UNL A   1      42.364  32.925  30.067  1.00  0.00     0.031 C 
ATOM     61  C   UNL A   1      44.340  32.313  28.704  1.00  0.00     0.034 A 
BRANCH  48  62
ATOM     62  C   UNL A   1      46.990  27.751  25.507  1.00  0.00     0.023 A 
ATOM     63  C   UNL A   1      47.077  27.970  24.122  1.00  0.00     0.031 A 
ATOM     64  C   UNL A   1      48.093  27.173  26.160  1.00  0.00     0.131 A 
ATOM     65  C   UNL A   1      48.241  27.603  23.432  1.00  0.00     0.055 A 
ATOM     66  C   UNL A   1      49.268  26.859  25.477  1.00  0.00     0.041 A 
ATOM     67  F   UNL A   1      48.052  26.930  27.480  1.00  0.00    -0.206 F 
ATOM     68  C   UNL A   1      49.347  27.074  24.104  1.00  0.00     0.022 A 
BRANCH  65  69
ATOM     69  S   UNL A   1      48.286  27.804  21.631  1.00  0.00     0.124 S 
ATOM     70  O   UNL A   1      46.912  28.209  21.345  1.00  0.00    -0.237 OA
ATOM     71  O   UNL A   1      49.305  28.832  21.448  1.00  0.00    -0.237 OA
ATOM     72  O   UNL A   1      48.652  26.474  21.146  1.00  0.00    -0.744 OA
ENDBRANCH  65  69
ENDBRANCH  48  62
BRANCH  49  73
ATOM     73  C   UNL A   1      39.015  30.484  30.978  1.00  0.00     0.023 A 
ATOM     74  C   UNL A   1      37.889  31.108  30.420  1.00  0.00     0.031 A 
ATOM     75  C   UNL A   1      39.022  30.250  32.365  1.00  0.00     0.131 A 
ATOM     76  C   UNL A   1      36.828  31.503  31.251  1.00  0.00     0.055 A 
ATOM     77  C   UNL A   1      37.944  30.602  33.179  1.00  0.00     0.041 A 
ATOM     78  F   UNL A   1      40.073  29.650  32.947  1.00  0.00    -0.206 F 
ATOM     79  C   UNL A   1      36.842  31.241  32.624  1.00  0.00     0.022 A 
BRANCH  76  80
ATOM     80  S   UNL A   1      35.446  32.423  30.520  1.00  0.00     0.124 S 
ATOM     81  O   UNL A   1      36.035  33.744  30.335  1.00  0.00    -0.237 OA
ATOM     82  O   UNL A   1      35.183  31.660  29.304  1.00  0.00    -0.237 OA
ATOM     83  O   UNL A   1      34.403  32.340  31.541  1.00  0.00    -0.744 OA
ENDBRANCH  76  80
ENDBRANCH  49  73
BRANCH  61  84
ATOM     84  C   UNL A   1      44.897  33.686  28.951  1.00  0.00     0.023 A 
ATOM     85  C   UNL A   1      45.800  33.921  29.998  1.00  0.00     0.031 A 
ATOM     86  C   UNL A   1      44.613  34.735  28.060  1.00  0.00     0.131 A 
ATOM     87  C   UNL A   1      46.389  35.185  30.135  1.00  0.00     0.055 A 
ATOM     88  C   UNL A   1      45.234  35.978  28.175  1.00  0.00     0.041 A 
ATOM     89  F   UNL A   1      43.763  34.550  27.037  1.00  0.00    -0.206 F 
ATOM     90  C   UNL A   1      46.129  36.207  29.217  1.00  0.00     0.022 A 
BRANCH  87  91
ATOM     91  S   UNL A   1      47.510  35.476  31.528  1.00  0.00     0.124 S 
ATOM     92  O   UNL A   1      48.819  35.362  30.890  1.00  0.00    -0.237 OA
ATOM     93  O   UNL A   1      47.132  36.815  31.967  1.00  0.00    -0.237 OA
ATOM     94  O   UNL A   1      47.181  34.402  32.464  1.00  0.00    -0.744 OA
ENDBRANCH  87  91
ENDBRANCH  61  84
ENDBRANCH  35  36
ENDBRANCH  27  30
ENDBRANCH  25  26
ENDBRANCH   1  25
TORSDOF 16
ENDMDL
