MODEL 1
REMARK VINA RESULT:     -11.5      0.000      0.000
REMARK SMILES CC(C)(C)c1csc(C[NH2+][C@H]2CCC[C@@H](C(=O)NCCCNC(=O)c3ccc(-c4c5nc(c(-c6cc(S(=O)(=O)[O-])ccc6F)c6ccc([nH]6)c(-c6cc(S(=O)(=O)[O-])ccc6F)c6nc(c(-c7cc(S(=O)(=O)[O-])ccc7F)c7ccc4[nH]7)C=C6)C=C5)cc3)C2)n1
REMARK SMILES IDX 19 1 18 2 16 3 17 4 15 6 11 7 12 8 88 9 13 10 14 11 10 12
REMARK SMILES IDX 9 15 8 16 5 17 6 18 89 19 7 20 2 21 1 22 3 23 4 24 20 25
REMARK SMILES IDX 21 26 22 27 23 28 24 30 25 31 26 32 87 33 27 34 86 35 28 36
REMARK SMILES IDX 29 37 30 38 80 39 31 40 85 41 79 42 81 43 32 44 84 45 78 46
REMARK SMILES IDX 77 47 33 49 65 50 45 51 64 52 46 53 49 54 63 55 82 56 47 57
REMARK SMILES IDX 48 58 62 60 83 61 50 62 34 63 35 64 43 65 36 66 42 67 44 68
REMARK SMILES IDX 41 69 37 70 38 71 39 72 40 73 66 74 67 75 75 76 68 77 74 78
REMARK SMILES IDX 76 79 73 80 69 81 70 82 71 83 72 84 51 85 52 86 60 87 53 88
REMARK SMILES IDX 59 89 61 90 58 91 54 92 55 93 56 94 57 95
REMARK H PARENT 18 5 10 13 10 14 22 29 81 48 49 59
REMARK Flexibility Score: inf
ROOT
ATOM      1  C   UNL A   1      31.626  28.371  26.726  1.00  0.00     0.117 C 
ENDROOT
BRANCH   1   2
ATOM      2  N   UNL A   1      31.137  27.019  26.918  1.00  0.00    -0.356 N 
ATOM      3  C   UNL A   1      30.756  26.095  25.995  1.00  0.00     0.223 C 
ATOM      4  O   UNL A   1      30.077  25.142  26.378  1.00  0.00    -0.275 OA
ATOM      5  H   UNL A   1      31.070  26.727  27.855  1.00  0.00     0.163 HD
BRANCH   3   6
ATOM      6  C   UNL A   1      31.265  26.195  24.561  1.00  0.00     0.084 C 
ATOM      7  C   UNL A   1      32.924  24.192  24.473  1.00  0.00     0.183 C 
ATOM      8  C   UNL A   1      32.073  23.623  23.327  1.00  0.00     0.065 C 
ATOM      9  C   UNL A   1      32.734  25.728  24.500  1.00  0.00     0.078 C 
ATOM     10  C   UNL A   1      30.593  23.941  23.498  1.00  0.00     0.007 C 
ATOM     11  C   UNL A   1      30.352  25.446  23.578  1.00  0.00     0.014 C 
BRANCH   7  12
ATOM     12  N   UNL A   1      32.646  23.633  25.801  1.00  0.00    -0.338 N 
ATOM     13  H   UNL A   1      32.260  24.377  26.382  1.00  0.00     0.346 HD
ATOM     14  H   UNL A   1      32.001  22.857  25.652  1.00  0.00     0.346 HD
BRANCH  12  15
ATOM     15  C   UNL A   1      33.808  23.068  26.496  1.00  0.00     0.329 C 
BRANCH  15  16
ATOM     16  C   UNL A   1      34.281  21.788  25.847  1.00  0.00     0.147 A 
ATOM     17  C   UNL A   1      34.204  19.745  24.957  1.00  0.00     0.057 A 
ATOM     18  C   UNL A   1      35.568  19.976  24.901  1.00  0.00     0.091 A 
ATOM     19  N   UNL A   1      33.477  20.813  25.470  1.00  0.00    -0.240 NA
ATOM     20  S   UNL A   1      35.948  21.521  25.533  1.00  0.00    -0.121 S 
BRANCH  17  21
ATOM     21  C   UNL A   1      33.458  18.504  24.481  1.00  0.00     0.005 C 
ATOM     22  C   UNL A   1      32.474  18.844  23.341  1.00  0.00     0.017 C 
ATOM     23  C   UNL A   1      32.669  17.901  25.658  1.00  0.00     0.017 C 
ATOM     24  C   UNL A   1      34.435  17.435  23.948  1.00  0.00     0.017 C 
ENDBRANCH  17  21
ENDBRANCH  15  16
ENDBRANCH  12  15
ENDBRANCH   7  12
ENDBRANCH   3   6
ENDBRANCH   1   2
BRANCH   1  25
ATOM     25  C   UNL A   1      33.063  28.506  27.230  1.00  0.00     0.042 C 
BRANCH  25  26
ATOM     26  C   UNL A   1      33.891  29.543  26.469  1.00  0.00     0.118 C 
BRANCH  26  27
ATOM     27  N   UNL A   1      33.772  30.874  27.040  1.00  0.00    -0.352 N 
ATOM     28  C   UNL A   1      34.501  31.484  28.028  1.00  0.00     0.251 C 
ATOM     29  H   UNL A   1      33.053  31.426  26.655  1.00  0.00     0.163 HD
ATOM     30  O   UNL A   1      34.086  32.545  28.499  1.00  0.00    -0.269 OA
BRANCH  28  31
ATOM     31  C   UNL A   1      35.754  30.885  28.537  1.00  0.00     0.039 A 
ATOM     32  C   UNL A   1      36.969  31.351  28.030  1.00  0.00     0.014 A 
ATOM     33  C   UNL A   1      35.744  29.834  29.459  1.00  0.00     0.014 A 
ATOM     34  C   UNL A   1      38.171  30.792  28.472  1.00  0.00     0.010 A 
ATOM     35  C   UNL A   1      36.944  29.327  29.956  1.00  0.00     0.010 A 
ATOM     36  C   UNL A   1      38.171  29.789  29.454  1.00  0.00    -0.014 A 
BRANCH  36  37
ATOM     37  C   UNL A   1      39.447  29.194  29.934  1.00  0.00     0.031 A 
ATOM     38  C   UNL A   1      40.146  29.769  31.138  1.00  0.00     0.074 A 
ATOM     39  C   UNL A   1      39.991  28.155  29.270  1.00  0.00     0.049 A 
ATOM     40  N   UNL A   1      41.274  29.408  31.694  1.00  0.00    -0.248 NA
ATOM     41  C   UNL A   1      39.503  30.924  31.784  1.00  0.00     0.031 C 
ATOM     42  C   UNL A   1      39.433  27.538  28.064  1.00  0.00     0.029 A 
ATOM     43  N   UNL A   1      41.133  27.434  29.511  1.00  0.00    -0.354 N 
ATOM     44  C   UNL A   1      41.483  30.296  32.745  1.00  0.00     0.074 A 
ATOM     45  C   UNL A   1      40.397  31.252  32.702  1.00  0.00     0.031 C 
ATOM     46  C   UNL A   1      40.216  26.514  27.691  1.00  0.00     0.029 A 
ATOM     47  C   UNL A   1      41.351  26.423  28.604  1.00  0.00     0.049 A 
ATOM     48  H   UNL A   1      41.740  27.622  30.263  1.00  0.00     0.167 HD
ATOM     49  C   UNL A   1      42.472  30.299  33.674  1.00  0.00     0.034 A 
ATOM     50  C   UNL A   1      42.353  25.526  28.517  1.00  0.00     0.034 A 
ATOM     51  C   UNL A   1      43.542  29.329  33.709  1.00  0.00     0.049 A 
ATOM     52  C   UNL A   1      43.440  25.546  29.561  1.00  0.00     0.074 A 
ATOM     53  C   UNL A   1      44.570  29.211  34.628  1.00  0.00     0.029 A 
ATOM     54  N   UNL A   1      43.725  28.312  32.780  1.00  0.00    -0.354 N 
ATOM     55  N   UNL A   1      43.595  26.363  30.579  1.00  0.00    -0.248 NA
ATOM     56  C   UNL A   1      44.475  24.511  29.454  1.00  0.00     0.031 C 
ATOM     57  C   UNL A   1      45.408  28.165  34.220  1.00  0.00     0.029 A 
ATOM     58  C   UNL A   1      44.860  27.579  33.091  1.00  0.00     0.049 A 
ATOM     59  H   UNL A   1      43.133  28.137  32.013  1.00  0.00     0.167 HD
ATOM     60  C   UNL A   1      44.730  25.916  31.252  1.00  0.00     0.074 A 
ATOM     61  C   UNL A   1      45.201  24.747  30.536  1.00  0.00     0.031 C 
ATOM     62  C   UNL A   1      45.329  26.424  32.360  1.00  0.00     0.034 A 
BRANCH  49  63
ATOM     63  C   UNL A   1      42.447  31.402  34.709  1.00  0.00     0.023 A 
ATOM     64  C   UNL A   1      41.470  31.444  35.720  1.00  0.00     0.031 A 
ATOM     65  C   UNL A   1      43.390  32.444  34.665  1.00  0.00     0.131 A 
ATOM     66  C   UNL A   1      41.404  32.547  36.587  1.00  0.00     0.055 A 
ATOM     67  C   UNL A   1      43.371  33.494  35.586  1.00  0.00     0.041 A 
ATOM     68  F   UNL A   1      44.336  32.472  33.713  1.00  0.00    -0.206 F 
ATOM     69  C   UNL A   1      42.364  33.559  36.544  1.00  0.00     0.022 A 
BRANCH  66  70
ATOM     70  S   UNL A   1      39.955  32.714  37.666  1.00  0.00     0.124 S 
ATOM     71  O   UNL A   1      40.554  32.551  38.989  1.00  0.00    -0.237 OA
ATOM     72  O   UNL A   1      39.472  34.051  37.343  1.00  0.00    -0.237 OA
ATOM     73  O   UNL A   1      39.086  31.617  37.244  1.00  0.00    -0.744 OA
ENDBRANCH  66  70
ENDBRANCH  49  63
BRANCH  50  74
ATOM     74  C   UNL A   1      42.380  24.527  27.409  1.00  0.00     0.023 A 
ATOM     75  C   UNL A   1      41.615  23.352  27.475  1.00  0.00     0.031 A 
ATOM     76  C   UNL A   1      43.208  24.713  26.288  1.00  0.00     0.131 A 
ATOM     77  C   UNL A   1      41.732  22.382  26.467  1.00  0.00     0.055 A 
ATOM     78  C   UNL A   1      43.280  23.770  25.261  1.00  0.00     0.041 A 
ATOM     79  F   UNL A   1      43.954  25.823  26.171  1.00  0.00    -0.206 F 
ATOM     80  C   UNL A   1      42.551  22.590  25.354  1.00  0.00     0.022 A 
BRANCH  77  81
ATOM     81  S   UNL A   1      40.862  20.804  26.673  1.00  0.00     0.124 S 
ATOM     82  O   UNL A   1      40.835  20.667  28.125  1.00  0.00    -0.237 OA
ATOM     83  O   UNL A   1      39.581  21.080  26.030  1.00  0.00    -0.237 OA
ATOM     84  O   UNL A   1      41.717  19.850  25.970  1.00  0.00    -0.744 OA
ENDBRANCH  77  81
ENDBRANCH  50  74
BRANCH  62  85
ATOM     85  C   UNL A   1      46.535  25.679  32.881  1.00  0.00     0.023 A 
ATOM     86  C   UNL A   1      46.417  24.660  33.844  1.00  0.00     0.031 A 
ATOM     87  C   UNL A   1      47.826  26.024  32.442  1.00  0.00     0.131 A 
ATOM     88  C   UNL A   1      47.570  24.080  34.394  1.00  0.00     0.055 A 
ATOM     89  C   UNL A   1      48.967  25.392  32.941  1.00  0.00     0.041 A 
ATOM     90  F   UNL A   1      48.002  26.989  31.526  1.00  0.00    -0.206 F 
ATOM     91  C   UNL A   1      48.844  24.428  33.937  1.00  0.00     0.022 A 
BRANCH  88  92
ATOM     92  S   UNL A   1      47.389  22.959  35.809  1.00  0.00     0.124 S 
ATOM     93  O   UNL A   1      48.671  22.261  35.810  1.00  0.00    -0.237 OA
ATOM     94  O   UNL A   1      47.168  23.887  36.914  1.00  0.00    -0.237 OA
ATOM     95  O   UNL A   1      46.236  22.136  35.451  1.00  0.00    -0.744 OA
ENDBRANCH  88  92
ENDBRANCH  62  85
ENDBRANCH  36  37
ENDBRANCH  28  31
ENDBRANCH  26  27
ENDBRANCH  25  26
ENDBRANCH   1  25
TORSDOF 17
ENDMDL
MODEL 2
REMARK VINA RESULT:     -10.8      5.638      8.965
REMARK SMILES CC(C)(C)c1csc(C[NH2+][C@H]2CCC[C@@H](C(=O)NCCCNC(=O)c3ccc(-c4c5nc(c(-c6cc(S(=O)(=O)[O-])ccc6F)c6ccc([nH]6)c(-c6cc(S(=O)(=O)[O-])ccc6F)c6nc(c(-c7cc(S(=O)(=O)[O-])ccc7F)c7ccc4[nH]7)C=C6)C=C5)cc3)C2)n1
REMARK SMILES IDX 19 1 18 2 16 3 17 4 15 6 11 7 12 8 88 9 13 10 14 11 10 12
REMARK SMILES IDX 9 15 8 16 5 17 6 18 89 19 7 20 2 21 1 22 3 23 4 24 20 25
REMARK SMILES IDX 21 26 22 27 23 28 24 30 25 31 26 32 87 33 27 34 86 35 28 36
REMARK SMILES IDX 29 37 30 38 80 39 31 40 85 41 79 42 81 43 32 44 84 45 78 46
REMARK SMILES IDX 77 47 33 49 65 50 45 51 64 52 46 53 49 54 63 55 82 56 47 57
REMARK SMILES IDX 48 58 62 60 83 61 50 62 34 63 35 64 43 65 36 66 42 67 44 68
REMARK SMILES IDX 41 69 37 70 38 71 39 72 40 73 66 74 67 75 75 76 68 77 74 78
REMARK SMILES IDX 76 79 73 80 69 81 70 82 71 83 72 84 51 85 52 86 60 87 53 88
REMARK SMILES IDX 59 89 61 90 58 91 54 92 55 93 56 94 57 95
REMARK H PARENT 18 5 10 13 10 14 22 29 81 48 49 59
REMARK Flexibility Score: inf
ROOT
ATOM      1  C   UNL A   1      36.862  20.318  24.999  1.00  0.00     0.117 C 
ENDROOT
BRANCH   1   2
ATOM      2  N   UNL A   1      37.024  21.692  25.436  1.00  0.00    -0.356 N 
ATOM      3  C   UNL A   1      36.088  22.583  25.864  1.00  0.00     0.223 C 
ATOM      4  O   UNL A   1      36.390  23.776  25.876  1.00  0.00    -0.275 OA
ATOM      5  H   UNL A   1      37.948  22.031  25.419  1.00  0.00     0.163 HD
BRANCH   3   6
ATOM      6  C   UNL A   1      34.759  22.084  26.418  1.00  0.00     0.084 C 
ATOM      7  C   UNL A   1      33.101  23.791  25.364  1.00  0.00     0.183 C 
ATOM      8  C   UNL A   1      32.402  22.599  24.693  1.00  0.00     0.065 C 
ATOM      9  C   UNL A   1      33.811  23.280  26.642  1.00  0.00     0.078 C 
ATOM     10  C   UNL A   1      33.384  21.497  24.314  1.00  0.00     0.007 C 
ATOM     11  C   UNL A   1      34.148  20.987  25.532  1.00  0.00     0.014 C 
BRANCH   7  12
ATOM     12  N   UNL A   1      34.058  24.516  24.520  1.00  0.00    -0.338 N 
ATOM     13  H   UNL A   1      34.598  25.140  25.120  1.00  0.00     0.346 HD
ATOM     14  H   UNL A   1      34.623  23.804  24.058  1.00  0.00     0.346 HD
BRANCH  12  15
ATOM     15  C   UNL A   1      33.460  25.320  23.448  1.00  0.00     0.329 C 
BRANCH  15  16
ATOM     16  C   UNL A   1      32.999  26.668  23.950  1.00  0.00     0.147 A 
ATOM     17  C   UNL A   1      32.559  28.328  25.372  1.00  0.00     0.057 A 
ATOM     18  C   UNL A   1      32.070  28.883  24.202  1.00  0.00     0.091 A 
ATOM     19  N   UNL A   1      33.122  27.070  25.200  1.00  0.00    -0.240 NA
ATOM     20  S   UNL A   1      32.277  27.807  22.886  1.00  0.00    -0.121 S 
BRANCH  17  21
ATOM     21  C   UNL A   1      32.581  28.965  26.756  1.00  0.00     0.005 C 
ATOM     22  C   UNL A   1      34.005  28.969  27.349  1.00  0.00     0.017 C 
ATOM     23  C   UNL A   1      31.651  28.176  27.696  1.00  0.00     0.017 C 
ATOM     24  C   UNL A   1      32.095  30.430  26.705  1.00  0.00     0.017 C 
ENDBRANCH  17  21
ENDBRANCH  15  16
ENDBRANCH  12  15
ENDBRANCH   7  12
ENDBRANCH   3   6
ENDBRANCH   1   2
BRANCH   1  25
ATOM     25  C   UNL A   1      38.211  19.602  24.947  1.00  0.00     0.042 C 
BRANCH  25  26
ATOM     26  C   UNL A   1      39.255  20.179  25.905  1.00  0.00     0.118 C 
BRANCH  26  27
ATOM     27  N   UNL A   1      40.385  19.285  26.095  1.00  0.00    -0.352 N 
ATOM     28  C   UNL A   1      41.717  19.564  26.271  1.00  0.00     0.251 C 
ATOM     29  H   UNL A   1      40.159  18.327  26.097  1.00  0.00     0.163 HD
ATOM     30  O   UNL A   1      42.528  18.639  26.201  1.00  0.00    -0.269 OA
BRANCH  28  31
ATOM     31  C   UNL A   1      42.184  20.944  26.527  1.00  0.00     0.039 A 
ATOM     32  C   UNL A   1      42.357  21.802  25.438  1.00  0.00     0.014 A 
ATOM     33  C   UNL A   1      42.510  21.381  27.814  1.00  0.00     0.014 A 
ATOM     34  C   UNL A   1      42.819  23.104  25.642  1.00  0.00     0.010 A 
ATOM     35  C   UNL A   1      42.899  22.704  28.025  1.00  0.00     0.010 A 
ATOM     36  C   UNL A   1      43.075  23.574  26.939  1.00  0.00    -0.014 A 
BRANCH  36  37
ATOM     37  C   UNL A   1      43.560  24.963  27.163  1.00  0.00     0.031 A 
ATOM     38  C   UNL A   1      42.626  26.014  27.703  1.00  0.00     0.074 A 
ATOM     39  C   UNL A   1      44.832  25.283  26.855  1.00  0.00     0.049 A 
ATOM     40  N   UNL A   1      42.853  27.280  27.943  1.00  0.00    -0.248 NA
ATOM     41  C   UNL A   1      41.246  25.590  27.980  1.00  0.00     0.031 C 
ATOM     42  C   UNL A   1      45.820  24.364  26.284  1.00  0.00     0.029 A 
ATOM     43  N   UNL A   1      45.515  26.467  26.976  1.00  0.00    -0.354 N 
ATOM     44  C   UNL A   1      41.643  27.806  28.388  1.00  0.00     0.074 A 
ATOM     45  C   UNL A   1      40.673  26.734  28.317  1.00  0.00     0.031 C 
ATOM     46  C   UNL A   1      46.987  25.010  26.135  1.00  0.00     0.029 A 
ATOM     47  C   UNL A   1      46.824  26.396  26.561  1.00  0.00     0.049 A 
ATOM     48  H   UNL A   1      45.106  27.291  27.327  1.00  0.00     0.167 HD
ATOM     49  C   UNL A   1      41.372  29.058  28.837  1.00  0.00     0.034 A 
ATOM     50  C   UNL A   1      47.784  27.342  26.526  1.00  0.00     0.034 A 
ATOM     51  C   UNL A   1      42.356  30.113  28.912  1.00  0.00     0.049 A 
ATOM     52  C   UNL A   1      47.461  28.724  27.031  1.00  0.00     0.074 A 
ATOM     53  C   UNL A   1      42.203  31.403  29.390  1.00  0.00     0.029 A 
ATOM     54  N   UNL A   1      43.675  30.002  28.493  1.00  0.00    -0.354 N 
ATOM     55  N   UNL A   1      46.324  29.192  27.496  1.00  0.00    -0.248 NA
ATOM     56  C   UNL A   1      48.557  29.700  27.026  1.00  0.00     0.031 C 
ATOM     57  C   UNL A   1      43.410  32.089  29.202  1.00  0.00     0.029 A 
ATOM     58  C   UNL A   1      44.340  31.205  28.680  1.00  0.00     0.049 A 
ATOM     59  H   UNL A   1      44.081  29.187  28.118  1.00  0.00     0.167 HD
ATOM     60  C   UNL A   1      46.581  30.510  27.868  1.00  0.00     0.074 A 
ATOM     61  C   UNL A   1      47.985  30.749  27.596  1.00  0.00     0.031 C 
ATOM     62  C   UNL A   1      45.736  31.437  28.389  1.00  0.00     0.034 A 
BRANCH  49  63
ATOM     63  C   UNL A   1      39.948  29.350  29.257  1.00  0.00     0.023 A 
ATOM     64  C   UNL A   1      39.577  29.419  30.611  1.00  0.00     0.031 A 
ATOM     65  C   UNL A   1      38.941  29.528  28.291  1.00  0.00     0.131 A 
ATOM     66  C   UNL A   1      38.226  29.569  30.963  1.00  0.00     0.055 A 
ATOM     67  C   UNL A   1      37.612  29.766  28.648  1.00  0.00     0.041 A 
ATOM     68  F   UNL A   1      39.228  29.455  26.982  1.00  0.00    -0.206 F 
ATOM     69  C   UNL A   1      37.245  29.771  29.990  1.00  0.00     0.022 A 
BRANCH  66  70
ATOM     70  S   UNL A   1      37.753  29.344  32.699  1.00  0.00     0.124 S 
ATOM     71  O   UNL A   1      38.871  29.977  33.394  1.00  0.00    -0.237 OA
ATOM     72  O   UNL A   1      36.476  30.045  32.773  1.00  0.00    -0.237 OA
ATOM     73  O   UNL A   1      37.677  27.892  32.848  1.00  0.00    -0.744 OA
ENDBRANCH  66  70
ENDBRANCH  49  63
BRANCH  50  74
ATOM     74  C   UNL A   1      49.142  27.022  26.000  1.00  0.00     0.023 A 
ATOM     75  C   UNL A   1      49.526  27.404  24.705  1.00  0.00     0.031 A 
ATOM     76  C   UNL A   1      50.061  26.287  26.770  1.00  0.00     0.131 A 
ATOM     77  C   UNL A   1      50.772  27.007  24.197  1.00  0.00     0.055 A 
ATOM     78  C   UNL A   1      51.322  25.941  26.279  1.00  0.00     0.041 A 
ATOM     79  F   UNL A   1      49.749  25.903  28.017  1.00  0.00    -0.206 F 
ATOM     80  C   UNL A   1      51.678  26.288  24.981  1.00  0.00     0.022 A 
BRANCH  77  81
ATOM     81  S   UNL A   1      51.160  27.370  22.463  1.00  0.00     0.124 S 
ATOM     82  O   UNL A   1      52.461  26.729  22.308  1.00  0.00    -0.237 OA
ATOM     83  O   UNL A   1      50.045  26.736  21.766  1.00  0.00    -0.237 OA
ATOM     84  O   UNL A   1      51.172  28.830  22.415  1.00  0.00    -0.744 OA
ENDBRANCH  77  81
ENDBRANCH  50  74
BRANCH  62  85
ATOM     85  C   UNL A   1      46.333  32.781  28.735  1.00  0.00     0.023 A 
ATOM     86  C   UNL A   1      46.440  33.811  27.783  1.00  0.00     0.031 A 
ATOM     87  C   UNL A   1      46.844  33.019  30.024  1.00  0.00     0.131 A 
ATOM     88  C   UNL A   1      47.113  34.998  28.110  1.00  0.00     0.055 A 
ATOM     89  C   UNL A   1      47.450  34.230  30.364  1.00  0.00     0.041 A 
ATOM     90  F   UNL A   1      46.772  32.072  30.973  1.00  0.00    -0.206 F 
ATOM     91  C   UNL A   1      47.605  35.221  29.399  1.00  0.00     0.022 A 
BRANCH  88  92
ATOM     92  S   UNL A   1      47.456  36.195  26.790  1.00  0.00     0.124 S 
ATOM     93  O   UNL A   1      48.027  37.313  27.534  1.00  0.00    -0.237 OA
ATOM     94  O   UNL A   1      48.382  35.458  25.935  1.00  0.00    -0.237 OA
ATOM     95  O   UNL A   1      46.141  36.448  26.205  1.00  0.00    -0.744 OA
ENDBRANCH  88  92
ENDBRANCH  62  85
ENDBRANCH  36  37
ENDBRANCH  28  31
ENDBRANCH  26  27
ENDBRANCH  25  26
ENDBRANCH   1  25
TORSDOF 17
ENDMDL
MODEL 3
REMARK VINA RESULT:     -10.8      4.835      9.965
REMARK SMILES CC(C)(C)c1csc(C[NH2+][C@H]2CCC[C@@H](C(=O)NCCCNC(=O)c3ccc(-c4c5nc(c(-c6cc(S(=O)(=O)[O-])ccc6F)c6ccc([nH]6)c(-c6cc(S(=O)(=O)[O-])ccc6F)c6nc(c(-c7cc(S(=O)(=O)[O-])ccc7F)c7ccc4[nH]7)C=C6)C=C5)cc3)C2)n1
REMARK SMILES IDX 19 1 18 2 16 3 17 4 15 6 11 7 12 8 88 9 13 10 14 11 10 12
REMARK SMILES IDX 9 15 8 16 5 17 6 18 89 19 7 20 2 21 1 22 3 23 4 24 20 25
REMARK SMILES IDX 21 26 22 27 23 28 24 30 25 31 26 32 87 33 27 34 86 35 28 36
REMARK SMILES IDX 29 37 30 38 80 39 31 40 85 41 79 42 81 43 32 44 84 45 78 46
REMARK SMILES IDX 77 47 33 49 65 50 45 51 64 52 46 53 49 54 63 55 82 56 47 57
REMARK SMILES IDX 48 58 62 60 83 61 50 62 34 63 35 64 43 65 36 66 42 67 44 68
REMARK SMILES IDX 41 69 37 70 38 71 39 72 40 73 66 74 67 75 75 76 68 77 74 78
REMARK SMILES IDX 76 79 73 80 69 81 70 82 71 83 72 84 51 85 52 86 60 87 53 88
REMARK SMILES IDX 59 89 61 90 58 91 54 92 55 93 56 94 57 95
REMARK H PARENT 18 5 10 13 10 14 22 29 81 48 49 59
REMARK Flexibility Score: inf
ROOT
ATOM      1  C   UNL A   1      34.683  22.844  26.437  1.00  0.00     0.117 C 
ENDROOT
BRANCH   1   2
ATOM      2  N   UNL A   1      33.461  23.620  26.544  1.00  0.00    -0.356 N 
ATOM      3  C   UNL A   1      32.474  23.816  25.628  1.00  0.00     0.223 C 
ATOM      4  O   UNL A   1      31.700  24.757  25.806  1.00  0.00    -0.275 OA
ATOM      5  H   UNL A   1      33.326  24.072  27.408  1.00  0.00     0.163 HD
BRANCH   3   6
ATOM      6  C   UNL A   1      32.282  22.820  24.490  1.00  0.00     0.084 C 
ATOM      7  C   UNL A   1      31.840  24.421  22.486  1.00  0.00     0.183 C 
ATOM      8  C   UNL A   1      33.071  23.803  21.806  1.00  0.00     0.065 C 
ATOM      9  C   UNL A   1      31.262  23.382  23.478  1.00  0.00     0.078 C 
ATOM     10  C   UNL A   1      34.149  23.416  22.811  1.00  0.00     0.007 C 
ATOM     11  C   UNL A   1      33.619  22.426  23.844  1.00  0.00     0.014 C 
BRANCH   7  12
ATOM     12  N   UNL A   1      32.077  25.692  23.180  1.00  0.00    -0.338 N 
ATOM     13  H   UNL A   1      31.339  25.815  23.875  1.00  0.00     0.346 HD
ATOM     14  H   UNL A   1      33.010  25.624  23.586  1.00  0.00     0.346 HD
BRANCH  12  15
ATOM     15  C   UNL A   1      32.093  26.880  22.319  1.00  0.00     0.329 C 
BRANCH  15  16
ATOM     16  C   UNL A   1      31.254  27.998  22.891  1.00  0.00     0.147 A 
ATOM     17  C   UNL A   1      29.538  29.398  23.152  1.00  0.00     0.057 A 
ATOM     18  C   UNL A   1      30.394  29.890  24.123  1.00  0.00     0.091 A 
ATOM     19  N   UNL A   1      30.035  28.288  22.480  1.00  0.00    -0.240 NA
ATOM     20  S   UNL A   1      31.847  28.984  24.166  1.00  0.00    -0.121 S 
BRANCH  17  21
ATOM     21  C   UNL A   1      28.144  29.909  22.807  1.00  0.00     0.005 C 
ATOM     22  C   UNL A   1      27.783  31.158  23.639  1.00  0.00     0.017 C 
ATOM     23  C   UNL A   1      27.111  28.803  23.093  1.00  0.00     0.017 C 
ATOM     24  C   UNL A   1      28.045  30.298  21.316  1.00  0.00     0.017 C 
ENDBRANCH  17  21
ENDBRANCH  15  16
ENDBRANCH  12  15
ENDBRANCH   7  12
ENDBRANCH   3   6
ENDBRANCH   1   2
BRANCH   1  25
ATOM     25  C   UNL A   1      35.905  23.761  26.394  1.00  0.00     0.042 C 
BRANCH  25  26
ATOM     26  C   UNL A   1      36.929  23.377  25.324  1.00  0.00     0.118 C 
BRANCH  26  27
ATOM     27  N   UNL A   1      37.905  22.417  25.811  1.00  0.00    -0.352 N 
ATOM     28  C   UNL A   1      39.113  22.616  26.429  1.00  0.00     0.251 C 
ATOM     29  H   UNL A   1      37.660  21.473  25.675  1.00  0.00     0.163 HD
ATOM     30  O   UNL A   1      39.872  21.655  26.565  1.00  0.00    -0.269 OA
BRANCH  28  31
ATOM     31  C   UNL A   1      39.514  23.954  26.916  1.00  0.00     0.039 A 
ATOM     32  C   UNL A   1      40.099  24.844  26.011  1.00  0.00     0.014 A 
ATOM     33  C   UNL A   1      39.376  24.319  28.258  1.00  0.00     0.014 A 
ATOM     34  C   UNL A   1      40.511  26.107  26.443  1.00  0.00     0.010 A 
ATOM     35  C   UNL A   1      39.717  25.606  28.672  1.00  0.00     0.010 A 
ATOM     36  C   UNL A   1      40.305  26.508  27.772  1.00  0.00    -0.014 A 
BRANCH  36  37
ATOM     37  C   UNL A   1      40.735  27.855  28.236  1.00  0.00     0.031 A 
ATOM     38  C   UNL A   1      42.192  28.237  28.210  1.00  0.00     0.074 A 
ATOM     39  C   UNL A   1      39.817  28.723  28.706  1.00  0.00     0.049 A 
ATOM     40  N   UNL A   1      42.765  29.349  28.593  1.00  0.00    -0.248 NA
ATOM     41  C   UNL A   1      43.131  27.219  27.715  1.00  0.00     0.031 C 
ATOM     42  C   UNL A   1      38.382  28.454  28.823  1.00  0.00     0.029 A 
ATOM     43  N   UNL A   1      39.952  30.005  29.174  1.00  0.00    -0.354 N 
ATOM     44  C   UNL A   1      44.130  29.161  28.397  1.00  0.00     0.074 A 
ATOM     45  C   UNL A   1      44.299  27.803  27.926  1.00  0.00     0.031 C 
ATOM     46  C   UNL A   1      37.767  29.548  29.300  1.00  0.00     0.029 A 
ATOM     47  C   UNL A   1      38.763  30.582  29.559  1.00  0.00     0.049 A 
ATOM     48  H   UNL A   1      40.818  30.471  29.230  1.00  0.00     0.167 HD
ATOM     49  C   UNL A   1      45.145  30.046  28.569  1.00  0.00     0.034 A 
ATOM     50  C   UNL A   1      38.506  31.804  30.065  1.00  0.00     0.034 A 
ATOM     51  C   UNL A   1      44.957  31.402  29.030  1.00  0.00     0.049 A 
ATOM     52  C   UNL A   1      39.649  32.771  30.246  1.00  0.00     0.074 A 
ATOM     53  C   UNL A   1      45.905  32.396  29.199  1.00  0.00     0.029 A 
ATOM     54  N   UNL A   1      43.737  31.955  29.400  1.00  0.00    -0.354 N 
ATOM     55  N   UNL A   1      40.929  32.594  30.008  1.00  0.00    -0.248 NA
ATOM     56  C   UNL A   1      39.307  34.108  30.745  1.00  0.00     0.031 C 
ATOM     57  C   UNL A   1      45.270  33.526  29.729  1.00  0.00     0.029 A 
ATOM     58  C   UNL A   1      43.913  33.266  29.818  1.00  0.00     0.049 A 
ATOM     59  H   UNL A   1      42.872  31.484  29.369  1.00  0.00     0.167 HD
ATOM     60  C   UNL A   1      41.539  33.812  30.299  1.00  0.00     0.074 A 
ATOM     61  C   UNL A   1      40.481  34.716  30.705  1.00  0.00     0.031 C 
ATOM     62  C   UNL A   1      42.852  34.153  30.236  1.00  0.00     0.034 A 
BRANCH  49  63
ATOM     63  C   UNL A   1      46.547  29.557  28.279  1.00  0.00     0.023 A 
ATOM     64  C   UNL A   1      47.342  28.963  29.275  1.00  0.00     0.031 A 
ATOM     65  C   UNL A   1      47.110  29.719  27.001  1.00  0.00     0.131 A 
ATOM     66  C   UNL A   1      48.680  28.635  29.003  1.00  0.00     0.055 A 
ATOM     67  C   UNL A   1      48.414  29.309  26.713  1.00  0.00     0.041 A 
ATOM     68  F   UNL A   1      46.409  30.297  26.012  1.00  0.00    -0.206 F 
ATOM     69  C   UNL A   1      49.213  28.778  27.721  1.00  0.00     0.022 A 
BRANCH  66  70
ATOM     70  S   UNL A   1      49.754  28.162  30.386  1.00  0.00     0.124 S 
ATOM     71  O   UNL A   1      48.827  27.424  31.240  1.00  0.00    -0.237 OA
ATOM     72  O   UNL A   1      50.787  27.369  29.728  1.00  0.00    -0.237 OA
ATOM     73  O   UNL A   1      50.202  29.445  30.926  1.00  0.00    -0.744 OA
ENDBRANCH  66  70
ENDBRANCH  49  63
BRANCH  50  74
ATOM     74  C   UNL A   1      37.115  32.193  30.434  1.00  0.00     0.023 A 
ATOM     75  C   UNL A   1      36.232  32.717  29.476  1.00  0.00     0.031 A 
ATOM     76  C   UNL A   1      36.662  32.088  31.760  1.00  0.00     0.131 A 
ATOM     77  C   UNL A   1      34.961  33.167  29.867  1.00  0.00     0.055 A 
ATOM     78  C   UNL A   1      35.377  32.487  32.134  1.00  0.00     0.041 A 
ATOM     79  F   UNL A   1      37.462  31.586  32.714  1.00  0.00    -0.206 F 
ATOM     80  C   UNL A   1      34.524  33.043  31.188  1.00  0.00     0.022 A 
BRANCH  77  81
ATOM     81  S   UNL A   1      33.917  33.997  28.638  1.00  0.00     0.124 S 
ATOM     82  O   UNL A   1      33.499  32.879  27.799  1.00  0.00    -0.237 OA
ATOM     83  O   UNL A   1      32.881  34.593  29.476  1.00  0.00    -0.237 OA
ATOM     84  O   UNL A   1      34.827  34.948  28.004  1.00  0.00    -0.744 OA
ENDBRANCH  77  81
ENDBRANCH  50  74
BRANCH  62  85
ATOM     85  C   UNL A   1      43.199  35.584  30.576  1.00  0.00     0.023 A 
ATOM     86  C   UNL A   1      43.252  36.587  29.591  1.00  0.00     0.031 A 
ATOM     87  C   UNL A   1      43.525  35.940  31.897  1.00  0.00     0.131 A 
ATOM     88  C   UNL A   1      43.699  37.874  29.927  1.00  0.00     0.055 A 
ATOM     89  C   UNL A   1      43.900  37.241  32.238  1.00  0.00     0.041 A 
ATOM     90  F   UNL A   1      43.493  35.025  32.879  1.00  0.00    -0.206 F 
ATOM     91  C   UNL A   1      44.008  38.212  31.247  1.00  0.00     0.022 A 
BRANCH  88  92
ATOM     92  S   UNL A   1      43.999  39.066  28.591  1.00  0.00     0.124 S 
ATOM     93  O   UNL A   1      44.659  38.237  27.587  1.00  0.00    -0.237 OA
ATOM     94  O   UNL A   1      42.647  39.510  28.263  1.00  0.00    -0.237 OA
ATOM     95  O   UNL A   1      44.849  40.076  29.217  1.00  0.00    -0.744 OA
ENDBRANCH  88  92
ENDBRANCH  62  85
ENDBRANCH  36  37
ENDBRANCH  28  31
ENDBRANCH  26  27
ENDBRANCH  25  26
ENDBRANCH   1  25
TORSDOF 17
ENDMDL
