MODEL 1
REMARK VINA RESULT:     -12.2      0.000      0.000
REMARK SMILES O=C(NCCCNC(=O)c1ccccc1C[NH2+]C1CCCC1)c1ccc(-c2c3nc(c(-c4cc(S(=O)(=O)[O-])ccc4F)c4ccc([nH]4)c(-c4cc(S(=O)(=O)[O-])ccc4F)c4nc(c(-c5cc(S(=O)(=O)[O-])ccc5F)c5ccc2[nH]5)C=C4)C=C3)cc1
REMARK SMILES IDX 5 1 4 2 3 3 1 4 2 5 23 7 24 8 85 9 25 10 84 11 26 12 27 13
REMARK SMILES IDX 28 14 78 15 29 16 83 17 77 18 79 19 30 20 82 21 76 22 75 23
REMARK SMILES IDX 31 25 63 26 43 27 62 28 44 29 47 30 61 31 80 32 45 33 46 34
REMARK SMILES IDX 60 36 81 37 48 38 32 39 33 40 41 41 34 42 40 43 42 44 39 45
REMARK SMILES IDX 35 46 36 47 37 48 38 49 64 50 65 51 73 52 66 53 72 54 74 55
REMARK SMILES IDX 71 56 67 57 68 58 69 59 70 60 49 61 50 62 58 63 51 64 57 65
REMARK SMILES IDX 59 66 56 67 52 68 53 69 54 70 55 71 6 72 7 73 8 74 9 76
REMARK SMILES IDX 10 77 11 78 15 79 12 80 14 81 13 82 16 83 17 84 18 87 19 88
REMARK SMILES IDX 22 89 20 90 21 91
REMARK H PARENT 3 6 79 24 47 35 7 75 17 85 17 86
REMARK Flexibility Score: inf
ROOT
ATOM      1  C   UNL A   1      36.529  22.722  23.612  1.00  0.00     0.042 C 
ENDROOT
BRANCH   1   2
ATOM      2  C   UNL A   1      36.758  22.325  25.065  1.00  0.00     0.118 C 
BRANCH   2   3
ATOM      3  N   UNL A   1      37.745  21.264  25.257  1.00  0.00    -0.352 N 
ATOM      4  O   UNL A   1      39.681  20.274  25.858  1.00  0.00    -0.269 OA
ATOM      5  C   UNL A   1      38.972  21.278  25.888  1.00  0.00     0.251 C 
ATOM      6  H   UNL A   1      37.493  20.395  24.872  1.00  0.00     0.163 HD
BRANCH   5   7
ATOM      7  C   UNL A   1      39.455  22.507  26.555  1.00  0.00     0.039 A 
ATOM      8  C   UNL A   1      38.917  23.748  26.229  1.00  0.00     0.014 A 
ATOM      9  C   UNL A   1      40.498  22.427  27.483  1.00  0.00     0.014 A 
ATOM     10  C   UNL A   1      39.590  24.903  26.600  1.00  0.00     0.010 A 
ATOM     11  C   UNL A   1      41.083  23.601  27.975  1.00  0.00     0.010 A 
ATOM     12  C   UNL A   1      40.687  24.851  27.477  1.00  0.00    -0.014 A 
BRANCH  12  13
ATOM     13  C   UNL A   1      41.391  26.119  27.823  1.00  0.00     0.031 A 
ATOM     14  C   UNL A   1      42.726  26.462  27.209  1.00  0.00     0.074 A 
ATOM     15  C   UNL A   1      40.777  27.007  28.632  1.00  0.00     0.049 A 
ATOM     16  N   UNL A   1      43.451  27.544  27.361  1.00  0.00    -0.248 NA
ATOM     17  C   UNL A   1      43.338  25.459  26.327  1.00  0.00     0.031 C 
ATOM     18  C   UNL A   1      39.485  26.790  29.292  1.00  0.00     0.029 A 
ATOM     19  N   UNL A   1      41.123  28.282  29.000  1.00  0.00    -0.354 N 
ATOM     20  C   UNL A   1      44.618  27.334  26.629  1.00  0.00     0.074 A 
ATOM     21  C   UNL A   1      44.514  26.009  26.057  1.00  0.00     0.031 C 
ATOM     22  C   UNL A   1      39.107  27.920  29.904  1.00  0.00     0.029 A 
ATOM     23  C   UNL A   1      40.163  28.914  29.759  1.00  0.00     0.049 A 
ATOM     24  H   UNL A   1      41.975  28.704  28.747  1.00  0.00     0.167 HD
ATOM     25  C   UNL A   1      45.674  28.168  26.449  1.00  0.00     0.034 A 
ATOM     26  C   UNL A   1      40.135  30.151  30.290  1.00  0.00     0.034 A 
ATOM     27  C   UNL A   1      45.747  29.503  26.996  1.00  0.00     0.049 A 
ATOM     28  C   UNL A   1      41.308  31.062  30.061  1.00  0.00     0.074 A 
ATOM     29  C   UNL A   1      46.755  30.442  26.851  1.00  0.00     0.029 A 
ATOM     30  N   UNL A   1      44.772  30.093  27.790  1.00  0.00    -0.354 N 
ATOM     31  N   UNL A   1      42.405  30.838  29.376  1.00  0.00    -0.248 NA
ATOM     32  C   UNL A   1      41.239  32.391  30.679  1.00  0.00     0.031 C 
ATOM     33  C   UNL A   1      46.415  31.574  27.601  1.00  0.00     0.029 A 
ATOM     34  C   UNL A   1      45.164  31.372  28.159  1.00  0.00     0.049 A 
ATOM     35  H   UNL A   1      43.925  29.665  28.054  1.00  0.00     0.167 HD
ATOM     36  C   UNL A   1      43.154  32.006  29.470  1.00  0.00     0.074 A 
ATOM     37  C   UNL A   1      42.369  32.938  30.256  1.00  0.00     0.031 C 
ATOM     38  C   UNL A   1      44.379  32.283  28.958  1.00  0.00     0.034 A 
BRANCH  25  39
ATOM     39  C   UNL A   1      46.856  27.638  25.670  1.00  0.00     0.023 A 
ATOM     40  C   UNL A   1      47.097  28.007  24.334  1.00  0.00     0.031 A 
ATOM     41  C   UNL A   1      47.742  26.723  26.268  1.00  0.00     0.131 A 
ATOM     42  C   UNL A   1      48.150  27.410  23.621  1.00  0.00     0.055 A 
ATOM     43  C   UNL A   1      48.833  26.192  25.577  1.00  0.00     0.041 A 
ATOM     44  F   UNL A   1      47.553  26.318  27.533  1.00  0.00    -0.206 F 
ATOM     45  C   UNL A   1      49.034  26.523  24.241  1.00  0.00     0.022 A 
BRANCH  42  46
ATOM     46  S   UNL A   1      48.261  27.698  21.833  1.00  0.00     0.124 S 
ATOM     47  O   UNL A   1      48.447  26.340  21.325  1.00  0.00    -0.237 OA
ATOM     48  O   UNL A   1      46.977  28.320  21.534  1.00  0.00    -0.237 OA
ATOM     49  O   UNL A   1      49.426  28.570  21.697  1.00  0.00    -0.744 OA
ENDBRANCH  42  46
ENDBRANCH  25  39
BRANCH  26  50
ATOM     50  C   UNL A   1      38.968  30.588  31.107  1.00  0.00     0.023 A 
ATOM     51  C   UNL A   1      37.948  31.376  30.552  1.00  0.00     0.031 A 
ATOM     52  C   UNL A   1      38.868  30.237  32.465  1.00  0.00     0.131 A 
ATOM     53  C   UNL A   1      36.887  31.812  31.359  1.00  0.00     0.055 A 
ATOM     54  C   UNL A   1      37.784  30.630  33.250  1.00  0.00     0.041 A 
ATOM     55  F   UNL A   1      39.814  29.481  33.042  1.00  0.00    -0.206 F 
ATOM     56  C   UNL A   1      36.790  31.433  32.700  1.00  0.00     0.022 A 
BRANCH  53  57
ATOM     57  S   UNL A   1      35.662  32.944  30.647  1.00  0.00     0.124 S 
ATOM     58  O   UNL A   1      35.974  32.867  29.224  1.00  0.00    -0.237 OA
ATOM     59  O   UNL A   1      34.405  32.329  31.062  1.00  0.00    -0.237 OA
ATOM     60  O   UNL A   1      35.968  34.223  31.285  1.00  0.00    -0.744 OA
ENDBRANCH  53  57
ENDBRANCH  26  50
BRANCH  38  61
ATOM     61  C   UNL A   1      44.916  33.670  29.209  1.00  0.00     0.023 A 
ATOM     62  C   UNL A   1      44.604  34.745  28.358  1.00  0.00     0.031 A 
ATOM     63  C   UNL A   1      45.785  33.906  30.287  1.00  0.00     0.131 A 
ATOM     64  C   UNL A   1      45.211  35.993  28.561  1.00  0.00     0.055 A 
ATOM     65  C   UNL A   1      46.341  35.165  30.518  1.00  0.00     0.041 A 
ATOM     66  F   UNL A   1      46.117  32.913  31.128  1.00  0.00    -0.206 F 
ATOM     67  C   UNL A   1      46.067  36.213  29.643  1.00  0.00     0.022 A 
BRANCH  64  68
ATOM     68  S   UNL A   1      44.950  37.299  27.329  1.00  0.00     0.124 S 
ATOM     69  O   UNL A   1      46.083  37.101  26.431  1.00  0.00    -0.237 OA
ATOM     70  O   UNL A   1      43.639  36.956  26.786  1.00  0.00    -0.237 OA
ATOM     71  O   UNL A   1      44.991  38.528  28.118  1.00  0.00    -0.744 OA
ENDBRANCH  64  68
ENDBRANCH  38  61
ENDBRANCH  12  13
ENDBRANCH   5   7
ENDBRANCH   2   3
ENDBRANCH   1   2
BRANCH   1  72
ATOM     72  C   UNL A   1      35.335  23.630  23.394  1.00  0.00     0.118 C 
BRANCH  72  73
ATOM     73  N   UNL A   1      34.195  22.955  22.790  1.00  0.00    -0.352 N 
ATOM     74  C   UNL A   1      33.019  22.539  23.357  1.00  0.00     0.251 C 
ATOM     75  H   UNL A   1      34.283  22.768  21.827  1.00  0.00     0.163 HD
ATOM     76  O   UNL A   1      32.167  21.994  22.659  1.00  0.00    -0.269 OA
BRANCH  74  77
ATOM     77  C   UNL A   1      32.763  22.715  24.804  1.00  0.00     0.048 A 
ATOM     78  C   UNL A   1      32.175  23.934  25.170  1.00  0.00     0.014 A 
ATOM     79  C   UNL A   1      33.143  21.771  25.782  1.00  0.00     0.019 A 
ATOM     80  C   UNL A   1      31.911  24.208  26.509  1.00  0.00     0.001 A 
ATOM     81  C   UNL A   1      32.860  22.066  27.126  1.00  0.00     0.010 A 
ATOM     82  C   UNL A   1      32.248  23.272  27.484  1.00  0.00     0.001 A 
BRANCH  79  83
ATOM     83  C   UNL A   1      33.729  20.435  25.409  1.00  0.00     0.298 C 
BRANCH  83  84
ATOM     84  N   UNL A   1      33.052  19.254  25.952  1.00  0.00    -0.340 N 
ATOM     85  H   UNL A   1      32.116  19.512  26.262  1.00  0.00     0.346 HD
ATOM     86  H   UNL A   1      33.584  18.891  26.743  1.00  0.00     0.346 HD
BRANCH  84  87
ATOM     87  C   UNL A   1      32.957  18.222  24.908  1.00  0.00     0.182 C 
ATOM     88  C   UNL A   1      32.440  18.687  23.539  1.00  0.00     0.065 C 
ATOM     89  C   UNL A   1      34.322  17.642  24.538  1.00  0.00     0.065 C 
ATOM     90  C   UNL A   1      32.830  17.560  22.597  1.00  0.00     0.006 C 
ATOM     91  C   UNL A   1      34.090  16.939  23.199  1.00  0.00     0.006 C 
ENDBRANCH  84  87
ENDBRANCH  83  84
ENDBRANCH  79  83
ENDBRANCH  74  77
ENDBRANCH  72  73
ENDBRANCH   1  72
TORSDOF 16
ENDMDL
MODEL 2
REMARK VINA RESULT:     -12.2      5.563     10.777
REMARK SMILES O=C(NCCCNC(=O)c1ccccc1C[NH2+]C1CCCC1)c1ccc(-c2c3nc(c(-c4cc(S(=O)(=O)[O-])ccc4F)c4ccc([nH]4)c(-c4cc(S(=O)(=O)[O-])ccc4F)c4nc(c(-c5cc(S(=O)(=O)[O-])ccc5F)c5ccc2[nH]5)C=C4)C=C3)cc1
REMARK SMILES IDX 5 1 4 2 3 3 1 4 2 5 23 7 24 8 85 9 25 10 84 11 26 12 27 13
REMARK SMILES IDX 28 14 78 15 29 16 83 17 77 18 79 19 30 20 82 21 76 22 75 23
REMARK SMILES IDX 31 25 63 26 43 27 62 28 44 29 47 30 61 31 80 32 45 33 46 34
REMARK SMILES IDX 60 36 81 37 48 38 32 39 33 40 41 41 34 42 40 43 42 44 39 45
REMARK SMILES IDX 35 46 36 47 37 48 38 49 64 50 65 51 73 52 66 53 72 54 74 55
REMARK SMILES IDX 71 56 67 57 68 58 69 59 70 60 49 61 50 62 58 63 51 64 57 65
REMARK SMILES IDX 59 66 56 67 52 68 53 69 54 70 55 71 6 72 7 73 8 74 9 76
REMARK SMILES IDX 10 77 11 78 15 79 12 80 14 81 13 82 16 83 17 84 18 87 19 88
REMARK SMILES IDX 22 89 20 90 21 91
REMARK H PARENT 3 6 79 24 47 35 7 75 17 85 17 86
REMARK Flexibility Score: inf
ROOT
ATOM      1  C   UNL A   1      32.337  29.436  25.436  1.00  0.00     0.042 C 
ENDROOT
BRANCH   1   2
ATOM      2  C   UNL A   1      32.211  29.933  26.871  1.00  0.00     0.118 C 
BRANCH   2   3
ATOM      3  N   UNL A   1      32.174  31.387  27.010  1.00  0.00    -0.352 N 
ATOM      4  O   UNL A   1      32.850  33.467  27.565  1.00  0.00    -0.269 OA
ATOM      5  C   UNL A   1      33.132  32.275  27.454  1.00  0.00     0.251 C 
ATOM      6  H   UNL A   1      31.323  31.803  26.744  1.00  0.00     0.163 HD
BRANCH   5   7
ATOM      7  C   UNL A   1      34.476  31.791  27.840  1.00  0.00     0.039 A 
ATOM      8  C   UNL A   1      34.684  30.453  28.156  1.00  0.00     0.014 A 
ATOM      9  C   UNL A   1      35.536  32.699  27.941  1.00  0.00     0.014 A 
ATOM     10  C   UNL A   1      35.840  30.080  28.827  1.00  0.00     0.010 A 
ATOM     11  C   UNL A   1      36.758  32.283  28.485  1.00  0.00     0.010 A 
ATOM     12  C   UNL A   1      36.896  30.989  29.007  1.00  0.00    -0.014 A 
BRANCH  12  13
ATOM     13  C   UNL A   1      38.105  30.546  29.759  1.00  0.00     0.031 A 
ATOM     14  C   UNL A   1      38.302  30.917  31.209  1.00  0.00     0.074 A 
ATOM     15  C   UNL A   1      38.989  29.728  29.151  1.00  0.00     0.049 A 
ATOM     16  N   UNL A   1      39.268  30.574  32.026  1.00  0.00    -0.248 NA
ATOM     17  C   UNL A   1      37.298  31.801  31.818  1.00  0.00     0.031 C 
ATOM     18  C   UNL A   1      38.912  29.301  27.750  1.00  0.00     0.029 A 
ATOM     19  N   UNL A   1      40.092  29.071  29.634  1.00  0.00    -0.354 N 
ATOM     20  C   UNL A   1      39.011  31.231  33.227  1.00  0.00     0.074 A 
ATOM     21  C   UNL A   1      37.812  32.014  33.022  1.00  0.00     0.031 C 
ATOM     22  C   UNL A   1      39.864  28.387  27.515  1.00  0.00     0.029 A 
ATOM     23  C   UNL A   1      40.674  28.228  28.715  1.00  0.00     0.049 A 
ATOM     24  H   UNL A   1      40.434  29.193  30.549  1.00  0.00     0.167 HD
ATOM     25  C   UNL A   1      39.707  31.183  34.391  1.00  0.00     0.034 A 
ATOM     26  C   UNL A   1      41.748  27.421  28.819  1.00  0.00     0.034 A 
ATOM     27  C   UNL A   1      40.883  30.366  34.593  1.00  0.00     0.049 A 
ATOM     28  C   UNL A   1      42.491  27.371  30.124  1.00  0.00     0.074 A 
ATOM     29  C   UNL A   1      41.646  30.220  35.740  1.00  0.00     0.029 A 
ATOM     30  N   UNL A   1      41.464  29.554  33.627  1.00  0.00    -0.354 N 
ATOM     31  N   UNL A   1      42.237  28.009  31.243  1.00  0.00    -0.248 NA
ATOM     32  C   UNL A   1      43.666  26.494  30.179  1.00  0.00     0.031 C 
ATOM     33  C   UNL A   1      42.717  29.365  35.451  1.00  0.00     0.029 A 
ATOM     34  C   UNL A   1      42.585  28.923  34.145  1.00  0.00     0.049 A 
ATOM     35  H   UNL A   1      41.128  29.443  32.708  1.00  0.00     0.167 HD
ATOM     36  C   UNL A   1      43.216  27.599  32.141  1.00  0.00     0.074 A 
ATOM     37  C   UNL A   1      44.046  26.640  31.439  1.00  0.00     0.031 C 
ATOM     38  C   UNL A   1      43.414  27.983  33.428  1.00  0.00     0.034 A 
BRANCH  25  39
ATOM     39  C   UNL A   1      39.244  32.077  35.519  1.00  0.00     0.023 A 
ATOM     40  C   UNL A   1      39.655  33.417  35.628  1.00  0.00     0.031 A 
ATOM     41  C   UNL A   1      38.396  31.567  36.519  1.00  0.00     0.131 A 
ATOM     42  C   UNL A   1      39.279  34.177  36.748  1.00  0.00     0.055 A 
ATOM     43  C   UNL A   1      37.963  32.351  37.591  1.00  0.00     0.041 A 
ATOM     44  F   UNL A   1      37.986  30.289  36.481  1.00  0.00    -0.206 F 
ATOM     45  C   UNL A   1      38.417  33.660  37.718  1.00  0.00     0.022 A 
BRANCH  42  46
ATOM     46  S   UNL A   1      40.050  35.801  36.995  1.00  0.00     0.124 S 
ATOM     47  O   UNL A   1      41.463  35.445  37.105  1.00  0.00    -0.237 OA
ATOM     48  O   UNL A   1      39.666  36.519  35.786  1.00  0.00    -0.237 OA
ATOM     49  O   UNL A   1      39.441  36.286  38.231  1.00  0.00    -0.744 OA
ENDBRANCH  42  46
ENDBRANCH  25  39
BRANCH  26  50
ATOM     50  C   UNL A   1      42.194  26.616  27.647  1.00  0.00     0.023 A 
ATOM     51  C   UNL A   1      41.842  25.263  27.519  1.00  0.00     0.031 A 
ATOM     52  C   UNL A   1      42.998  27.187  26.645  1.00  0.00     0.131 A 
ATOM     53  C   UNL A   1      42.318  24.519  26.430  1.00  0.00     0.055 A 
ATOM     54  C   UNL A   1      43.425  26.456  25.536  1.00  0.00     0.041 A 
ATOM     55  F   UNL A   1      43.358  28.478  26.717  1.00  0.00    -0.206 F 
ATOM     56  C   UNL A   1      43.095  25.109  25.430  1.00  0.00     0.022 A 
BRANCH  53  57
ATOM     57  S   UNL A   1      41.963  22.741  26.369  1.00  0.00     0.124 S 
ATOM     58  O   UNL A   1      42.551  22.363  25.090  1.00  0.00    -0.237 OA
ATOM     59  O   UNL A   1      42.651  22.255  27.561  1.00  0.00    -0.237 OA
ATOM     60  O   UNL A   1      40.504  22.683  26.428  1.00  0.00    -0.744 OA
ENDBRANCH  53  57
ENDBRANCH  26  50
BRANCH  38  61
ATOM     61  C   UNL A   1      44.557  27.324  34.158  1.00  0.00     0.023 A 
ATOM     62  C   UNL A   1      44.371  26.151  34.911  1.00  0.00     0.031 A 
ATOM     63  C   UNL A   1      45.837  27.903  34.135  1.00  0.00     0.131 A 
ATOM     64  C   UNL A   1      45.434  25.632  35.665  1.00  0.00     0.055 A 
ATOM     65  C   UNL A   1      46.905  27.349  34.841  1.00  0.00     0.041 A 
ATOM     66  F   UNL A   1      46.068  29.024  33.432  1.00  0.00    -0.206 F 
ATOM     67  C   UNL A   1      46.703  26.216  35.624  1.00  0.00     0.022 A 
BRANCH  64  68
ATOM     68  S   UNL A   1      45.108  24.243  36.786  1.00  0.00     0.124 S 
ATOM     69  O   UNL A   1      44.235  24.855  37.783  1.00  0.00    -0.237 OA
ATOM     70  O   UNL A   1      44.479  23.269  35.899  1.00  0.00    -0.237 OA
ATOM     71  O   UNL A   1      46.437  23.873  37.269  1.00  0.00    -0.744 OA
ENDBRANCH  64  68
ENDBRANCH  38  61
ENDBRANCH  12  13
ENDBRANCH   5   7
ENDBRANCH   2   3
ENDBRANCH   1   2
BRANCH   1  72
ATOM     72  C   UNL A   1      33.647  28.736  25.130  1.00  0.00     0.118 C 
BRANCH  72  73
ATOM     73  N   UNL A   1      34.031  28.812  23.728  1.00  0.00    -0.352 N 
ATOM     74  C   UNL A   1      33.806  27.927  22.707  1.00  0.00     0.251 C 
ATOM     75  H   UNL A   1      34.527  29.624  23.475  1.00  0.00     0.163 HD
ATOM     76  O   UNL A   1      34.204  28.190  21.575  1.00  0.00    -0.269 OA
BRANCH  74  77
ATOM     77  C   UNL A   1      33.109  26.643  22.947  1.00  0.00     0.048 A 
ATOM     78  C   UNL A   1      33.927  25.576  23.345  1.00  0.00     0.014 A 
ATOM     79  C   UNL A   1      31.728  26.453  22.724  1.00  0.00     0.019 A 
ATOM     80  C   UNL A   1      33.373  24.320  23.577  1.00  0.00     0.001 A 
ATOM     81  C   UNL A   1      31.190  25.179  22.970  1.00  0.00     0.010 A 
ATOM     82  C   UNL A   1      32.006  24.125  23.394  1.00  0.00     0.001 A 
BRANCH  79  83
ATOM     83  C   UNL A   1      30.822  27.595  22.346  1.00  0.00     0.298 C 
BRANCH  83  84
ATOM     84  N   UNL A   1      29.759  27.925  23.299  1.00  0.00    -0.340 N 
ATOM     85  H   UNL A   1      30.110  27.814  24.250  1.00  0.00     0.346 HD
ATOM     86  H   UNL A   1      28.966  27.301  23.154  1.00  0.00     0.346 HD
BRANCH  84  87
ATOM     87  C   UNL A   1      29.333  29.318  23.092  1.00  0.00     0.182 C 
ATOM     88  C   UNL A   1      29.836  29.999  21.812  1.00  0.00     0.065 C 
ATOM     89  C   UNL A   1      27.819  29.444  22.931  1.00  0.00     0.065 C 
ATOM     90  C   UNL A   1      28.939  31.218  21.667  1.00  0.00     0.006 C 
ATOM     91  C   UNL A   1      27.612  30.831  22.318  1.00  0.00     0.006 C 
ENDBRANCH  84  87
ENDBRANCH  83  84
ENDBRANCH  79  83
ENDBRANCH  74  77
ENDBRANCH  72  73
ENDBRANCH   1  72
TORSDOF 16
ENDMDL
MODEL 3
REMARK VINA RESULT:     -12.1      5.473     10.750
REMARK SMILES O=C(NCCCNC(=O)c1ccccc1C[NH2+]C1CCCC1)c1ccc(-c2c3nc(c(-c4cc(S(=O)(=O)[O-])ccc4F)c4ccc([nH]4)c(-c4cc(S(=O)(=O)[O-])ccc4F)c4nc(c(-c5cc(S(=O)(=O)[O-])ccc5F)c5ccc2[nH]5)C=C4)C=C3)cc1
REMARK SMILES IDX 5 1 4 2 3 3 1 4 2 5 23 7 24 8 85 9 25 10 84 11 26 12 27 13
REMARK SMILES IDX 28 14 78 15 29 16 83 17 77 18 79 19 30 20 82 21 76 22 75 23
REMARK SMILES IDX 31 25 63 26 43 27 62 28 44 29 47 30 61 31 80 32 45 33 46 34
REMARK SMILES IDX 60 36 81 37 48 38 32 39 33 40 41 41 34 42 40 43 42 44 39 45
REMARK SMILES IDX 35 46 36 47 37 48 38 49 64 50 65 51 73 52 66 53 72 54 74 55
REMARK SMILES IDX 71 56 67 57 68 58 69 59 70 60 49 61 50 62 58 63 51 64 57 65
REMARK SMILES IDX 59 66 56 67 52 68 53 69 54 70 55 71 6 72 7 73 8 74 9 76
REMARK SMILES IDX 10 77 11 78 15 79 12 80 14 81 13 82 16 83 17 84 18 87 19 88
REMARK SMILES IDX 22 89 20 90 21 91
REMARK H PARENT 3 6 79 24 47 35 7 75 17 85 17 86
REMARK Flexibility Score: inf
ROOT
ATOM      1  C   UNL A   1      31.671  29.238  26.983  1.00  0.00     0.042 C 
ENDROOT
BRANCH   1   2
ATOM      2  C   UNL A   1      32.550  30.268  26.284  1.00  0.00     0.118 C 
BRANCH   2   3
ATOM      3  N   UNL A   1      32.423  31.628  26.802  1.00  0.00    -0.352 N 
ATOM      4  O   UNL A   1      32.942  33.503  27.945  1.00  0.00    -0.269 OA
ATOM      5  C   UNL A   1      33.296  32.396  27.544  1.00  0.00     0.251 C 
ATOM      6  H   UNL A   1      31.572  32.072  26.586  1.00  0.00     0.163 HD
BRANCH   5   7
ATOM      7  C   UNL A   1      34.635  31.872  27.899  1.00  0.00     0.039 A 
ATOM      8  C   UNL A   1      34.809  30.528  28.209  1.00  0.00     0.014 A 
ATOM      9  C   UNL A   1      35.723  32.747  27.973  1.00  0.00     0.014 A 
ATOM     10  C   UNL A   1      35.969  30.121  28.854  1.00  0.00     0.010 A 
ATOM     11  C   UNL A   1      36.945  32.295  28.488  1.00  0.00     0.010 A 
ATOM     12  C   UNL A   1      37.056  30.997  29.008  1.00  0.00    -0.014 A 
BRANCH  12  13
ATOM     13  C   UNL A   1      38.269  30.518  29.731  1.00  0.00     0.031 A 
ATOM     14  C   UNL A   1      38.504  30.870  31.179  1.00  0.00     0.074 A 
ATOM     15  C   UNL A   1      39.121  29.685  29.097  1.00  0.00     0.049 A 
ATOM     16  N   UNL A   1      39.478  30.496  31.973  1.00  0.00    -0.248 NA
ATOM     17  C   UNL A   1      37.534  31.772  31.817  1.00  0.00     0.031 C 
ATOM     18  C   UNL A   1      39.005  29.273  27.694  1.00  0.00     0.029 A 
ATOM     19  N   UNL A   1      40.217  28.997  29.551  1.00  0.00    -0.354 N 
ATOM     20  C   UNL A   1      39.262  31.148  33.185  1.00  0.00     0.074 A 
ATOM     21  C   UNL A   1      38.077  31.961  33.012  1.00  0.00     0.031 C 
ATOM     22  C   UNL A   1      39.930  28.339  27.431  1.00  0.00     0.029 A 
ATOM     23  C   UNL A   1      40.760  28.149  28.613  1.00  0.00     0.049 A 
ATOM     24  H   UNL A   1      40.580  29.102  30.460  1.00  0.00     0.167 HD
ATOM     25  C   UNL A   1      39.980  31.071  34.334  1.00  0.00     0.034 A 
ATOM     26  C   UNL A   1      41.815  27.315  28.688  1.00  0.00     0.034 A 
ATOM     27  C   UNL A   1      41.139  30.225  34.505  1.00  0.00     0.049 A 
ATOM     28  C   UNL A   1      42.583  27.235  29.977  1.00  0.00     0.074 A 
ATOM     29  C   UNL A   1      41.921  30.049  35.634  1.00  0.00     0.029 A 
ATOM     30  N   UNL A   1      41.680  29.408  33.520  1.00  0.00    -0.354 N 
ATOM     31  N   UNL A   1      42.367  27.868  31.106  1.00  0.00    -0.248 NA
ATOM     32  C   UNL A   1      43.737  26.329  30.000  1.00  0.00     0.031 C 
ATOM     33  C   UNL A   1      42.965  29.171  35.316  1.00  0.00     0.029 A 
ATOM     34  C   UNL A   1      42.796  28.745  34.009  1.00  0.00     0.049 A 
ATOM     35  H   UNL A   1      41.324  29.314  32.607  1.00  0.00     0.167 HD
ATOM     36  C   UNL A   1      43.354  27.426  31.981  1.00  0.00     0.074 A 
ATOM     37  C   UNL A   1      44.147  26.454  31.253  1.00  0.00     0.031 C 
ATOM     38  C   UNL A   1      43.587  27.792  33.267  1.00  0.00     0.034 A 
BRANCH  25  39
ATOM     39  C   UNL A   1      39.561  31.965  35.479  1.00  0.00     0.023 A 
ATOM     40  C   UNL A   1      38.798  31.489  36.561  1.00  0.00     0.031 A 
ATOM     41  C   UNL A   1      39.909  33.329  35.472  1.00  0.00     0.131 A 
ATOM     42  C   UNL A   1      38.348  32.380  37.548  1.00  0.00     0.055 A 
ATOM     43  C   UNL A   1      39.523  34.195  36.498  1.00  0.00     0.041 A 
ATOM     44  F   UNL A   1      40.618  33.847  34.458  1.00  0.00    -0.206 F 
ATOM     45  C   UNL A   1      38.725  33.725  37.537  1.00  0.00     0.022 A 
BRANCH  42  46
ATOM     46  S   UNL A   1      37.143  31.788  38.769  1.00  0.00     0.124 S 
ATOM     47  O   UNL A   1      37.905  31.889  40.011  1.00  0.00    -0.237 OA
ATOM     48  O   UNL A   1      36.046  32.736  38.615  1.00  0.00    -0.237 OA
ATOM     49  O   UNL A   1      36.855  30.423  38.333  1.00  0.00    -0.744 OA
ENDBRANCH  42  46
ENDBRANCH  25  39
BRANCH  26  50
ATOM     50  C   UNL A   1      42.218  26.511  27.500  1.00  0.00     0.023 A 
ATOM     51  C   UNL A   1      41.868  25.156  27.388  1.00  0.00     0.031 A 
ATOM     52  C   UNL A   1      42.978  27.085  26.465  1.00  0.00     0.131 A 
ATOM     53  C   UNL A   1      42.304  24.413  26.281  1.00  0.00     0.055 A 
ATOM     54  C   UNL A   1      43.364  26.355  25.341  1.00  0.00     0.041 A 
ATOM     55  F   UNL A   1      43.332  28.378  26.521  1.00  0.00    -0.206 F 
ATOM     56  C   UNL A   1      43.037  25.006  25.250  1.00  0.00     0.022 A 
BRANCH  53  57
ATOM     57  S   UNL A   1      41.957  22.633  26.237  1.00  0.00     0.124 S 
ATOM     58  O   UNL A   1      42.561  22.180  27.485  1.00  0.00    -0.237 OA
ATOM     59  O   UNL A   1      40.498  22.612  26.186  1.00  0.00    -0.237 OA
ATOM     60  O   UNL A   1      42.628  22.185  25.019  1.00  0.00    -0.744 OA
ENDBRANCH  53  57
ENDBRANCH  26  50
BRANCH  38  61
ATOM     61  C   UNL A   1      44.728  27.099  33.967  1.00  0.00     0.023 A 
ATOM     62  C   UNL A   1      44.530  25.921  34.709  1.00  0.00     0.031 A 
ATOM     63  C   UNL A   1      46.020  27.650  33.928  1.00  0.00     0.131 A 
ATOM     64  C   UNL A   1      45.595  25.369  35.437  1.00  0.00     0.055 A 
ATOM     65  C   UNL A   1      47.088  27.064  34.608  1.00  0.00     0.041 A 
ATOM     66  F   UNL A   1      46.263  28.775  33.236  1.00  0.00    -0.206 F 
ATOM     67  C   UNL A   1      46.875  25.926  35.380  1.00  0.00     0.022 A 
BRANCH  64  68
ATOM     68  S   UNL A   1      45.259  23.972  36.545  1.00  0.00     0.124 S 
ATOM     69  O   UNL A   1      44.334  23.169  35.751  1.00  0.00    -0.237 OA
ATOM     70  O   UNL A   1      46.588  23.405  36.743  1.00  0.00    -0.237 OA
ATOM     71  O   UNL A   1      44.673  24.605  37.725  1.00  0.00    -0.744 OA
ENDBRANCH  64  68
ENDBRANCH  38  61
ENDBRANCH  12  13
ENDBRANCH   5   7
ENDBRANCH   2   3
ENDBRANCH   1   2
BRANCH   1  72
ATOM     72  C   UNL A   1      32.270  27.847  27.047  1.00  0.00     0.118 C 
BRANCH  72  73
ATOM     73  N   UNL A   1      31.276  26.785  26.989  1.00  0.00    -0.352 N 
ATOM     74  C   UNL A   1      31.317  25.578  26.343  1.00  0.00     0.251 C 
ATOM     75  H   UNL A   1      30.447  26.962  27.491  1.00  0.00     0.163 HD
ATOM     76  O   UNL A   1      30.365  24.806  26.435  1.00  0.00    -0.269 OA
BRANCH  74  77
ATOM     77  C   UNL A   1      32.482  25.192  25.515  1.00  0.00     0.048 A 
ATOM     78  C   UNL A   1      33.454  24.416  26.162  1.00  0.00     0.014 A 
ATOM     79  C   UNL A   1      32.668  25.623  24.184  1.00  0.00     0.019 A 
ATOM     80  C   UNL A   1      34.599  24.017  25.479  1.00  0.00     0.001 A 
ATOM     81  C   UNL A   1      33.827  25.203  23.512  1.00  0.00     0.010 A 
ATOM     82  C   UNL A   1      34.782  24.406  24.153  1.00  0.00     0.001 A 
BRANCH  79  83
ATOM     83  C   UNL A   1      31.615  26.413  23.452  1.00  0.00     0.298 C 
BRANCH  83  84
ATOM     84  N   UNL A   1      31.748  27.871  23.496  1.00  0.00    -0.340 N 
ATOM     85  H   UNL A   1      32.248  28.192  22.667  1.00  0.00     0.346 HD
ATOM     86  H   UNL A   1      32.267  28.140  24.331  1.00  0.00     0.346 HD
BRANCH  84  87
ATOM     87  C   UNL A   1      30.410  28.483  23.530  1.00  0.00     0.182 C 
ATOM     88  C   UNL A   1      30.033  29.358  22.326  1.00  0.00     0.065 C 
ATOM     89  C   UNL A   1      29.293  27.441  23.512  1.00  0.00     0.065 C 
ATOM     90  C   UNL A   1      28.524  29.501  22.433  1.00  0.00     0.006 C 
ATOM     91  C   UNL A   1      28.039  28.228  23.126  1.00  0.00     0.006 C 
ENDBRANCH  84  87
ENDBRANCH  83  84
ENDBRANCH  79  83
ENDBRANCH  74  77
ENDBRANCH  72  73
ENDBRANCH   1  72
TORSDOF 16
ENDMDL
