MODEL 1
REMARK VINA RESULT:     -13.4      0.000      0.000
REMARK SMILES C[C@@H](NC1=[NH+]C(=O)/C(=C\c2ccccc2-n2cccn2)S1)C(=O)NCCCNC(=O)c1ccc(-c2c3nc(c(-c4cc(S(=O)(=O)[O-])ccc4F)c4ccc([nH]4)c(-c4cc(S(=O)(=O)[O-])ccc4F)c4nc(c(-c5cc(S(=O)(=O)[O-])ccc5F)c5ccc2[nH]5)C=C4)C=C3)cc1
REMARK SMILES IDX 26 1 25 2 24 3 22 4 23 5 2 7 1 8 3 9 4 10 5 12 21 13 6 14
REMARK SMILES IDX 8 16 7 17 9 18 10 19 11 20 15 21 12 22 14 23 13 24 16 25
REMARK SMILES IDX 17 26 20 27 18 28 19 29 27 30 28 31 29 32 30 34 31 35 32 36
REMARK SMILES IDX 93 37 33 38 92 39 34 40 35 41 36 42 86 43 37 44 91 45 85 46
REMARK SMILES IDX 87 47 38 48 90 49 84 50 83 51 39 53 71 54 51 55 70 56 52 57
REMARK SMILES IDX 55 58 69 59 88 60 53 61 54 62 68 64 89 65 56 66 40 67 41 68
REMARK SMILES IDX 49 69 42 70 48 71 50 72 47 73 43 74 44 75 45 76 46 77 72 78
REMARK SMILES IDX 73 79 81 80 74 81 80 82 82 83 79 84 75 85 76 86 77 87 78 88
REMARK SMILES IDX 57 89 58 90 66 91 59 92 65 93 67 94 64 95 60 96 61 97 62 98
REMARK SMILES IDX 63 99
REMARK H PARENT 24 6 3 11 5 15 28 33 87 52 55 63
REMARK Flexibility Score: inf
ROOT
ATOM      1  C   UNL A   1      33.930  29.852  26.725  1.00  0.00     0.042 C 
ENDROOT
BRANCH   1   2
ATOM      2  C   UNL A   1      33.214  28.920  25.745  1.00  0.00     0.118 C 
BRANCH   2   3
ATOM      3  N   UNL A   1      33.837  28.864  24.429  1.00  0.00    -0.352 N 
ATOM      4  C   UNL A   1      33.307  28.488  23.226  1.00  0.00     0.264 C 
ATOM      5  O   UNL A   1      34.019  28.583  22.223  1.00  0.00    -0.270 OA
ATOM      6  H   UNL A   1      34.782  29.139  24.403  1.00  0.00     0.163 HD
BRANCH   4   7
ATOM      7  C   UNL A   1      31.886  27.911  23.122  1.00  0.00     0.259 C 
ATOM      8  C   UNL A   1      30.984  28.964  22.465  1.00  0.00     0.069 C 
BRANCH   7   9
ATOM      9  N   UNL A   1      31.823  26.644  22.395  1.00  0.00    -0.257 N 
ATOM     10  C   UNL A   1      31.916  25.366  22.868  1.00  0.00     0.317 C 
ATOM     11  H   UNL A   1      31.696  26.723  21.423  1.00  0.00     0.306 HD
ATOM     12  N   UNL A   1      32.244  24.394  22.083  1.00  0.00    -0.200 N 
ATOM     13  S   UNL A   1      31.617  24.925  24.532  1.00  0.00     0.006 SA
ATOM     14  C   UNL A   1      32.351  23.170  22.725  1.00  0.00     0.346 C 
ATOM     15  H   UNL A   1      32.404  24.513  21.119  1.00  0.00     0.316 HD
ATOM     16  C   UNL A   1      32.151  23.305  24.208  1.00  0.00     0.110 C 
ATOM     17  O   UNL A   1      32.527  22.116  22.154  1.00  0.00    -0.240 OA
ATOM     18  C   UNL A   1      32.387  22.398  25.178  1.00  0.00     0.034 C 
BRANCH  18  19
ATOM     19  C   UNL A   1      33.047  21.078  25.031  1.00  0.00     0.002 A 
ATOM     20  C   UNL A   1      32.264  19.921  25.027  1.00  0.00     0.010 A 
ATOM     21  C   UNL A   1      34.439  20.911  24.873  1.00  0.00     0.072 A 
ATOM     22  C   UNL A   1      32.850  18.659  24.840  1.00  0.00     0.001 A 
ATOM     23  C   UNL A   1      35.025  19.663  24.625  1.00  0.00     0.029 A 
ATOM     24  C   UNL A   1      34.224  18.531  24.627  1.00  0.00     0.002 A 
BRANCH  21  25
ATOM     25  N   UNL A   1      35.295  22.014  24.946  1.00  0.00    -0.240 N 
ATOM     26  C   UNL A   1      35.859  22.682  23.889  1.00  0.00     0.115 A 
ATOM     27  N   UNL A   1      35.843  22.362  26.129  1.00  0.00    -0.177 NA
ATOM     28  C   UNL A   1      36.984  23.277  24.388  1.00  0.00     0.042 A 
ATOM     29  C   UNL A   1      36.930  23.040  25.771  1.00  0.00     0.135 A 
ENDBRANCH  21  25
ENDBRANCH  18  19
ENDBRANCH   7   9
ENDBRANCH   4   7
ENDBRANCH   2   3
ENDBRANCH   1   2
BRANCH   1  30
ATOM     30  C   UNL A   1      35.006  29.177  27.570  1.00  0.00     0.118 C 
BRANCH  30  31
ATOM     31  N   UNL A   1      35.376  29.941  28.759  1.00  0.00    -0.352 N 
ATOM     32  C   UNL A   1      36.524  29.877  29.531  1.00  0.00     0.251 C 
ATOM     33  H   UNL A   1      34.709  30.601  29.056  1.00  0.00     0.163 HD
ATOM     34  O   UNL A   1      36.539  30.410  30.636  1.00  0.00    -0.269 OA
BRANCH  32  35
ATOM     35  C   UNL A   1      37.693  29.115  29.051  1.00  0.00     0.039 A 
ATOM     36  C   UNL A   1      38.368  29.527  27.901  1.00  0.00     0.014 A 
ATOM     37  C   UNL A   1      38.178  28.051  29.806  1.00  0.00     0.014 A 
ATOM     38  C   UNL A   1      39.608  28.964  27.614  1.00  0.00     0.010 A 
ATOM     39  C   UNL A   1      39.456  27.594  29.607  1.00  0.00     0.010 A 
ATOM     40  C   UNL A   1      40.174  28.041  28.508  1.00  0.00    -0.014 A 
BRANCH  40  41
ATOM     41  C   UNL A   1      41.592  27.715  28.431  1.00  0.00     0.031 A 
ATOM     42  C   UNL A   1      41.880  26.506  27.610  1.00  0.00     0.074 A 
ATOM     43  C   UNL A   1      42.584  28.534  28.839  1.00  0.00     0.049 A 
ATOM     44  N   UNL A   1      42.220  25.340  28.045  1.00  0.00    -0.248 NA
ATOM     45  C   UNL A   1      41.564  26.523  26.171  1.00  0.00     0.031 C 
ATOM     46  C   UNL A   1      42.491  29.892  29.379  1.00  0.00     0.029 A 
ATOM     47  N   UNL A   1      43.926  28.343  28.749  1.00  0.00    -0.354 N 
ATOM     48  C   UNL A   1      42.416  24.546  26.920  1.00  0.00     0.074 A 
ATOM     49  C   UNL A   1      41.780  25.248  25.839  1.00  0.00     0.031 C 
ATOM     50  C   UNL A   1      43.709  30.479  29.335  1.00  0.00     0.029 A 
ATOM     51  C   UNL A   1      44.691  29.493  28.917  1.00  0.00     0.049 A 
ATOM     52  H   UNL A   1      44.325  27.460  28.579  1.00  0.00     0.167 HD
ATOM     53  C   UNL A   1      43.297  23.504  26.947  1.00  0.00     0.034 A 
ATOM     54  C   UNL A   1      46.028  29.626  28.689  1.00  0.00     0.034 A 
ATOM     55  C   UNL A   1      43.697  23.215  28.311  1.00  0.00     0.049 A 
ATOM     56  C   UNL A   1      46.602  28.255  28.788  1.00  0.00     0.074 A 
ATOM     57  C   UNL A   1      43.011  22.888  29.467  1.00  0.00     0.029 A 
ATOM     58  N   UNL A   1      44.929  23.671  28.733  1.00  0.00    -0.354 N 
ATOM     59  N   UNL A   1      46.595  27.564  29.899  1.00  0.00    -0.248 NA
ATOM     60  C   UNL A   1      46.683  27.456  27.572  1.00  0.00     0.031 C 
ATOM     61  C   UNL A   1      43.634  23.668  30.486  1.00  0.00     0.029 A 
ATOM     62  C   UNL A   1      44.731  24.328  29.925  1.00  0.00     0.049 A 
ATOM     63  H   UNL A   1      45.789  23.550  28.269  1.00  0.00     0.167 HD
ATOM     64  C   UNL A   1      46.217  26.282  29.525  1.00  0.00     0.074 A 
ATOM     65  C   UNL A   1      46.378  26.252  28.070  1.00  0.00     0.031 C 
ATOM     66  C   UNL A   1      45.523  25.461  30.373  1.00  0.00     0.034 A 
BRANCH  53  67
ATOM     67  C   UNL A   1      44.096  22.988  25.769  1.00  0.00     0.023 A 
ATOM     68  C   UNL A   1      44.047  21.599  25.532  1.00  0.00     0.031 A 
ATOM     69  C   UNL A   1      45.102  23.690  25.071  1.00  0.00     0.131 A 
ATOM     70  C   UNL A   1      45.035  20.958  24.767  1.00  0.00     0.055 A 
ATOM     71  C   UNL A   1      46.042  23.055  24.252  1.00  0.00     0.041 A 
ATOM     72  F   UNL A   1      45.296  25.007  25.202  1.00  0.00    -0.206 F 
ATOM     73  C   UNL A   1      46.038  21.677  24.128  1.00  0.00     0.022 A 
BRANCH  70  74
ATOM     74  S   UNL A   1      45.096  19.148  24.799  1.00  0.00     0.124 S 
ATOM     75  O   UNL A   1      44.901  18.827  23.389  1.00  0.00    -0.237 OA
ATOM     76  O   UNL A   1      46.428  18.903  25.339  1.00  0.00    -0.237 OA
ATOM     77  O   UNL A   1      43.988  18.790  25.681  1.00  0.00    -0.744 OA
ENDBRANCH  70  74
ENDBRANCH  53  67
BRANCH  54  78
ATOM     78  C   UNL A   1      46.730  30.800  28.087  1.00  0.00     0.023 A 
ATOM     79  C   UNL A   1      46.109  31.709  27.199  1.00  0.00     0.031 A 
ATOM     80  C   UNL A   1      48.003  31.180  28.576  1.00  0.00     0.131 A 
ATOM     81  C   UNL A   1      46.758  32.920  26.840  1.00  0.00     0.055 A 
ATOM     82  C   UNL A   1      48.638  32.371  28.217  1.00  0.00     0.041 A 
ATOM     83  F   UNL A   1      48.645  30.442  29.496  1.00  0.00    -0.206 F 
ATOM     84  C   UNL A   1      48.013  33.252  27.354  1.00  0.00     0.022 A 
BRANCH  81  85
ATOM     85  S   UNL A   1      45.938  34.142  25.760  1.00  0.00     0.124 S 
ATOM     86  O   UNL A   1      47.056  34.681  24.995  1.00  0.00    -0.237 OA
ATOM     87  O   UNL A   1      44.983  33.322  25.024  1.00  0.00    -0.237 OA
ATOM     88  O   UNL A   1      45.332  35.080  26.705  1.00  0.00    -0.744 OA
ENDBRANCH  81  85
ENDBRANCH  54  78
BRANCH  66  89
ATOM     89  C   UNL A   1      45.380  25.850  31.834  1.00  0.00     0.023 A 
ATOM     90  C   UNL A   1      44.188  26.304  32.445  1.00  0.00     0.031 A 
ATOM     91  C   UNL A   1      46.482  25.600  32.673  1.00  0.00     0.131 A 
ATOM     92  C   UNL A   1      44.137  26.494  33.842  1.00  0.00     0.055 A 
ATOM     93  C   UNL A   1      46.420  25.762  34.057  1.00  0.00     0.041 A 
ATOM     94  F   UNL A   1      47.638  25.145  32.162  1.00  0.00    -0.206 F 
ATOM     95  C   UNL A   1      45.247  26.216  34.647  1.00  0.00     0.022 A 
BRANCH  92  96
ATOM     96  S   UNL A   1      42.629  27.128  34.647  1.00  0.00     0.124 S 
ATOM     97  O   UNL A   1      43.139  27.855  35.804  1.00  0.00    -0.237 OA
ATOM     98  O   UNL A   1      42.025  27.943  33.597  1.00  0.00    -0.237 OA
ATOM     99  O   UNL A   1      41.882  25.912  34.975  1.00  0.00    -0.744 OA
ENDBRANCH  92  96
ENDBRANCH  66  89
ENDBRANCH  40  41
ENDBRANCH  32  35
ENDBRANCH  30  31
ENDBRANCH   1  30
TORSDOF 16
ENDMDL
MODEL 2
REMARK VINA RESULT:     -13.0      1.382      1.691
REMARK SMILES C[C@@H](NC1=[NH+]C(=O)/C(=C\c2ccccc2-n2cccn2)S1)C(=O)NCCCNC(=O)c1ccc(-c2c3nc(c(-c4cc(S(=O)(=O)[O-])ccc4F)c4ccc([nH]4)c(-c4cc(S(=O)(=O)[O-])ccc4F)c4nc(c(-c5cc(S(=O)(=O)[O-])ccc5F)c5ccc2[nH]5)C=C4)C=C3)cc1
REMARK SMILES IDX 26 1 25 2 24 3 22 4 23 5 2 7 1 8 3 9 4 10 5 12 21 13 6 14
REMARK SMILES IDX 8 16 7 17 9 18 10 19 11 20 15 21 12 22 14 23 13 24 16 25
REMARK SMILES IDX 17 26 20 27 18 28 19 29 27 30 28 31 29 32 30 34 31 35 32 36
REMARK SMILES IDX 93 37 33 38 92 39 34 40 35 41 36 42 86 43 37 44 91 45 85 46
REMARK SMILES IDX 87 47 38 48 90 49 84 50 83 51 39 53 71 54 51 55 70 56 52 57
REMARK SMILES IDX 55 58 69 59 88 60 53 61 54 62 68 64 89 65 56 66 40 67 41 68
REMARK SMILES IDX 49 69 42 70 48 71 50 72 47 73 43 74 44 75 45 76 46 77 72 78
REMARK SMILES IDX 73 79 81 80 74 81 80 82 82 83 79 84 75 85 76 86 77 87 78 88
REMARK SMILES IDX 57 89 58 90 66 91 59 92 65 93 67 94 64 95 60 96 61 97 62 98
REMARK SMILES IDX 63 99
REMARK H PARENT 24 6 3 11 5 15 28 33 87 52 55 63
REMARK Flexibility Score: inf
ROOT
ATOM      1  C   UNL A   1      33.575  28.862  27.114  1.00  0.00     0.042 C 
ENDROOT
BRANCH   1   2
ATOM      2  C   UNL A   1      32.839  29.628  26.012  1.00  0.00     0.118 C 
BRANCH   2   3
ATOM      3  N   UNL A   1      33.394  29.418  24.682  1.00  0.00    -0.352 N 
ATOM      4  C   UNL A   1      32.952  28.615  23.667  1.00  0.00     0.264 C 
ATOM      5  O   UNL A   1      33.559  28.649  22.593  1.00  0.00    -0.270 OA
ATOM      6  H   UNL A   1      34.211  29.930  24.485  1.00  0.00     0.163 HD
BRANCH   4   7
ATOM      7  C   UNL A   1      31.766  27.657  23.862  1.00  0.00     0.259 C 
ATOM      8  C   UNL A   1      30.466  28.448  23.664  1.00  0.00     0.069 C 
BRANCH   7   9
ATOM      9  N   UNL A   1      31.807  26.492  22.979  1.00  0.00    -0.257 N 
ATOM     10  C   UNL A   1      31.894  25.166  23.294  1.00  0.00     0.317 C 
ATOM     11  H   UNL A   1      31.767  26.693  22.016  1.00  0.00     0.306 HD
ATOM     12  N   UNL A   1      32.321  24.309  22.427  1.00  0.00    -0.200 N 
ATOM     13  S   UNL A   1      31.459  24.510  24.853  1.00  0.00     0.006 SA
ATOM     14  C   UNL A   1      32.405  23.015  22.917  1.00  0.00     0.346 C 
ATOM     15  H   UNL A   1      32.564  24.552  21.504  1.00  0.00     0.316 HD
ATOM     16  C   UNL A   1      32.068  22.954  24.379  1.00  0.00     0.110 C 
ATOM     17  O   UNL A   1      32.664  22.045  22.236  1.00  0.00    -0.240 OA
ATOM     18  C   UNL A   1      32.241  21.936  25.245  1.00  0.00     0.034 C 
BRANCH  18  19
ATOM     19  C   UNL A   1      32.951  20.657  24.995  1.00  0.00     0.002 A 
ATOM     20  C   UNL A   1      32.206  19.491  24.801  1.00  0.00     0.010 A 
ATOM     21  C   UNL A   1      34.355  20.541  24.922  1.00  0.00     0.072 A 
ATOM     22  C   UNL A   1      32.844  18.273  24.513  1.00  0.00     0.001 A 
ATOM     23  C   UNL A   1      34.996  19.344  24.575  1.00  0.00     0.029 A 
ATOM     24  C   UNL A   1      34.232  18.203  24.389  1.00  0.00     0.002 A 
BRANCH  21  25
ATOM     25  N   UNL A   1      35.169  21.648  25.184  1.00  0.00    -0.240 N 
ATOM     26  C   UNL A   1      35.320  22.285  26.390  1.00  0.00     0.115 A 
ATOM     27  N   UNL A   1      35.701  22.347  24.161  1.00  0.00    -0.177 NA
ATOM     28  C   UNL A   1      35.724  23.554  26.087  1.00  0.00     0.042 A 
ATOM     29  C   UNL A   1      35.936  23.541  24.699  1.00  0.00     0.135 A 
ENDBRANCH  21  25
ENDBRANCH  18  19
ENDBRANCH   7   9
ENDBRANCH   4   7
ENDBRANCH   2   3
ENDBRANCH   1   2
BRANCH   1  30
ATOM     30  C   UNL A   1      35.053  29.214  27.250  1.00  0.00     0.118 C 
BRANCH  30  31
ATOM     31  N   UNL A   1      35.360  29.976  28.458  1.00  0.00    -0.352 N 
ATOM     32  C   UNL A   1      36.467  29.913  29.289  1.00  0.00     0.251 C 
ATOM     33  H   UNL A   1      34.678  30.636  28.721  1.00  0.00     0.163 HD
ATOM     34  O   UNL A   1      36.423  30.444  30.394  1.00  0.00    -0.269 OA
BRANCH  32  35
ATOM     35  C   UNL A   1      37.659  29.152  28.869  1.00  0.00     0.039 A 
ATOM     36  C   UNL A   1      38.402  29.576  27.765  1.00  0.00     0.014 A 
ATOM     37  C   UNL A   1      38.097  28.078  29.638  1.00  0.00     0.014 A 
ATOM     38  C   UNL A   1      39.655  29.013  27.545  1.00  0.00     0.010 A 
ATOM     39  C   UNL A   1      39.383  27.619  29.509  1.00  0.00     0.010 A 
ATOM     40  C   UNL A   1      40.165  28.078  28.460  1.00  0.00    -0.014 A 
BRANCH  40  41
ATOM     41  C   UNL A   1      41.585  27.747  28.462  1.00  0.00     0.031 A 
ATOM     42  C   UNL A   1      41.920  26.558  27.630  1.00  0.00     0.074 A 
ATOM     43  C   UNL A   1      42.551  28.552  28.951  1.00  0.00     0.049 A 
ATOM     44  N   UNL A   1      42.230  25.380  28.056  1.00  0.00    -0.248 NA
ATOM     45  C   UNL A   1      41.694  26.613  26.176  1.00  0.00     0.031 C 
ATOM     46  C   UNL A   1      42.429  29.896  29.518  1.00  0.00     0.029 A 
ATOM     47  N   UNL A   1      43.896  28.358  28.940  1.00  0.00    -0.354 N 
ATOM     48  C   UNL A   1      42.493  24.613  26.926  1.00  0.00     0.074 A 
ATOM     49  C   UNL A   1      41.927  25.345  25.826  1.00  0.00     0.031 C 
ATOM     50  C   UNL A   1      43.649  30.479  29.565  1.00  0.00     0.029 A 
ATOM     51  C   UNL A   1      44.653  29.500  29.183  1.00  0.00     0.049 A 
ATOM     52  H   UNL A   1      44.303  27.478  28.772  1.00  0.00     0.167 HD
ATOM     53  C   UNL A   1      43.368  23.568  26.981  1.00  0.00     0.034 A 
ATOM     54  C   UNL A   1      46.001  29.633  29.042  1.00  0.00     0.034 A 
ATOM     55  C   UNL A   1      43.682  23.243  28.359  1.00  0.00     0.049 A 
ATOM     56  C   UNL A   1      46.565  28.258  29.141  1.00  0.00     0.074 A 
ATOM     57  C   UNL A   1      42.925  22.890  29.462  1.00  0.00     0.029 A 
ATOM     58  N   UNL A   1      44.887  23.684  28.868  1.00  0.00    -0.354 N 
ATOM     59  N   UNL A   1      46.487  27.539  30.232  1.00  0.00    -0.248 NA
ATOM     60  C   UNL A   1      46.719  27.489  27.913  1.00  0.00     0.031 C 
ATOM     61  C   UNL A   1      43.486  23.642  30.537  1.00  0.00     0.029 A 
ATOM     62  C   UNL A   1      44.617  24.312  30.062  1.00  0.00     0.049 A 
ATOM     63  H   UNL A   1      45.773  23.571  28.455  1.00  0.00     0.167 HD
ATOM     64  C   UNL A   1      46.130  26.268  29.804  1.00  0.00     0.074 A 
ATOM     65  C   UNL A   1      46.380  26.274  28.361  1.00  0.00     0.031 C 
ATOM     66  C   UNL A   1      45.383  25.430  30.586  1.00  0.00     0.034 A 
BRANCH  53  67
ATOM     67  C   UNL A   1      44.237  23.078  25.842  1.00  0.00     0.023 A 
ATOM     68  C   UNL A   1      44.210  21.694  25.577  1.00  0.00     0.031 A 
ATOM     69  C   UNL A   1      45.277  23.799  25.216  1.00  0.00     0.131 A 
ATOM     70  C   UNL A   1      45.245  21.072  24.859  1.00  0.00     0.055 A 
ATOM     71  C   UNL A   1      46.267  23.184  24.442  1.00  0.00     0.041 A 
ATOM     72  F   UNL A   1      45.455  25.113  25.383  1.00  0.00    -0.206 F 
ATOM     73  C   UNL A   1      46.279  21.808  24.292  1.00  0.00     0.022 A 
BRANCH  70  74
ATOM     74  S   UNL A   1      45.315  19.263  24.861  1.00  0.00     0.124 S 
ATOM     75  O   UNL A   1      46.637  19.023  25.430  1.00  0.00    -0.237 OA
ATOM     76  O   UNL A   1      44.177  18.921  25.707  1.00  0.00    -0.237 OA
ATOM     77  O   UNL A   1      45.170  18.919  23.449  1.00  0.00    -0.744 OA
ENDBRANCH  70  74
ENDBRANCH  53  67
BRANCH  54  78
ATOM     78  C   UNL A   1      46.742  30.820  28.514  1.00  0.00     0.023 A 
ATOM     79  C   UNL A   1      47.918  31.333  29.108  1.00  0.00     0.031 A 
ATOM     80  C   UNL A   1      46.410  31.341  27.240  1.00  0.00     0.131 A 
ATOM     81  C   UNL A   1      48.692  32.316  28.438  1.00  0.00     0.055 A 
ATOM     82  C   UNL A   1      47.174  32.310  26.586  1.00  0.00     0.041 A 
ATOM     83  F   UNL A   1      45.369  30.862  26.540  1.00  0.00    -0.206 F 
ATOM     84  C   UNL A   1      48.326  32.795  27.179  1.00  0.00     0.022 A 
BRANCH  81  85
ATOM     85  S   UNL A   1      50.256  32.930  29.152  1.00  0.00     0.124 S 
ATOM     86  O   UNL A   1      51.149  31.792  28.970  1.00  0.00    -0.237 OA
ATOM     87  O   UNL A   1      50.532  34.109  28.341  1.00  0.00    -0.237 OA
ATOM     88  O   UNL A   1      49.906  33.218  30.544  1.00  0.00    -0.744 OA
ENDBRANCH  81  85
ENDBRANCH  54  78
BRANCH  66  89
ATOM     89  C   UNL A   1      45.151  25.783  32.044  1.00  0.00     0.023 A 
ATOM     90  C   UNL A   1      43.983  26.391  32.562  1.00  0.00     0.031 A 
ATOM     91  C   UNL A   1      46.111  25.337  32.972  1.00  0.00     0.131 A 
ATOM     92  C   UNL A   1      43.818  26.536  33.955  1.00  0.00     0.055 A 
ATOM     93  C   UNL A   1      45.933  25.456  34.349  1.00  0.00     0.041 A 
ATOM     94  F   UNL A   1      47.233  24.730  32.550  1.00  0.00    -0.206 F 
ATOM     95  C   UNL A   1      44.786  26.062  34.847  1.00  0.00     0.022 A 
BRANCH  92  96
ATOM     96  S   UNL A   1      42.347  27.364  34.644  1.00  0.00     0.124 S 
ATOM     97  O   UNL A   1      41.409  26.269  34.861  1.00  0.00    -0.237 OA
ATOM     98  O   UNL A   1      42.874  28.001  35.848  1.00  0.00    -0.237 OA
ATOM     99  O   UNL A   1      41.956  28.298  33.587  1.00  0.00    -0.744 OA
ENDBRANCH  92  96
ENDBRANCH  66  89
ENDBRANCH  40  41
ENDBRANCH  32  35
ENDBRANCH  30  31
ENDBRANCH   1  30
TORSDOF 16
ENDMDL
MODEL 3
REMARK VINA RESULT:     -12.9      2.615      7.230
REMARK SMILES C[C@@H](NC1=[NH+]C(=O)/C(=C\c2ccccc2-n2cccn2)S1)C(=O)NCCCNC(=O)c1ccc(-c2c3nc(c(-c4cc(S(=O)(=O)[O-])ccc4F)c4ccc([nH]4)c(-c4cc(S(=O)(=O)[O-])ccc4F)c4nc(c(-c5cc(S(=O)(=O)[O-])ccc5F)c5ccc2[nH]5)C=C4)C=C3)cc1
REMARK SMILES IDX 26 1 25 2 24 3 22 4 23 5 2 7 1 8 3 9 4 10 5 12 21 13 6 14
REMARK SMILES IDX 8 16 7 17 9 18 10 19 11 20 15 21 12 22 14 23 13 24 16 25
REMARK SMILES IDX 17 26 20 27 18 28 19 29 27 30 28 31 29 32 30 34 31 35 32 36
REMARK SMILES IDX 93 37 33 38 92 39 34 40 35 41 36 42 86 43 37 44 91 45 85 46
REMARK SMILES IDX 87 47 38 48 90 49 84 50 83 51 39 53 71 54 51 55 70 56 52 57
REMARK SMILES IDX 55 58 69 59 88 60 53 61 54 62 68 64 89 65 56 66 40 67 41 68
REMARK SMILES IDX 49 69 42 70 48 71 50 72 47 73 43 74 44 75 45 76 46 77 72 78
REMARK SMILES IDX 73 79 81 80 74 81 80 82 82 83 79 84 75 85 76 86 77 87 78 88
REMARK SMILES IDX 57 89 58 90 66 91 59 92 65 93 67 94 64 95 60 96 61 97 62 98
REMARK SMILES IDX 63 99
REMARK H PARENT 24 6 3 11 5 15 28 33 87 52 55 63
REMARK Flexibility Score: inf
ROOT
ATOM      1  C   UNL A   1      32.157  30.101  26.892  1.00  0.00     0.042 C 
ENDROOT
BRANCH   1   2
ATOM      2  C   UNL A   1      31.939  29.284  25.617  1.00  0.00     0.118 C 
BRANCH   2   3
ATOM      3  N   UNL A   1      31.292  30.031  24.547  1.00  0.00    -0.352 N 
ATOM      4  C   UNL A   1      30.287  29.654  23.700  1.00  0.00     0.264 C 
ATOM      5  O   UNL A   1      29.855  30.491  22.903  1.00  0.00    -0.270 OA
ATOM      6  H   UNL A   1      31.632  30.945  24.412  1.00  0.00     0.163 HD
BRANCH   4   7
ATOM      7  C   UNL A   1      29.739  28.218  23.697  1.00  0.00     0.259 C 
ATOM      8  C   UNL A   1      28.286  28.255  23.203  1.00  0.00     0.069 C 
BRANCH   7   9
ATOM      9  N   UNL A   1      30.539  27.291  22.897  1.00  0.00    -0.257 N 
ATOM     10  C   UNL A   1      31.342  26.264  23.303  1.00  0.00     0.317 C 
ATOM     11  H   UNL A   1      30.492  27.428  21.924  1.00  0.00     0.306 HD
ATOM     12  N   UNL A   1      32.275  25.812  22.532  1.00  0.00    -0.200 N 
ATOM     13  S   UNL A   1      31.204  25.482  24.859  1.00  0.00     0.006 SA
ATOM     14  C   UNL A   1      33.039  24.810  23.109  1.00  0.00     0.346 C 
ATOM     15  H   UNL A   1      32.428  26.148  21.619  1.00  0.00     0.316 HD
ATOM     16  C   UNL A   1      32.646  24.569  24.539  1.00  0.00     0.110 C 
ATOM     17  O   UNL A   1      33.880  24.169  22.516  1.00  0.00    -0.240 OA
ATOM     18  C   UNL A   1      33.283  23.844  25.480  1.00  0.00     0.034 C 
BRANCH  18  19
ATOM     19  C   UNL A   1      34.623  23.216  25.374  1.00  0.00     0.002 A 
ATOM     20  C   UNL A   1      35.762  24.017  25.488  1.00  0.00     0.010 A 
ATOM     21  C   UNL A   1      34.828  21.834  25.179  1.00  0.00     0.072 A 
ATOM     22  C   UNL A   1      37.046  23.449  25.442  1.00  0.00     0.001 A 
ATOM     23  C   UNL A   1      36.102  21.251  25.194  1.00  0.00     0.029 A 
ATOM     24  C   UNL A   1      37.214  22.070  25.308  1.00  0.00     0.002 A 
BRANCH  21  25
ATOM     25  N   UNL A   1      33.738  20.981  24.977  1.00  0.00    -0.240 N 
ATOM     26  C   UNL A   1      33.330  19.965  25.803  1.00  0.00     0.115 A 
ATOM     27  N   UNL A   1      33.131  20.943  23.773  1.00  0.00    -0.177 NA
ATOM     28  C   UNL A   1      32.639  19.098  25.006  1.00  0.00     0.042 A 
ATOM     29  C   UNL A   1      32.553  19.744  23.763  1.00  0.00     0.135 A 
ENDBRANCH  21  25
ENDBRANCH  18  19
ENDBRANCH   7   9
ENDBRANCH   4   7
ENDBRANCH   2   3
ENDBRANCH   1   2
BRANCH   1  30
ATOM     30  C   UNL A   1      33.606  30.155  27.369  1.00  0.00     0.118 C 
BRANCH  30  31
ATOM     31  N   UNL A   1      34.233  31.460  27.175  1.00  0.00    -0.352 N 
ATOM     32  C   UNL A   1      35.400  31.972  27.717  1.00  0.00     0.251 C 
ATOM     33  H   UNL A   1      33.754  32.068  26.566  1.00  0.00     0.163 HD
ATOM     34  O   UNL A   1      35.624  33.175  27.642  1.00  0.00    -0.269 OA
BRANCH  32  35
ATOM     35  C   UNL A   1      36.329  31.081  28.439  1.00  0.00     0.039 A 
ATOM     36  C   UNL A   1      36.347  29.715  28.151  1.00  0.00     0.014 A 
ATOM     37  C   UNL A   1      37.252  31.623  29.328  1.00  0.00     0.014 A 
ATOM     38  C   UNL A   1      37.396  28.941  28.640  1.00  0.00     0.010 A 
ATOM     39  C   UNL A   1      38.358  30.899  29.697  1.00  0.00     0.010 A 
ATOM     40  C   UNL A   1      38.432  29.555  29.362  1.00  0.00    -0.014 A 
BRANCH  40  41
ATOM     41  C   UNL A   1      39.697  28.861  29.571  1.00  0.00     0.031 A 
ATOM     42  C   UNL A   1      40.014  28.623  31.007  1.00  0.00     0.074 A 
ATOM     43  C   UNL A   1      40.407  28.266  28.591  1.00  0.00     0.049 A 
ATOM     44  N   UNL A   1      40.894  29.244  31.717  1.00  0.00    -0.248 NA
ATOM     45  C   UNL A   1      39.132  27.750  31.802  1.00  0.00     0.031 C 
ATOM     46  C   UNL A   1      40.081  28.131  27.170  1.00  0.00     0.029 A 
ATOM     47  N   UNL A   1      41.555  27.547  28.699  1.00  0.00    -0.354 N 
ATOM     48  C   UNL A   1      40.859  28.662  32.979  1.00  0.00     0.074 A 
ATOM     49  C   UNL A   1      39.621  27.932  33.031  1.00  0.00     0.031 C 
ATOM     50  C   UNL A   1      40.870  27.184  26.614  1.00  0.00     0.029 A 
ATOM     51  C   UNL A   1      41.859  26.761  27.591  1.00  0.00     0.049 A 
ATOM     52  H   UNL A   1      42.127  27.579  29.499  1.00  0.00     0.167 HD
ATOM     53  C   UNL A   1      41.971  28.640  33.768  1.00  0.00     0.034 A 
ATOM     54  C   UNL A   1      42.829  25.809  27.506  1.00  0.00     0.034 A 
ATOM     55  C   UNL A   1      42.987  29.527  33.235  1.00  0.00     0.049 A 
ATOM     56  C   UNL A   1      43.833  26.146  28.553  1.00  0.00     0.074 A 
ATOM     57  C   UNL A   1      43.022  30.876  32.927  1.00  0.00     0.029 A 
ATOM     58  N   UNL A   1      44.032  28.964  32.531  1.00  0.00    -0.354 N 
ATOM     59  N   UNL A   1      44.544  27.244  28.523  1.00  0.00    -0.248 NA
ATOM     60  C   UNL A   1      43.665  25.563  29.877  1.00  0.00     0.031 C 
ATOM     61  C   UNL A   1      43.700  30.939  31.673  1.00  0.00     0.029 A 
ATOM     62  C   UNL A   1      44.143  29.654  31.347  1.00  0.00     0.049 A 
ATOM     63  H   UNL A   1      44.594  28.209  32.822  1.00  0.00     0.167 HD
ATOM     64  C   UNL A   1      44.522  27.725  29.825  1.00  0.00     0.074 A 
ATOM     65  C   UNL A   1      44.047  26.599  30.633  1.00  0.00     0.031 C 
ATOM     66  C   UNL A   1      44.594  29.064  30.098  1.00  0.00     0.034 A 
BRANCH  53  67
ATOM     67  C   UNL A   1      42.319  27.571  34.783  1.00  0.00     0.023 A 
ATOM     68  C   UNL A   1      43.200  26.558  34.356  1.00  0.00     0.031 A 
ATOM     69  C   UNL A   1      41.640  27.319  35.994  1.00  0.00     0.131 A 
ATOM     70  C   UNL A   1      43.269  25.326  35.028  1.00  0.00     0.055 A 
ATOM     71  C   UNL A   1      41.766  26.116  36.699  1.00  0.00     0.041 A 
ATOM     72  F   UNL A   1      40.753  28.168  36.523  1.00  0.00    -0.206 F 
ATOM     73  C   UNL A   1      42.553  25.095  36.196  1.00  0.00     0.022 A 
BRANCH  70  74
ATOM     74  S   UNL A   1      44.156  23.967  34.224  1.00  0.00     0.124 S 
ATOM     75  O   UNL A   1      44.777  23.308  35.369  1.00  0.00    -0.237 OA
ATOM     76  O   UNL A   1      43.069  23.242  33.575  1.00  0.00    -0.237 OA
ATOM     77  O   UNL A   1      45.077  24.653  33.321  1.00  0.00    -0.744 OA
ENDBRANCH  70  74
ENDBRANCH  53  67
BRANCH  54  78
ATOM     78  C   UNL A   1      42.743  24.492  26.802  1.00  0.00     0.023 A 
ATOM     79  C   UNL A   1      43.765  23.987  25.966  1.00  0.00     0.031 A 
ATOM     80  C   UNL A   1      41.709  23.585  27.140  1.00  0.00     0.131 A 
ATOM     81  C   UNL A   1      43.721  22.644  25.508  1.00  0.00     0.055 A 
ATOM     82  C   UNL A   1      41.670  22.265  26.684  1.00  0.00     0.041 A 
ATOM     83  F   UNL A   1      40.737  23.925  28.001  1.00  0.00    -0.206 F 
ATOM     84  C   UNL A   1      42.682  21.785  25.873  1.00  0.00     0.022 A 
BRANCH  81  85
ATOM     85  S   UNL A   1      45.072  21.950  24.496  1.00  0.00     0.124 S 
ATOM     86  O   UNL A   1      44.607  20.591  24.245  1.00  0.00    -0.237 OA
ATOM     87  O   UNL A   1      45.100  22.849  23.348  1.00  0.00    -0.237 OA
ATOM     88  O   UNL A   1      46.240  22.047  25.372  1.00  0.00    -0.744 OA
ENDBRANCH  81  85
ENDBRANCH  54  78
BRANCH  66  89
ATOM     89  C   UNL A   1      44.959  30.032  28.987  1.00  0.00     0.023 A 
ATOM     90  C   UNL A   1      46.274  30.431  28.651  1.00  0.00     0.031 A 
ATOM     91  C   UNL A   1      43.920  30.448  28.133  1.00  0.00     0.131 A 
ATOM     92  C   UNL A   1      46.504  31.220  27.505  1.00  0.00     0.055 A 
ATOM     93  C   UNL A   1      44.154  31.204  26.985  1.00  0.00     0.041 A 
ATOM     94  F   UNL A   1      42.651  30.086  28.379  1.00  0.00    -0.206 F 
ATOM     95  C   UNL A   1      45.448  31.598  26.668  1.00  0.00     0.022 A 
BRANCH  92  96
ATOM     96  S   UNL A   1      48.182  31.791  27.080  1.00  0.00     0.124 S 
ATOM     97  O   UNL A   1      48.728  32.230  28.359  1.00  0.00    -0.237 OA
ATOM     98  O   UNL A   1      48.790  30.595  26.503  1.00  0.00    -0.237 OA
ATOM     99  O   UNL A   1      47.941  32.871  26.121  1.00  0.00    -0.744 OA
ENDBRANCH  92  96
ENDBRANCH  66  89
ENDBRANCH  40  41
ENDBRANCH  32  35
ENDBRANCH  30  31
ENDBRANCH   1  30
TORSDOF 16
ENDMDL
