MODEL 1
REMARK VINA RESULT:     -10.1      0.000      0.000
REMARK SMILES COC[C@@H](C)CC(=O)N1CC(CC(=O)NCCCNC(=O)c2ccc(-c3c4nc(c(-c5cc(S(=O)(=O)[O-])ccc5F)c5ccc([nH]5)c(-c5cc(S(=O)(=O)[O-])ccc5F)c5nc(c(-c6cc(S(=O)(=O)[O-])ccc6F)c6ccc3[nH]6)C=C5)C=C4)cc2)C1
REMARK SMILES IDX 16 1 15 2 13 3 14 4 12 6 11 7 7 8 8 9 9 10 10 11 85 12 6 13
REMARK SMILES IDX 4 14 5 15 3 16 2 17 1 18 17 19 18 20 19 21 20 22 21 24 22 25
REMARK SMILES IDX 23 26 84 27 24 28 83 29 25 30 26 31 27 32 77 33 28 34 82 35
REMARK SMILES IDX 76 36 78 37 29 38 81 39 75 40 74 41 30 43 62 44 42 45 61 46
REMARK SMILES IDX 43 47 46 48 60 49 79 50 44 51 45 52 59 54 80 55 47 56 31 57
REMARK SMILES IDX 32 58 40 59 33 60 39 61 41 62 38 63 34 64 35 65 36 66 37 67
REMARK SMILES IDX 63 68 64 69 72 70 65 71 71 72 73 73 70 74 66 75 67 76 68 77
REMARK SMILES IDX 69 78 48 79 49 80 57 81 50 82 56 83 58 84 55 85 51 86 52 87
REMARK SMILES IDX 53 88 54 89
REMARK H PARENT 15 5 19 23 78 42 46 53
REMARK Flexibility Score: inf
ROOT
ATOM      1  C   UNL A   1      32.958  35.788  29.328  1.00  0.00     0.117 C 
ENDROOT
BRANCH   1   2
ATOM      2  N   UNL A   1      33.102  36.916  30.238  1.00  0.00    -0.356 N 
ATOM      3  C   UNL A   1      33.099  36.983  31.600  1.00  0.00     0.220 C 
ATOM      4  O   UNL A   1      33.211  38.096  32.121  1.00  0.00    -0.275 OA
ATOM      5  H   UNL A   1      33.222  37.783  29.791  1.00  0.00     0.163 HD
BRANCH   3   6
ATOM      6  C   UNL A   1      32.926  35.747  32.467  1.00  0.00     0.107 C 
BRANCH   6   7
ATOM      7  C   UNL A   1      34.166  34.857  32.460  1.00  0.00     0.037 C 
ATOM      8  C   UNL A   1      36.266  33.083  34.351  1.00  0.00     0.222 C 
ATOM      9  O   UNL A   1      36.657  32.092  33.736  1.00  0.00    -0.275 OA
ATOM     10  N   UNL A   1      35.160  33.801  33.960  1.00  0.00    -0.342 N 
ATOM     11  C   UNL A   1      34.113  33.424  33.014  1.00  0.00     0.125 C 
ATOM     12  C   UNL A   1      35.137  35.196  33.583  1.00  0.00     0.125 C 
BRANCH   8  13
ATOM     13  C   UNL A   1      36.843  33.456  35.719  1.00  0.00     0.106 C 
BRANCH  13  14
ATOM     14  C   UNL A   1      38.205  32.885  36.165  1.00  0.00     0.021 C 
ATOM     15  C   UNL A   1      38.156  31.352  36.101  1.00  0.00     0.010 C 
BRANCH  14  16
ATOM     16  C   UNL A   1      38.593  33.350  37.578  1.00  0.00     0.163 C 
BRANCH  16  17
ATOM     17  O   UNL A   1      38.439  32.352  38.577  1.00  0.00    -0.384 OA
ATOM     18  C   UNL A   1      37.180  32.373  39.236  1.00  0.00     0.194 C 
ENDBRANCH  16  17
ENDBRANCH  14  16
ENDBRANCH  13  14
ENDBRANCH   8  13
ENDBRANCH   6   7
ENDBRANCH   3   6
ENDBRANCH   1   2
BRANCH   1  19
ATOM     19  C   UNL A   1      34.255  35.477  28.581  1.00  0.00     0.042 C 
BRANCH  19  20
ATOM     20  C   UNL A   1      34.884  34.118  28.864  1.00  0.00     0.118 C 
BRANCH  20  21
ATOM     21  N   UNL A   1      34.163  33.021  28.242  1.00  0.00    -0.352 N 
ATOM     22  C   UNL A   1      34.522  31.712  28.001  1.00  0.00     0.251 C 
ATOM     23  H   UNL A   1      33.256  33.255  27.937  1.00  0.00     0.163 HD
ATOM     24  O   UNL A   1      33.771  31.037  27.301  1.00  0.00    -0.269 OA
BRANCH  22  25
ATOM     25  C   UNL A   1      35.783  31.109  28.516  1.00  0.00     0.039 A 
ATOM     26  C   UNL A   1      35.688  29.956  29.312  1.00  0.00     0.014 A 
ATOM     27  C   UNL A   1      37.045  31.659  28.284  1.00  0.00     0.014 A 
ATOM     28  C   UNL A   1      36.840  29.326  29.803  1.00  0.00     0.010 A 
ATOM     29  C   UNL A   1      38.199  30.998  28.721  1.00  0.00     0.010 A 
ATOM     30  C   UNL A   1      38.111  29.828  29.490  1.00  0.00    -0.014 A 
BRANCH  30  31
ATOM     31  C   UNL A   1      39.349  29.174  30.002  1.00  0.00     0.031 A 
ATOM     32  C   UNL A   1      40.017  29.701  31.245  1.00  0.00     0.074 A 
ATOM     33  C   UNL A   1      39.908  28.146  29.330  1.00  0.00     0.049 A 
ATOM     34  N   UNL A   1      41.132  29.320  31.814  1.00  0.00    -0.248 NA
ATOM     35  C   UNL A   1      39.353  30.825  31.922  1.00  0.00     0.031 C 
ATOM     36  C   UNL A   1      39.386  27.566  28.094  1.00  0.00     0.029 A 
ATOM     37  N   UNL A   1      41.047  27.418  29.580  1.00  0.00    -0.354 N 
ATOM     38  C   UNL A   1      41.314  30.166  32.902  1.00  0.00     0.074 A 
ATOM     39  C   UNL A   1      40.215  31.108  32.886  1.00  0.00     0.031 C 
ATOM     40  C   UNL A   1      40.199  26.575  27.692  1.00  0.00     0.029 A 
ATOM     41  C   UNL A   1      41.322  26.470  28.620  1.00  0.00     0.049 A 
ATOM     42  H   UNL A   1      41.614  27.562  30.372  1.00  0.00     0.167 HD
ATOM     43  C   UNL A   1      42.297  30.151  33.837  1.00  0.00     0.034 A 
ATOM     44  C   UNL A   1      42.369  25.627  28.489  1.00  0.00     0.034 A 
ATOM     45  C   UNL A   1      43.377  29.194  33.858  1.00  0.00     0.049 A 
ATOM     46  C   UNL A   1      43.454  25.634  29.539  1.00  0.00     0.074 A 
ATOM     47  C   UNL A   1      44.374  29.044  34.807  1.00  0.00     0.029 A 
ATOM     48  N   UNL A   1      43.611  28.235  32.883  1.00  0.00    -0.354 N 
ATOM     49  N   UNL A   1      43.567  26.392  30.606  1.00  0.00    -0.248 NA
ATOM     50  C   UNL A   1      44.545  24.663  29.376  1.00  0.00     0.031 C 
ATOM     51  C   UNL A   1      45.247  28.041  34.372  1.00  0.00     0.029 A 
ATOM     52  C   UNL A   1      44.754  27.513  33.190  1.00  0.00     0.049 A 
ATOM     53  H   UNL A   1      43.047  28.088  32.089  1.00  0.00     0.167 HD
ATOM     54  C   UNL A   1      44.724  25.965  31.254  1.00  0.00     0.074 A 
ATOM     55  C   UNL A   1      45.262  24.875  30.470  1.00  0.00     0.031 C 
ATOM     56  C   UNL A   1      45.286  26.429  32.399  1.00  0.00     0.034 A 
BRANCH  43  57
ATOM     57  C   UNL A   1      42.265  31.223  34.898  1.00  0.00     0.023 A 
ATOM     58  C   UNL A   1      42.644  32.549  34.624  1.00  0.00     0.031 A 
ATOM     59  C   UNL A   1      41.857  30.911  36.207  1.00  0.00     0.131 A 
ATOM     60  C   UNL A   1      42.670  33.497  35.658  1.00  0.00     0.055 A 
ATOM     61  C   UNL A   1      41.812  31.877  37.214  1.00  0.00     0.041 A 
ATOM     62  F   UNL A   1      41.501  29.658  36.532  1.00  0.00    -0.206 F 
ATOM     63  C   UNL A   1      42.234  33.176  36.945  1.00  0.00     0.022 A 
BRANCH  60  64
ATOM     64  S   UNL A   1      43.398  35.124  35.325  1.00  0.00     0.124 S 
ATOM     65  O   UNL A   1      44.756  34.762  34.924  1.00  0.00    -0.237 OA
ATOM     66  O   UNL A   1      42.538  35.644  34.269  1.00  0.00    -0.237 OA
ATOM     67  O   UNL A   1      43.298  35.815  36.609  1.00  0.00    -0.744 OA
ENDBRANCH  60  64
ENDBRANCH  43  57
BRANCH  44  68
ATOM     68  C   UNL A   1      42.473  24.720  27.308  1.00  0.00     0.023 A 
ATOM     69  C   UNL A   1      41.916  23.431  27.329  1.00  0.00     0.031 A 
ATOM     70  C   UNL A   1      43.196  25.106  26.165  1.00  0.00     0.131 A 
ATOM     71  C   UNL A   1      42.139  22.554  26.255  1.00  0.00     0.055 A 
ATOM     72  C   UNL A   1      43.369  24.250  25.076  1.00  0.00     0.041 A 
ATOM     73  F   UNL A   1      43.748  26.328  26.091  1.00  0.00    -0.206 F 
ATOM     74  C   UNL A   1      42.853  22.959  25.125  1.00  0.00     0.022 A 
BRANCH  71  75
ATOM     75  S   UNL A   1      41.570  20.837  26.401  1.00  0.00     0.124 S 
ATOM     76  O   UNL A   1      42.367  20.170  25.378  1.00  0.00    -0.237 OA
ATOM     77  O   UNL A   1      41.911  20.525  27.785  1.00  0.00    -0.237 OA
ATOM     78  O   UNL A   1      40.139  20.927  26.120  1.00  0.00    -0.744 OA
ENDBRANCH  71  75
ENDBRANCH  44  68
BRANCH  56  79
ATOM     79  C   UNL A   1      46.521  25.719  32.899  1.00  0.00     0.023 A 
ATOM     80  C   UNL A   1      47.800  26.007  32.392  1.00  0.00     0.031 A 
ATOM     81  C   UNL A   1      46.412  24.731  33.894  1.00  0.00     0.131 A 
ATOM     82  C   UNL A   1      48.913  25.281  32.847  1.00  0.00     0.055 A 
ATOM     83  C   UNL A   1      47.528  24.052  34.383  1.00  0.00     0.041 A 
ATOM     84  F   UNL A   1      45.214  24.413  34.412  1.00  0.00    -0.206 F 
ATOM     85  C   UNL A   1      48.786  24.317  33.850  1.00  0.00     0.022 A 
BRANCH  82  86
ATOM     86  S   UNL A   1      50.520  25.554  32.051  1.00  0.00     0.124 S 
ATOM     87  O   UNL A   1      51.421  25.614  33.198  1.00  0.00    -0.237 OA
ATOM     88  O   UNL A   1      50.651  24.375  31.201  1.00  0.00    -0.237 OA
ATOM     89  O   UNL A   1      50.340  26.816  31.337  1.00  0.00    -0.744 OA
ENDBRANCH  82  86
ENDBRANCH  56  79
ENDBRANCH  30  31
ENDBRANCH  22  25
ENDBRANCH  20  21
ENDBRANCH  19  20
ENDBRANCH   1  19
TORSDOF 18
ENDMDL
MODEL 2
REMARK VINA RESULT:      -9.8      3.964      7.033
REMARK SMILES COC[C@@H](C)CC(=O)N1CC(CC(=O)NCCCNC(=O)c2ccc(-c3c4nc(c(-c5cc(S(=O)(=O)[O-])ccc5F)c5ccc([nH]5)c(-c5cc(S(=O)(=O)[O-])ccc5F)c5nc(c(-c6cc(S(=O)(=O)[O-])ccc6F)c6ccc3[nH]6)C=C5)C=C4)cc2)C1
REMARK SMILES IDX 16 1 15 2 13 3 14 4 12 6 11 7 7 8 8 9 9 10 10 11 85 12 6 13
REMARK SMILES IDX 4 14 5 15 3 16 2 17 1 18 17 19 18 20 19 21 20 22 21 24 22 25
REMARK SMILES IDX 23 26 84 27 24 28 83 29 25 30 26 31 27 32 77 33 28 34 82 35
REMARK SMILES IDX 76 36 78 37 29 38 81 39 75 40 74 41 30 43 62 44 42 45 61 46
REMARK SMILES IDX 43 47 46 48 60 49 79 50 44 51 45 52 59 54 80 55 47 56 31 57
REMARK SMILES IDX 32 58 40 59 33 60 39 61 41 62 38 63 34 64 35 65 36 66 37 67
REMARK SMILES IDX 63 68 64 69 72 70 65 71 71 72 73 73 70 74 66 75 67 76 68 77
REMARK SMILES IDX 69 78 48 79 49 80 57 81 50 82 56 83 58 84 55 85 51 86 52 87
REMARK SMILES IDX 53 88 54 89
REMARK H PARENT 15 5 19 23 78 42 46 53
REMARK Flexibility Score: inf
ROOT
ATOM      1  C   UNL A   1      32.704  29.318  24.330  1.00  0.00     0.117 C 
ENDROOT
BRANCH   1   2
ATOM      2  N   UNL A   1      31.487  29.302  23.531  1.00  0.00    -0.356 N 
ATOM      3  C   UNL A   1      30.997  28.386  22.649  1.00  0.00     0.220 C 
ATOM      4  O   UNL A   1      29.935  28.648  22.077  1.00  0.00    -0.275 OA
ATOM      5  H   UNL A   1      30.917  30.095  23.648  1.00  0.00     0.163 HD
BRANCH   3   6
ATOM      6  C   UNL A   1      31.736  27.095  22.335  1.00  0.00     0.107 C 
BRANCH   6   7
ATOM      7  C   UNL A   1      31.280  25.938  23.221  1.00  0.00     0.037 C 
ATOM      8  C   UNL A   1      32.216  23.098  24.701  1.00  0.00     0.222 C 
ATOM      9  O   UNL A   1      31.630  22.965  25.774  1.00  0.00    -0.275 OA
ATOM     10  N   UNL A   1      32.284  24.305  24.046  1.00  0.00    -0.342 N 
ATOM     11  C   UNL A   1      31.983  25.641  24.556  1.00  0.00     0.125 C 
ATOM     12  C   UNL A   1      31.777  24.588  22.722  1.00  0.00     0.125 C 
BRANCH   8  13
ATOM     13  C   UNL A   1      33.104  21.988  24.131  1.00  0.00     0.106 C 
BRANCH  13  14
ATOM     14  C   UNL A   1      33.370  20.711  24.954  1.00  0.00     0.021 C 
ATOM     15  C   UNL A   1      34.870  20.383  24.908  1.00  0.00     0.010 C 
BRANCH  14  16
ATOM     16  C   UNL A   1      32.545  19.517  24.451  1.00  0.00     0.163 C 
BRANCH  16  17
ATOM     17  O   UNL A   1      32.207  18.580  25.465  1.00  0.00    -0.384 OA
ATOM     18  C   UNL A   1      32.555  17.237  25.160  1.00  0.00     0.194 C 
ENDBRANCH  16  17
ENDBRANCH  14  16
ENDBRANCH  13  14
ENDBRANCH   8  13
ENDBRANCH   6   7
ENDBRANCH   3   6
ENDBRANCH   1   2
BRANCH   1  19
ATOM     19  C   UNL A   1      32.412  29.319  25.831  1.00  0.00     0.042 C 
BRANCH  19  20
ATOM     20  C   UNL A   1      33.592  29.628  26.745  1.00  0.00     0.118 C 
BRANCH  20  21
ATOM     21  N   UNL A   1      33.527  30.961  27.319  1.00  0.00    -0.352 N 
ATOM     22  C   UNL A   1      34.361  31.618  28.199  1.00  0.00     0.251 C 
ATOM     23  H   UNL A   1      32.750  31.490  27.027  1.00  0.00     0.163 HD
ATOM     24  O   UNL A   1      33.975  32.693  28.652  1.00  0.00    -0.269 OA
BRANCH  22  25
ATOM     25  C   UNL A   1      35.670  31.063  28.645  1.00  0.00     0.039 A 
ATOM     26  C   UNL A   1      35.658  29.993  29.555  1.00  0.00     0.014 A 
ATOM     27  C   UNL A   1      36.901  31.582  28.238  1.00  0.00     0.014 A 
ATOM     28  C   UNL A   1      36.856  29.409  29.990  1.00  0.00     0.010 A 
ATOM     29  C   UNL A   1      38.095  30.961  28.623  1.00  0.00     0.010 A 
ATOM     30  C   UNL A   1      38.088  29.872  29.508  1.00  0.00    -0.014 A 
BRANCH  30  31
ATOM     31  C   UNL A   1      39.373  29.265  29.958  1.00  0.00     0.031 A 
ATOM     32  C   UNL A   1      40.148  29.899  31.084  1.00  0.00     0.074 A 
ATOM     33  C   UNL A   1      39.877  28.183  29.328  1.00  0.00     0.049 A 
ATOM     34  N   UNL A   1      41.313  29.568  31.579  1.00  0.00    -0.248 NA
ATOM     35  C   UNL A   1      39.539  31.076  31.721  1.00  0.00     0.031 C 
ATOM     36  C   UNL A   1      39.248  27.499  28.200  1.00  0.00     0.029 A 
ATOM     37  N   UNL A   1      41.040  27.480  29.534  1.00  0.00    -0.354 N 
ATOM     38  C   UNL A   1      41.587  30.505  32.569  1.00  0.00     0.074 A 
ATOM     39  C   UNL A   1      40.484  31.442  32.573  1.00  0.00     0.031 C 
ATOM     40  C   UNL A   1      40.030  26.477  27.811  1.00  0.00     0.029 A 
ATOM     41  C   UNL A   1      41.234  26.453  28.638  1.00  0.00     0.049 A 
ATOM     42  H   UNL A   1      41.676  27.692  30.255  1.00  0.00     0.167 HD
ATOM     43  C   UNL A   1      42.651  30.571  33.407  1.00  0.00     0.034 A 
ATOM     44  C   UNL A   1      42.272  25.603  28.484  1.00  0.00     0.034 A 
ATOM     45  C   UNL A   1      43.737  29.621  33.411  1.00  0.00     0.049 A 
ATOM     46  C   UNL A   1      43.448  25.701  29.425  1.00  0.00     0.074 A 
ATOM     47  C   UNL A   1      44.818  29.553  34.273  1.00  0.00     0.029 A 
ATOM     48  N   UNL A   1      43.889  28.581  32.504  1.00  0.00    -0.354 N 
ATOM     49  N   UNL A   1      43.652  26.548  30.408  1.00  0.00    -0.248 NA
ATOM     50  C   UNL A   1      44.528  24.720  29.247  1.00  0.00     0.031 C 
ATOM     51  C   UNL A   1      45.656  28.517  33.848  1.00  0.00     0.029 A 
ATOM     52  C   UNL A   1      45.062  27.889  32.765  1.00  0.00     0.049 A 
ATOM     53  H   UNL A   1      43.256  28.365  31.782  1.00  0.00     0.167 HD
ATOM     54  C   UNL A   1      44.867  26.179  30.982  1.00  0.00     0.074 A 
ATOM     55  C   UNL A   1      45.340  25.025  30.247  1.00  0.00     0.031 C 
ATOM     56  C   UNL A   1      45.527  26.740  32.026  1.00  0.00     0.034 A 
BRANCH  43  57
ATOM     57  C   UNL A   1      42.708  31.731  34.370  1.00  0.00     0.023 A 
ATOM     58  C   UNL A   1      42.224  31.627  35.686  1.00  0.00     0.031 A 
ATOM     59  C   UNL A   1      43.248  32.964  33.962  1.00  0.00     0.131 A 
ATOM     60  C   UNL A   1      42.230  32.751  36.525  1.00  0.00     0.055 A 
ATOM     61  C   UNL A   1      43.320  34.058  34.826  1.00  0.00     0.041 A 
ATOM     62  F   UNL A   1      43.709  33.128  32.712  1.00  0.00    -0.206 F 
ATOM     63  C   UNL A   1      42.796  33.960  36.112  1.00  0.00     0.022 A 
BRANCH  60  64
ATOM     64  S   UNL A   1      41.375  32.648  38.121  1.00  0.00     0.124 S 
ATOM     65  O   UNL A   1      42.147  31.610  38.801  1.00  0.00    -0.237 OA
ATOM     66  O   UNL A   1      41.521  34.000  38.645  1.00  0.00    -0.237 OA
ATOM     67  O   UNL A   1      40.013  32.263  37.756  1.00  0.00    -0.744 OA
ENDBRANCH  60  64
ENDBRANCH  43  57
BRANCH  44  68
ATOM     68  C   UNL A   1      42.275  24.597  27.381  1.00  0.00     0.023 A 
ATOM     69  C   UNL A   1      41.525  23.414  27.473  1.00  0.00     0.031 A 
ATOM     70  C   UNL A   1      43.087  24.775  26.247  1.00  0.00     0.131 A 
ATOM     71  C   UNL A   1      41.646  22.428  26.479  1.00  0.00     0.055 A 
ATOM     72  C   UNL A   1      43.163  23.817  25.235  1.00  0.00     0.041 A 
ATOM     73  F   UNL A   1      43.824  25.889  26.107  1.00  0.00    -0.206 F 
ATOM     74  C   UNL A   1      42.453  22.627  25.356  1.00  0.00     0.022 A 
BRANCH  71  75
ATOM     75  S   UNL A   1      40.814  20.835  26.728  1.00  0.00     0.124 S 
ATOM     76  O   UNL A   1      40.797  20.730  28.182  1.00  0.00    -0.237 OA
ATOM     77  O   UNL A   1      39.524  21.067  26.086  1.00  0.00    -0.237 OA
ATOM     78  O   UNL A   1      41.686  19.884  26.042  1.00  0.00    -0.744 OA
ENDBRANCH  71  75
ENDBRANCH  44  68
BRANCH  56  79
ATOM     79  C   UNL A   1      46.809  26.077  32.468  1.00  0.00     0.023 A 
ATOM     80  C   UNL A   1      48.040  26.347  31.845  1.00  0.00     0.031 A 
ATOM     81  C   UNL A   1      46.794  25.152  33.529  1.00  0.00     0.131 A 
ATOM     82  C   UNL A   1      49.196  25.663  32.255  1.00  0.00     0.055 A 
ATOM     83  C   UNL A   1      47.956  24.518  33.968  1.00  0.00     0.041 A 
ATOM     84  F   UNL A   1      45.646  24.854  34.158  1.00  0.00    -0.206 F 
ATOM     85  C   UNL A   1      49.164  24.763  33.322  1.00  0.00     0.022 A 
BRANCH  82  86
ATOM     86  S   UNL A   1      50.732  25.904  31.319  1.00  0.00     0.124 S 
ATOM     87  O   UNL A   1      51.747  25.518  32.295  1.00  0.00    -0.237 OA
ATOM     88  O   UNL A   1      50.556  24.995  30.191  1.00  0.00    -0.237 OA
ATOM     89  O   UNL A   1      50.708  27.325  30.979  1.00  0.00    -0.744 OA
ENDBRANCH  82  86
ENDBRANCH  56  79
ENDBRANCH  30  31
ENDBRANCH  22  25
ENDBRANCH  20  21
ENDBRANCH  19  20
ENDBRANCH   1  19
TORSDOF 18
ENDMDL
MODEL 3
REMARK VINA RESULT:      -9.8      5.850     11.706
REMARK SMILES COC[C@@H](C)CC(=O)N1CC(CC(=O)NCCCNC(=O)c2ccc(-c3c4nc(c(-c5cc(S(=O)(=O)[O-])ccc5F)c5ccc([nH]5)c(-c5cc(S(=O)(=O)[O-])ccc5F)c5nc(c(-c6cc(S(=O)(=O)[O-])ccc6F)c6ccc3[nH]6)C=C5)C=C4)cc2)C1
REMARK SMILES IDX 16 1 15 2 13 3 14 4 12 6 11 7 7 8 8 9 9 10 10 11 85 12 6 13
REMARK SMILES IDX 4 14 5 15 3 16 2 17 1 18 17 19 18 20 19 21 20 22 21 24 22 25
REMARK SMILES IDX 23 26 84 27 24 28 83 29 25 30 26 31 27 32 77 33 28 34 82 35
REMARK SMILES IDX 76 36 78 37 29 38 81 39 75 40 74 41 30 43 62 44 42 45 61 46
REMARK SMILES IDX 43 47 46 48 60 49 79 50 44 51 45 52 59 54 80 55 47 56 31 57
REMARK SMILES IDX 32 58 40 59 33 60 39 61 41 62 38 63 34 64 35 65 36 66 37 67
REMARK SMILES IDX 63 68 64 69 72 70 65 71 71 72 73 73 70 74 66 75 67 76 68 77
REMARK SMILES IDX 69 78 48 79 49 80 57 81 50 82 56 83 58 84 55 85 51 86 52 87
REMARK SMILES IDX 53 88 54 89
REMARK H PARENT 15 5 19 23 78 42 46 53
REMARK Flexibility Score: inf
ROOT
ATOM      1  C   UNL A   1      34.754  22.761  25.738  1.00  0.00     0.117 C 
ENDROOT
BRANCH   1   2
ATOM      2  N   UNL A   1      33.349  22.494  26.012  1.00  0.00    -0.356 N 
ATOM      3  C   UNL A   1      32.369  21.936  25.246  1.00  0.00     0.220 C 
ATOM      4  O   UNL A   1      31.236  21.858  25.727  1.00  0.00    -0.275 OA
ATOM      5  H   UNL A   1      33.054  22.764  26.910  1.00  0.00     0.163 HD
BRANCH   3   6
ATOM      6  C   UNL A   1      32.632  21.456  23.828  1.00  0.00     0.107 C 
BRANCH   6   7
ATOM      7  C   UNL A   1      32.479  22.574  22.800  1.00  0.00     0.037 C 
ATOM      8  C   UNL A   1      33.090  25.789  22.150  1.00  0.00     0.222 C 
ATOM      9  O   UNL A   1      33.317  25.945  20.952  1.00  0.00    -0.275 OA
ATOM     10  N   UNL A   1      33.136  24.554  22.753  1.00  0.00    -0.342 N 
ATOM     11  C   UNL A   1      33.710  23.310  22.245  1.00  0.00     0.125 C 
ATOM     12  C   UNL A   1      32.043  23.891  23.427  1.00  0.00     0.125 C 
BRANCH   8  13
ATOM     13  C   UNL A   1      32.962  26.982  23.103  1.00  0.00     0.106 C 
BRANCH  13  14
ATOM     14  C   UNL A   1      31.594  27.335  23.720  1.00  0.00     0.021 C 
ATOM     15  C   UNL A   1      31.216  28.771  23.326  1.00  0.00     0.010 C 
BRANCH  14  16
ATOM     16  C   UNL A   1      31.592  27.181  25.249  1.00  0.00     0.163 C 
BRANCH  16  17
ATOM     17  O   UNL A   1      31.440  28.406  25.953  1.00  0.00    -0.384 OA
ATOM     18  C   UNL A   1      32.484  28.685  26.875  1.00  0.00     0.194 C 
ENDBRANCH  16  17
ENDBRANCH  14  16
ENDBRANCH  13  14
ENDBRANCH   8  13
ENDBRANCH   6   7
ENDBRANCH   3   6
ENDBRANCH   1   2
BRANCH   1  19
ATOM     19  C   UNL A   1      35.615  21.502  25.843  1.00  0.00     0.042 C 
BRANCH  19  20
ATOM     20  C   UNL A   1      36.848  21.454  24.948  1.00  0.00     0.118 C 
BRANCH  20  21
ATOM     21  N   UNL A   1      37.866  20.541  25.438  1.00  0.00    -0.352 N 
ATOM     22  C   UNL A   1      39.114  20.768  25.977  1.00  0.00     0.251 C 
ATOM     23  H   UNL A   1      37.620  19.590  25.375  1.00  0.00     0.163 HD
ATOM     24  O   UNL A   1      39.841  19.794  26.156  1.00  0.00    -0.269 OA
BRANCH  22  25
ATOM     25  C   UNL A   1      39.621  22.131  26.304  1.00  0.00     0.039 A 
ATOM     26  C   UNL A   1      40.774  22.233  27.098  1.00  0.00     0.014 A 
ATOM     27  C   UNL A   1      38.979  23.303  25.901  1.00  0.00     0.014 A 
ATOM     28  C   UNL A   1      41.315  23.487  27.417  1.00  0.00     0.010 A 
ATOM     29  C   UNL A   1      39.552  24.553  26.167  1.00  0.00     0.010 A 
ATOM     30  C   UNL A   1      40.722  24.661  26.932  1.00  0.00    -0.014 A 
BRANCH  30  31
ATOM     31  C   UNL A   1      41.281  26.003  27.260  1.00  0.00     0.031 A 
ATOM     32  C   UNL A   1      42.655  26.384  26.772  1.00  0.00     0.074 A 
ATOM     33  C   UNL A   1      40.589  26.862  28.037  1.00  0.00     0.049 A 
ATOM     34  N   UNL A   1      43.347  27.470  27.002  1.00  0.00    -0.248 NA
ATOM     35  C   UNL A   1      43.351  25.397  25.932  1.00  0.00     0.031 C 
ATOM     36  C   UNL A   1      39.268  26.602  28.608  1.00  0.00     0.029 A 
ATOM     37  N   UNL A   1      40.906  28.118  28.497  1.00  0.00    -0.354 N 
ATOM     38  C   UNL A   1      44.564  27.291  26.355  1.00  0.00     0.074 A 
ATOM     39  C   UNL A   1      44.531  25.973  25.759  1.00  0.00     0.031 C 
ATOM     40  C   UNL A   1      38.887  27.661  29.341  1.00  0.00     0.029 A 
ATOM     41  C   UNL A   1      39.949  28.664  29.325  1.00  0.00     0.049 A 
ATOM     42  H   UNL A   1      41.739  28.584  28.258  1.00  0.00     0.167 HD
ATOM     43  C   UNL A   1      45.608  28.152  26.254  1.00  0.00     0.034 A 
ATOM     44  C   UNL A   1      39.938  29.827  30.010  1.00  0.00     0.034 A 
ATOM     45  C   UNL A   1      45.625  29.473  26.832  1.00  0.00     0.049 A 
ATOM     46  C   UNL A   1      41.115  30.764  29.886  1.00  0.00     0.074 A 
ATOM     47  C   UNL A   1      46.599  30.450  26.717  1.00  0.00     0.029 A 
ATOM     48  N   UNL A   1      44.630  30.000  27.644  1.00  0.00    -0.354 N 
ATOM     49  N   UNL A   1      42.227  30.610  29.204  1.00  0.00    -0.248 NA
ATOM     50  C   UNL A   1      41.030  32.040  30.612  1.00  0.00     0.031 C 
ATOM     51  C   UNL A   1      46.226  31.540  27.512  1.00  0.00     0.029 A 
ATOM     52  C   UNL A   1      44.984  31.274  28.064  1.00  0.00     0.049 A 
ATOM     53  H   UNL A   1      43.796  29.538  27.886  1.00  0.00     0.167 HD
ATOM     54  C   UNL A   1      42.956  31.781  29.396  1.00  0.00     0.074 A 
ATOM     55  C   UNL A   1      42.152  32.638  30.241  1.00  0.00     0.031 C 
ATOM     56  C   UNL A   1      44.177  32.120  28.910  1.00  0.00     0.034 A 
BRANCH  43  57
ATOM     57  C   UNL A   1      46.833  27.675  25.513  1.00  0.00     0.023 A 
ATOM     58  C   UNL A   1      47.058  28.000  24.164  1.00  0.00     0.031 A 
ATOM     59  C   UNL A   1      47.789  26.876  26.167  1.00  0.00     0.131 A 
ATOM     60  C   UNL A   1      48.174  27.476  23.494  1.00  0.00     0.055 A 
ATOM     61  C   UNL A   1      48.936  26.420  25.515  1.00  0.00     0.041 A 
ATOM     62  F   UNL A   1      47.619  26.519  27.450  1.00  0.00    -0.206 F 
ATOM     63  C   UNL A   1      49.126  26.707  24.168  1.00  0.00     0.022 A 
BRANCH  60  64
ATOM     64  S   UNL A   1      48.297  27.709  21.701  1.00  0.00     0.124 S 
ATOM     65  O   UNL A   1      49.408  28.654  21.602  1.00  0.00    -0.237 OA
ATOM     66  O   UNL A   1      48.565  26.358  21.224  1.00  0.00    -0.237 OA
ATOM     67  O   UNL A   1      46.992  28.254  21.334  1.00  0.00    -0.744 OA
ENDBRANCH  60  64
ENDBRANCH  43  57
BRANCH  44  68
ATOM     68  C   UNL A   1      38.793  30.173  30.903  1.00  0.00     0.023 A 
ATOM     69  C   UNL A   1      37.691  30.900  30.426  1.00  0.00     0.031 A 
ATOM     70  C   UNL A   1      38.820  29.841  32.269  1.00  0.00     0.131 A 
ATOM     71  C   UNL A   1      36.690  31.322  31.317  1.00  0.00     0.055 A 
ATOM     72  C   UNL A   1      37.796  30.215  33.141  1.00  0.00     0.041 A 
ATOM     73  F   UNL A   1      39.849  29.144  32.779  1.00  0.00    -0.206 F 
ATOM     74  C   UNL A   1      36.731  30.975  32.669  1.00  0.00     0.022 A 
BRANCH  71  75
ATOM     75  S   UNL A   1      35.384  32.421  30.701  1.00  0.00     0.124 S 
ATOM     76  O   UNL A   1      36.089  33.694  30.599  1.00  0.00    -0.237 OA
ATOM     77  O   UNL A   1      35.026  31.784  29.438  1.00  0.00    -0.237 OA
ATOM     78  O   UNL A   1      34.362  32.353  31.742  1.00  0.00    -0.744 OA
ENDBRANCH  71  75
ENDBRANCH  44  68
BRANCH  56  79
ATOM     79  C   UNL A   1      44.692  33.500  29.241  1.00  0.00     0.023 A 
ATOM     80  C   UNL A   1      44.407  34.614  28.431  1.00  0.00     0.031 A 
ATOM     81  C   UNL A   1      45.489  33.700  30.383  1.00  0.00     0.131 A 
ATOM     82  C   UNL A   1      44.956  35.867  28.748  1.00  0.00     0.055 A 
ATOM     83  C   UNL A   1      45.984  34.959  30.724  1.00  0.00     0.041 A 
ATOM     84  F   UNL A   1      45.795  32.671  31.191  1.00  0.00    -0.206 F 
ATOM     85  C   UNL A   1      45.729  36.049  29.897  1.00  0.00     0.022 A 
BRANCH  82  86
ATOM     86  S   UNL A   1      44.715  37.244  27.592  1.00  0.00     0.124 S 
ATOM     87  O   UNL A   1      44.743  38.399  28.484  1.00  0.00    -0.237 OA
ATOM     88  O   UNL A   1      45.858  37.104  26.696  1.00  0.00    -0.237 OA
ATOM     89  O   UNL A   1      43.415  36.961  26.987  1.00  0.00    -0.744 OA
ENDBRANCH  82  86
ENDBRANCH  56  79
ENDBRANCH  30  31
ENDBRANCH  22  25
ENDBRANCH  20  21
ENDBRANCH  19  20
ENDBRANCH   1  19
TORSDOF 18
ENDMDL
