MODEL 1
REMARK VINA RESULT:     -10.8      0.000      0.000
REMARK SMILES C[NH+](C)CCc1nc(Nc2ccc(O)c(C(=O)NCCCNC(=O)c3ccc(-c4c5nc(c(-c6cc(S(=O)(=O)[O-])ccc6F)c6ccc([nH]6)c(-c6cc(S(=O)(=O)[O-])ccc6F)c6nc(c(-c7cc(S(=O)(=O)[O-])ccc7F)c7ccc4[nH]7)C=C6)C=C5)cc3)c2)c2ccccc2n1
REMARK SMILES IDX 19 1 18 2 16 3 17 4 15 6 10 7 11 8 88 9 12 10 13 11 9 12
REMARK SMILES IDX 8 14 6 15 7 16 95 17 94 18 89 19 93 20 90 21 92 22 91 23
REMARK SMILES IDX 5 24 4 25 2 26 1 27 3 28 14 30 20 32 21 33 22 34 23 35 24 37
REMARK SMILES IDX 25 38 26 39 87 40 27 41 86 42 28 43 29 44 30 45 80 46 31 47
REMARK SMILES IDX 85 48 79 49 81 50 32 51 84 52 78 53 77 54 33 56 65 57 45 58
REMARK SMILES IDX 64 59 46 60 49 61 63 62 82 63 47 64 48 65 62 67 83 68 50 69
REMARK SMILES IDX 34 70 35 71 43 72 36 73 42 74 44 75 41 76 37 77 38 78 39 79
REMARK SMILES IDX 40 80 66 81 67 82 75 83 68 84 74 85 76 86 73 87 69 88 70 89
REMARK SMILES IDX 71 90 72 91 51 92 52 93 60 94 53 95 59 96 61 97 58 98 54 99
REMARK SMILES IDX 55 100 56 101 57 102
REMARK H PARENT 18 5 9 13 2 29 14 31 22 36 81 55 49 66
REMARK Flexibility Score: inf
ROOT
ATOM      1  C   UNL A   1      45.962  22.910  26.103  1.00  0.00     0.118 C 
ENDROOT
BRANCH   1   2
ATOM      2  N   UNL A   1      45.488  22.516  24.793  1.00  0.00    -0.352 N 
ATOM      3  C   UNL A   1      44.683  21.495  24.365  1.00  0.00     0.255 C 
ATOM      4  O   UNL A   1      44.540  21.406  23.140  1.00  0.00    -0.269 OA
ATOM      5  H   UNL A   1      45.809  23.097  24.066  1.00  0.00     0.163 HD
BRANCH   3   6
ATOM      6  C   UNL A   1      43.900  20.564  25.237  1.00  0.00     0.083 A 
ATOM      7  C   UNL A   1      42.079  20.529  26.897  1.00  0.00     0.041 A 
ATOM      8  C   UNL A   1      42.252  19.156  27.044  1.00  0.00     0.030 A 
ATOM      9  C   UNL A   1      42.915  21.216  26.010  1.00  0.00     0.043 A 
ATOM     10  C   UNL A   1      43.186  18.477  26.266  1.00  0.00     0.049 A 
ATOM     11  C   UNL A   1      43.988  19.173  25.350  1.00  0.00     0.128 A 
BRANCH   7  12
ATOM     12  N   UNL A   1      41.154  21.247  27.672  1.00  0.00    -0.340 N 
ATOM     13  H   UNL A   1      41.147  21.059  28.638  1.00  0.00     0.168 HD
BRANCH  12  14
ATOM     14  C   UNL A   1      40.236  22.212  27.208  1.00  0.00     0.142 A 
ATOM     15  C   UNL A   1      38.326  22.704  26.023  1.00  0.00     0.137 A 
ATOM     16  N   UNL A   1      39.256  21.810  26.377  1.00  0.00    -0.215 NA
ATOM     17  N   UNL A   1      38.272  23.953  26.503  1.00  0.00    -0.233 NA
ATOM     18  C   UNL A   1      39.302  24.378  27.238  1.00  0.00     0.076 A 
ATOM     19  C   UNL A   1      40.361  23.549  27.614  1.00  0.00     0.043 A 
ATOM     20  C   UNL A   1      39.337  25.716  27.611  1.00  0.00     0.029 A 
ATOM     21  C   UNL A   1      41.456  24.094  28.334  1.00  0.00     0.014 A 
ATOM     22  C   UNL A   1      40.418  26.258  28.310  1.00  0.00     0.002 A 
ATOM     23  C   UNL A   1      41.486  25.446  28.666  1.00  0.00     0.001 A 
BRANCH  15  24
ATOM     24  C   UNL A   1      37.310  22.240  25.018  1.00  0.00     0.138 C 
BRANCH  24  25
ATOM     25  C   UNL A   1      36.142  21.379  25.534  1.00  0.00     0.269 C 
BRANCH  25  26
ATOM     26  N   UNL A   1      34.866  21.297  24.794  1.00  0.00    -0.339 N 
ATOM     27  C   UNL A   1      34.265  19.968  24.824  1.00  0.00     0.332 C 
ATOM     28  C   UNL A   1      33.894  22.309  25.190  1.00  0.00     0.332 C 
ATOM     29  H   UNL A   1      35.129  21.494  23.829  1.00  0.00     0.347 HD
ENDBRANCH  25  26
ENDBRANCH  24  25
ENDBRANCH  15  24
ENDBRANCH  12  14
ENDBRANCH   7  12
BRANCH  11  30
ATOM     30  O   UNL A   1      44.802  18.420  24.560  1.00  0.00    -0.507 OA
ATOM     31  H   UNL A   1      45.158  17.618  24.884  1.00  0.00     0.293 HD
ENDBRANCH  11  30
ENDBRANCH   3   6
ENDBRANCH   1   2
BRANCH   1  32
ATOM     32  C   UNL A   1      45.254  24.183  26.569  1.00  0.00     0.042 C 
BRANCH  32  33
ATOM     33  C   UNL A   1      45.146  25.251  25.488  1.00  0.00     0.118 C 
BRANCH  33  34
ATOM     34  N   UNL A   1      43.802  25.323  24.937  1.00  0.00    -0.352 N 
ATOM     35  C   UNL A   1      42.766  26.165  25.259  1.00  0.00     0.251 C 
ATOM     36  H   UNL A   1      43.605  24.670  24.227  1.00  0.00     0.163 HD
ATOM     37  O   UNL A   1      41.634  25.891  24.869  1.00  0.00    -0.269 OA
BRANCH  35  38
ATOM     38  C   UNL A   1      43.000  27.381  26.073  1.00  0.00     0.039 A 
ATOM     39  C   UNL A   1      42.319  28.556  25.737  1.00  0.00     0.014 A 
ATOM     40  C   UNL A   1      43.920  27.392  27.126  1.00  0.00     0.014 A 
ATOM     41  C   UNL A   1      42.528  29.722  26.479  1.00  0.00     0.010 A 
ATOM     42  C   UNL A   1      44.075  28.536  27.908  1.00  0.00     0.010 A 
ATOM     43  C   UNL A   1      43.389  29.715  27.587  1.00  0.00    -0.014 A 
BRANCH  43  44
ATOM     44  C   UNL A   1      43.598  30.939  28.409  1.00  0.00     0.031 A 
ATOM     45  C   UNL A   1      42.661  31.251  29.545  1.00  0.00     0.074 A 
ATOM     46  C   UNL A   1      44.589  31.795  28.088  1.00  0.00     0.049 A 
ATOM     47  N   UNL A   1      42.622  32.305  30.319  1.00  0.00    -0.248 NA
ATOM     48  C   UNL A   1      41.613  30.259  29.830  1.00  0.00     0.031 C 
ATOM     49  C   UNL A   1      45.532  31.618  26.982  1.00  0.00     0.029 A 
ATOM     50  N   UNL A   1      44.959  32.991  28.650  1.00  0.00    -0.354 N 
ATOM     51  C   UNL A   1      41.533  32.116  31.165  1.00  0.00     0.074 A 
ATOM     52  C   UNL A   1      40.913  30.867  30.777  1.00  0.00     0.031 C 
ATOM     53  C   UNL A   1      46.377  32.661  26.953  1.00  0.00     0.029 A 
ATOM     54  C   UNL A   1      46.011  33.602  28.006  1.00  0.00     0.049 A 
ATOM     55  H   UNL A   1      44.514  33.377  29.439  1.00  0.00     0.167 HD
ATOM     56  C   UNL A   1      41.100  32.906  32.179  1.00  0.00     0.034 A 
ATOM     57  C   UNL A   1      46.603  34.793  28.228  1.00  0.00     0.034 A 
ATOM     58  C   UNL A   1      41.747  34.135  32.569  1.00  0.00     0.049 A 
ATOM     59  C   UNL A   1      46.108  35.649  29.367  1.00  0.00     0.074 A 
ATOM     60  C   UNL A   1      41.440  34.973  33.628  1.00  0.00     0.029 A 
ATOM     61  N   UNL A   1      42.828  34.708  31.911  1.00  0.00    -0.354 N 
ATOM     62  N   UNL A   1      45.115  35.423  30.197  1.00  0.00    -0.248 NA
ATOM     63  C   UNL A   1      46.822  36.908  29.610  1.00  0.00     0.031 C 
ATOM     64  C   UNL A   1      42.290  36.082  33.570  1.00  0.00     0.029 A 
ATOM     65  C   UNL A   1      43.179  35.902  32.523  1.00  0.00     0.049 A 
ATOM     66  H   UNL A   1      43.279  34.324  31.126  1.00  0.00     0.167 HD
ATOM     67  C   UNL A   1      45.107  36.500  31.078  1.00  0.00     0.074 A 
ATOM     68  C   UNL A   1      46.203  37.364  30.689  1.00  0.00     0.031 C 
ATOM     69  C   UNL A   1      44.272  36.754  32.119  1.00  0.00     0.034 A 
BRANCH  56  70
ATOM     70  C   UNL A   1      39.855  32.479  32.919  1.00  0.00     0.023 A 
ATOM     71  C   UNL A   1      38.595  33.039  32.640  1.00  0.00     0.031 A 
ATOM     72  C   UNL A   1      39.929  31.496  33.923  1.00  0.00     0.131 A 
ATOM     73  C   UNL A   1      37.476  32.659  33.397  1.00  0.00     0.055 A 
ATOM     74  C   UNL A   1      38.799  31.068  34.622  1.00  0.00     0.041 A 
ATOM     75  F   UNL A   1      41.106  30.939  34.247  1.00  0.00    -0.206 F 
ATOM     76  C   UNL A   1      37.564  31.660  34.369  1.00  0.00     0.022 A 
BRANCH  73  77
ATOM     77  S   UNL A   1      35.927  33.575  33.176  1.00  0.00     0.124 S 
ATOM     78  O   UNL A   1      36.387  34.959  33.267  1.00  0.00    -0.237 OA
ATOM     79  O   UNL A   1      35.483  33.135  31.859  1.00  0.00    -0.237 OA
ATOM     80  O   UNL A   1      35.100  33.128  34.295  1.00  0.00    -0.744 OA
ENDBRANCH  73  77
ENDBRANCH  56  70
BRANCH  57  81
ATOM     81  C   UNL A   1      47.711  35.264  27.347  1.00  0.00     0.023 A 
ATOM     82  C   UNL A   1      49.042  34.887  27.590  1.00  0.00     0.031 A 
ATOM     83  C   UNL A   1      47.460  36.142  26.277  1.00  0.00     0.131 A 
ATOM     84  C   UNL A   1      50.076  35.426  26.807  1.00  0.00     0.055 A 
ATOM     85  C   UNL A   1      48.487  36.631  25.467  1.00  0.00     0.041 A 
ATOM     86  F   UNL A   1      46.206  36.530  25.997  1.00  0.00    -0.206 F 
ATOM     87  C   UNL A   1      49.806  36.286  25.741  1.00  0.00     0.022 A 
BRANCH  84  88
ATOM     88  S   UNL A   1      51.792  35.062  27.268  1.00  0.00     0.124 S 
ATOM     89  O   UNL A   1      52.525  36.068  26.508  1.00  0.00    -0.237 OA
ATOM     90  O   UNL A   1      51.761  35.247  28.715  1.00  0.00    -0.237 OA
ATOM     91  O   UNL A   1      51.979  33.683  26.821  1.00  0.00    -0.744 OA
ENDBRANCH  84  88
ENDBRANCH  57  81
BRANCH  69  92
ATOM     92  C   UNL A   1      44.549  37.992  32.934  1.00  0.00     0.023 A 
ATOM     93  C   UNL A   1      43.793  39.166  32.779  1.00  0.00     0.031 A 
ATOM     94  C   UNL A   1      45.596  37.997  33.874  1.00  0.00     0.131 A 
ATOM     95  C   UNL A   1      44.128  40.315  33.512  1.00  0.00     0.055 A 
ATOM     96  C   UNL A   1      45.887  39.124  34.643  1.00  0.00     0.041 A 
ATOM     97  F   UNL A   1      46.352  36.902  34.061  1.00  0.00    -0.206 F 
ATOM     98  C   UNL A   1      45.159  40.295  34.455  1.00  0.00     0.022 A 
BRANCH  95  99
ATOM     99  S   UNL A   1      43.256  41.863  33.153  1.00  0.00     0.124 S 
ATOM    100  O   UNL A   1      44.105  42.849  33.812  1.00  0.00    -0.237 OA
ATOM    101  O   UNL A   1      43.258  41.893  31.694  1.00  0.00    -0.237 OA
ATOM    102  O   UNL A   1      41.942  41.667  33.765  1.00  0.00    -0.744 OA
ENDBRANCH  95  99
ENDBRANCH  69  92
ENDBRANCH  43  44
ENDBRANCH  35  38
ENDBRANCH  33  34
ENDBRANCH  32  33
ENDBRANCH   1  32
TORSDOF 19
ENDMDL
MODEL 2
REMARK VINA RESULT:     -10.7      4.185      7.554
REMARK SMILES C[NH+](C)CCc1nc(Nc2ccc(O)c(C(=O)NCCCNC(=O)c3ccc(-c4c5nc(c(-c6cc(S(=O)(=O)[O-])ccc6F)c6ccc([nH]6)c(-c6cc(S(=O)(=O)[O-])ccc6F)c6nc(c(-c7cc(S(=O)(=O)[O-])ccc7F)c7ccc4[nH]7)C=C6)C=C5)cc3)c2)c2ccccc2n1
REMARK SMILES IDX 19 1 18 2 16 3 17 4 15 6 10 7 11 8 88 9 12 10 13 11 9 12
REMARK SMILES IDX 8 14 6 15 7 16 95 17 94 18 89 19 93 20 90 21 92 22 91 23
REMARK SMILES IDX 5 24 4 25 2 26 1 27 3 28 14 30 20 32 21 33 22 34 23 35 24 37
REMARK SMILES IDX 25 38 26 39 87 40 27 41 86 42 28 43 29 44 30 45 80 46 31 47
REMARK SMILES IDX 85 48 79 49 81 50 32 51 84 52 78 53 77 54 33 56 65 57 45 58
REMARK SMILES IDX 64 59 46 60 49 61 63 62 82 63 47 64 48 65 62 67 83 68 50 69
REMARK SMILES IDX 34 70 35 71 43 72 36 73 42 74 44 75 41 76 37 77 38 78 39 79
REMARK SMILES IDX 40 80 66 81 67 82 75 83 68 84 74 85 76 86 73 87 69 88 70 89
REMARK SMILES IDX 71 90 72 91 51 92 52 93 60 94 53 95 59 96 61 97 58 98 54 99
REMARK SMILES IDX 55 100 56 101 57 102
REMARK H PARENT 18 5 9 13 2 29 14 31 22 36 81 55 49 66
REMARK Flexibility Score: inf
ROOT
ATOM      1  C   UNL A   1      44.413  23.176  24.193  1.00  0.00     0.118 C 
ENDROOT
BRANCH   1   2
ATOM      2  N   UNL A   1      45.413  22.171  24.483  1.00  0.00    -0.352 N 
ATOM      3  C   UNL A   1      45.359  20.966  25.128  1.00  0.00     0.255 C 
ATOM      4  O   UNL A   1      46.442  20.384  25.266  1.00  0.00    -0.269 OA
ATOM      5  H   UNL A   1      46.312  22.401  24.151  1.00  0.00     0.163 HD
BRANCH   3   6
ATOM      6  C   UNL A   1      44.118  20.262  25.579  1.00  0.00     0.083 A 
ATOM      7  C   UNL A   1      42.049  20.611  26.872  1.00  0.00     0.041 A 
ATOM      8  C   UNL A   1      41.700  19.281  26.656  1.00  0.00     0.030 A 
ATOM      9  C   UNL A   1      43.259  21.078  26.347  1.00  0.00     0.043 A 
ATOM     10  C   UNL A   1      42.504  18.463  25.868  1.00  0.00     0.049 A 
ATOM     11  C   UNL A   1      43.693  18.957  25.312  1.00  0.00     0.128 A 
BRANCH   7  12
ATOM     12  N   UNL A   1      41.268  21.463  27.670  1.00  0.00    -0.340 N 
ATOM     13  H   UNL A   1      41.339  21.344  28.644  1.00  0.00     0.168 HD
BRANCH  12  14
ATOM     14  C   UNL A   1      40.392  22.472  27.217  1.00  0.00     0.142 A 
ATOM     15  C   UNL A   1      38.462  23.053  26.108  1.00  0.00     0.137 A 
ATOM     16  N   UNL A   1      39.348  22.111  26.448  1.00  0.00    -0.215 NA
ATOM     17  N   UNL A   1      38.513  24.318  26.548  1.00  0.00    -0.233 NA
ATOM     18  C   UNL A   1      39.604  24.696  27.218  1.00  0.00     0.076 A 
ATOM     19  C   UNL A   1      40.624  23.809  27.571  1.00  0.00     0.043 A 
ATOM     20  C   UNL A   1      39.745  26.039  27.543  1.00  0.00     0.029 A 
ATOM     21  C   UNL A   1      41.786  24.302  28.220  1.00  0.00     0.014 A 
ATOM     22  C   UNL A   1      40.892  26.529  28.171  1.00  0.00     0.002 A 
ATOM     23  C   UNL A   1      41.920  25.658  28.504  1.00  0.00     0.001 A 
BRANCH  15  24
ATOM     24  C   UNL A   1      37.369  22.628  25.169  1.00  0.00     0.138 C 
BRANCH  24  25
ATOM     25  C   UNL A   1      36.845  21.186  25.296  1.00  0.00     0.269 C 
BRANCH  25  26
ATOM     26  N   UNL A   1      35.454  20.911  25.711  1.00  0.00    -0.339 N 
ATOM     27  C   UNL A   1      34.628  22.110  25.795  1.00  0.00     0.332 C 
ATOM     28  C   UNL A   1      34.795  19.888  24.908  1.00  0.00     0.332 C 
ATOM     29  H   UNL A   1      35.549  20.536  26.655  1.00  0.00     0.347 HD
ENDBRANCH  25  26
ENDBRANCH  24  25
ENDBRANCH  15  24
ENDBRANCH  12  14
ENDBRANCH   7  12
BRANCH  11  30
ATOM     30  O   UNL A   1      44.366  18.121  24.475  1.00  0.00    -0.507 OA
ATOM     31  H   UNL A   1      44.710  18.444  23.667  1.00  0.00     0.293 HD
ENDBRANCH  11  30
ENDBRANCH   3   6
ENDBRANCH   1   2
BRANCH   1  32
ATOM     32  C   UNL A   1      44.683  24.449  24.996  1.00  0.00     0.042 C 
BRANCH  32  33
ATOM     33  C   UNL A   1      46.160  24.686  25.285  1.00  0.00     0.118 C 
BRANCH  33  34
ATOM     34  N   UNL A   1      46.700  25.766  24.475  1.00  0.00    -0.352 N 
ATOM     35  C   UNL A   1      46.518  27.123  24.590  1.00  0.00     0.251 C 
ATOM     36  H   UNL A   1      47.281  25.483  23.733  1.00  0.00     0.163 HD
ATOM     37  O   UNL A   1      46.840  27.847  23.651  1.00  0.00    -0.269 OA
BRANCH  35  38
ATOM     38  C   UNL A   1      45.934  27.711  25.818  1.00  0.00     0.039 A 
ATOM     39  C   UNL A   1      44.544  27.853  25.899  1.00  0.00     0.014 A 
ATOM     40  C   UNL A   1      46.739  28.175  26.863  1.00  0.00     0.014 A 
ATOM     41  C   UNL A   1      43.965  28.416  27.040  1.00  0.00     0.010 A 
ATOM     42  C   UNL A   1      46.156  28.671  28.028  1.00  0.00     0.010 A 
ATOM     43  C   UNL A   1      44.764  28.807  28.125  1.00  0.00    -0.014 A 
BRANCH  43  44
ATOM     44  C   UNL A   1      44.161  29.377  29.361  1.00  0.00     0.031 A 
ATOM     45  C   UNL A   1      43.803  30.838  29.417  1.00  0.00     0.074 A 
ATOM     46  C   UNL A   1      44.000  28.594  30.446  1.00  0.00     0.049 A 
ATOM     47  N   UNL A   1      43.353  31.542  30.425  1.00  0.00    -0.248 NA
ATOM     48  C   UNL A   1      44.005  31.617  28.186  1.00  0.00     0.031 C 
ATOM     49  C   UNL A   1      44.351  27.174  30.521  1.00  0.00     0.029 A 
ATOM     50  N   UNL A   1      43.516  28.881  31.698  1.00  0.00    -0.354 N 
ATOM     51  C   UNL A   1      43.241  32.848  29.958  1.00  0.00     0.074 A 
ATOM     52  C   UNL A   1      43.714  32.845  28.590  1.00  0.00     0.031 C 
ATOM     53  C   UNL A   1      44.061  26.714  31.749  1.00  0.00     0.029 A 
ATOM     54  C   UNL A   1      43.547  27.811  32.562  1.00  0.00     0.049 A 
ATOM     55  H   UNL A   1      43.178  29.770  31.954  1.00  0.00     0.167 HD
ATOM     56  C   UNL A   1      42.773  33.943  30.607  1.00  0.00     0.034 A 
ATOM     57  C   UNL A   1      43.216  27.727  33.867  1.00  0.00     0.034 A 
ATOM     58  C   UNL A   1      42.280  33.920  31.962  1.00  0.00     0.049 A 
ATOM     59  C   UNL A   1      42.691  28.957  34.563  1.00  0.00     0.074 A 
ATOM     60  C   UNL A   1      41.713  34.953  32.691  1.00  0.00     0.029 A 
ATOM     61  N   UNL A   1      42.301  32.811  32.798  1.00  0.00    -0.354 N 
ATOM     62  N   UNL A   1      42.533  30.171  34.086  1.00  0.00    -0.248 NA
ATOM     63  C   UNL A   1      42.285  28.803  35.966  1.00  0.00     0.031 C 
ATOM     64  C   UNL A   1      41.454  34.486  33.984  1.00  0.00     0.029 A 
ATOM     65  C   UNL A   1      41.786  33.143  34.042  1.00  0.00     0.049 A 
ATOM     66  H   UNL A   1      42.632  31.920  32.545  1.00  0.00     0.167 HD
ATOM     67  C   UNL A   1      41.981  30.916  35.124  1.00  0.00     0.074 A 
ATOM     68  C   UNL A   1      41.818  30.012  36.244  1.00  0.00     0.031 C 
ATOM     69  C   UNL A   1      41.635  32.229  35.151  1.00  0.00     0.034 A 
BRANCH  56  70
ATOM     70  C   UNL A   1      42.799  35.261  29.870  1.00  0.00     0.023 A 
ATOM     71  C   UNL A   1      43.860  36.172  30.013  1.00  0.00     0.031 A 
ATOM     72  C   UNL A   1      41.741  35.612  29.011  1.00  0.00     0.131 A 
ATOM     73  C   UNL A   1      43.812  37.413  29.359  1.00  0.00     0.055 A 
ATOM     74  C   UNL A   1      41.735  36.817  28.304  1.00  0.00     0.041 A 
ATOM     75  F   UNL A   1      40.692  34.792  28.849  1.00  0.00    -0.206 F 
ATOM     76  C   UNL A   1      42.768  37.731  28.486  1.00  0.00     0.022 A 
BRANCH  73  77
ATOM     77  S   UNL A   1      45.071  38.655  29.758  1.00  0.00     0.124 S 
ATOM     78  O   UNL A   1      44.369  39.898  29.444  1.00  0.00    -0.237 OA
ATOM     79  O   UNL A   1      45.325  38.405  31.172  1.00  0.00    -0.237 OA
ATOM     80  O   UNL A   1      46.175  38.327  28.857  1.00  0.00    -0.744 OA
ENDBRANCH  73  77
ENDBRANCH  56  70
BRANCH  57  81
ATOM     81  C   UNL A   1      43.388  26.445  34.611  1.00  0.00     0.023 A 
ATOM     82  C   UNL A   1      44.663  25.984  34.977  1.00  0.00     0.031 A 
ATOM     83  C   UNL A   1      42.281  25.636  34.922  1.00  0.00     0.131 A 
ATOM     84  C   UNL A   1      44.804  24.726  35.585  1.00  0.00     0.055 A 
ATOM     85  C   UNL A   1      42.422  24.411  35.577  1.00  0.00     0.041 A 
ATOM     86  F   UNL A   1      41.039  26.032  34.600  1.00  0.00    -0.206 F 
ATOM     87  C   UNL A   1      43.692  23.943  35.898  1.00  0.00     0.022 A 
BRANCH  84  88
ATOM     88  S   UNL A   1      46.477  24.085  35.872  1.00  0.00     0.124 S 
ATOM     89  O   UNL A   1      46.674  24.389  37.285  1.00  0.00    -0.237 OA
ATOM     90  O   UNL A   1      46.320  22.674  35.534  1.00  0.00    -0.237 OA
ATOM     91  O   UNL A   1      47.301  24.859  34.946  1.00  0.00    -0.744 OA
ENDBRANCH  84  88
ENDBRANCH  57  81
BRANCH  69  92
ATOM     92  C   UNL A   1      41.002  32.746  36.418  1.00  0.00     0.023 A 
ATOM     93  C   UNL A   1      39.698  32.383  36.796  1.00  0.00     0.031 A 
ATOM     94  C   UNL A   1      41.715  33.624  37.255  1.00  0.00     0.131 A 
ATOM     95  C   UNL A   1      39.125  32.939  37.950  1.00  0.00     0.055 A 
ATOM     96  C   UNL A   1      41.162  34.126  38.433  1.00  0.00     0.041 A 
ATOM     97  F   UNL A   1      42.964  34.004  36.940  1.00  0.00    -0.206 F 
ATOM     98  C   UNL A   1      39.856  33.795  38.779  1.00  0.00     0.022 A 
BRANCH  95  99
ATOM     99  S   UNL A   1      37.381  32.599  38.308  1.00  0.00     0.124 S 
ATOM    100  O   UNL A   1      37.322  31.147  38.178  1.00  0.00    -0.237 OA
ATOM    101  O   UNL A   1      37.231  33.124  39.662  1.00  0.00    -0.237 OA
ATOM    102  O   UNL A   1      36.665  33.345  37.274  1.00  0.00    -0.744 OA
ENDBRANCH  95  99
ENDBRANCH  69  92
ENDBRANCH  43  44
ENDBRANCH  35  38
ENDBRANCH  33  34
ENDBRANCH  32  33
ENDBRANCH   1  32
TORSDOF 19
ENDMDL
MODEL 3
REMARK VINA RESULT:     -10.5      4.917      8.700
REMARK SMILES C[NH+](C)CCc1nc(Nc2ccc(O)c(C(=O)NCCCNC(=O)c3ccc(-c4c5nc(c(-c6cc(S(=O)(=O)[O-])ccc6F)c6ccc([nH]6)c(-c6cc(S(=O)(=O)[O-])ccc6F)c6nc(c(-c7cc(S(=O)(=O)[O-])ccc7F)c7ccc4[nH]7)C=C6)C=C5)cc3)c2)c2ccccc2n1
REMARK SMILES IDX 19 1 18 2 16 3 17 4 15 6 10 7 11 8 88 9 12 10 13 11 9 12
REMARK SMILES IDX 8 14 6 15 7 16 95 17 94 18 89 19 93 20 90 21 92 22 91 23
REMARK SMILES IDX 5 24 4 25 2 26 1 27 3 28 14 30 20 32 21 33 22 34 23 35 24 37
REMARK SMILES IDX 25 38 26 39 87 40 27 41 86 42 28 43 29 44 30 45 80 46 31 47
REMARK SMILES IDX 85 48 79 49 81 50 32 51 84 52 78 53 77 54 33 56 65 57 45 58
REMARK SMILES IDX 64 59 46 60 49 61 63 62 82 63 47 64 48 65 62 67 83 68 50 69
REMARK SMILES IDX 34 70 35 71 43 72 36 73 42 74 44 75 41 76 37 77 38 78 39 79
REMARK SMILES IDX 40 80 66 81 67 82 75 83 68 84 74 85 76 86 73 87 69 88 70 89
REMARK SMILES IDX 71 90 72 91 51 92 52 93 60 94 53 95 59 96 61 97 58 98 54 99
REMARK SMILES IDX 55 100 56 101 57 102
REMARK H PARENT 18 5 9 13 2 29 14 31 22 36 81 55 49 66
REMARK Flexibility Score: inf
ROOT
ATOM      1  C   UNL A   1      41.202  20.205  26.244  1.00  0.00     0.118 C 
ENDROOT
BRANCH   1   2
ATOM      2  N   UNL A   1      41.874  18.945  26.478  1.00  0.00    -0.352 N 
ATOM      3  C   UNL A   1      43.127  18.489  26.169  1.00  0.00     0.255 C 
ATOM      4  O   UNL A   1      43.352  17.307  26.458  1.00  0.00    -0.269 OA
ATOM      5  H   UNL A   1      41.320  18.284  26.955  1.00  0.00     0.163 HD
BRANCH   3   6
ATOM      6  C   UNL A   1      44.252  19.307  25.617  1.00  0.00     0.083 A 
ATOM      7  C   UNL A   1      44.860  21.619  25.019  1.00  0.00     0.041 A 
ATOM      8  C   UNL A   1      46.099  21.169  24.574  1.00  0.00     0.030 A 
ATOM      9  C   UNL A   1      43.949  20.682  25.518  1.00  0.00     0.043 A 
ATOM     10  C   UNL A   1      46.445  19.826  24.696  1.00  0.00     0.049 A 
ATOM     11  C   UNL A   1      45.536  18.905  25.238  1.00  0.00     0.128 A 
BRANCH   7  12
ATOM     12  N   UNL A   1      44.473  22.964  24.902  1.00  0.00    -0.340 N 
ATOM     13  H   UNL A   1      43.690  23.151  24.337  1.00  0.00     0.168 HD
BRANCH  12  14
ATOM     14  C   UNL A   1      45.094  24.075  25.511  1.00  0.00     0.142 A 
ATOM     15  C   UNL A   1      46.196  26.082  25.290  1.00  0.00     0.137 A 
ATOM     16  N   UNL A   1      45.701  24.978  24.719  1.00  0.00    -0.215 NA
ATOM     17  N   UNL A   1      46.058  26.375  26.590  1.00  0.00    -0.233 NA
ATOM     18  C   UNL A   1      45.554  25.431  27.387  1.00  0.00     0.076 A 
ATOM     19  C   UNL A   1      45.066  24.213  26.906  1.00  0.00     0.043 A 
ATOM     20  C   UNL A   1      45.549  25.657  28.757  1.00  0.00     0.029 A 
ATOM     21  C   UNL A   1      44.612  23.230  27.824  1.00  0.00     0.014 A 
ATOM     22  C   UNL A   1      45.113  24.689  29.663  1.00  0.00     0.002 A 
ATOM     23  C   UNL A   1      44.650  23.467  29.196  1.00  0.00     0.001 A 
BRANCH  15  24
ATOM     24  C   UNL A   1      46.952  27.014  24.386  1.00  0.00     0.138 C 
BRANCH  24  25
ATOM     25  C   UNL A   1      48.487  26.891  24.360  1.00  0.00     0.269 C 
BRANCH  25  26
ATOM     26  N   UNL A   1      49.287  27.041  25.593  1.00  0.00    -0.339 N 
ATOM     27  C   UNL A   1      49.569  25.774  26.257  1.00  0.00     0.332 C 
ATOM     28  C   UNL A   1      50.514  27.806  25.404  1.00  0.00     0.332 C 
ATOM     29  H   UNL A   1      48.685  27.586  26.211  1.00  0.00     0.347 HD
ENDBRANCH  25  26
ENDBRANCH  24  25
ENDBRANCH  15  24
ENDBRANCH  12  14
ENDBRANCH   7  12
BRANCH  11  30
ATOM     30  O   UNL A   1      45.992  17.634  25.414  1.00  0.00    -0.507 OA
ATOM     31  H   UNL A   1      45.659  17.110  26.114  1.00  0.00     0.293 HD
ENDBRANCH  11  30
ENDBRANCH   3   6
ENDBRANCH   1   2
BRANCH   1  32
ATOM     32  C   UNL A   1      40.921  20.918  27.567  1.00  0.00     0.042 C 
BRANCH  32  33
ATOM     33  C   UNL A   1      40.851  22.434  27.440  1.00  0.00     0.118 C 
BRANCH  33  34
ATOM     34  N   UNL A   1      39.846  22.846  26.474  1.00  0.00    -0.352 N 
ATOM     35  C   UNL A   1      39.101  23.999  26.422  1.00  0.00     0.251 C 
ATOM     36  H   UNL A   1      39.673  22.203  25.749  1.00  0.00     0.163 HD
ATOM     37  O   UNL A   1      38.120  24.040  25.683  1.00  0.00    -0.269 OA
BRANCH  35  38
ATOM     38  C   UNL A   1      39.460  25.176  27.248  1.00  0.00     0.039 A 
ATOM     39  C   UNL A   1      38.965  25.256  28.554  1.00  0.00     0.014 A 
ATOM     40  C   UNL A   1      40.230  26.224  26.733  1.00  0.00     0.014 A 
ATOM     41  C   UNL A   1      39.276  26.360  29.353  1.00  0.00     0.010 A 
ATOM     42  C   UNL A   1      40.598  27.289  27.554  1.00  0.00     0.010 A 
ATOM     43  C   UNL A   1      40.117  27.374  28.868  1.00  0.00    -0.014 A 
BRANCH  43  44
ATOM     44  C   UNL A   1      40.486  28.540  29.716  1.00  0.00     0.031 A 
ATOM     45  C   UNL A   1      41.757  28.511  30.524  1.00  0.00     0.074 A 
ATOM     46  C   UNL A   1      39.647  29.591  29.807  1.00  0.00     0.049 A 
ATOM     47  N   UNL A   1      42.209  29.385  31.387  1.00  0.00    -0.248 NA
ATOM     48  C   UNL A   1      42.618  27.329  30.360  1.00  0.00     0.031 C 
ATOM     49  C   UNL A   1      38.368  29.711  29.103  1.00  0.00     0.029 A 
ATOM     50  N   UNL A   1      39.732  30.750  30.538  1.00  0.00    -0.354 N 
ATOM     51  C   UNL A   1      43.393  28.849  31.886  1.00  0.00     0.074 A 
ATOM     52  C   UNL A   1      43.562  27.554  31.262  1.00  0.00     0.031 C 
ATOM     53  C   UNL A   1      37.795  30.881  29.429  1.00  0.00     0.029 A 
ATOM     54  C   UNL A   1      38.639  31.574  30.396  1.00  0.00     0.049 A 
ATOM     55  H   UNL A   1      40.502  30.970  31.109  1.00  0.00     0.167 HD
ATOM     56  C   UNL A   1      44.262  29.394  32.773  1.00  0.00     0.034 A 
ATOM     57  C   UNL A   1      38.343  32.748  30.992  1.00  0.00     0.034 A 
ATOM     58  C   UNL A   1      44.090  30.698  33.364  1.00  0.00     0.049 A 
ATOM     59  C   UNL A   1      39.330  33.336  31.967  1.00  0.00     0.074 A 
ATOM     60  C   UNL A   1      44.946  31.380  34.214  1.00  0.00     0.029 A 
ATOM     61  N   UNL A   1      42.984  31.518  33.176  1.00  0.00    -0.354 N 
ATOM     62  N   UNL A   1      40.476  32.843  32.381  1.00  0.00    -0.248 NA
ATOM     63  C   UNL A   1      38.994  34.644  32.544  1.00  0.00     0.031 C 
ATOM     64  C   UNL A   1      44.329  32.578  34.589  1.00  0.00     0.029 A 
ATOM     65  C   UNL A   1      43.123  32.682  33.916  1.00  0.00     0.049 A 
ATOM     66  H   UNL A   1      42.215  31.304  32.601  1.00  0.00     0.167 HD
ATOM     67  C   UNL A   1      41.009  33.797  33.242  1.00  0.00     0.074 A 
ATOM     68  C   UNL A   1      40.070  34.899  33.275  1.00  0.00     0.031 C 
ATOM     69  C   UNL A   1      42.173  33.769  33.942  1.00  0.00     0.034 A 
BRANCH  56  70
ATOM     70  C   UNL A   1      45.461  28.570  33.177  1.00  0.00     0.023 A 
ATOM     71  C   UNL A   1      45.404  27.638  34.228  1.00  0.00     0.031 A 
ATOM     72  C   UNL A   1      46.686  28.723  32.500  1.00  0.00     0.131 A 
ATOM     73  C   UNL A   1      46.560  26.941  34.612  1.00  0.00     0.055 A 
ATOM     74  C   UNL A   1      47.814  27.972  32.838  1.00  0.00     0.041 A 
ATOM     75  F   UNL A   1      46.808  29.611  31.502  1.00  0.00    -0.206 F 
ATOM     76  C   UNL A   1      47.758  27.084  33.909  1.00  0.00     0.022 A 
BRANCH  73  77
ATOM     77  S   UNL A   1      46.508  25.936  36.119  1.00  0.00     0.124 S 
ATOM     78  O   UNL A   1      47.889  25.469  36.211  1.00  0.00    -0.237 OA
ATOM     79  O   UNL A   1      46.091  26.901  37.130  1.00  0.00    -0.237 OA
ATOM     80  O   UNL A   1      45.527  24.897  35.806  1.00  0.00    -0.744 OA
ENDBRANCH  73  77
ENDBRANCH  56  70
BRANCH  57  81
ATOM     81  C   UNL A   1      37.051  33.437  30.706  1.00  0.00     0.023 A 
ATOM     82  C   UNL A   1      36.119  33.685  31.727  1.00  0.00     0.031 A 
ATOM     83  C   UNL A   1      36.707  33.812  29.395  1.00  0.00     0.131 A 
ATOM     84  C   UNL A   1      34.869  34.243  31.412  1.00  0.00     0.055 A 
ATOM     85  C   UNL A   1      35.484  34.417  29.096  1.00  0.00     0.041 A 
ATOM     86  F   UNL A   1      37.563  33.603  28.381  1.00  0.00    -0.206 F 
ATOM     87  C   UNL A   1      34.550  34.621  30.107  1.00  0.00     0.022 A 
BRANCH  84  88
ATOM     88  S   UNL A   1      33.624  34.375  32.725  1.00  0.00     0.124 S 
ATOM     89  O   UNL A   1      33.401  32.975  33.066  1.00  0.00    -0.237 OA
ATOM     90  O   UNL A   1      34.323  35.176  33.724  1.00  0.00    -0.237 OA
ATOM     91  O   UNL A   1      32.504  35.043  32.065  1.00  0.00    -0.744 OA
ENDBRANCH  84  88
ENDBRANCH  57  81
BRANCH  69  92
ATOM     92  C   UNL A   1      42.510  34.990  34.761  1.00  0.00     0.023 A 
ATOM     93  C   UNL A   1      42.014  35.168  36.064  1.00  0.00     0.031 A 
ATOM     94  C   UNL A   1      43.332  35.996  34.221  1.00  0.00     0.131 A 
ATOM     95  C   UNL A   1      42.300  36.350  36.764  1.00  0.00     0.055 A 
ATOM     96  C   UNL A   1      43.662  37.141  34.945  1.00  0.00     0.041 A 
ATOM     97  F   UNL A   1      43.832  35.877  32.980  1.00  0.00    -0.206 F 
ATOM     98  C   UNL A   1      43.135  37.329  36.219  1.00  0.00     0.022 A 
BRANCH  95  99
ATOM     99  S   UNL A   1      41.494  36.631  38.364  1.00  0.00     0.124 S 
ATOM    100  O   UNL A   1      40.120  36.916  37.965  1.00  0.00    -0.237 OA
ATOM    101  O   UNL A   1      41.709  35.361  39.050  1.00  0.00    -0.237 OA
ATOM    102  O   UNL A   1      42.226  37.767  38.922  1.00  0.00    -0.744 OA
ENDBRANCH  95  99
ENDBRANCH  69  92
ENDBRANCH  43  44
ENDBRANCH  35  38
ENDBRANCH  33  34
ENDBRANCH  32  33
ENDBRANCH   1  32
TORSDOF 19
ENDMDL
