MODEL 1
REMARK VINA RESULT:     -12.7      0.000      0.000
REMARK SMILES CC1=C[C@H](C)[C@H](CN2C[C@@]34C=C[C@@H](O3)[C@H](C(=O)NCCCNC(=O)c3ccc(-c5c6nc(c(-c7cc(S(=O)(=O)[O-])ccc7F)c7ccc([nH]7)c(-c7cc(S(=O)(=O)[O-])ccc7F)c7nc(c(-c8cc(S(=O)(=O)[O-])ccc8F)c8ccc5[nH]8)C=C7)C=C6)cc3)[C@@H]4C2=O)[C@H](C)C1
REMARK SMILES IDX 20 1 19 2 18 3 16 4 17 5 15 7 8 8 9 9 89 10 10 11 88 12
REMARK SMILES IDX 90 13 11 14 14 15 12 16 13 17 7 18 6 19 1 20 2 21 3 22 93 23
REMARK SMILES IDX 4 24 91 25 5 26 92 27 21 28 22 29 23 30 24 32 25 33 26 34
REMARK SMILES IDX 87 35 27 36 86 37 28 38 29 39 30 40 80 41 31 42 85 43 79 44
REMARK SMILES IDX 81 45 32 46 84 47 78 48 77 49 33 51 65 52 45 53 64 54 46 55
REMARK SMILES IDX 49 56 63 57 82 58 47 59 48 60 62 62 83 63 50 64 34 65 35 66
REMARK SMILES IDX 43 67 36 68 42 69 44 70 41 71 37 72 38 73 39 74 40 75 66 76
REMARK SMILES IDX 67 77 75 78 68 79 74 80 76 81 73 82 69 83 70 84 71 85 72 86
REMARK SMILES IDX 51 87 52 88 60 89 53 90 59 91 61 92 58 93 54 94 55 95 56 96
REMARK SMILES IDX 57 97
REMARK H PARENT 18 6 22 31 81 50 49 61
REMARK Flexibility Score: inf
ROOT
ATOM      1  C   UNL A   1      31.365  32.269  26.501  1.00  0.00     0.042 C 
ENDROOT
BRANCH   1   2
ATOM      2  C   UNL A   1      31.384  30.837  25.981  1.00  0.00     0.117 C 
BRANCH   2   3
ATOM      3  N   UNL A   1      32.668  30.194  26.181  1.00  0.00    -0.356 N 
ATOM      4  C   UNL A   1      33.214  29.041  25.747  1.00  0.00     0.227 C 
ATOM      5  O   UNL A   1      34.392  28.855  26.088  1.00  0.00    -0.275 OA
ATOM      6  H   UNL A   1      33.272  30.711  26.761  1.00  0.00     0.163 HD
BRANCH   4   7
ATOM      7  C   UNL A   1      32.526  27.936  24.978  1.00  0.00     0.127 C 
ATOM      8  N   UNL A   1      34.283  24.731  24.037  1.00  0.00    -0.339 N 
ATOM      9  C   UNL A   1      33.645  25.173  22.788  1.00  0.00     0.160 C 
ATOM     10  C   UNL A   1      34.197  25.706  25.055  1.00  0.00     0.230 C 
ATOM     11  C   UNL A   1      33.190  26.588  23.117  1.00  0.00     0.117 C 
ATOM     12  C   UNL A   1      33.068  26.570  24.645  1.00  0.00     0.132 C 
ATOM     13  O   UNL A   1      34.771  25.714  26.135  1.00  0.00    -0.274 OA
ATOM     14  C   UNL A   1      33.941  27.741  22.509  1.00  0.00     0.009 C 
ATOM     15  O   UNL A   1      31.842  27.055  22.888  1.00  0.00    -0.360 OA
ATOM     16  C   UNL A   1      33.209  28.835  22.753  1.00  0.00     0.004 C 
ATOM     17  C   UNL A   1      32.045  28.368  23.566  1.00  0.00     0.155 C 
BRANCH   8  18
ATOM     18  C   UNL A   1      34.953  23.460  24.263  1.00  0.00     0.124 C 
BRANCH  18  19
ATOM     19  C   UNL A   1      34.146  22.124  24.194  1.00  0.00     0.018 C 
ATOM     20  C   UNL A   1      32.528  18.202  25.649  1.00  0.00     0.039 C 
ATOM     21  C   UNL A   1      33.110  19.494  25.152  1.00  0.00    -0.077 C 
ATOM     22  C   UNL A   1      34.414  19.616  24.872  1.00  0.00    -0.025 C 
ATOM     23  C   UNL A   1      32.163  20.637  24.967  1.00  0.00     0.034 C 
ATOM     24  C   UNL A   1      35.096  20.880  24.415  1.00  0.00     0.014 C 
ATOM     25  C   UNL A   1      32.812  22.038  24.995  1.00  0.00    -0.005 C 
ATOM     26  C   UNL A   1      36.282  21.096  25.370  1.00  0.00     0.012 C 
ATOM     27  C   UNL A   1      32.880  22.568  26.426  1.00  0.00     0.008 C 
ENDBRANCH  18  19
ENDBRANCH   8  18
ENDBRANCH   4   7
ENDBRANCH   2   3
ENDBRANCH   1   2
BRANCH   1  28
ATOM     28  C   UNL A   1      32.626  32.681  27.253  1.00  0.00     0.118 C 
BRANCH  28  29
ATOM     29  N   UNL A   1      32.574  34.044  27.767  1.00  0.00    -0.352 N 
ATOM     30  C   UNL A   1      33.382  34.661  28.697  1.00  0.00     0.251 C 
ATOM     31  H   UNL A   1      31.856  34.606  27.396  1.00  0.00     0.163 HD
ATOM     32  O   UNL A   1      33.100  35.786  29.100  1.00  0.00    -0.269 OA
BRANCH  30  33
ATOM     33  C   UNL A   1      34.559  33.948  29.241  1.00  0.00     0.039 A 
ATOM     34  C   UNL A   1      35.841  34.371  28.875  1.00  0.00     0.014 A 
ATOM     35  C   UNL A   1      34.404  32.891  30.138  1.00  0.00     0.014 A 
ATOM     36  C   UNL A   1      36.961  33.796  29.483  1.00  0.00     0.010 A 
ATOM     37  C   UNL A   1      35.512  32.390  30.812  1.00  0.00     0.010 A 
ATOM     38  C   UNL A   1      36.805  32.838  30.496  1.00  0.00    -0.014 A 
BRANCH  38  39
ATOM     39  C   UNL A   1      37.966  32.264  31.229  1.00  0.00     0.031 A 
ATOM     40  C   UNL A   1      38.755  31.143  30.606  1.00  0.00     0.074 A 
ATOM     41  C   UNL A   1      38.245  32.668  32.484  1.00  0.00     0.049 A 
ATOM     42  N   UNL A   1      39.666  30.369  31.138  1.00  0.00    -0.248 NA
ATOM     43  C   UNL A   1      38.432  30.819  29.208  1.00  0.00     0.031 C 
ATOM     44  C   UNL A   1      37.528  33.714  33.220  1.00  0.00     0.029 A 
ATOM     45  N   UNL A   1      39.195  32.234  33.375  1.00  0.00    -0.354 N 
ATOM     46  C   UNL A   1      39.991  29.439  30.156  1.00  0.00     0.074 A 
ATOM     47  C   UNL A   1      39.136  29.714  29.020  1.00  0.00     0.031 C 
ATOM     48  C   UNL A   1      38.077  33.851  34.438  1.00  0.00     0.029 A 
ATOM     49  C   UNL A   1      39.150  32.874  34.592  1.00  0.00     0.049 A 
ATOM     50  H   UNL A   1      39.849  31.529  33.162  1.00  0.00     0.167 HD
ATOM     51  C   UNL A   1      40.930  28.459  30.189  1.00  0.00     0.034 A 
ATOM     52  C   UNL A   1      39.878  32.684  35.710  1.00  0.00     0.034 A 
ATOM     53  C   UNL A   1      41.806  28.231  31.310  1.00  0.00     0.049 A 
ATOM     54  C   UNL A   1      40.942  31.616  35.714  1.00  0.00     0.074 A 
ATOM     55  C   UNL A   1      42.831  27.308  31.434  1.00  0.00     0.029 A 
ATOM     56  N   UNL A   1      41.767  28.942  32.504  1.00  0.00    -0.354 N 
ATOM     57  N   UNL A   1      41.253  30.757  34.771  1.00  0.00    -0.248 NA
ATOM     58  C   UNL A   1      41.759  31.499  36.929  1.00  0.00     0.031 C 
ATOM     59  C   UNL A   1      43.383  27.434  32.715  1.00  0.00     0.029 A 
ATOM     60  C   UNL A   1      42.742  28.474  33.370  1.00  0.00     0.049 A 
ATOM     61  H   UNL A   1      41.138  29.672  32.705  1.00  0.00     0.167 HD
ATOM     62  C   UNL A   1      42.322  30.019  35.268  1.00  0.00     0.074 A 
ATOM     63  C   UNL A   1      42.607  30.538  36.590  1.00  0.00     0.031 C 
ATOM     64  C   UNL A   1      43.011  29.007  34.683  1.00  0.00     0.034 A 
BRANCH  51  65
ATOM     65  C   UNL A   1      41.030  27.559  28.980  1.00  0.00     0.023 A 
ATOM     66  C   UNL A   1      42.050  27.718  28.026  1.00  0.00     0.031 A 
ATOM     67  C   UNL A   1      40.062  26.566  28.749  1.00  0.00     0.131 A 
ATOM     68  C   UNL A   1      42.023  26.969  26.841  1.00  0.00     0.055 A 
ATOM     69  C   UNL A   1      40.094  25.760  27.608  1.00  0.00     0.041 A 
ATOM     70  F   UNL A   1      39.055  26.377  29.615  1.00  0.00    -0.206 F 
ATOM     71  C   UNL A   1      41.067  25.973  26.636  1.00  0.00     0.022 A 
BRANCH  68  72
ATOM     72  S   UNL A   1      43.157  27.433  25.503  1.00  0.00     0.124 S 
ATOM     73  O   UNL A   1      42.277  28.202  24.626  1.00  0.00    -0.237 OA
ATOM     74  O   UNL A   1      44.182  28.195  26.207  1.00  0.00    -0.237 OA
ATOM     75  O   UNL A   1      43.595  26.147  24.963  1.00  0.00    -0.744 OA
ENDBRANCH  68  72
ENDBRANCH  51  65
BRANCH  52  76
ATOM     76  C   UNL A   1      39.630  33.512  36.924  1.00  0.00     0.023 A 
ATOM     77  C   UNL A   1      38.886  33.006  38.001  1.00  0.00     0.031 A 
ATOM     78  C   UNL A   1      40.107  34.831  37.012  1.00  0.00     0.131 A 
ATOM     79  C   UNL A   1      38.601  33.828  39.102  1.00  0.00     0.055 A 
ATOM     80  C   UNL A   1      39.858  35.631  38.129  1.00  0.00     0.041 A 
ATOM     81  F   UNL A   1      40.834  35.359  36.014  1.00  0.00    -0.206 F 
ATOM     82  C   UNL A   1      39.090  35.133  39.177  1.00  0.00     0.022 A 
BRANCH  79  83
ATOM     83  S   UNL A   1      37.517  33.186  40.407  1.00  0.00     0.124 S 
ATOM     84  O   UNL A   1      37.302  34.372  41.228  1.00  0.00    -0.237 OA
ATOM     85  O   UNL A   1      36.367  32.719  39.640  1.00  0.00    -0.237 OA
ATOM     86  O   UNL A   1      38.319  32.133  41.027  1.00  0.00    -0.744 OA
ENDBRANCH  79  83
ENDBRANCH  52  76
BRANCH  64  87
ATOM     87  C   UNL A   1      44.178  28.442  35.451  1.00  0.00     0.023 A 
ATOM     88  C   UNL A   1      44.013  27.418  36.399  1.00  0.00     0.031 A 
ATOM     89  C   UNL A   1      45.473  28.941  35.225  1.00  0.00     0.131 A 
ATOM     90  C   UNL A   1      45.123  26.956  37.122  1.00  0.00     0.055 A 
ATOM     91  C   UNL A   1      46.579  28.444  35.913  1.00  0.00     0.041 A 
ATOM     92  F   UNL A   1      45.680  29.920  34.329  1.00  0.00    -0.206 F 
ATOM     93  C   UNL A   1      46.406  27.453  36.875  1.00  0.00     0.022 A 
BRANCH  90  94
ATOM     94  S   UNL A   1      44.860  25.739  38.439  1.00  0.00     0.124 S 
ATOM     95  O   UNL A   1      46.155  25.731  39.110  1.00  0.00    -0.237 OA
ATOM     96  O   UNL A   1      43.756  26.327  39.193  1.00  0.00    -0.237 OA
ATOM     97  O   UNL A   1      44.529  24.513  37.715  1.00  0.00    -0.744 OA
ENDBRANCH  90  94
ENDBRANCH  64  87
ENDBRANCH  38  39
ENDBRANCH  30  33
ENDBRANCH  28  29
ENDBRANCH   1  28
TORSDOF 15
ENDMDL
MODEL 2
REMARK VINA RESULT:     -12.5      1.691      7.657
REMARK SMILES CC1=C[C@H](C)[C@H](CN2C[C@@]34C=C[C@@H](O3)[C@H](C(=O)NCCCNC(=O)c3ccc(-c5c6nc(c(-c7cc(S(=O)(=O)[O-])ccc7F)c7ccc([nH]7)c(-c7cc(S(=O)(=O)[O-])ccc7F)c7nc(c(-c8cc(S(=O)(=O)[O-])ccc8F)c8ccc5[nH]8)C=C7)C=C6)cc3)[C@@H]4C2=O)[C@H](C)C1
REMARK SMILES IDX 20 1 19 2 18 3 16 4 17 5 15 7 8 8 9 9 89 10 10 11 88 12
REMARK SMILES IDX 90 13 11 14 14 15 12 16 13 17 7 18 6 19 1 20 2 21 3 22 93 23
REMARK SMILES IDX 4 24 91 25 5 26 92 27 21 28 22 29 23 30 24 32 25 33 26 34
REMARK SMILES IDX 87 35 27 36 86 37 28 38 29 39 30 40 80 41 31 42 85 43 79 44
REMARK SMILES IDX 81 45 32 46 84 47 78 48 77 49 33 51 65 52 45 53 64 54 46 55
REMARK SMILES IDX 49 56 63 57 82 58 47 59 48 60 62 62 83 63 50 64 34 65 35 66
REMARK SMILES IDX 43 67 36 68 42 69 44 70 41 71 37 72 38 73 39 74 40 75 66 76
REMARK SMILES IDX 67 77 75 78 68 79 74 80 76 81 73 82 69 83 70 84 71 85 72 86
REMARK SMILES IDX 51 87 52 88 60 89 53 90 59 91 61 92 58 93 54 94 55 95 56 96
REMARK SMILES IDX 57 97
REMARK H PARENT 18 6 22 31 81 50 49 61
REMARK Flexibility Score: inf
ROOT
ATOM      1  C   UNL A   1      31.031  32.521  26.193  1.00  0.00     0.042 C 
ENDROOT
BRANCH   1   2
ATOM      2  C   UNL A   1      30.875  31.174  25.497  1.00  0.00     0.117 C 
BRANCH   2   3
ATOM      3  N   UNL A   1      31.864  30.209  25.936  1.00  0.00    -0.356 N 
ATOM      4  C   UNL A   1      32.179  28.955  25.557  1.00  0.00     0.227 C 
ATOM      5  O   UNL A   1      33.154  28.458  26.140  1.00  0.00    -0.275 OA
ATOM      6  H   UNL A   1      32.429  30.542  26.670  1.00  0.00     0.163 HD
BRANCH   4   7
ATOM      7  C   UNL A   1      31.427  28.079  24.581  1.00  0.00     0.127 C 
ATOM      8  N   UNL A   1      32.188  24.406  24.159  1.00  0.00    -0.339 N 
ATOM      9  C   UNL A   1      32.154  24.928  22.785  1.00  0.00     0.160 C 
ATOM     10  C   UNL A   1      32.131  25.436  25.124  1.00  0.00     0.230 C 
ATOM     11  C   UNL A   1      32.130  26.436  22.991  1.00  0.00     0.117 C 
ATOM     12  C   UNL A   1      31.546  26.588  24.399  1.00  0.00     0.132 C 
ATOM     13  O   UNL A   1      32.311  25.345  26.329  1.00  0.00    -0.274 OA
ATOM     14  C   UNL A   1      33.376  27.220  22.683  1.00  0.00     0.009 C 
ATOM     15  O   UNL A   1      31.162  27.301  22.358  1.00  0.00    -0.360 OA
ATOM     16  C   UNL A   1      33.024  28.512  22.712  1.00  0.00     0.004 C 
ATOM     17  C   UNL A   1      31.580  28.525  23.101  1.00  0.00     0.155 C 
BRANCH   8  18
ATOM     18  C   UNL A   1      32.282  23.009  24.552  1.00  0.00     0.124 C 
BRANCH  18  19
ATOM     19  C   UNL A   1      33.629  22.434  25.096  1.00  0.00     0.018 C 
ATOM     20  C   UNL A   1      37.478  20.134  24.988  1.00  0.00     0.039 C 
ATOM     21  C   UNL A   1      36.166  20.865  25.032  1.00  0.00    -0.077 C 
ATOM     22  C   UNL A   1      34.998  20.211  25.037  1.00  0.00    -0.025 C 
ATOM     23  C   UNL A   1      36.224  22.358  25.086  1.00  0.00     0.034 C 
ATOM     24  C   UNL A   1      33.635  20.855  25.033  1.00  0.00     0.014 C 
ATOM     25  C   UNL A   1      34.953  23.083  24.591  1.00  0.00    -0.005 C 
ATOM     26  C   UNL A   1      32.866  20.223  23.861  1.00  0.00     0.012 C 
ATOM     27  C   UNL A   1      35.024  23.320  23.083  1.00  0.00     0.008 C 
ENDBRANCH  18  19
ENDBRANCH   8  18
ENDBRANCH   4   7
ENDBRANCH   2   3
ENDBRANCH   1   2
BRANCH   1  28
ATOM     28  C   UNL A   1      32.302  32.657  27.023  1.00  0.00     0.118 C 
BRANCH  28  29
ATOM     29  N   UNL A   1      32.526  34.007  27.523  1.00  0.00    -0.352 N 
ATOM     30  C   UNL A   1      33.515  34.480  28.358  1.00  0.00     0.251 C 
ATOM     31  H   UNL A   1      31.874  34.680  27.221  1.00  0.00     0.163 HD
ATOM     32  O   UNL A   1      33.464  35.634  28.774  1.00  0.00    -0.269 OA
BRANCH  30  33
ATOM     33  C   UNL A   1      34.611  33.581  28.786  1.00  0.00     0.039 A 
ATOM     34  C   UNL A   1      35.935  33.948  28.524  1.00  0.00     0.014 A 
ATOM     35  C   UNL A   1      34.339  32.400  29.476  1.00  0.00     0.014 A 
ATOM     36  C   UNL A   1      36.983  33.180  29.040  1.00  0.00     0.010 A 
ATOM     37  C   UNL A   1      35.379  31.693  30.070  1.00  0.00     0.010 A 
ATOM     38  C   UNL A   1      36.714  32.075  29.862  1.00  0.00    -0.014 A 
BRANCH  38  39
ATOM     39  C   UNL A   1      37.798  31.281  30.502  1.00  0.00     0.031 A 
ATOM     40  C   UNL A   1      38.182  31.569  31.929  1.00  0.00     0.074 A 
ATOM     41  C   UNL A   1      38.503  30.387  29.781  1.00  0.00     0.049 A 
ATOM     42  N   UNL A   1      39.213  31.147  32.616  1.00  0.00    -0.248 NA
ATOM     43  C   UNL A   1      37.312  32.501  32.662  1.00  0.00     0.031 C 
ATOM     44  C   UNL A   1      38.263  30.048  28.376  1.00  0.00     0.029 A 
ATOM     45  N   UNL A   1      39.584  29.612  30.125  1.00  0.00    -0.354 N 
ATOM     46  C   UNL A   1      39.140  31.798  33.844  1.00  0.00     0.074 A 
ATOM     47  C   UNL A   1      37.996  32.684  33.781  1.00  0.00     0.031 C 
ATOM     48  C   UNL A   1      39.154  29.122  27.986  1.00  0.00     0.029 A 
ATOM     49  C   UNL A   1      40.060  28.835  29.094  1.00  0.00     0.049 A 
ATOM     50  H   UNL A   1      39.980  29.612  31.026  1.00  0.00     0.167 HD
ATOM     51  C   UNL A   1      39.940  31.655  34.931  1.00  0.00     0.034 A 
ATOM     52  C   UNL A   1      41.117  28.001  29.041  1.00  0.00     0.034 A 
ATOM     53  C   UNL A   1      41.045  30.733  34.994  1.00  0.00     0.049 A 
ATOM     54  C   UNL A   1      41.971  27.827  30.271  1.00  0.00     0.074 A 
ATOM     55  C   UNL A   1      41.887  30.461  36.059  1.00  0.00     0.029 A 
ATOM     56  N   UNL A   1      41.459  29.920  33.945  1.00  0.00    -0.354 N 
ATOM     57  N   UNL A   1      41.877  28.434  31.432  1.00  0.00    -0.248 NA
ATOM     58  C   UNL A   1      43.064  26.850  30.187  1.00  0.00     0.031 C 
ATOM     59  C   UNL A   1      42.832  29.516  35.642  1.00  0.00     0.029 A 
ATOM     60  C   UNL A   1      42.546  29.154  34.335  1.00  0.00     0.049 A 
ATOM     61  H   UNL A   1      41.041  29.892  33.054  1.00  0.00     0.167 HD
ATOM     62  C   UNL A   1      42.881  27.888  32.226  1.00  0.00     0.074 A 
ATOM     63  C   UNL A   1      43.562  26.900  31.414  1.00  0.00     0.031 C 
ATOM     64  C   UNL A   1      43.208  28.173  33.512  1.00  0.00     0.034 A 
BRANCH  51  65
ATOM     65  C   UNL A   1      39.647  32.537  36.122  1.00  0.00     0.023 A 
ATOM     66  C   UNL A   1      38.818  32.105  37.172  1.00  0.00     0.031 A 
ATOM     67  C   UNL A   1      40.157  33.845  36.183  1.00  0.00     0.131 A 
ATOM     68  C   UNL A   1      38.444  33.002  38.183  1.00  0.00     0.055 A 
ATOM     69  C   UNL A   1      39.854  34.704  37.242  1.00  0.00     0.041 A 
ATOM     70  F   UNL A   1      40.942  34.321  35.203  1.00  0.00    -0.206 F 
ATOM     71  C   UNL A   1      38.976  34.291  38.240  1.00  0.00     0.022 A 
BRANCH  68  72
ATOM     72  S   UNL A   1      37.124  32.509  39.326  1.00  0.00     0.124 S 
ATOM     73  O   UNL A   1      35.932  32.727  38.509  1.00  0.00    -0.237 OA
ATOM     74  O   UNL A   1      37.457  31.119  39.612  1.00  0.00    -0.237 OA
ATOM     75  O   UNL A   1      37.279  33.433  40.447  1.00  0.00    -0.744 OA
ENDBRANCH  68  72
ENDBRANCH  51  65
BRANCH  52  76
ATOM     76  C   UNL A   1      41.439  27.267  27.785  1.00  0.00     0.023 A 
ATOM     77  C   UNL A   1      41.274  25.876  27.702  1.00  0.00     0.031 A 
ATOM     78  C   UNL A   1      41.947  27.941  26.660  1.00  0.00     0.131 A 
ATOM     79  C   UNL A   1      41.654  25.195  26.535  1.00  0.00     0.055 A 
ATOM     80  C   UNL A   1      42.283  27.264  25.486  1.00  0.00     0.041 A 
ATOM     81  F   UNL A   1      42.114  29.273  26.685  1.00  0.00    -0.206 F 
ATOM     82  C   UNL A   1      42.149  25.881  25.424  1.00  0.00     0.022 A 
BRANCH  79  83
ATOM     83  S   UNL A   1      41.560  23.383  26.517  1.00  0.00     0.124 S 
ATOM     84  O   UNL A   1      42.195  23.039  27.784  1.00  0.00    -0.237 OA
ATOM     85  O   UNL A   1      40.120  23.158  26.439  1.00  0.00    -0.237 OA
ATOM     86  O   UNL A   1      42.311  23.015  25.319  1.00  0.00    -0.744 OA
ENDBRANCH  79  83
ENDBRANCH  52  76
BRANCH  64  87
ATOM     87  C   UNL A   1      44.313  27.358  34.132  1.00  0.00     0.023 A 
ATOM     88  C   UNL A   1      44.077  26.086  34.680  1.00  0.00     0.031 A 
ATOM     89  C   UNL A   1      45.623  27.869  34.172  1.00  0.00     0.131 A 
ATOM     90  C   UNL A   1      45.129  25.385  35.286  1.00  0.00     0.055 A 
ATOM     91  C   UNL A   1      46.674  27.146  34.734  1.00  0.00     0.041 A 
ATOM     92  F   UNL A   1      45.898  29.080  33.661  1.00  0.00    -0.206 F 
ATOM     93  C   UNL A   1      46.428  25.900  35.305  1.00  0.00     0.022 A 
BRANCH  90  94
ATOM     94  S   UNL A   1      44.766  23.812  36.113  1.00  0.00     0.124 S 
ATOM     95  O   UNL A   1      45.932  23.008  35.762  1.00  0.00    -0.237 OA
ATOM     96  O   UNL A   1      44.665  24.210  37.514  1.00  0.00    -0.237 OA
ATOM     97  O   UNL A   1      43.511  23.383  35.500  1.00  0.00    -0.744 OA
ENDBRANCH  90  94
ENDBRANCH  64  87
ENDBRANCH  38  39
ENDBRANCH  30  33
ENDBRANCH  28  29
ENDBRANCH   1  28
TORSDOF 15
ENDMDL
MODEL 3
REMARK VINA RESULT:     -12.5      1.313      1.623
REMARK SMILES CC1=C[C@H](C)[C@H](CN2C[C@@]34C=C[C@@H](O3)[C@H](C(=O)NCCCNC(=O)c3ccc(-c5c6nc(c(-c7cc(S(=O)(=O)[O-])ccc7F)c7ccc([nH]7)c(-c7cc(S(=O)(=O)[O-])ccc7F)c7nc(c(-c8cc(S(=O)(=O)[O-])ccc8F)c8ccc5[nH]8)C=C7)C=C6)cc3)[C@@H]4C2=O)[C@H](C)C1
REMARK SMILES IDX 20 1 19 2 18 3 16 4 17 5 15 7 8 8 9 9 89 10 10 11 88 12
REMARK SMILES IDX 90 13 11 14 14 15 12 16 13 17 7 18 6 19 1 20 2 21 3 22 93 23
REMARK SMILES IDX 4 24 91 25 5 26 92 27 21 28 22 29 23 30 24 32 25 33 26 34
REMARK SMILES IDX 87 35 27 36 86 37 28 38 29 39 30 40 80 41 31 42 85 43 79 44
REMARK SMILES IDX 81 45 32 46 84 47 78 48 77 49 33 51 65 52 45 53 64 54 46 55
REMARK SMILES IDX 49 56 63 57 82 58 47 59 48 60 62 62 83 63 50 64 34 65 35 66
REMARK SMILES IDX 43 67 36 68 42 69 44 70 41 71 37 72 38 73 39 74 40 75 66 76
REMARK SMILES IDX 67 77 75 78 68 79 74 80 76 81 73 82 69 83 70 84 71 85 72 86
REMARK SMILES IDX 51 87 52 88 60 89 53 90 59 91 61 92 58 93 54 94 55 95 56 96
REMARK SMILES IDX 57 97
REMARK H PARENT 18 6 22 31 81 50 49 61
REMARK Flexibility Score: inf
ROOT
ATOM      1  C   UNL A   1      31.027  32.211  26.194  1.00  0.00     0.042 C 
ENDROOT
BRANCH   1   2
ATOM      2  C   UNL A   1      31.112  30.803  25.617  1.00  0.00     0.117 C 
BRANCH   2   3
ATOM      3  N   UNL A   1      32.414  30.199  25.828  1.00  0.00    -0.356 N 
ATOM      4  C   UNL A   1      32.981  29.042  25.437  1.00  0.00     0.227 C 
ATOM      5  O   UNL A   1      34.168  28.898  25.769  1.00  0.00    -0.275 OA
ATOM      6  H   UNL A   1      33.013  30.755  26.376  1.00  0.00     0.163 HD
BRANCH   4   7
ATOM      7  C   UNL A   1      32.310  27.888  24.727  1.00  0.00     0.127 C 
ATOM      8  N   UNL A   1      34.136  24.695  23.882  1.00  0.00    -0.339 N 
ATOM      9  C   UNL A   1      33.463  25.067  22.629  1.00  0.00     0.160 C 
ATOM     10  C   UNL A   1      34.042  25.708  24.862  1.00  0.00     0.230 C 
ATOM     11  C   UNL A   1      32.976  26.482  22.910  1.00  0.00     0.117 C 
ATOM     12  C   UNL A   1      32.882  26.524  24.439  1.00  0.00     0.132 C 
ATOM     13  O   UNL A   1      34.635  25.776  25.929  1.00  0.00    -0.274 OA
ATOM     14  C   UNL A   1      33.684  27.629  22.241  1.00  0.00     0.009 C 
ATOM     15  O   UNL A   1      31.612  26.904  22.688  1.00  0.00    -0.360 OA
ATOM     16  C   UNL A   1      32.927  28.713  22.454  1.00  0.00     0.004 C 
ATOM     17  C   UNL A   1      31.791  28.248  23.308  1.00  0.00     0.155 C 
BRANCH   8  18
ATOM     18  C   UNL A   1      34.844  23.452  24.147  1.00  0.00     0.124 C 
BRANCH  18  19
ATOM     19  C   UNL A   1      34.082  22.089  24.106  1.00  0.00     0.018 C 
ATOM     20  C   UNL A   1      32.544  18.173  25.662  1.00  0.00     0.039 C 
ATOM     21  C   UNL A   1      33.100  19.464  25.133  1.00  0.00    -0.077 C 
ATOM     22  C   UNL A   1      34.407  19.617  24.885  1.00  0.00    -0.025 C 
ATOM     23  C   UNL A   1      32.124  20.569  24.879  1.00  0.00     0.034 C 
ATOM     24  C   UNL A   1      35.063  20.885  24.400  1.00  0.00     0.014 C 
ATOM     25  C   UNL A   1      32.728  21.991  24.873  1.00  0.00    -0.005 C 
ATOM     26  C   UNL A   1      36.213  21.174  25.378  1.00  0.00     0.012 C 
ATOM     27  C   UNL A   1      32.739  22.574  26.285  1.00  0.00     0.008 C 
ENDBRANCH  18  19
ENDBRANCH   8  18
ENDBRANCH   4   7
ENDBRANCH   2   3
ENDBRANCH   1   2
BRANCH   1  28
ATOM     28  C   UNL A   1      32.323  32.716  26.816  1.00  0.00     0.118 C 
BRANCH  28  29
ATOM     29  N   UNL A   1      32.187  34.010  27.471  1.00  0.00    -0.352 N 
ATOM     30  C   UNL A   1      32.955  34.576  28.465  1.00  0.00     0.251 C 
ATOM     31  H   UNL A   1      31.433  34.562  27.157  1.00  0.00     0.163 HD
ATOM     32  O   UNL A   1      32.604  35.631  28.983  1.00  0.00    -0.269 OA
BRANCH  30  33
ATOM     33  C   UNL A   1      34.176  33.884  28.936  1.00  0.00     0.039 A 
ATOM     34  C   UNL A   1      35.428  34.430  28.631  1.00  0.00     0.014 A 
ATOM     35  C   UNL A   1      34.090  32.725  29.707  1.00  0.00     0.014 A 
ATOM     36  C   UNL A   1      36.583  33.865  29.181  1.00  0.00     0.010 A 
ATOM     37  C   UNL A   1      35.228  32.225  30.331  1.00  0.00     0.010 A 
ATOM     38  C   UNL A   1      36.488  32.790  30.079  1.00  0.00    -0.014 A 
BRANCH  38  39
ATOM     39  C   UNL A   1      37.684  32.215  30.754  1.00  0.00     0.031 A 
ATOM     40  C   UNL A   1      38.504  31.171  30.044  1.00  0.00     0.074 A 
ATOM     41  C   UNL A   1      37.969  32.545  32.029  1.00  0.00     0.049 A 
ATOM     42  N   UNL A   1      39.454  30.400  30.508  1.00  0.00    -0.248 NA
ATOM     43  C   UNL A   1      38.169  30.929  28.632  1.00  0.00     0.031 C 
ATOM     44  C   UNL A   1      37.226  33.510  32.845  1.00  0.00     0.029 A 
ATOM     45  N   UNL A   1      38.952  32.090  32.874  1.00  0.00    -0.354 N 
ATOM     46  C   UNL A   1      39.797  29.551  29.460  1.00  0.00     0.074 A 
ATOM     47  C   UNL A   1      38.912  29.868  28.359  1.00  0.00     0.031 C 
ATOM     48  C   UNL A   1      37.791  33.586  34.061  1.00  0.00     0.029 A 
ATOM     49  C   UNL A   1      38.904  32.645  34.132  1.00  0.00     0.049 A 
ATOM     50  H   UNL A   1      39.628  31.428  32.603  1.00  0.00     0.167 HD
ATOM     51  C   UNL A   1      40.773  28.610  29.413  1.00  0.00     0.034 A 
ATOM     52  C   UNL A   1      39.658  32.409  35.223  1.00  0.00     0.034 A 
ATOM     53  C   UNL A   1      41.677  28.341  30.502  1.00  0.00     0.049 A 
ATOM     54  C   UNL A   1      40.763  31.386  35.139  1.00  0.00     0.074 A 
ATOM     55  C   UNL A   1      42.740  27.454  30.548  1.00  0.00     0.029 A 
ATOM     56  N   UNL A   1      41.633  28.969  31.742  1.00  0.00    -0.354 N 
ATOM     57  N   UNL A   1      41.089  30.606  34.134  1.00  0.00    -0.248 NA
ATOM     58  C   UNL A   1      41.606  31.221  36.330  1.00  0.00     0.031 C 
ATOM     59  C   UNL A   1      43.309  27.516  31.825  1.00  0.00     0.029 A 
ATOM     60  C   UNL A   1      42.640  28.483  32.559  1.00  0.00     0.049 A 
ATOM     61  H   UNL A   1      40.979  29.658  32.002  1.00  0.00     0.167 HD
ATOM     62  C   UNL A   1      42.196  29.879  34.563  1.00  0.00     0.074 A 
ATOM     63  C   UNL A   1      42.483  30.319  35.913  1.00  0.00     0.031 C 
ATOM     64  C   UNL A   1      42.913  28.937  33.901  1.00  0.00     0.034 A 
BRANCH  51  65
ATOM     65  C   UNL A   1      40.886  27.798  28.144  1.00  0.00     0.023 A 
ATOM     66  C   UNL A   1      40.398  26.482  28.065  1.00  0.00     0.031 A 
ATOM     67  C   UNL A   1      41.540  28.325  27.017  1.00  0.00     0.131 A 
ATOM     68  C   UNL A   1      40.657  25.705  26.927  1.00  0.00     0.055 A 
ATOM     69  C   UNL A   1      41.714  27.575  25.851  1.00  0.00     0.041 A 
ATOM     70  F   UNL A   1      42.042  29.569  27.036  1.00  0.00    -0.206 F 
ATOM     71  C   UNL A   1      41.290  26.251  25.808  1.00  0.00     0.022 A 
BRANCH  68  72
ATOM     72  S   UNL A   1      40.303  23.928  26.998  1.00  0.00     0.124 S 
ATOM     73  O   UNL A   1      38.884  23.898  26.651  1.00  0.00    -0.237 OA
ATOM     74  O   UNL A   1      41.216  23.383  26.000  1.00  0.00    -0.237 OA
ATOM     75  O   UNL A   1      40.606  23.573  28.383  1.00  0.00    -0.744 OA
ENDBRANCH  68  72
ENDBRANCH  51  65
BRANCH  52  76
ATOM     76  C   UNL A   1      39.401  33.143  36.494  1.00  0.00     0.023 A 
ATOM     77  C   UNL A   1      38.637  32.563  37.518  1.00  0.00     0.031 A 
ATOM     78  C   UNL A   1      39.888  34.447  36.690  1.00  0.00     0.131 A 
ATOM     79  C   UNL A   1      38.343  33.300  38.675  1.00  0.00     0.055 A 
ATOM     80  C   UNL A   1      39.630  35.161  37.862  1.00  0.00     0.041 A 
ATOM     81  F   UNL A   1      40.633  35.043  35.746  1.00  0.00    -0.206 F 
ATOM     82  C   UNL A   1      38.842  34.591  38.858  1.00  0.00     0.022 A 
BRANCH  79  83
ATOM     83  S   UNL A   1      37.235  32.570  39.912  1.00  0.00     0.124 S 
ATOM     84  O   UNL A   1      38.003  31.411  40.354  1.00  0.00    -0.237 OA
ATOM     85  O   UNL A   1      37.102  33.656  40.876  1.00  0.00    -0.237 OA
ATOM     86  O   UNL A   1      36.027  32.265  39.149  1.00  0.00    -0.744 OA
ENDBRANCH  79  83
ENDBRANCH  52  76
BRANCH  64  87
ATOM     87  C   UNL A   1      44.113  28.368  34.611  1.00  0.00     0.023 A 
ATOM     88  C   UNL A   1      44.017  27.236  35.437  1.00  0.00     0.031 A 
ATOM     89  C   UNL A   1      45.372  28.975  34.454  1.00  0.00     0.131 A 
ATOM     90  C   UNL A   1      45.155  26.771  36.113  1.00  0.00     0.055 A 
ATOM     91  C   UNL A   1      46.509  28.479  35.091  1.00  0.00     0.041 A 
ATOM     92  F   UNL A   1      45.514  30.060  33.675  1.00  0.00    -0.206 F 
ATOM     93  C   UNL A   1      46.402  27.376  35.935  1.00  0.00     0.022 A 
BRANCH  90  94
ATOM     94  S   UNL A   1      44.972  25.399  37.284  1.00  0.00     0.124 S 
ATOM     95  O   UNL A   1      43.883  24.634  36.689  1.00  0.00    -0.237 OA
ATOM     96  O   UNL A   1      46.290  24.772  37.240  1.00  0.00    -0.237 OA
ATOM     97  O   UNL A   1      44.647  26.063  38.545  1.00  0.00    -0.744 OA
ENDBRANCH  90  94
ENDBRANCH  64  87
ENDBRANCH  38  39
ENDBRANCH  30  33
ENDBRANCH  28  29
ENDBRANCH   1  28
TORSDOF 15
ENDMDL
