MODEL 1
REMARK VINA RESULT:     -12.1      0.000      0.000
REMARK SMILES O=C(Cc1ccc(S(=O)(=O)N2CCNC(=O)C2)cc1)NCCCNC(=O)c1ccc(-c2c3nc(c(-c4cc(S(=O)(=O)[O-])ccc4F)c4ccc([nH]4)c(-c4cc(S(=O)(=O)[O-])ccc4F)c4nc(c(-c5cc(S(=O)(=O)[O-])ccc5F)c5ccc2[nH]5)C=C4)C=C3)cc1
REMARK SMILES IDX 22 1 21 2 20 3 1 4 2 5 3 7 4 8 5 9 19 10 6 11 18 12 7 13
REMARK SMILES IDX 8 14 9 15 10 16 11 17 12 18 17 19 13 20 15 21 14 22 16 23
REMARK SMILES IDX 23 25 24 26 25 27 26 29 27 30 28 31 89 32 29 33 88 34 30 35
REMARK SMILES IDX 31 36 32 37 82 38 33 39 87 40 81 41 83 42 34 43 86 44 80 45
REMARK SMILES IDX 79 46 35 48 67 49 47 50 66 51 48 52 51 53 65 54 84 55 49 56
REMARK SMILES IDX 50 57 64 59 85 60 52 61 36 62 37 63 45 64 38 65 44 66 46 67
REMARK SMILES IDX 43 68 39 69 40 70 41 71 42 72 68 73 69 74 77 75 70 76 76 77
REMARK SMILES IDX 78 78 75 79 71 80 72 81 73 82 74 83 53 84 54 85 62 86 55 87
REMARK SMILES IDX 61 88 63 89 60 90 56 91 57 92 58 93 59 94
REMARK H PARENT 20 6 14 24 24 28 83 47 51 58
REMARK Flexibility Score: inf
ROOT
ATOM      1  C   UNL A   1      31.381  32.314  26.889  1.00  0.00     0.042 C 
ENDROOT
BRANCH   1   2
ATOM      2  C   UNL A   1      31.409  31.123  25.936  1.00  0.00     0.117 C 
BRANCH   2   3
ATOM      3  N   UNL A   1      31.906  29.914  26.566  1.00  0.00    -0.356 N 
ATOM      4  O   UNL A   1      31.115  28.455  24.973  1.00  0.00    -0.275 OA
ATOM      5  C   UNL A   1      31.732  28.661  26.013  1.00  0.00     0.224 C 
ATOM      6  H   UNL A   1      32.387  29.991  27.421  1.00  0.00     0.163 HD
BRANCH   5   7
ATOM      7  C   UNL A   1      32.341  27.527  26.823  1.00  0.00     0.135 C 
BRANCH   7   8
ATOM      8  C   UNL A   1      32.743  26.341  25.977  1.00  0.00    -0.039 A 
ATOM      9  C   UNL A   1      34.045  26.240  25.465  1.00  0.00     0.005 A 
ATOM     10  C   UNL A   1      31.820  25.329  25.689  1.00  0.00     0.005 A 
ATOM     11  C   UNL A   1      34.430  25.117  24.729  1.00  0.00     0.022 A 
ATOM     12  C   UNL A   1      32.194  24.223  24.921  1.00  0.00     0.022 A 
ATOM     13  C   UNL A   1      33.508  24.096  24.473  1.00  0.00     0.082 A 
BRANCH  13  14
ATOM     14  S   UNL A   1      34.059  22.668  23.560  1.00  0.00     0.243 S 
ATOM     15  O   UNL A   1      32.909  22.179  22.830  1.00  0.00    -0.207 OA
ATOM     16  O   UNL A   1      35.268  23.065  22.867  1.00  0.00    -0.207 OA
BRANCH  14  17
ATOM     17  N   UNL A   1      34.512  21.500  24.676  1.00  0.00    -0.187 NA
ATOM     18  C   UNL A   1      34.944  21.864  26.040  1.00  0.00     0.124 C 
ATOM     19  C   UNL A   1      34.029  20.112  24.546  1.00  0.00     0.202 C 
ATOM     20  C   UNL A   1      33.822  21.611  27.044  1.00  0.00     0.132 C 
ATOM     21  C   UNL A   1      33.171  19.611  25.700  1.00  0.00     0.235 C 
ATOM     22  N   UNL A   1      33.183  20.319  26.873  1.00  0.00    -0.354 N 
ATOM     23  O   UNL A   1      32.489  18.591  25.611  1.00  0.00    -0.274 OA
ATOM     24  H   UNL A   1      32.728  19.925  27.652  1.00  0.00     0.163 HD
ENDBRANCH  14  17
ENDBRANCH  13  14
ENDBRANCH   7   8
ENDBRANCH   5   7
ENDBRANCH   2   3
ENDBRANCH   1   2
BRANCH   1  25
ATOM     25  C   UNL A   1      32.749  32.917  27.203  1.00  0.00     0.118 C 
BRANCH  25  26
ATOM     26  N   UNL A   1      32.668  34.218  27.850  1.00  0.00    -0.352 N 
ATOM     27  C   UNL A   1      33.386  34.744  28.900  1.00  0.00     0.251 C 
ATOM     28  H   UNL A   1      31.987  34.822  27.475  1.00  0.00     0.163 HD
ATOM     29  O   UNL A   1      33.041  35.830  29.361  1.00  0.00    -0.269 OA
BRANCH  27  30
ATOM     30  C   UNL A   1      34.536  34.019  29.489  1.00  0.00     0.039 A 
ATOM     31  C   UNL A   1      35.826  34.354  29.065  1.00  0.00     0.014 A 
ATOM     32  C   UNL A   1      34.362  32.995  30.423  1.00  0.00     0.014 A 
ATOM     33  C   UNL A   1      36.938  33.717  29.629  1.00  0.00     0.010 A 
ATOM     34  C   UNL A   1      35.473  32.408  31.032  1.00  0.00     0.010 A 
ATOM     35  C   UNL A   1      36.774  32.767  30.648  1.00  0.00    -0.014 A 
BRANCH  35  36
ATOM     36  C   UNL A   1      37.947  32.153  31.331  1.00  0.00     0.031 A 
ATOM     37  C   UNL A   1      38.687  31.007  30.694  1.00  0.00     0.074 A 
ATOM     38  C   UNL A   1      38.307  32.584  32.556  1.00  0.00     0.049 A 
ATOM     39  N   UNL A   1      39.670  30.287  31.173  1.00  0.00    -0.248 NA
ATOM     40  C   UNL A   1      38.244  30.601  29.354  1.00  0.00     0.031 C 
ATOM     41  C   UNL A   1      37.652  33.665  33.297  1.00  0.00     0.029 A 
ATOM     42  N   UNL A   1      39.302  32.161  33.404  1.00  0.00    -0.354 N 
ATOM     43  C   UNL A   1      39.957  29.335  30.200  1.00  0.00     0.074 A 
ATOM     44  C   UNL A   1      39.002  29.538  29.129  1.00  0.00     0.031 C 
ATOM     45  C   UNL A   1      38.272  33.831  34.476  1.00  0.00     0.029 A 
ATOM     46  C   UNL A   1      39.337  32.840  34.601  1.00  0.00     0.049 A 
ATOM     47  H   UNL A   1      39.931  31.440  33.175  1.00  0.00     0.167 HD
ATOM     48  C   UNL A   1      40.935  28.394  30.190  1.00  0.00     0.034 A 
ATOM     49  C   UNL A   1      40.121  32.673  35.684  1.00  0.00     0.034 A 
ATOM     50  C   UNL A   1      41.887  28.210  31.259  1.00  0.00     0.049 A 
ATOM     51  C   UNL A   1      41.177  31.597  35.666  1.00  0.00     0.074 A 
ATOM     52  C   UNL A   1      42.953  27.329  31.323  1.00  0.00     0.029 A 
ATOM     53  N   UNL A   1      41.885  28.911  32.459  1.00  0.00    -0.354 N 
ATOM     54  N   UNL A   1      41.464  30.738  34.716  1.00  0.00    -0.248 NA
ATOM     55  C   UNL A   1      42.018  31.473  36.864  1.00  0.00     0.031 C 
ATOM     56  C   UNL A   1      43.549  27.445  32.583  1.00  0.00     0.029 A 
ATOM     57  C   UNL A   1      42.906  28.455  33.281  1.00  0.00     0.049 A 
ATOM     58  H   UNL A   1      41.250  29.626  32.693  1.00  0.00     0.167 HD
ATOM     59  C   UNL A   1      42.538  29.991  35.193  1.00  0.00     0.074 A 
ATOM     60  C   UNL A   1      42.856  30.512  36.507  1.00  0.00     0.031 C 
ATOM     61  C   UNL A   1      43.205  28.969  34.597  1.00  0.00     0.034 A 
BRANCH  48  62
ATOM     62  C   UNL A   1      41.004  27.476  28.992  1.00  0.00     0.023 A 
ATOM     63  C   UNL A   1      42.001  27.616  28.011  1.00  0.00     0.031 A 
ATOM     64  C   UNL A   1      40.049  26.459  28.816  1.00  0.00     0.131 A 
ATOM     65  C   UNL A   1      41.973  26.811  26.863  1.00  0.00     0.055 A 
ATOM     66  C   UNL A   1      40.076  25.604  27.712  1.00  0.00     0.041 A 
ATOM     67  F   UNL A   1      39.060  26.287  29.709  1.00  0.00    -0.206 F 
ATOM     68  C   UNL A   1      41.033  25.788  26.718  1.00  0.00     0.022 A 
BRANCH  65  69
ATOM     69  S   UNL A   1      43.091  27.218  25.493  1.00  0.00     0.124 S 
ATOM     70  O   UNL A   1      44.225  27.804  26.204  1.00  0.00    -0.237 OA
ATOM     71  O   UNL A   1      43.325  25.918  24.879  1.00  0.00    -0.237 OA
ATOM     72  O   UNL A   1      42.317  28.161  24.688  1.00  0.00    -0.744 OA
ENDBRANCH  65  69
ENDBRANCH  48  62
BRANCH  49  73
ATOM     73  C   UNL A   1      39.933  33.528  36.892  1.00  0.00     0.023 A 
ATOM     74  C   UNL A   1      39.222  33.059  38.007  1.00  0.00     0.031 A 
ATOM     75  C   UNL A   1      40.425  34.846  36.930  1.00  0.00     0.131 A 
ATOM     76  C   UNL A   1      38.982  33.914  39.093  1.00  0.00     0.055 A 
ATOM     77  C   UNL A   1      40.229  35.675  38.035  1.00  0.00     0.041 A 
ATOM     78  F   UNL A   1      41.116  35.343  35.890  1.00  0.00    -0.206 F 
ATOM     79  C   UNL A   1      39.493  35.214  39.121  1.00  0.00     0.022 A 
BRANCH  76  80
ATOM     80  S   UNL A   1      37.916  33.328  40.439  1.00  0.00     0.124 S 
ATOM     81  O   UNL A   1      36.725  32.905  39.712  1.00  0.00    -0.237 OA
ATOM     82  O   UNL A   1      38.725  32.263  41.023  1.00  0.00    -0.237 OA
ATOM     83  O   UNL A   1      37.748  34.512  41.279  1.00  0.00    -0.744 OA
ENDBRANCH  76  80
ENDBRANCH  49  73
BRANCH  61  84
ATOM     84  C   UNL A   1      44.371  28.377  35.352  1.00  0.00     0.023 A 
ATOM     85  C   UNL A   1      44.189  27.405  36.350  1.00  0.00     0.031 A 
ATOM     86  C   UNL A   1      45.682  28.801  35.074  1.00  0.00     0.131 A 
ATOM     87  C   UNL A   1      45.294  26.928  37.072  1.00  0.00     0.055 A 
ATOM     88  C   UNL A   1      46.783  28.281  35.754  1.00  0.00     0.041 A 
ATOM     89  F   UNL A   1      45.915  29.730  34.132  1.00  0.00    -0.206 F 
ATOM     90  C   UNL A   1      46.591  27.347  36.769  1.00  0.00     0.022 A 
BRANCH  87  91
ATOM     91  S   UNL A   1      45.005  25.813  38.474  1.00  0.00     0.124 S 
ATOM     92  O   UNL A   1      44.593  24.584  37.803  1.00  0.00    -0.237 OA
ATOM     93  O   UNL A   1      46.313  25.778  39.120  1.00  0.00    -0.237 OA
ATOM     94  O   UNL A   1      43.955  26.485  39.237  1.00  0.00    -0.744 OA
ENDBRANCH  87  91
ENDBRANCH  61  84
ENDBRANCH  35  36
ENDBRANCH  27  30
ENDBRANCH  25  26
ENDBRANCH   1  25
TORSDOF 16
ENDMDL
MODEL 2
REMARK VINA RESULT:     -12.0      2.057      2.388
REMARK SMILES O=C(Cc1ccc(S(=O)(=O)N2CCNC(=O)C2)cc1)NCCCNC(=O)c1ccc(-c2c3nc(c(-c4cc(S(=O)(=O)[O-])ccc4F)c4ccc([nH]4)c(-c4cc(S(=O)(=O)[O-])ccc4F)c4nc(c(-c5cc(S(=O)(=O)[O-])ccc5F)c5ccc2[nH]5)C=C4)C=C3)cc1
REMARK SMILES IDX 22 1 21 2 20 3 1 4 2 5 3 7 4 8 5 9 19 10 6 11 18 12 7 13
REMARK SMILES IDX 8 14 9 15 10 16 11 17 12 18 17 19 13 20 15 21 14 22 16 23
REMARK SMILES IDX 23 25 24 26 25 27 26 29 27 30 28 31 89 32 29 33 88 34 30 35
REMARK SMILES IDX 31 36 32 37 82 38 33 39 87 40 81 41 83 42 34 43 86 44 80 45
REMARK SMILES IDX 79 46 35 48 67 49 47 50 66 51 48 52 51 53 65 54 84 55 49 56
REMARK SMILES IDX 50 57 64 59 85 60 52 61 36 62 37 63 45 64 38 65 44 66 46 67
REMARK SMILES IDX 43 68 39 69 40 70 41 71 42 72 68 73 69 74 77 75 70 76 76 77
REMARK SMILES IDX 78 78 75 79 71 80 72 81 73 82 74 83 53 84 54 85 62 86 55 87
REMARK SMILES IDX 61 88 63 89 60 90 56 91 57 92 58 93 59 94
REMARK H PARENT 20 6 14 24 24 28 83 47 51 58
REMARK Flexibility Score: inf
ROOT
ATOM      1  C   UNL A   1      30.998  32.063  26.307  1.00  0.00     0.042 C 
ENDROOT
BRANCH   1   2
ATOM      2  C   UNL A   1      31.029  30.839  25.397  1.00  0.00     0.117 C 
BRANCH   2   3
ATOM      3  N   UNL A   1      32.275  30.101  25.495  1.00  0.00    -0.356 N 
ATOM      4  O   UNL A   1      31.542  28.574  27.052  1.00  0.00    -0.275 OA
ATOM      5  C   UNL A   1      32.425  28.999  26.314  1.00  0.00     0.224 C 
ATOM      6  H   UNL A   1      33.043  30.397  24.956  1.00  0.00     0.163 HD
BRANCH   5   7
ATOM      7  C   UNL A   1      33.803  28.359  26.260  1.00  0.00     0.135 C 
BRANCH   7   8
ATOM      8  C   UNL A   1      33.840  27.090  25.440  1.00  0.00    -0.039 A 
ATOM      9  C   UNL A   1      33.505  27.113  24.078  1.00  0.00     0.005 A 
ATOM     10  C   UNL A   1      34.203  25.874  26.030  1.00  0.00     0.005 A 
ATOM     11  C   UNL A   1      33.592  25.950  23.309  1.00  0.00     0.022 A 
ATOM     12  C   UNL A   1      34.254  24.703  25.270  1.00  0.00     0.022 A 
ATOM     13  C   UNL A   1      33.986  24.745  23.902  1.00  0.00     0.082 A 
BRANCH  13  14
ATOM     14  S   UNL A   1      34.116  23.298  22.870  1.00  0.00     0.243 S 
ATOM     15  O   UNL A   1      33.510  23.644  21.602  1.00  0.00    -0.207 OA
ATOM     16  O   UNL A   1      35.496  22.864  22.943  1.00  0.00    -0.207 OA
BRANCH  14  17
ATOM     17  N   UNL A   1      33.198  22.087  23.581  1.00  0.00    -0.187 NA
ATOM     18  C   UNL A   1      33.831  20.931  24.247  1.00  0.00     0.124 C 
ATOM     19  C   UNL A   1      31.815  22.355  24.021  1.00  0.00     0.202 C 
ATOM     20  C   UNL A   1      33.795  21.100  25.764  1.00  0.00     0.132 C 
ATOM     21  C   UNL A   1      31.566  22.196  25.515  1.00  0.00     0.235 C 
ATOM     22  N   UNL A   1      32.499  21.525  26.261  1.00  0.00    -0.354 N 
ATOM     23  O   UNL A   1      30.554  22.635  26.058  1.00  0.00    -0.274 OA
ATOM     24  H   UNL A   1      32.276  21.315  27.196  1.00  0.00     0.163 HD
ENDBRANCH  14  17
ENDBRANCH  13  14
ENDBRANCH   7   8
ENDBRANCH   5   7
ENDBRANCH   2   3
ENDBRANCH   1   2
BRANCH   1  25
ATOM     25  C   UNL A   1      32.356  32.474  26.875  1.00  0.00     0.118 C 
BRANCH  25  26
ATOM     26  N   UNL A   1      32.365  33.826  27.416  1.00  0.00    -0.352 N 
ATOM     27  C   UNL A   1      33.184  34.410  28.355  1.00  0.00     0.251 C 
ATOM     28  H   UNL A   1      31.672  34.420  27.050  1.00  0.00     0.163 HD
ATOM     29  O   UNL A   1      32.909  35.540  28.752  1.00  0.00    -0.269 OA
BRANCH  27  30
ATOM     30  C   UNL A   1      34.360  33.696  28.906  1.00  0.00     0.039 A 
ATOM     31  C   UNL A   1      35.632  34.238  28.693  1.00  0.00     0.014 A 
ATOM     32  C   UNL A   1      34.232  32.487  29.595  1.00  0.00     0.014 A 
ATOM     33  C   UNL A   1      36.761  33.612  29.233  1.00  0.00     0.010 A 
ATOM     34  C   UNL A   1      35.352  31.900  30.189  1.00  0.00     0.010 A 
ATOM     35  C   UNL A   1      36.628  32.458  30.021  1.00  0.00    -0.014 A 
BRANCH  35  36
ATOM     36  C   UNL A   1      37.806  31.835  30.688  1.00  0.00     0.031 A 
ATOM     37  C   UNL A   1      38.614  30.781  29.979  1.00  0.00     0.074 A 
ATOM     38  C   UNL A   1      38.109  32.172  31.957  1.00  0.00     0.049 A 
ATOM     39  N   UNL A   1      39.613  30.062  30.427  1.00  0.00    -0.248 NA
ATOM     40  C   UNL A   1      38.230  30.476  28.595  1.00  0.00     0.031 C 
ATOM     41  C   UNL A   1      37.387  33.156  32.766  1.00  0.00     0.029 A 
ATOM     42  N   UNL A   1      39.096  31.717  32.797  1.00  0.00    -0.354 N 
ATOM     43  C   UNL A   1      39.970  29.212  29.385  1.00  0.00     0.074 A 
ATOM     44  C   UNL A   1      39.040  29.469  28.304  1.00  0.00     0.031 C 
ATOM     45  C   UNL A   1      37.963  33.243  33.975  1.00  0.00     0.029 A 
ATOM     46  C   UNL A   1      39.066  32.289  34.049  1.00  0.00     0.049 A 
ATOM     47  H   UNL A   1      39.763  31.045  32.529  1.00  0.00     0.167 HD
ATOM     48  C   UNL A   1      40.988  28.317  29.327  1.00  0.00     0.034 A 
ATOM     49  C   UNL A   1      39.823  32.060  35.140  1.00  0.00     0.034 A 
ATOM     50  C   UNL A   1      41.914  28.079  30.408  1.00  0.00     0.049 A 
ATOM     51  C   UNL A   1      40.925  31.033  35.065  1.00  0.00     0.074 A 
ATOM     52  C   UNL A   1      43.016  27.239  30.431  1.00  0.00     0.029 A 
ATOM     53  N   UNL A   1      41.846  28.671  31.663  1.00  0.00    -0.354 N 
ATOM     54  N   UNL A   1      41.279  30.274  34.054  1.00  0.00    -0.248 NA
ATOM     55  C   UNL A   1      41.735  30.839  36.275  1.00  0.00     0.031 C 
ATOM     56  C   UNL A   1      43.568  27.269  31.715  1.00  0.00     0.029 A 
ATOM     57  C   UNL A   1      42.861  28.186  32.476  1.00  0.00     0.049 A 
ATOM     58  H   UNL A   1      41.174  29.336  31.936  1.00  0.00     0.167 HD
ATOM     59  C   UNL A   1      42.369  29.532  34.501  1.00  0.00     0.074 A 
ATOM     60  C   UNL A   1      42.625  29.948  35.864  1.00  0.00     0.031 C 
ATOM     61  C   UNL A   1      43.098  28.595  33.841  1.00  0.00     0.034 A 
BRANCH  48  62
ATOM     62  C   UNL A   1      41.133  27.511  28.058  1.00  0.00     0.023 A 
ATOM     63  C   UNL A   1      40.767  26.154  27.999  1.00  0.00     0.031 A 
ATOM     64  C   UNL A   1      41.665  28.097  26.896  1.00  0.00     0.131 A 
ATOM     65  C   UNL A   1      41.011  25.412  26.834  1.00  0.00     0.055 A 
ATOM     66  C   UNL A   1      41.827  27.374  25.711  1.00  0.00     0.041 A 
ATOM     67  F   UNL A   1      42.052  29.383  26.895  1.00  0.00    -0.206 F 
ATOM     68  C   UNL A   1      41.514  26.018  25.681  1.00  0.00     0.022 A 
BRANCH  65  69
ATOM     69  S   UNL A   1      40.800  23.611  26.896  1.00  0.00     0.124 S 
ATOM     70  O   UNL A   1      41.118  23.326  28.293  1.00  0.00    -0.237 OA
ATOM     71  O   UNL A   1      39.404  23.443  26.512  1.00  0.00    -0.237 OA
ATOM     72  O   UNL A   1      41.779  23.117  25.930  1.00  0.00    -0.744 OA
ENDBRANCH  65  69
ENDBRANCH  48  62
BRANCH  49  73
ATOM     73  C   UNL A   1      39.563  32.797  36.410  1.00  0.00     0.023 A 
ATOM     74  C   UNL A   1      38.658  32.301  37.362  1.00  0.00     0.031 A 
ATOM     75  C   UNL A   1      40.182  34.033  36.670  1.00  0.00     0.131 A 
ATOM     76  C   UNL A   1      38.362  33.058  38.506  1.00  0.00     0.055 A 
ATOM     77  C   UNL A   1      39.924  34.757  37.835  1.00  0.00     0.041 A 
ATOM     78  F   UNL A   1      41.058  34.551  35.794  1.00  0.00    -0.206 F 
ATOM     79  C   UNL A   1      38.999  34.276  38.756  1.00  0.00     0.022 A 
BRANCH  76  80
ATOM     80  S   UNL A   1      37.064  32.465  39.626  1.00  0.00     0.124 S 
ATOM     81  O   UNL A   1      37.478  31.087  39.857  1.00  0.00    -0.237 OA
ATOM     82  O   UNL A   1      37.203  33.377  40.757  1.00  0.00    -0.237 OA
ATOM     83  O   UNL A   1      35.840  32.628  38.844  1.00  0.00    -0.744 OA
ENDBRANCH  76  80
ENDBRANCH  49  73
BRANCH  61  84
ATOM     84  C   UNL A   1      44.265  27.987  34.581  1.00  0.00     0.023 A 
ATOM     85  C   UNL A   1      45.545  28.566  34.547  1.00  0.00     0.031 A 
ATOM     86  C   UNL A   1      44.094  26.806  35.323  1.00  0.00     0.131 A 
ATOM     87  C   UNL A   1      46.617  27.934  35.196  1.00  0.00     0.055 A 
ATOM     88  C   UNL A   1      45.150  26.213  36.016  1.00  0.00     0.041 A 
ATOM     89  F   UNL A   1      42.894  26.207  35.388  1.00  0.00    -0.206 F 
ATOM     90  C   UNL A   1      46.424  26.771  35.945  1.00  0.00     0.022 A 
BRANCH  87  91
ATOM     91  S   UNL A   1      48.288  28.607  34.981  1.00  0.00     0.124 S 
ATOM     92  O   UNL A   1      48.095  29.549  33.883  1.00  0.00    -0.237 OA
ATOM     93  O   UNL A   1      48.557  29.199  36.288  1.00  0.00    -0.237 OA
ATOM     94  O   UNL A   1      49.092  27.431  34.656  1.00  0.00    -0.744 OA
ENDBRANCH  87  91
ENDBRANCH  61  84
ENDBRANCH  35  36
ENDBRANCH  27  30
ENDBRANCH  25  26
ENDBRANCH   1  25
TORSDOF 16
ENDMDL
MODEL 3
REMARK VINA RESULT:     -11.9      2.203      2.677
REMARK SMILES O=C(Cc1ccc(S(=O)(=O)N2CCNC(=O)C2)cc1)NCCCNC(=O)c1ccc(-c2c3nc(c(-c4cc(S(=O)(=O)[O-])ccc4F)c4ccc([nH]4)c(-c4cc(S(=O)(=O)[O-])ccc4F)c4nc(c(-c5cc(S(=O)(=O)[O-])ccc5F)c5ccc2[nH]5)C=C4)C=C3)cc1
REMARK SMILES IDX 22 1 21 2 20 3 1 4 2 5 3 7 4 8 5 9 19 10 6 11 18 12 7 13
REMARK SMILES IDX 8 14 9 15 10 16 11 17 12 18 17 19 13 20 15 21 14 22 16 23
REMARK SMILES IDX 23 25 24 26 25 27 26 29 27 30 28 31 89 32 29 33 88 34 30 35
REMARK SMILES IDX 31 36 32 37 82 38 33 39 87 40 81 41 83 42 34 43 86 44 80 45
REMARK SMILES IDX 79 46 35 48 67 49 47 50 66 51 48 52 51 53 65 54 84 55 49 56
REMARK SMILES IDX 50 57 64 59 85 60 52 61 36 62 37 63 45 64 38 65 44 66 46 67
REMARK SMILES IDX 43 68 39 69 40 70 41 71 42 72 68 73 69 74 77 75 70 76 76 77
REMARK SMILES IDX 78 78 75 79 71 80 72 81 73 82 74 83 53 84 54 85 62 86 55 87
REMARK SMILES IDX 61 88 63 89 60 90 56 91 57 92 58 93 59 94
REMARK H PARENT 20 6 14 24 24 28 83 47 51 58
REMARK Flexibility Score: inf
ROOT
ATOM      1  C   UNL A   1      32.178  30.123  25.379  1.00  0.00     0.042 C 
ENDROOT
BRANCH   1   2
ATOM      2  C   UNL A   1      30.953  29.743  24.553  1.00  0.00     0.117 C 
BRANCH   2   3
ATOM      3  N   UNL A   1      30.773  28.307  24.450  1.00  0.00    -0.356 N 
ATOM      4  O   UNL A   1      30.164  28.287  22.231  1.00  0.00    -0.275 OA
ATOM      5  C   UNL A   1      30.406  27.685  23.273  1.00  0.00     0.224 C 
ATOM      6  H   UNL A   1      30.919  27.754  25.251  1.00  0.00     0.163 HD
BRANCH   5   7
ATOM      7  C   UNL A   1      30.286  26.173  23.372  1.00  0.00     0.135 C 
BRANCH   7   8
ATOM      8  C   UNL A   1      31.619  25.477  23.522  1.00  0.00    -0.039 A 
ATOM      9  C   UNL A   1      32.280  25.463  24.759  1.00  0.00     0.005 A 
ATOM     10  C   UNL A   1      32.215  24.842  22.426  1.00  0.00     0.005 A 
ATOM     11  C   UNL A   1      33.486  24.774  24.909  1.00  0.00     0.022 A 
ATOM     12  C   UNL A   1      33.440  24.185  22.566  1.00  0.00     0.022 A 
ATOM     13  C   UNL A   1      34.058  24.116  23.814  1.00  0.00     0.082 A 
BRANCH  13  14
ATOM     14  S   UNL A   1      35.579  23.221  24.067  1.00  0.00     0.243 S 
ATOM     15  O   UNL A   1      36.068  22.867  22.751  1.00  0.00    -0.207 OA
ATOM     16  O   UNL A   1      36.381  24.022  24.970  1.00  0.00    -0.207 OA
BRANCH  14  17
ATOM     17  N   UNL A   1      35.203  21.808  24.889  1.00  0.00    -0.187 NA
ATOM     18  C   UNL A   1      35.538  21.636  26.316  1.00  0.00     0.124 C 
ATOM     19  C   UNL A   1      34.116  20.931  24.414  1.00  0.00     0.202 C 
ATOM     20  C   UNL A   1      34.299  21.830  27.186  1.00  0.00     0.132 C 
ATOM     21  C   UNL A   1      32.953  20.753  25.381  1.00  0.00     0.235 C 
ATOM     22  N   UNL A   1      33.134  21.121  26.688  1.00  0.00    -0.354 N 
ATOM     23  O   UNL A   1      31.876  20.278  25.025  1.00  0.00    -0.274 OA
ATOM     24  H   UNL A   1      32.427  20.890  27.333  1.00  0.00     0.163 HD
ENDBRANCH  14  17
ENDBRANCH  13  14
ENDBRANCH   7   8
ENDBRANCH   5   7
ENDBRANCH   2   3
ENDBRANCH   1   2
BRANCH   1  25
ATOM     25  C   UNL A   1      31.869  30.651  26.779  1.00  0.00     0.118 C 
BRANCH  25  26
ATOM     26  N   UNL A   1      31.905  32.104  26.865  1.00  0.00    -0.352 N 
ATOM     27  C   UNL A   1      32.814  32.945  27.466  1.00  0.00     0.251 C 
ATOM     28  H   UNL A   1      31.156  32.561  26.420  1.00  0.00     0.163 HD
ATOM     29  O   UNL A   1      32.557  34.145  27.521  1.00  0.00    -0.269 OA
BRANCH  27  30
ATOM     30  C   UNL A   1      34.068  32.426  28.063  1.00  0.00     0.039 A 
ATOM     31  C   UNL A   1      35.143  33.306  28.231  1.00  0.00     0.014 A 
ATOM     32  C   UNL A   1      34.212  31.085  28.426  1.00  0.00     0.014 A 
ATOM     33  C   UNL A   1      36.328  32.861  28.827  1.00  0.00     0.010 A 
ATOM     34  C   UNL A   1      35.370  30.659  29.081  1.00  0.00     0.010 A 
ATOM     35  C   UNL A   1      36.439  31.543  29.296  1.00  0.00    -0.014 A 
BRANCH  35  36
ATOM     36  C   UNL A   1      37.652  31.079  30.024  1.00  0.00     0.031 A 
ATOM     37  C   UNL A   1      38.567  30.054  29.407  1.00  0.00     0.074 A 
ATOM     38  C   UNL A   1      37.897  31.531  31.270  1.00  0.00     0.049 A 
ATOM     39  N   UNL A   1      39.616  29.463  29.921  1.00  0.00    -0.248 NA
ATOM     40  C   UNL A   1      38.241  29.617  28.042  1.00  0.00     0.031 C 
ATOM     41  C   UNL A   1      37.072  32.501  31.993  1.00  0.00     0.029 A 
ATOM     42  N   UNL A   1      38.903  31.229  32.156  1.00  0.00    -0.354 N 
ATOM     43  C   UNL A   1      40.070  28.576  28.950  1.00  0.00     0.074 A 
ATOM     44  C   UNL A   1      39.145  28.670  27.839  1.00  0.00     0.031 C 
ATOM     45  C   UNL A   1      37.612  32.726  33.201  1.00  0.00     0.029 A 
ATOM     46  C   UNL A   1      38.794  31.884  33.362  1.00  0.00     0.049 A 
ATOM     47  H   UNL A   1      39.633  30.603  31.947  1.00  0.00     0.167 HD
ATOM     48  C   UNL A   1      41.165  27.776  28.972  1.00  0.00     0.034 A 
ATOM     49  C   UNL A   1      39.545  31.803  34.478  1.00  0.00     0.034 A 
ATOM     50  C   UNL A   1      42.086  27.700  30.082  1.00  0.00     0.049 A 
ATOM     51  C   UNL A   1      40.736  30.878  34.494  1.00  0.00     0.074 A 
ATOM     52  C   UNL A   1      43.257  26.968  30.182  1.00  0.00     0.029 A 
ATOM     53  N   UNL A   1      41.938  28.372  31.289  1.00  0.00    -0.354 N 
ATOM     54  N   UNL A   1      41.178  30.084  33.547  1.00  0.00    -0.248 NA
ATOM     55  C   UNL A   1      41.534  30.846  35.728  1.00  0.00     0.031 C 
ATOM     56  C   UNL A   1      43.777  27.140  31.470  1.00  0.00     0.029 A 
ATOM     57  C   UNL A   1      42.974  28.041  32.151  1.00  0.00     0.049 A 
ATOM     58  H   UNL A   1      41.203  28.992  31.503  1.00  0.00     0.167 HD
ATOM     59  C   UNL A   1      42.320  29.478  34.064  1.00  0.00     0.074 A 
ATOM     60  C   UNL A   1      42.508  30.013  35.397  1.00  0.00     0.031 C 
ATOM     61  C   UNL A   1      43.144  28.566  33.485  1.00  0.00     0.034 A 
BRANCH  48  62
ATOM     62  C   UNL A   1      41.409  26.897  27.768  1.00  0.00     0.023 A 
ATOM     63  C   UNL A   1      40.970  25.562  27.727  1.00  0.00     0.031 A 
ATOM     64  C   UNL A   1      42.110  27.391  26.653  1.00  0.00     0.131 A 
ATOM     65  C   UNL A   1      41.304  24.747  26.635  1.00  0.00     0.055 A 
ATOM     66  C   UNL A   1      42.366  26.599  25.531  1.00  0.00     0.041 A 
ATOM     67  F   UNL A   1      42.572  28.652  26.641  1.00  0.00    -0.206 F 
ATOM     68  C   UNL A   1      41.976  25.263  25.525  1.00  0.00     0.022 A 
BRANCH  65  69
ATOM     69  S   UNL A   1      40.977  22.967  26.753  1.00  0.00     0.124 S 
ATOM     70  O   UNL A   1      39.548  22.909  26.455  1.00  0.00    -0.237 OA
ATOM     71  O   UNL A   1      41.863  22.415  25.735  1.00  0.00    -0.237 OA
ATOM     72  O   UNL A   1      41.332  22.643  28.133  1.00  0.00    -0.744 OA
ENDBRANCH  65  69
ENDBRANCH  48  62
BRANCH  49  73
ATOM     73  C   UNL A   1      39.192  32.603  35.686  1.00  0.00     0.023 A 
ATOM     74  C   UNL A   1      39.640  33.925  35.835  1.00  0.00     0.031 A 
ATOM     75  C   UNL A   1      38.438  32.041  36.732  1.00  0.00     0.131 A 
ATOM     76  C   UNL A   1      39.370  34.625  37.021  1.00  0.00     0.055 A 
ATOM     77  C   UNL A   1      38.127  32.760  37.887  1.00  0.00     0.041 A 
ATOM     78  F   UNL A   1      37.982  30.781  36.638  1.00  0.00    -0.206 F 
ATOM     79  C   UNL A   1      38.605  34.056  38.042  1.00  0.00     0.022 A 
BRANCH  76  80
ATOM     80  S   UNL A   1      40.109  36.267  37.246  1.00  0.00     0.124 S 
ATOM     81  O   UNL A   1      39.901  36.868  35.935  1.00  0.00    -0.237 OA
ATOM     82  O   UNL A   1      39.307  36.811  38.338  1.00  0.00    -0.237 OA
ATOM     83  O   UNL A   1      41.499  35.970  37.585  1.00  0.00    -0.744 OA
ENDBRANCH  76  80
ENDBRANCH  49  73
BRANCH  61  84
ATOM     84  C   UNL A   1      44.345  28.122  34.285  1.00  0.00     0.023 A 
ATOM     85  C   UNL A   1      44.280  27.036  35.175  1.00  0.00     0.031 A 
ATOM     86  C   UNL A   1      45.568  28.803  34.161  1.00  0.00     0.131 A 
ATOM     87  C   UNL A   1      45.402  26.696  35.947  1.00  0.00     0.055 A 
ATOM     88  C   UNL A   1      46.698  28.423  34.887  1.00  0.00     0.041 A 
ATOM     89  F   UNL A   1      45.687  29.849  33.328  1.00  0.00    -0.206 F 
ATOM     90  C   UNL A   1      46.615  27.372  35.796  1.00  0.00     0.022 A 
BRANCH  87  91
ATOM     91  S   UNL A   1      45.232  25.410  37.215  1.00  0.00     0.124 S 
ATOM     92  O   UNL A   1      44.095  25.898  37.990  1.00  0.00    -0.237 OA
ATOM     93  O   UNL A   1      44.992  24.213  36.416  1.00  0.00    -0.237 OA
ATOM     94  O   UNL A   1      46.517  25.442  37.911  1.00  0.00    -0.744 OA
ENDBRANCH  87  91
ENDBRANCH  61  84
ENDBRANCH  35  36
ENDBRANCH  27  30
ENDBRANCH  25  26
ENDBRANCH   1  25
TORSDOF 16
ENDMDL
