MODEL 1
REMARK VINA RESULT:     -11.0      0.000      0.000
REMARK SMILES O=C(NCCCNC(=O)[C@H](CO)NC(=O)[C@H]1CC(=O)N(CC(F)(F)F)C1)c1ccc(-c2c3nc(c(-c4cc(S(=O)(=O)[O-])ccc4F)c4ccc([nH]4)c(-c4cc(S(=O)(=O)[O-])ccc4F)c4nc(c(-c5cc(S(=O)(=O)[O-])ccc5F)c5ccc2[nH]5)C=C4)C=C3)cc1
REMARK SMILES IDX 5 1 4 2 3 3 1 4 2 5 27 7 28 8 89 9 29 10 88 11 30 12 31 13
REMARK SMILES IDX 32 14 82 15 33 16 87 17 81 18 83 19 34 20 86 21 80 22 79 23
REMARK SMILES IDX 35 25 67 26 47 27 66 28 48 29 51 30 65 31 84 32 49 33 50 34
REMARK SMILES IDX 64 36 85 37 52 38 36 39 37 40 45 41 38 42 44 43 46 44 43 45
REMARK SMILES IDX 39 46 40 47 41 48 42 49 68 50 69 51 77 52 70 53 76 54 78 55
REMARK SMILES IDX 75 56 71 57 72 58 73 59 74 60 53 61 54 62 62 63 55 64 61 65
REMARK SMILES IDX 63 66 60 67 56 68 57 69 58 70 59 71 6 72 7 73 8 74 9 76
REMARK SMILES IDX 10 77 13 78 14 79 15 81 16 82 17 83 26 84 18 85 20 86 19 87
REMARK SMILES IDX 21 88 22 89 23 90 24 91 25 92 11 93 12 94
REMARK H PARENT 3 6 83 24 51 35 7 75 13 80 12 95
REMARK Flexibility Score: inf
ROOT
ATOM      1  C   UNL A   1      31.964  28.253  26.773  1.00  0.00     0.042 C 
ENDROOT
BRANCH   1   2
ATOM      2  C   UNL A   1      32.960  29.209  26.147  1.00  0.00     0.118 C 
BRANCH   2   3
ATOM      3  N   UNL A   1      32.590  30.604  26.338  1.00  0.00    -0.352 N 
ATOM      4  O   UNL A   1      32.619  32.628  27.330  1.00  0.00    -0.269 OA
ATOM      5  C   UNL A   1      33.179  31.552  27.145  1.00  0.00     0.251 C 
ATOM      6  H   UNL A   1      31.813  30.912  25.820  1.00  0.00     0.163 HD
BRANCH   5   7
ATOM      7  C   UNL A   1      34.477  31.261  27.798  1.00  0.00     0.039 A 
ATOM      8  C   UNL A   1      34.729  29.997  28.331  1.00  0.00     0.014 A 
ATOM      9  C   UNL A   1      35.454  32.256  27.883  1.00  0.00     0.014 A 
ATOM     10  C   UNL A   1      35.858  29.785  29.106  1.00  0.00     0.010 A 
ATOM     11  C   UNL A   1      36.662  31.993  28.542  1.00  0.00     0.010 A 
ATOM     12  C   UNL A   1      36.866  30.760  29.180  1.00  0.00    -0.014 A 
BRANCH  12  13
ATOM     13  C   UNL A   1      38.148  30.399  29.845  1.00  0.00     0.031 A 
ATOM     14  C   UNL A   1      38.484  30.875  31.230  1.00  0.00     0.074 A 
ATOM     15  C   UNL A   1      38.988  29.572  29.188  1.00  0.00     0.049 A 
ATOM     16  N   UNL A   1      39.548  30.618  31.951  1.00  0.00    -0.248 NA
ATOM     17  C   UNL A   1      37.516  31.762  31.891  1.00  0.00     0.031 C 
ATOM     18  C   UNL A   1      38.769  29.059  27.831  1.00  0.00     0.029 A 
ATOM     19  N   UNL A   1      40.170  28.991  29.568  1.00  0.00    -0.354 N 
ATOM     20  C   UNL A   1      39.380  31.308  33.146  1.00  0.00     0.074 A 
ATOM     21  C   UNL A   1      38.133  32.035  33.032  1.00  0.00     0.031 C 
ATOM     22  C   UNL A   1      39.738  28.189  27.524  1.00  0.00     0.029 A 
ATOM     23  C   UNL A   1      40.705  28.159  28.611  1.00  0.00     0.049 A 
ATOM     24  H   UNL A   1      40.595  29.152  30.441  1.00  0.00     0.167 HD
ATOM     25  C   UNL A   1      40.186  31.319  34.237  1.00  0.00     0.034 A 
ATOM     26  C   UNL A   1      41.862  27.472  28.588  1.00  0.00     0.034 A 
ATOM     27  C   UNL A   1      41.435  30.595  34.324  1.00  0.00     0.049 A 
ATOM     28  C   UNL A   1      42.762  27.550  29.790  1.00  0.00     0.074 A 
ATOM     29  C   UNL A   1      42.330  30.541  35.380  1.00  0.00     0.029 A 
ATOM     30  N   UNL A   1      41.971  29.801  33.316  1.00  0.00    -0.354 N 
ATOM     31  N   UNL A   1      42.580  28.206  30.915  1.00  0.00    -0.248 NA
ATOM     32  C   UNL A   1      44.016  26.793  29.726  1.00  0.00     0.031 C 
ATOM     33  C   UNL A   1      43.433  29.777  34.986  1.00  0.00     0.029 A 
ATOM     34  C   UNL A   1      43.192  29.277  33.717  1.00  0.00     0.049 A 
ATOM     35  H   UNL A   1      41.546  29.635  32.444  1.00  0.00     0.167 HD
ATOM     36  C   UNL A   1      43.694  27.921  31.699  1.00  0.00     0.074 A 
ATOM     37  C   UNL A   1      44.516  27.006  30.933  1.00  0.00     0.031 C 
ATOM     38  C   UNL A   1      44.011  28.379  32.936  1.00  0.00     0.034 A 
BRANCH  25  39
ATOM     39  C   UNL A   1      39.758  32.165  35.415  1.00  0.00     0.023 A 
ATOM     40  C   UNL A   1      38.969  31.637  36.452  1.00  0.00     0.031 A 
ATOM     41  C   UNL A   1      40.142  33.515  35.506  1.00  0.00     0.131 A 
ATOM     42  C   UNL A   1      38.540  32.467  37.502  1.00  0.00     0.055 A 
ATOM     43  C   UNL A   1      39.779  34.315  36.592  1.00  0.00     0.041 A 
ATOM     44  F   UNL A   1      40.878  34.083  34.537  1.00  0.00    -0.206 F 
ATOM     45  C   UNL A   1      38.962  33.795  37.592  1.00  0.00     0.022 A 
BRANCH  42  46
ATOM     46  S   UNL A   1      37.317  31.820  38.673  1.00  0.00     0.124 S 
ATOM     47  O   UNL A   1      36.230  32.786  38.528  1.00  0.00    -0.237 OA
ATOM     48  O   UNL A   1      37.057  30.483  38.153  1.00  0.00    -0.237 OA
ATOM     49  O   UNL A   1      38.014  31.867  39.957  1.00  0.00    -0.744 OA
ENDBRANCH  42  46
ENDBRANCH  25  39
BRANCH  26  50
ATOM     50  C   UNL A   1      42.262  26.705  27.372  1.00  0.00     0.023 A 
ATOM     51  C   UNL A   1      41.998  25.333  27.255  1.00  0.00     0.031 A 
ATOM     52  C   UNL A   1      42.965  27.331  26.325  1.00  0.00     0.131 A 
ATOM     53  C   UNL A   1      42.489  24.621  26.149  1.00  0.00     0.055 A 
ATOM     54  C   UNL A   1      43.383  26.634  25.192  1.00  0.00     0.041 A 
ATOM     55  F   UNL A   1      43.246  28.644  26.383  1.00  0.00    -0.206 F 
ATOM     56  C   UNL A   1      43.163  25.264  25.108  1.00  0.00     0.022 A 
BRANCH  53  57
ATOM     57  S   UNL A   1      42.343  22.813  26.152  1.00  0.00     0.124 S 
ATOM     58  O   UNL A   1      42.872  22.470  24.837  1.00  0.00    -0.237 OA
ATOM     59  O   UNL A   1      43.172  22.445  27.295  1.00  0.00    -0.237 OA
ATOM     60  O   UNL A   1      40.909  22.589  26.327  1.00  0.00    -0.744 OA
ENDBRANCH  53  57
ENDBRANCH  26  50
BRANCH  38  61
ATOM     61  C   UNL A   1      45.290  27.852  33.544  1.00  0.00     0.023 A 
ATOM     62  C   UNL A   1      45.309  26.685  34.329  1.00  0.00     0.031 A 
ATOM     63  C   UNL A   1      46.497  28.555  33.377  1.00  0.00     0.131 A 
ATOM     64  C   UNL A   1      46.489  26.302  34.983  1.00  0.00     0.055 A 
ATOM     65  C   UNL A   1      47.685  28.125  33.968  1.00  0.00     0.041 A 
ATOM     66  F   UNL A   1      46.538  29.679  32.644  1.00  0.00    -0.206 F 
ATOM     67  C   UNL A   1      47.681  27.003  34.793  1.00  0.00     0.022 A 
BRANCH  64  68
ATOM     68  S   UNL A   1      46.411  24.953  36.193  1.00  0.00     0.124 S 
ATOM     69  O   UNL A   1      47.244  25.470  37.275  1.00  0.00    -0.237 OA
ATOM     70  O   UNL A   1      44.982  24.868  36.474  1.00  0.00    -0.237 OA
ATOM     71  O   UNL A   1      46.970  23.812  35.471  1.00  0.00    -0.744 OA
ENDBRANCH  64  68
ENDBRANCH  38  61
ENDBRANCH  12  13
ENDBRANCH   5   7
ENDBRANCH   2   3
ENDBRANCH   1   2
BRANCH   1  72
ATOM     72  C   UNL A   1      31.737  26.995  25.945  1.00  0.00     0.117 C 
BRANCH  72  73
ATOM     73  N   UNL A   1      30.685  27.192  24.951  1.00  0.00    -0.354 N 
ATOM     74  C   UNL A   1      30.794  27.532  23.630  1.00  0.00     0.244 C 
ATOM     75  H   UNL A   1      29.766  27.060  25.278  1.00  0.00     0.163 HD
ATOM     76  O   UNL A   1      29.771  27.813  23.001  1.00  0.00    -0.273 OA
BRANCH  74  77
ATOM     77  C   UNL A   1      32.177  27.521  22.962  1.00  0.00     0.197 C 
BRANCH  77  78
ATOM     78  N   UNL A   1      32.134  26.671  21.767  1.00  0.00    -0.342 N 
ATOM     79  C   UNL A   1      32.882  25.608  21.394  1.00  0.00     0.226 C 
ATOM     80  H   UNL A   1      31.434  26.918  21.120  1.00  0.00     0.164 HD
ATOM     81  O   UNL A   1      32.934  25.345  20.189  1.00  0.00    -0.275 OA
BRANCH  79  82
ATOM     82  C   UNL A   1      33.480  24.633  22.387  1.00  0.00     0.107 C 
ATOM     83  C   UNL A   1      34.305  25.106  23.579  1.00  0.00     0.115 C 
ATOM     84  C   UNL A   1      32.341  23.801  22.955  1.00  0.00     0.133 C 
ATOM     85  C   UNL A   1      33.762  24.318  24.752  1.00  0.00     0.223 C 
ATOM     86  N   UNL A   1      32.716  23.533  24.314  1.00  0.00    -0.333 N 
ATOM     87  O   UNL A   1      34.202  24.351  25.885  1.00  0.00    -0.275 OA
BRANCH  86  88
ATOM     88  C   UNL A   1      32.001  22.554  25.142  1.00  0.00     0.234 C 
BRANCH  88  89
ATOM     89  C   UNL A   1      30.868  23.104  26.007  1.00  0.00     0.406 C 
ATOM     90  F   UNL A   1      30.223  24.116  25.382  1.00  0.00    -0.169 F 
ATOM     91  F   UNL A   1      29.951  22.142  26.257  1.00  0.00    -0.169 F 
ATOM     92  F   UNL A   1      31.315  23.568  27.194  1.00  0.00    -0.169 F 
ENDBRANCH  88  89
ENDBRANCH  86  88
ENDBRANCH  79  82
ENDBRANCH  77  78
BRANCH  77  93
ATOM     93  C   UNL A   1      32.642  28.914  22.514  1.00  0.00     0.191 C 
BRANCH  93  94
ATOM     94  O   UNL A   1      31.624  29.719  21.956  1.00  0.00    -0.394 OA
ATOM     95  H   UNL A   1      31.488  29.470  21.029  1.00  0.00     0.210 HD
ENDBRANCH  93  94
ENDBRANCH  77  93
ENDBRANCH  74  77
ENDBRANCH  72  73
ENDBRANCH   1  72
TORSDOF 19
ENDMDL
MODEL 2
REMARK VINA RESULT:     -11.0      2.830      8.498
REMARK SMILES O=C(NCCCNC(=O)[C@H](CO)NC(=O)[C@H]1CC(=O)N(CC(F)(F)F)C1)c1ccc(-c2c3nc(c(-c4cc(S(=O)(=O)[O-])ccc4F)c4ccc([nH]4)c(-c4cc(S(=O)(=O)[O-])ccc4F)c4nc(c(-c5cc(S(=O)(=O)[O-])ccc5F)c5ccc2[nH]5)C=C4)C=C3)cc1
REMARK SMILES IDX 5 1 4 2 3 3 1 4 2 5 27 7 28 8 89 9 29 10 88 11 30 12 31 13
REMARK SMILES IDX 32 14 82 15 33 16 87 17 81 18 83 19 34 20 86 21 80 22 79 23
REMARK SMILES IDX 35 25 67 26 47 27 66 28 48 29 51 30 65 31 84 32 49 33 50 34
REMARK SMILES IDX 64 36 85 37 52 38 36 39 37 40 45 41 38 42 44 43 46 44 43 45
REMARK SMILES IDX 39 46 40 47 41 48 42 49 68 50 69 51 77 52 70 53 76 54 78 55
REMARK SMILES IDX 75 56 71 57 72 58 73 59 74 60 53 61 54 62 62 63 55 64 61 65
REMARK SMILES IDX 63 66 60 67 56 68 57 69 58 70 59 71 6 72 7 73 8 74 9 76
REMARK SMILES IDX 10 77 13 78 14 79 15 81 16 82 17 83 26 84 18 85 20 86 19 87
REMARK SMILES IDX 21 88 22 89 23 90 24 91 25 92 11 93 12 94
REMARK H PARENT 3 6 83 24 51 35 7 75 13 80 12 95
REMARK Flexibility Score: inf
ROOT
ATOM      1  C   UNL A   1      31.460  32.223  26.839  1.00  0.00     0.042 C 
ENDROOT
BRANCH   1   2
ATOM      2  C   UNL A   1      32.792  32.730  27.355  1.00  0.00     0.118 C 
BRANCH   2   3
ATOM      3  N   UNL A   1      32.733  34.120  27.781  1.00  0.00    -0.352 N 
ATOM      4  O   UNL A   1      33.138  35.887  29.122  1.00  0.00    -0.269 OA
ATOM      5  C   UNL A   1      33.454  34.755  28.768  1.00  0.00     0.251 C 
ATOM      6  H   UNL A   1      32.089  34.685  27.297  1.00  0.00     0.163 HD
BRANCH   5   7
ATOM      7  C   UNL A   1      34.597  34.062  29.407  1.00  0.00     0.039 A 
ATOM      8  C   UNL A   1      34.375  33.092  30.384  1.00  0.00     0.014 A 
ATOM      9  C   UNL A   1      35.905  34.380  29.031  1.00  0.00     0.014 A 
ATOM     10  C   UNL A   1      35.440  32.587  31.112  1.00  0.00     0.010 A 
ATOM     11  C   UNL A   1      36.985  33.758  29.670  1.00  0.00     0.010 A 
ATOM     12  C   UNL A   1      36.762  32.871  30.734  1.00  0.00    -0.014 A 
BRANCH  12  13
ATOM     13  C   UNL A   1      37.863  32.133  31.413  1.00  0.00     0.031 A 
ATOM     14  C   UNL A   1      38.622  31.033  30.725  1.00  0.00     0.074 A 
ATOM     15  C   UNL A   1      38.207  32.519  32.659  1.00  0.00     0.049 A 
ATOM     16  N   UNL A   1      39.624  30.320  31.178  1.00  0.00    -0.248 NA
ATOM     17  C   UNL A   1      38.200  30.674  29.364  1.00  0.00     0.031 C 
ATOM     18  C   UNL A   1      37.528  33.568  33.429  1.00  0.00     0.029 A 
ATOM     19  N   UNL A   1      39.220  32.113  33.487  1.00  0.00    -0.354 N 
ATOM     20  C   UNL A   1      39.953  29.430  30.162  1.00  0.00     0.074 A 
ATOM     21  C   UNL A   1      39.010  29.661  29.088  1.00  0.00     0.031 C 
ATOM     22  C   UNL A   1      38.184  33.770  34.578  1.00  0.00     0.029 A 
ATOM     23  C   UNL A   1      39.264  32.799  34.680  1.00  0.00     0.049 A 
ATOM     24  H   UNL A   1      39.856  31.398  33.253  1.00  0.00     0.167 HD
ATOM     25  C   UNL A   1      40.958  28.519  30.128  1.00  0.00     0.034 A 
ATOM     26  C   UNL A   1      40.058  32.647  35.756  1.00  0.00     0.034 A 
ATOM     27  C   UNL A   1      41.881  28.296  31.219  1.00  0.00     0.049 A 
ATOM     28  C   UNL A   1      41.125  31.589  35.710  1.00  0.00     0.074 A 
ATOM     29  C   UNL A   1      42.932  27.396  31.291  1.00  0.00     0.029 A 
ATOM     30  N   UNL A   1      41.865  28.976  32.432  1.00  0.00    -0.354 N 
ATOM     31  N   UNL A   1      41.424  30.760  34.735  1.00  0.00    -0.248 NA
ATOM     32  C   UNL A   1      41.966  31.450  36.903  1.00  0.00     0.031 C 
ATOM     33  C   UNL A   1      43.501  27.482  32.565  1.00  0.00     0.029 A 
ATOM     34  C   UNL A   1      42.868  28.497  33.263  1.00  0.00     0.049 A 
ATOM     35  H   UNL A   1      41.233  29.693  32.667  1.00  0.00     0.167 HD
ATOM     36  C   UNL A   1      42.504  30.013  35.195  1.00  0.00     0.074 A 
ATOM     37  C   UNL A   1      42.824  30.519  36.515  1.00  0.00     0.031 C 
ATOM     38  C   UNL A   1      43.167  28.998  34.585  1.00  0.00     0.034 A 
BRANCH  25  39
ATOM     39  C   UNL A   1      41.093  27.671  28.884  1.00  0.00     0.023 A 
ATOM     40  C   UNL A   1      42.114  27.899  27.944  1.00  0.00     0.031 A 
ATOM     41  C   UNL A   1      40.192  26.621  28.630  1.00  0.00     0.131 A 
ATOM     42  C   UNL A   1      42.174  27.130  26.770  1.00  0.00     0.055 A 
ATOM     43  C   UNL A   1      40.305  25.808  27.499  1.00  0.00     0.041 A 
ATOM     44  F   UNL A   1      39.183  26.366  29.479  1.00  0.00    -0.206 F 
ATOM     45  C   UNL A   1      41.292  26.070  26.554  1.00  0.00     0.022 A 
BRANCH  42  46
ATOM     46  S   UNL A   1      43.337  27.624  25.470  1.00  0.00     0.124 S 
ATOM     47  O   UNL A   1      42.429  28.046  24.405  1.00  0.00    -0.237 OA
ATOM     48  O   UNL A   1      44.101  28.686  26.115  1.00  0.00    -0.237 OA
ATOM     49  O   UNL A   1      44.083  26.398  25.193  1.00  0.00    -0.744 OA
ENDBRANCH  42  46
ENDBRANCH  25  39
BRANCH  26  50
ATOM     50  C   UNL A   1      39.836  33.470  36.981  1.00  0.00     0.023 A 
ATOM     51  C   UNL A   1      39.183  32.945  38.106  1.00  0.00     0.031 A 
ATOM     52  C   UNL A   1      40.233  34.820  37.022  1.00  0.00     0.131 A 
ATOM     53  C   UNL A   1      38.891  33.780  39.195  1.00  0.00     0.055 A 
ATOM     54  C   UNL A   1      40.008  35.625  38.138  1.00  0.00     0.041 A 
ATOM     55  F   UNL A   1      40.863  35.377  35.974  1.00  0.00    -0.206 F 
ATOM     56  C   UNL A   1      39.315  35.110  39.228  1.00  0.00     0.022 A 
BRANCH  53  57
ATOM     57  S   UNL A   1      37.834  33.134  40.519  1.00  0.00     0.124 S 
ATOM     58  O   UNL A   1      38.597  31.976  40.970  1.00  0.00    -0.237 OA
ATOM     59  O   UNL A   1      37.778  34.264  41.440  1.00  0.00    -0.237 OA
ATOM     60  O   UNL A   1      36.579  32.828  39.833  1.00  0.00    -0.744 OA
ENDBRANCH  53  57
ENDBRANCH  26  50
BRANCH  38  61
ATOM     61  C   UNL A   1      44.333  28.403  35.339  1.00  0.00     0.023 A 
ATOM     62  C   UNL A   1      44.183  27.267  36.154  1.00  0.00     0.031 A 
ATOM     63  C   UNL A   1      45.599  29.011  35.280  1.00  0.00     0.131 A 
ATOM     64  C   UNL A   1      45.257  26.825  36.940  1.00  0.00     0.055 A 
ATOM     65  C   UNL A   1      46.685  28.519  36.005  1.00  0.00     0.041 A 
ATOM     66  F   UNL A   1      45.800  30.102  34.524  1.00  0.00    -0.206 F 
ATOM     67  C   UNL A   1      46.512  27.431  36.856  1.00  0.00     0.022 A 
BRANCH  64  68
ATOM     68  S   UNL A   1      44.953  25.529  38.174  1.00  0.00     0.124 S 
ATOM     69  O   UNL A   1      44.814  26.308  39.401  1.00  0.00    -0.237 OA
ATOM     70  O   UNL A   1      43.734  24.903  37.674  1.00  0.00    -0.237 OA
ATOM     71  O   UNL A   1      46.153  24.698  38.099  1.00  0.00    -0.744 OA
ENDBRANCH  64  68
ENDBRANCH  38  61
ENDBRANCH  12  13
ENDBRANCH   5   7
ENDBRANCH   2   3
ENDBRANCH   1   2
BRANCH   1  72
ATOM     72  C   UNL A   1      31.577  30.925  26.050  1.00  0.00     0.117 C 
BRANCH  72  73
ATOM     73  N   UNL A   1      32.418  29.952  26.744  1.00  0.00    -0.354 N 
ATOM     74  C   UNL A   1      32.459  28.591  26.609  1.00  0.00     0.244 C 
ATOM     75  H   UNL A   1      33.045  30.330  27.402  1.00  0.00     0.163 HD
ATOM     76  O   UNL A   1      33.126  27.934  27.411  1.00  0.00    -0.273 OA
BRANCH  74  77
ATOM     77  C   UNL A   1      31.705  27.928  25.447  1.00  0.00     0.197 C 
BRANCH  77  78
ATOM     78  N   UNL A   1      32.525  27.999  24.232  1.00  0.00    -0.342 N 
ATOM     79  C   UNL A   1      32.237  27.727  22.939  1.00  0.00     0.226 C 
ATOM     80  H   UNL A   1      33.450  28.300  24.384  1.00  0.00     0.164 HD
ATOM     81  O   UNL A   1      33.182  27.455  22.192  1.00  0.00    -0.275 OA
BRANCH  79  82
ATOM     82  C   UNL A   1      30.861  27.934  22.339  1.00  0.00     0.107 C 
ATOM     83  C   UNL A   1      29.601  27.429  23.031  1.00  0.00     0.115 C 
ATOM     84  C   UNL A   1      30.671  29.429  22.136  1.00  0.00     0.133 C 
ATOM     85  C   UNL A   1      28.637  28.594  22.962  1.00  0.00     0.223 C 
ATOM     86  N   UNL A   1      29.273  29.661  22.363  1.00  0.00    -0.333 N 
ATOM     87  O   UNL A   1      27.483  28.575  23.343  1.00  0.00    -0.275 OA
BRANCH  86  88
ATOM     88  C   UNL A   1      28.630  30.937  22.028  1.00  0.00     0.234 C 
BRANCH  88  89
ATOM     89  C   UNL A   1      28.316  31.862  23.205  1.00  0.00     0.406 C 
ATOM     90  F   UNL A   1      29.159  31.637  24.240  1.00  0.00    -0.169 F 
ATOM     91  F   UNL A   1      28.465  33.157  22.845  1.00  0.00    -0.169 F 
ATOM     92  F   UNL A   1      27.054  31.699  23.655  1.00  0.00    -0.169 F 
ENDBRANCH  88  89
ENDBRANCH  86  88
ENDBRANCH  79  82
ENDBRANCH  77  78
BRANCH  77  93
ATOM     93  C   UNL A   1      31.392  26.446  25.698  1.00  0.00     0.191 C 
BRANCH  93  94
ATOM     94  O   UNL A   1      30.663  26.195  26.881  1.00  0.00    -0.394 OA
ATOM     95  H   UNL A   1      31.243  25.773  27.534  1.00  0.00     0.210 HD
ENDBRANCH  93  94
ENDBRANCH  77  93
ENDBRANCH  74  77
ENDBRANCH  72  73
ENDBRANCH   1  72
TORSDOF 19
ENDMDL
MODEL 3
REMARK VINA RESULT:     -11.0      3.005      3.760
REMARK SMILES O=C(NCCCNC(=O)[C@H](CO)NC(=O)[C@H]1CC(=O)N(CC(F)(F)F)C1)c1ccc(-c2c3nc(c(-c4cc(S(=O)(=O)[O-])ccc4F)c4ccc([nH]4)c(-c4cc(S(=O)(=O)[O-])ccc4F)c4nc(c(-c5cc(S(=O)(=O)[O-])ccc5F)c5ccc2[nH]5)C=C4)C=C3)cc1
REMARK SMILES IDX 5 1 4 2 3 3 1 4 2 5 27 7 28 8 89 9 29 10 88 11 30 12 31 13
REMARK SMILES IDX 32 14 82 15 33 16 87 17 81 18 83 19 34 20 86 21 80 22 79 23
REMARK SMILES IDX 35 25 67 26 47 27 66 28 48 29 51 30 65 31 84 32 49 33 50 34
REMARK SMILES IDX 64 36 85 37 52 38 36 39 37 40 45 41 38 42 44 43 46 44 43 45
REMARK SMILES IDX 39 46 40 47 41 48 42 49 68 50 69 51 77 52 70 53 76 54 78 55
REMARK SMILES IDX 75 56 71 57 72 58 73 59 74 60 53 61 54 62 62 63 55 64 61 65
REMARK SMILES IDX 63 66 60 67 56 68 57 69 58 70 59 71 6 72 7 73 8 74 9 76
REMARK SMILES IDX 10 77 13 78 14 79 15 81 16 82 17 83 26 84 18 85 20 86 19 87
REMARK SMILES IDX 21 88 22 89 23 90 24 91 25 92 11 93 12 94
REMARK H PARENT 3 6 83 24 51 35 7 75 13 80 12 95
REMARK Flexibility Score: inf
ROOT
ATOM      1  C   UNL A   1      33.841  28.258  25.071  1.00  0.00     0.042 C 
ENDROOT
BRANCH   1   2
ATOM      2  C   UNL A   1      33.898  28.532  26.561  1.00  0.00     0.118 C 
BRANCH   2   3
ATOM      3  N   UNL A   1      33.673  29.934  26.879  1.00  0.00    -0.352 N 
ATOM      4  O   UNL A   1      33.970  31.870  27.996  1.00  0.00    -0.269 OA
ATOM      5  C   UNL A   1      34.413  30.768  27.687  1.00  0.00     0.251 C 
ATOM      6  H   UNL A   1      32.883  30.342  26.458  1.00  0.00     0.163 HD
BRANCH   5   7
ATOM      7  C   UNL A   1      35.733  30.323  28.193  1.00  0.00     0.039 A 
ATOM      8  C   UNL A   1      36.890  30.570  27.454  1.00  0.00     0.014 A 
ATOM      9  C   UNL A   1      35.821  29.650  29.415  1.00  0.00     0.014 A 
ATOM     10  C   UNL A   1      38.089  29.988  27.832  1.00  0.00     0.010 A 
ATOM     11  C   UNL A   1      37.064  29.189  29.869  1.00  0.00     0.010 A 
ATOM     12  C   UNL A   1      38.207  29.334  29.069  1.00  0.00    -0.014 A 
BRANCH  12  13
ATOM     13  C   UNL A   1      39.564  28.919  29.519  1.00  0.00     0.031 A 
ATOM     14  C   UNL A   1      40.291  29.643  30.617  1.00  0.00     0.074 A 
ATOM     15  C   UNL A   1      40.112  27.825  28.949  1.00  0.00     0.049 A 
ATOM     16  N   UNL A   1      41.464  29.380  31.138  1.00  0.00    -0.248 NA
ATOM     17  C   UNL A   1      39.629  30.818  31.202  1.00  0.00     0.031 C 
ATOM     18  C   UNL A   1      39.500  27.052  27.861  1.00  0.00     0.029 A 
ATOM     19  N   UNL A   1      41.275  27.151  29.213  1.00  0.00    -0.354 N 
ATOM     20  C   UNL A   1      41.683  30.353  32.107  1.00  0.00     0.074 A 
ATOM     21  C   UNL A   1      40.540  31.241  32.067  1.00  0.00     0.031 C 
ATOM     22  C   UNL A   1      40.254  25.977  27.604  1.00  0.00     0.029 A 
ATOM     23  C   UNL A   1      41.453  26.034  28.428  1.00  0.00     0.049 A 
ATOM     24  H   UNL A   1      41.922  27.437  29.898  1.00  0.00     0.167 HD
ATOM     25  C   UNL A   1      42.733  30.479  32.957  1.00  0.00     0.034 A 
ATOM     26  C   UNL A   1      42.480  25.168  28.347  1.00  0.00     0.034 A 
ATOM     27  C   UNL A   1      43.871  29.587  32.970  1.00  0.00     0.049 A 
ATOM     28  C   UNL A   1      43.655  25.368  29.263  1.00  0.00     0.074 A 
ATOM     29  C   UNL A   1      44.990  29.628  33.786  1.00  0.00     0.029 A 
ATOM     30  N   UNL A   1      44.041  28.495  32.126  1.00  0.00    -0.354 N 
ATOM     31  N   UNL A   1      43.839  26.294  30.178  1.00  0.00    -0.248 NA
ATOM     32  C   UNL A   1      44.756  24.408  29.142  1.00  0.00     0.031 C 
ATOM     33  C   UNL A   1      45.863  28.609  33.390  1.00  0.00     0.029 A 
ATOM     34  C   UNL A   1      45.255  27.873  32.386  1.00  0.00     0.049 A 
ATOM     35  H   UNL A   1      43.394  28.205  31.444  1.00  0.00     0.167 HD
ATOM     36  C   UNL A   1      45.073  26.010  30.755  1.00  0.00     0.074 A 
ATOM     37  C   UNL A   1      45.565  24.809  30.111  1.00  0.00     0.031 C 
ATOM     38  C   UNL A   1      45.742  26.685  31.724  1.00  0.00     0.034 A 
BRANCH  25  39
ATOM     39  C   UNL A   1      42.716  31.642  33.922  1.00  0.00     0.023 A 
ATOM     40  C   UNL A   1      42.190  31.514  35.220  1.00  0.00     0.031 A 
ATOM     41  C   UNL A   1      43.230  32.896  33.545  1.00  0.00     0.131 A 
ATOM     42  C   UNL A   1      42.136  32.631  36.071  1.00  0.00     0.055 A 
ATOM     43  C   UNL A   1      43.246  33.982  34.424  1.00  0.00     0.041 A 
ATOM     44  F   UNL A   1      43.727  33.088  32.313  1.00  0.00    -0.206 F 
ATOM     45  C   UNL A   1      42.685  33.857  35.690  1.00  0.00     0.022 A 
BRANCH  42  46
ATOM     46  S   UNL A   1      41.219  32.489  37.629  1.00  0.00     0.124 S 
ATOM     47  O   UNL A   1      41.183  33.879  38.078  1.00  0.00    -0.237 OA
ATOM     48  O   UNL A   1      39.945  31.926  37.197  1.00  0.00    -0.237 OA
ATOM     49  O   UNL A   1      42.052  31.602  38.438  1.00  0.00    -0.744 OA
ENDBRANCH  42  46
ENDBRANCH  25  39
BRANCH  26  50
ATOM     50  C   UNL A   1      42.469  24.076  27.330  1.00  0.00     0.023 A 
ATOM     51  C   UNL A   1      41.827  22.854  27.577  1.00  0.00     0.031 A 
ATOM     52  C   UNL A   1      43.153  24.224  26.108  1.00  0.00     0.131 A 
ATOM     53  C   UNL A   1      41.935  21.810  26.645  1.00  0.00     0.055 A 
ATOM     54  C   UNL A   1      43.192  23.209  25.153  1.00  0.00     0.041 A 
ATOM     55  F   UNL A   1      43.786  25.373  25.817  1.00  0.00    -0.206 F 
ATOM     56  C   UNL A   1      42.596  21.984  25.427  1.00  0.00     0.022 A 
BRANCH  53  57
ATOM     57  S   UNL A   1      41.304  20.173  27.106  1.00  0.00     0.124 S 
ATOM     58  O   UNL A   1      40.299  19.942  26.075  1.00  0.00    -0.237 OA
ATOM     59  O   UNL A   1      42.507  19.352  27.027  1.00  0.00    -0.237 OA
ATOM     60  O   UNL A   1      40.780  20.380  28.456  1.00  0.00    -0.744 OA
ENDBRANCH  53  57
ENDBRANCH  26  50
BRANCH  38  61
ATOM     61  C   UNL A   1      47.063  26.100  32.166  1.00  0.00     0.023 A 
ATOM     62  C   UNL A   1      48.254  26.347  31.459  1.00  0.00     0.031 A 
ATOM     63  C   UNL A   1      47.122  25.244  33.280  1.00  0.00     0.131 A 
ATOM     64  C   UNL A   1      49.432  25.680  31.822  1.00  0.00     0.055 A 
ATOM     65  C   UNL A   1      48.316  24.645  33.684  1.00  0.00     0.041 A 
ATOM     66  F   UNL A   1      46.017  24.968  33.990  1.00  0.00    -0.206 F 
ATOM     67  C   UNL A   1      49.476  24.847  32.941  1.00  0.00     0.022 A 
BRANCH  64  68
ATOM     68  S   UNL A   1      50.876  25.814  30.731  1.00  0.00     0.124 S 
ATOM     69  O   UNL A   1      51.031  27.261  30.611  1.00  0.00    -0.237 OA
ATOM     70  O   UNL A   1      51.909  25.123  31.495  1.00  0.00    -0.237 OA
ATOM     71  O   UNL A   1      50.447  25.132  29.511  1.00  0.00    -0.744 OA
ENDBRANCH  64  68
ENDBRANCH  38  61
ENDBRANCH  12  13
ENDBRANCH   5   7
ENDBRANCH   2   3
ENDBRANCH   1   2
BRANCH   1  72
ATOM     72  C   UNL A   1      33.631  26.786  24.739  1.00  0.00     0.117 C 
BRANCH  72  73
ATOM     73  N   UNL A   1      32.220  26.489  24.500  1.00  0.00    -0.354 N 
ATOM     74  C   UNL A   1      31.640  25.830  23.450  1.00  0.00     0.244 C 
ATOM     75  H   UNL A   1      31.598  26.808  25.193  1.00  0.00     0.163 HD
ATOM     76  O   UNL A   1      30.411  25.830  23.354  1.00  0.00    -0.273 OA
BRANCH  74  77
ATOM     77  C   UNL A   1      32.530  25.083  22.446  1.00  0.00     0.197 C 
BRANCH  77  78
ATOM     78  N   UNL A   1      32.052  23.704  22.303  1.00  0.00    -0.342 N 
ATOM     79  C   UNL A   1      32.598  22.522  22.669  1.00  0.00     0.226 C 
ATOM     80  H   UNL A   1      31.176  23.623  21.862  1.00  0.00     0.164 HD
ATOM     81  O   UNL A   1      32.218  21.512  22.070  1.00  0.00    -0.275 OA
BRANCH  79  82
ATOM     82  C   UNL A   1      33.484  22.366  23.888  1.00  0.00     0.107 C 
ATOM     83  C   UNL A   1      33.770  21.000  24.502  1.00  0.00     0.115 C 
ATOM     84  C   UNL A   1      34.835  22.979  23.553  1.00  0.00     0.133 C 
ATOM     85  C   UNL A   1      35.266  20.995  24.733  1.00  0.00     0.223 C 
ATOM     86  N   UNL A   1      35.793  22.178  24.259  1.00  0.00    -0.333 N 
ATOM     87  O   UNL A   1      35.890  20.105  25.277  1.00  0.00    -0.275 OA
BRANCH  86  88
ATOM     88  C   UNL A   1      37.197  22.583  24.397  1.00  0.00     0.234 C 
BRANCH  88  89
ATOM     89  C   UNL A   1      37.593  23.188  25.744  1.00  0.00     0.406 C 
ATOM     90  F   UNL A   1      38.407  22.355  26.433  1.00  0.00    -0.169 F 
ATOM     91  F   UNL A   1      38.269  24.346  25.564  1.00  0.00    -0.169 F 
ATOM     92  F   UNL A   1      36.519  23.452  26.517  1.00  0.00    -0.169 F 
ENDBRANCH  88  89
ENDBRANCH  86  88
ENDBRANCH  79  82
ENDBRANCH  77  78
BRANCH  77  93
ATOM     93  C   UNL A   1      32.524  25.715  21.047  1.00  0.00     0.191 C 
BRANCH  93  94
ATOM     94  O   UNL A   1      32.996  24.868  20.021  1.00  0.00    -0.394 OA
ATOM     95  H   UNL A   1      32.862  25.297  19.161  1.00  0.00     0.210 HD
ENDBRANCH  93  94
ENDBRANCH  77  93
ENDBRANCH  74  77
ENDBRANCH  72  73
ENDBRANCH   1  72
TORSDOF 19
ENDMDL
