MODEL 1
REMARK VINA RESULT:     -11.8      0.000      0.000
REMARK SMILES CC(C)[NH2+][C@]1(C(=O)NCCCNC(=O)c2ccc(-c3c4nc(c(-c5cc(S(=O)(=O)[O-])ccc5F)c5ccc([nH]5)c(-c5cc(S(=O)(=O)[O-])ccc5F)c5nc(c(-c6cc(S(=O)(=O)[O-])ccc6F)c6ccc3[nH]6)C=C5)C=C4)cc2)CCC[C@H]([N@H+](C)C2CCCCC2)C1
REMARK SMILES IDX 10 1 9 2 8 3 6 4 7 5 5 7 78 8 90 9 79 10 81 11 80 12 4 13
REMARK SMILES IDX 2 16 1 17 3 18 82 19 83 20 84 22 85 23 89 24 86 25 88 26
REMARK SMILES IDX 87 27 11 28 12 29 13 30 14 32 15 33 16 34 77 35 17 36 76 37
REMARK SMILES IDX 18 38 19 39 20 40 70 41 21 42 75 43 69 44 71 45 22 46 74 47
REMARK SMILES IDX 68 48 67 49 23 51 55 52 35 53 54 54 36 55 39 56 53 57 72 58
REMARK SMILES IDX 37 59 38 60 52 62 73 63 40 64 24 65 25 66 33 67 26 68 32 69
REMARK SMILES IDX 34 70 31 71 27 72 28 73 29 74 30 75 56 76 57 77 65 78 58 79
REMARK SMILES IDX 64 80 66 81 63 82 59 83 60 84 61 85 62 86 41 87 42 88 50 89
REMARK SMILES IDX 43 90 49 91 51 92 48 93 44 94 45 95 46 96 47 97
REMARK H PARENT 8 6 4 14 4 15 82 21 12 31 71 50 39 61
REMARK Flexibility Score: inf
ROOT
ATOM      1  C   UNL A   1      31.403  32.102  26.528  1.00  0.00     0.042 C 
ENDROOT
BRANCH   1   2
ATOM      2  C   UNL A   1      31.399  30.623  26.147  1.00  0.00     0.118 C 
BRANCH   2   3
ATOM      3  N   UNL A   1      31.234  30.380  24.719  1.00  0.00    -0.351 N 
ATOM      4  C   UNL A   1      30.919  29.269  23.994  1.00  0.00     0.281 C 
ATOM      5  O   UNL A   1      30.276  29.527  22.963  1.00  0.00    -0.268 OA
ATOM      6  H   UNL A   1      31.378  31.182  24.166  1.00  0.00     0.163 HD
BRANCH   4   7
ATOM      7  C   UNL A   1      31.374  27.762  24.295  1.00  0.00     0.181 C 
ATOM      8  C   UNL A   1      30.652  27.121  25.531  1.00  0.00     0.079 C 
ATOM      9  C   UNL A   1      31.034  26.921  23.045  1.00  0.00     0.144 C 
ATOM     10  C   UNL A   1      30.258  25.638  25.587  1.00  0.00     0.013 C 
ATOM     11  C   UNL A   1      30.996  25.383  23.179  1.00  0.00     0.190 C 
ATOM     12  C   UNL A   1      29.943  25.038  24.234  1.00  0.00     0.065 C 
BRANCH   7  13
ATOM     13  N   UNL A   1      32.846  27.801  24.602  1.00  0.00    -0.331 N 
ATOM     14  H   UNL A   1      33.283  27.113  23.989  1.00  0.00     0.347 HD
ATOM     15  H   UNL A   1      33.064  28.789  24.475  1.00  0.00     0.347 HD
BRANCH  13  16
ATOM     16  C   UNL A   1      33.374  27.540  25.962  1.00  0.00     0.176 C 
ATOM     17  C   UNL A   1      34.132  26.201  25.892  1.00  0.00     0.075 C 
ATOM     18  C   UNL A   1      34.329  28.563  26.591  1.00  0.00     0.075 C 
ENDBRANCH  13  16
ENDBRANCH   7  13
BRANCH  11  19
ATOM     19  N   UNL A   1      32.213  24.573  23.373  1.00  0.00    -0.332 N 
ATOM     20  C   UNL A   1      33.399  24.821  22.576  1.00  0.00     0.333 C 
ATOM     21  H   UNL A   1      32.522  25.054  24.217  1.00  0.00     0.348 HD
BRANCH  19  22
ATOM     22  C   UNL A   1      32.004  23.169  23.781  1.00  0.00     0.184 C 
ATOM     23  C   UNL A   1      32.366  22.126  22.690  1.00  0.00     0.065 C 
ATOM     24  C   UNL A   1      32.846  22.903  25.049  1.00  0.00     0.065 C 
ATOM     25  C   UNL A   1      32.299  20.686  23.179  1.00  0.00     0.006 C 
ATOM     26  C   UNL A   1      32.782  21.449  25.510  1.00  0.00     0.006 C 
ATOM     27  C   UNL A   1      33.185  20.490  24.398  1.00  0.00     0.000 C 
ENDBRANCH  19  22
ENDBRANCH  11  19
ENDBRANCH   4   7
ENDBRANCH   2   3
ENDBRANCH   1   2
BRANCH   1  28
ATOM     28  C   UNL A   1      32.662  32.545  27.258  1.00  0.00     0.118 C 
BRANCH  28  29
ATOM     29  N   UNL A   1      32.599  33.947  27.646  1.00  0.00    -0.352 N 
ATOM     30  C   UNL A   1      33.224  34.618  28.664  1.00  0.00     0.251 C 
ATOM     31  H   UNL A   1      32.011  34.504  27.085  1.00  0.00     0.163 HD
ATOM     32  O   UNL A   1      32.800  35.736  28.977  1.00  0.00    -0.269 OA
BRANCH  30  33
ATOM     33  C   UNL A   1      34.378  34.037  29.385  1.00  0.00     0.039 A 
ATOM     34  C   UNL A   1      35.673  34.376  28.978  1.00  0.00     0.014 A 
ATOM     35  C   UNL A   1      34.202  33.105  30.411  1.00  0.00     0.014 A 
ATOM     36  C   UNL A   1      36.781  33.812  29.621  1.00  0.00     0.010 A 
ATOM     37  C   UNL A   1      35.302  32.616  31.111  1.00  0.00     0.010 A 
ATOM     38  C   UNL A   1      36.604  32.944  30.709  1.00  0.00    -0.014 A 
BRANCH  38  39
ATOM     39  C   UNL A   1      37.760  32.324  31.409  1.00  0.00     0.031 A 
ATOM     40  C   UNL A   1      38.511  31.194  30.750  1.00  0.00     0.074 A 
ATOM     41  C   UNL A   1      38.088  32.728  32.652  1.00  0.00     0.049 A 
ATOM     42  N   UNL A   1      39.465  30.439  31.232  1.00  0.00    -0.248 NA
ATOM     43  C   UNL A   1      38.105  30.841  29.380  1.00  0.00     0.031 C 
ATOM     44  C   UNL A   1      37.410  33.786  33.404  1.00  0.00     0.029 A 
ATOM     45  N   UNL A   1      39.067  32.291  33.509  1.00  0.00    -0.354 N 
ATOM     46  C   UNL A   1      39.751  29.508  30.238  1.00  0.00     0.074 A 
ATOM     47  C   UNL A   1      38.829  29.758  29.151  1.00  0.00     0.031 C 
ATOM     48  C   UNL A   1      38.006  33.930  34.598  1.00  0.00     0.029 A 
ATOM     49  C   UNL A   1      39.075  32.946  34.720  1.00  0.00     0.049 A 
ATOM     50  H   UNL A   1      39.703  31.574  33.280  1.00  0.00     0.167 HD
ATOM     51  C   UNL A   1      40.709  28.547  30.225  1.00  0.00     0.034 A 
ATOM     52  C   UNL A   1      39.851  32.763  35.808  1.00  0.00     0.034 A 
ATOM     53  C   UNL A   1      41.643  28.340  31.303  1.00  0.00     0.049 A 
ATOM     54  C   UNL A   1      40.915  31.694  35.764  1.00  0.00     0.074 A 
ATOM     55  C   UNL A   1      42.695  27.444  31.374  1.00  0.00     0.029 A 
ATOM     56  N   UNL A   1      41.639  29.044  32.502  1.00  0.00    -0.354 N 
ATOM     57  N   UNL A   1      41.202  30.852  34.798  1.00  0.00    -0.248 NA
ATOM     58  C   UNL A   1      41.769  31.561  36.951  1.00  0.00     0.031 C 
ATOM     59  C   UNL A   1      43.290  27.564  32.635  1.00  0.00     0.029 A 
ATOM     60  C   UNL A   1      42.655  28.584  33.325  1.00  0.00     0.049 A 
ATOM     61  H   UNL A   1      41.007  29.762  32.733  1.00  0.00     0.167 HD
ATOM     62  C   UNL A   1      42.290  30.113  35.250  1.00  0.00     0.074 A 
ATOM     63  C   UNL A   1      42.619  30.621  36.566  1.00  0.00     0.031 C 
ATOM     64  C   UNL A   1      42.963  29.106  34.635  1.00  0.00     0.034 A 
BRANCH  51  65
ATOM     65  C   UNL A   1      40.777  27.640  29.018  1.00  0.00     0.023 A 
ATOM     66  C   UNL A   1      41.717  27.842  27.992  1.00  0.00     0.031 A 
ATOM     67  C   UNL A   1      39.877  26.568  28.883  1.00  0.00     0.131 A 
ATOM     68  C   UNL A   1      41.691  27.031  26.847  1.00  0.00     0.055 A 
ATOM     69  C   UNL A   1      39.909  25.714  27.778  1.00  0.00     0.041 A 
ATOM     70  F   UNL A   1      38.943  26.337  29.819  1.00  0.00    -0.206 F 
ATOM     71  C   UNL A   1      40.810  25.951  26.745  1.00  0.00     0.022 A 
BRANCH  68  72
ATOM     72  S   UNL A   1      42.735  27.487  25.437  1.00  0.00     0.124 S 
ATOM     73  O   UNL A   1      44.003  27.792  26.097  1.00  0.00    -0.237 OA
ATOM     74  O   UNL A   1      42.714  26.276  24.623  1.00  0.00    -0.237 OA
ATOM     75  O   UNL A   1      42.048  28.640  24.859  1.00  0.00    -0.744 OA
ENDBRANCH  68  72
ENDBRANCH  51  65
BRANCH  52  76
ATOM     76  C   UNL A   1      39.656  33.595  37.031  1.00  0.00     0.023 A 
ATOM     77  C   UNL A   1      40.460  34.719  37.273  1.00  0.00     0.031 A 
ATOM     78  C   UNL A   1      38.700  33.249  38.001  1.00  0.00     0.131 A 
ATOM     79  C   UNL A   1      40.334  35.425  38.480  1.00  0.00     0.055 A 
ATOM     80  C   UNL A   1      38.538  33.988  39.175  1.00  0.00     0.041 A 
ATOM     81  F   UNL A   1      37.898  32.187  37.819  1.00  0.00    -0.206 F 
ATOM     82  C   UNL A   1      39.370  35.075  39.427  1.00  0.00     0.022 A 
BRANCH  79  83
ATOM     83  S   UNL A   1      41.523  36.747  38.838  1.00  0.00     0.124 S 
ATOM     84  O   UNL A   1      40.642  37.843  39.225  1.00  0.00    -0.237 OA
ATOM     85  O   UNL A   1      42.319  36.155  39.908  1.00  0.00    -0.237 OA
ATOM     86  O   UNL A   1      42.223  36.928  37.568  1.00  0.00    -0.744 OA
ENDBRANCH  79  83
ENDBRANCH  52  76
BRANCH  64  87
ATOM     87  C   UNL A   1      44.149  28.532  35.367  1.00  0.00     0.023 A 
ATOM     88  C   UNL A   1      44.002  27.532  36.343  1.00  0.00     0.031 A 
ATOM     89  C   UNL A   1      45.445  29.004  35.089  1.00  0.00     0.131 A 
ATOM     90  C   UNL A   1      45.126  27.076  37.048  1.00  0.00     0.055 A 
ATOM     91  C   UNL A   1      46.566  28.503  35.751  1.00  0.00     0.041 A 
ATOM     92  F   UNL A   1      45.641  29.959  34.166  1.00  0.00    -0.206 F 
ATOM     93  C   UNL A   1      46.409  27.543  36.746  1.00  0.00     0.022 A 
BRANCH  90  94
ATOM     94  S   UNL A   1      44.878  25.927  38.429  1.00  0.00     0.124 S 
ATOM     95  O   UNL A   1      43.819  26.587  39.186  1.00  0.00    -0.237 OA
ATOM     96  O   UNL A   1      44.499  24.695  37.745  1.00  0.00    -0.237 OA
ATOM     97  O   UNL A   1      46.183  25.895  39.087  1.00  0.00    -0.744 OA
ENDBRANCH  90  94
ENDBRANCH  64  87
ENDBRANCH  38  39
ENDBRANCH  30  33
ENDBRANCH  28  29
ENDBRANCH   1  28
TORSDOF 17
ENDMDL
MODEL 2
REMARK VINA RESULT:     -11.5      5.957     11.527
REMARK SMILES CC(C)[NH2+][C@]1(C(=O)NCCCNC(=O)c2ccc(-c3c4nc(c(-c5cc(S(=O)(=O)[O-])ccc5F)c5ccc([nH]5)c(-c5cc(S(=O)(=O)[O-])ccc5F)c5nc(c(-c6cc(S(=O)(=O)[O-])ccc6F)c6ccc3[nH]6)C=C5)C=C4)cc2)CCC[C@H]([N@H+](C)C2CCCCC2)C1
REMARK SMILES IDX 10 1 9 2 8 3 6 4 7 5 5 7 78 8 90 9 79 10 81 11 80 12 4 13
REMARK SMILES IDX 2 16 1 17 3 18 82 19 83 20 84 22 85 23 89 24 86 25 88 26
REMARK SMILES IDX 87 27 11 28 12 29 13 30 14 32 15 33 16 34 77 35 17 36 76 37
REMARK SMILES IDX 18 38 19 39 20 40 70 41 21 42 75 43 69 44 71 45 22 46 74 47
REMARK SMILES IDX 68 48 67 49 23 51 55 52 35 53 54 54 36 55 39 56 53 57 72 58
REMARK SMILES IDX 37 59 38 60 52 62 73 63 40 64 24 65 25 66 33 67 26 68 32 69
REMARK SMILES IDX 34 70 31 71 27 72 28 73 29 74 30 75 56 76 57 77 65 78 58 79
REMARK SMILES IDX 64 80 66 81 63 82 59 83 60 84 61 85 62 86 41 87 42 88 50 89
REMARK SMILES IDX 43 90 49 91 51 92 48 93 44 94 45 95 46 96 47 97
REMARK H PARENT 8 6 4 14 4 15 82 21 12 31 71 50 39 61
REMARK Flexibility Score: inf
ROOT
ATOM      1  C   UNL A   1      38.114  19.698  24.979  1.00  0.00     0.042 C 
ENDROOT
BRANCH   1   2
ATOM      2  C   UNL A   1      36.956  20.678  24.797  1.00  0.00     0.118 C 
BRANCH   2   3
ATOM      3  N   UNL A   1      35.665  20.152  25.219  1.00  0.00    -0.351 N 
ATOM      4  C   UNL A   1      34.378  20.485  24.911  1.00  0.00     0.281 C 
ATOM      5  O   UNL A   1      33.607  19.511  24.928  1.00  0.00    -0.268 OA
ATOM      6  H   UNL A   1      35.734  19.405  25.857  1.00  0.00     0.163 HD
BRANCH   4   7
ATOM      7  C   UNL A   1      33.801  21.956  24.645  1.00  0.00     0.181 C 
ATOM      8  C   UNL A   1      34.148  22.522  23.224  1.00  0.00     0.079 C 
ATOM      9  C   UNL A   1      32.263  21.876  24.774  1.00  0.00     0.144 C 
ATOM     10  C   UNL A   1      33.182  23.407  22.423  1.00  0.00     0.013 C 
ATOM     11  C   UNL A   1      31.415  23.030  24.196  1.00  0.00     0.190 C 
ATOM     12  C   UNL A   1      31.722  23.124  22.700  1.00  0.00     0.065 C 
BRANCH   7  13
ATOM     13  N   UNL A   1      34.435  22.865  25.661  1.00  0.00    -0.331 N 
ATOM     14  H   UNL A   1      33.669  23.262  26.205  1.00  0.00     0.347 HD
ATOM     15  H   UNL A   1      35.101  22.244  26.118  1.00  0.00     0.347 HD
BRANCH  13  16
ATOM     16  C   UNL A   1      35.297  24.006  25.268  1.00  0.00     0.176 C 
ATOM     17  C   UNL A   1      34.649  25.273  25.858  1.00  0.00     0.075 C 
ATOM     18  C   UNL A   1      36.766  24.007  25.709  1.00  0.00     0.075 C 
ENDBRANCH  13  16
ENDBRANCH   7  13
BRANCH  11  19
ATOM     19  N   UNL A   1      31.380  24.372  24.806  1.00  0.00    -0.332 N 
ATOM     20  C   UNL A   1      31.091  24.533  26.218  1.00  0.00     0.333 C 
ATOM     21  H   UNL A   1      32.392  24.482  24.868  1.00  0.00     0.348 HD
BRANCH  19  22
ATOM     22  C   UNL A   1      30.923  25.473  23.935  1.00  0.00     0.184 C 
ATOM     23  C   UNL A   1      29.540  26.064  24.323  1.00  0.00     0.065 C 
ATOM     24  C   UNL A   1      31.989  26.592  23.968  1.00  0.00     0.065 C 
ATOM     25  C   UNL A   1      29.159  27.298  23.518  1.00  0.00     0.006 C 
ATOM     26  C   UNL A   1      31.577  27.828  23.173  1.00  0.00     0.006 C 
ATOM     27  C   UNL A   1      30.230  28.369  23.634  1.00  0.00     0.000 C 
ENDBRANCH  19  22
ENDBRANCH  11  19
ENDBRANCH   4   7
ENDBRANCH   2   3
ENDBRANCH   1   2
BRANCH   1  28
ATOM     28  C   UNL A   1      39.130  20.135  26.023  1.00  0.00     0.118 C 
BRANCH  28  29
ATOM     29  N   UNL A   1      40.251  19.210  26.109  1.00  0.00    -0.352 N 
ATOM     30  C   UNL A   1      41.601  19.446  26.129  1.00  0.00     0.251 C 
ATOM     31  H   UNL A   1      39.998  18.259  26.161  1.00  0.00     0.163 HD
ATOM     32  O   UNL A   1      42.366  18.499  25.917  1.00  0.00    -0.269 OA
BRANCH  30  33
ATOM     33  C   UNL A   1      42.151  20.794  26.396  1.00  0.00     0.039 A 
ATOM     34  C   UNL A   1      42.458  21.154  27.712  1.00  0.00     0.014 A 
ATOM     35  C   UNL A   1      42.298  21.735  25.374  1.00  0.00     0.014 A 
ATOM     36  C   UNL A   1      42.945  22.435  27.994  1.00  0.00     0.010 A 
ATOM     37  C   UNL A   1      42.870  22.976  25.640  1.00  0.00     0.010 A 
ATOM     38  C   UNL A   1      43.177  23.350  26.956  1.00  0.00    -0.014 A 
BRANCH  38  39
ATOM     39  C   UNL A   1      43.689  24.720  27.223  1.00  0.00     0.031 A 
ATOM     40  C   UNL A   1      42.751  25.775  27.753  1.00  0.00     0.074 A 
ATOM     41  C   UNL A   1      44.967  25.030  26.928  1.00  0.00     0.049 A 
ATOM     42  N   UNL A   1      42.959  27.053  27.940  1.00  0.00    -0.248 NA
ATOM     43  C   UNL A   1      41.383  25.340  28.078  1.00  0.00     0.031 C 
ATOM     44  C   UNL A   1      45.956  24.101  26.376  1.00  0.00     0.029 A 
ATOM     45  N   UNL A   1      45.653  26.213  27.038  1.00  0.00    -0.354 N 
ATOM     46  C   UNL A   1      41.745  27.577  28.375  1.00  0.00     0.074 A 
ATOM     47  C   UNL A   1      40.792  26.489  28.367  1.00  0.00     0.031 C 
ATOM     48  C   UNL A   1      47.124  24.744  26.218  1.00  0.00     0.029 A 
ATOM     49  C   UNL A   1      46.959  26.139  26.609  1.00  0.00     0.049 A 
ATOM     50  H   UNL A   1      45.248  27.039  27.392  1.00  0.00     0.167 HD
ATOM     51  C   UNL A   1      41.458  28.844  28.765  1.00  0.00     0.034 A 
ATOM     52  C   UNL A   1      47.909  27.093  26.530  1.00  0.00     0.034 A 
ATOM     53  C   UNL A   1      42.433  29.905  28.802  1.00  0.00     0.049 A 
ATOM     54  C   UNL A   1      47.567  28.492  26.979  1.00  0.00     0.074 A 
ATOM     55  C   UNL A   1      42.274  31.208  29.240  1.00  0.00     0.029 A 
ATOM     56  N   UNL A   1      43.754  29.784  28.387  1.00  0.00    -0.354 N 
ATOM     57  N   UNL A   1      46.425  28.959  27.430  1.00  0.00    -0.248 NA
ATOM     58  C   UNL A   1      48.644  29.488  26.921  1.00  0.00     0.031 C 
ATOM     59  C   UNL A   1      43.479  31.890  29.036  1.00  0.00     0.029 A 
ATOM     60  C   UNL A   1      44.412  30.995  28.537  1.00  0.00     0.049 A 
ATOM     61  H   UNL A   1      44.162  28.960  28.037  1.00  0.00     0.167 HD
ATOM     62  C   UNL A   1      46.659  30.295  27.741  1.00  0.00     0.074 A 
ATOM     63  C   UNL A   1      48.053  30.552  27.443  1.00  0.00     0.031 C 
ATOM     64  C   UNL A   1      45.803  31.228  28.232  1.00  0.00     0.034 A 
BRANCH  51  65
ATOM     65  C   UNL A   1      40.032  29.150  29.161  1.00  0.00     0.023 A 
ATOM     66  C   UNL A   1      39.638  29.225  30.509  1.00  0.00     0.031 A 
ATOM     67  C   UNL A   1      39.048  29.354  28.177  1.00  0.00     0.131 A 
ATOM     68  C   UNL A   1      38.287  29.425  30.835  1.00  0.00     0.055 A 
ATOM     69  C   UNL A   1      37.721  29.633  28.508  1.00  0.00     0.041 A 
ATOM     70  F   UNL A   1      39.359  29.274  26.873  1.00  0.00    -0.206 F 
ATOM     71  C   UNL A   1      37.330  29.656  29.843  1.00  0.00     0.022 A 
BRANCH  68  72
ATOM     72  S   UNL A   1      37.777  29.250  32.565  1.00  0.00     0.124 S 
ATOM     73  O   UNL A   1      38.827  29.994  33.258  1.00  0.00    -0.237 OA
ATOM     74  O   UNL A   1      36.453  29.862  32.569  1.00  0.00    -0.237 OA
ATOM     75  O   UNL A   1      37.798  27.806  32.785  1.00  0.00    -0.744 OA
ENDBRANCH  68  72
ENDBRANCH  51  65
BRANCH  52  76
ATOM     76  C   UNL A   1      49.267  26.772  26.002  1.00  0.00     0.023 A 
ATOM     77  C   UNL A   1      49.667  27.208  24.729  1.00  0.00     0.031 A 
ATOM     78  C   UNL A   1      50.166  25.982  26.739  1.00  0.00     0.131 A 
ATOM     79  C   UNL A   1      50.906  26.805  24.208  1.00  0.00     0.055 A 
ATOM     80  C   UNL A   1      51.422  25.632  26.240  1.00  0.00     0.041 A 
ATOM     81  F   UNL A   1      49.839  25.543  27.966  1.00  0.00    -0.206 F 
ATOM     82  C   UNL A   1      51.792  26.031  24.959  1.00  0.00     0.022 A 
BRANCH  79  83
ATOM     83  S   UNL A   1      51.300  27.225  22.487  1.00  0.00     0.124 S 
ATOM     84  O   UNL A   1      51.396  28.679  22.549  1.00  0.00    -0.237 OA
ATOM     85  O   UNL A   1      52.553  26.507  22.281  1.00  0.00    -0.237 OA
ATOM     86  O   UNL A   1      50.155  26.706  21.741  1.00  0.00    -0.744 OA
ENDBRANCH  79  83
ENDBRANCH  52  76
BRANCH  64  87
ATOM     87  C   UNL A   1      46.374  32.593  28.520  1.00  0.00     0.023 A 
ATOM     88  C   UNL A   1      46.422  33.596  27.538  1.00  0.00     0.031 A 
ATOM     89  C   UNL A   1      46.888  32.886  29.796  1.00  0.00     0.131 A 
ATOM     90  C   UNL A   1      47.025  34.829  27.830  1.00  0.00     0.055 A 
ATOM     91  C   UNL A   1      47.431  34.134  30.099  1.00  0.00     0.041 A 
ATOM     92  F   UNL A   1      46.866  31.963  30.770  1.00  0.00    -0.206 F 
ATOM     93  C   UNL A   1      47.514  35.110  29.109  1.00  0.00     0.022 A 
BRANCH  90  94
ATOM     94  S   UNL A   1      47.242  36.029  26.488  1.00  0.00     0.124 S 
ATOM     95  O   UNL A   1      47.501  35.162  25.344  1.00  0.00    -0.237 OA
ATOM     96  O   UNL A   1      45.960  36.726  26.483  1.00  0.00    -0.237 OA
ATOM     97  O   UNL A   1      48.382  36.832  26.928  1.00  0.00    -0.744 OA
ENDBRANCH  90  94
ENDBRANCH  64  87
ENDBRANCH  38  39
ENDBRANCH  30  33
ENDBRANCH  28  29
ENDBRANCH   1  28
TORSDOF 17
ENDMDL
MODEL 3
REMARK VINA RESULT:     -11.3      3.268      8.777
REMARK SMILES CC(C)[NH2+][C@]1(C(=O)NCCCNC(=O)c2ccc(-c3c4nc(c(-c5cc(S(=O)(=O)[O-])ccc5F)c5ccc([nH]5)c(-c5cc(S(=O)(=O)[O-])ccc5F)c5nc(c(-c6cc(S(=O)(=O)[O-])ccc6F)c6ccc3[nH]6)C=C5)C=C4)cc2)CCC[C@H]([N@H+](C)C2CCCCC2)C1
REMARK SMILES IDX 10 1 9 2 8 3 6 4 7 5 5 7 78 8 90 9 79 10 81 11 80 12 4 13
REMARK SMILES IDX 2 16 1 17 3 18 82 19 83 20 84 22 85 23 89 24 86 25 88 26
REMARK SMILES IDX 87 27 11 28 12 29 13 30 14 32 15 33 16 34 77 35 17 36 76 37
REMARK SMILES IDX 18 38 19 39 20 40 70 41 21 42 75 43 69 44 71 45 22 46 74 47
REMARK SMILES IDX 68 48 67 49 23 51 55 52 35 53 54 54 36 55 39 56 53 57 72 58
REMARK SMILES IDX 37 59 38 60 52 62 73 63 40 64 24 65 25 66 33 67 26 68 32 69
REMARK SMILES IDX 34 70 31 71 27 72 28 73 29 74 30 75 56 76 57 77 65 78 58 79
REMARK SMILES IDX 64 80 66 81 63 82 59 83 60 84 61 85 62 86 41 87 42 88 50 89
REMARK SMILES IDX 43 90 49 91 51 92 48 93 44 94 45 95 46 96 47 97
REMARK H PARENT 8 6 4 14 4 15 82 21 12 31 71 50 39 61
REMARK Flexibility Score: inf
ROOT
ATOM      1  C   UNL A   1      32.914  28.323  26.566  1.00  0.00     0.042 C 
ENDROOT
BRANCH   1   2
ATOM      2  C   UNL A   1      33.047  26.948  25.913  1.00  0.00     0.118 C 
BRANCH   2   3
ATOM      3  N   UNL A   1      31.821  26.161  25.938  1.00  0.00    -0.351 N 
ATOM      4  C   UNL A   1      31.571  24.833  26.125  1.00  0.00     0.281 C 
ATOM      5  O   UNL A   1      30.485  24.617  26.688  1.00  0.00    -0.268 OA
ATOM      6  H   UNL A   1      31.007  26.696  25.791  1.00  0.00     0.163 HD
BRANCH   4   7
ATOM      7  C   UNL A   1      32.464  23.605  25.614  1.00  0.00     0.181 C 
ATOM      8  C   UNL A   1      33.890  23.549  26.264  1.00  0.00     0.079 C 
ATOM      9  C   UNL A   1      31.712  22.306  25.983  1.00  0.00     0.144 C 
ATOM     10  C   UNL A   1      34.594  22.230  26.612  1.00  0.00     0.013 C 
ATOM     11  C   UNL A   1      32.492  20.974  25.970  1.00  0.00     0.190 C 
ATOM     12  C   UNL A   1      33.646  21.106  26.967  1.00  0.00     0.065 C 
BRANCH   7  13
ATOM     13  N   UNL A   1      32.648  23.783  24.132  1.00  0.00    -0.331 N 
ATOM     14  H   UNL A   1      32.583  22.851  23.723  1.00  0.00     0.347 HD
ATOM     15  H   UNL A   1      31.934  24.475  23.910  1.00  0.00     0.347 HD
BRANCH  13  16
ATOM     16  C   UNL A   1      33.868  24.401  23.560  1.00  0.00     0.176 C 
ATOM     17  C   UNL A   1      34.628  23.280  22.826  1.00  0.00     0.075 C 
ATOM     18  C   UNL A   1      33.710  25.560  22.567  1.00  0.00     0.075 C 
ENDBRANCH  13  16
ENDBRANCH   7  13
BRANCH  11  19
ATOM     19  N   UNL A   1      32.952  20.334  24.723  1.00  0.00    -0.332 N 
ATOM     20  C   UNL A   1      32.300  20.627  23.461  1.00  0.00     0.333 C 
ATOM     21  H   UNL A   1      33.763  20.938  24.592  1.00  0.00     0.348 HD
BRANCH  19  22
ATOM     22  C   UNL A   1      33.500  18.970  24.854  1.00  0.00     0.184 C 
ATOM     23  C   UNL A   1      32.663  18.028  25.761  1.00  0.00     0.065 C 
ATOM     24  C   UNL A   1      33.613  18.356  23.440  1.00  0.00     0.065 C 
ATOM     25  C   UNL A   1      33.150  16.586  25.756  1.00  0.00     0.006 C 
ATOM     26  C   UNL A   1      34.082  16.904  23.458  1.00  0.00     0.006 C 
ATOM     27  C   UNL A   1      33.193  16.037  24.339  1.00  0.00     0.000 C 
ENDBRANCH  19  22
ENDBRANCH  11  19
ENDBRANCH   4   7
ENDBRANCH   2   3
ENDBRANCH   1   2
BRANCH   1  28
ATOM     28  C   UNL A   1      33.859  29.368  25.993  1.00  0.00     0.118 C 
BRANCH  28  29
ATOM     29  N   UNL A   1      33.676  30.668  26.623  1.00  0.00    -0.352 N 
ATOM     30  C   UNL A   1      34.295  31.225  27.712  1.00  0.00     0.251 C 
ATOM     31  H   UNL A   1      32.995  31.240  26.199  1.00  0.00     0.163 HD
ATOM     32  O   UNL A   1      33.778  32.218  28.237  1.00  0.00    -0.269 OA
BRANCH  30  33
ATOM     33  C   UNL A   1      35.550  30.668  28.263  1.00  0.00     0.039 A 
ATOM     34  C   UNL A   1      36.771  31.063  27.704  1.00  0.00     0.014 A 
ATOM     35  C   UNL A   1      35.537  29.704  29.274  1.00  0.00     0.014 A 
ATOM     36  C   UNL A   1      37.969  30.523  28.183  1.00  0.00     0.010 A 
ATOM     37  C   UNL A   1      36.733  29.238  29.813  1.00  0.00     0.010 A 
ATOM     38  C   UNL A   1      37.962  29.622  29.259  1.00  0.00    -0.014 A 
BRANCH  38  39
ATOM     39  C   UNL A   1      39.218  29.026  29.787  1.00  0.00     0.031 A 
ATOM     40  C   UNL A   1      39.891  29.648  30.984  1.00  0.00     0.074 A 
ATOM     41  C   UNL A   1      39.783  27.979  29.154  1.00  0.00     0.049 A 
ATOM     42  N   UNL A   1      41.045  29.363  31.529  1.00  0.00    -0.248 NA
ATOM     43  C   UNL A   1      39.185  30.767  31.631  1.00  0.00     0.031 C 
ATOM     44  C   UNL A   1      39.243  27.319  27.964  1.00  0.00     0.029 A 
ATOM     45  N   UNL A   1      40.942  27.292  29.414  1.00  0.00    -0.354 N 
ATOM     46  C   UNL A   1      41.217  30.283  32.559  1.00  0.00     0.074 A 
ATOM     47  C   UNL A   1      40.075  31.170  32.525  1.00  0.00     0.031 C 
ATOM     48  C   UNL A   1      40.056  26.310  27.612  1.00  0.00     0.029 A 
ATOM     49  C   UNL A   1      41.199  26.280  28.517  1.00  0.00     0.049 A 
ATOM     50  H   UNL A   1      41.534  27.504  30.172  1.00  0.00     0.167 HD
ATOM     51  C   UNL A   1      42.224  30.366  33.464  1.00  0.00     0.034 A 
ATOM     52  C   UNL A   1      42.245  25.433  28.430  1.00  0.00     0.034 A 
ATOM     53  C   UNL A   1      43.335  29.447  33.506  1.00  0.00     0.049 A 
ATOM     54  C   UNL A   1      43.347  25.540  29.454  1.00  0.00     0.074 A 
ATOM     55  C   UNL A   1      44.377  29.393  34.414  1.00  0.00     0.029 A 
ATOM     56  N   UNL A   1      43.545  28.417  32.597  1.00  0.00    -0.354 N 
ATOM     57  N   UNL A   1      43.471  26.388  30.450  1.00  0.00    -0.248 NA
ATOM     58  C   UNL A   1      44.443  24.568  29.351  1.00  0.00     0.031 C 
ATOM     59  C   UNL A   1      45.248  28.370  34.022  1.00  0.00     0.029 A 
ATOM     60  C   UNL A   1      44.713  27.738  32.912  1.00  0.00     0.049 A 
ATOM     61  H   UNL A   1      42.953  28.200  31.841  1.00  0.00     0.167 HD
ATOM     62  C   UNL A   1      44.642  26.028  31.110  1.00  0.00     0.074 A 
ATOM     63  C   UNL A   1      45.176  24.877  30.411  1.00  0.00     0.031 C 
ATOM     64  C   UNL A   1      45.226  26.593  32.198  1.00  0.00     0.034 A 
BRANCH  51  65
ATOM     65  C   UNL A   1      42.178  31.498  34.465  1.00  0.00     0.023 A 
ATOM     66  C   UNL A   1      41.258  31.509  35.528  1.00  0.00     0.031 A 
ATOM     67  C   UNL A   1      43.055  32.591  34.343  1.00  0.00     0.131 A 
ATOM     68  C   UNL A   1      41.189  32.619  36.384  1.00  0.00     0.055 A 
ATOM     69  C   UNL A   1      43.035  33.656  35.246  1.00  0.00     0.041 A 
ATOM     70  F   UNL A   1      43.942  32.647  33.337  1.00  0.00    -0.206 F 
ATOM     71  C   UNL A   1      42.089  33.682  36.266  1.00  0.00     0.022 A 
BRANCH  68  72
ATOM     72  S   UNL A   1      39.821  32.716  37.570  1.00  0.00     0.124 S 
ATOM     73  O   UNL A   1      40.533  32.657  38.844  1.00  0.00    -0.237 OA
ATOM     74  O   UNL A   1      39.207  33.998  37.241  1.00  0.00    -0.237 OA
ATOM     75  O   UNL A   1      39.013  31.539  37.259  1.00  0.00    -0.744 OA
ENDBRANCH  68  72
ENDBRANCH  51  65
BRANCH  52  76
ATOM     76  C   UNL A   1      42.313  24.417  27.340  1.00  0.00     0.023 A 
ATOM     77  C   UNL A   1      41.592  23.216  27.427  1.00  0.00     0.031 A 
ATOM     78  C   UNL A   1      43.141  24.607  26.219  1.00  0.00     0.131 A 
ATOM     79  C   UNL A   1      41.754  22.228  26.444  1.00  0.00     0.055 A 
ATOM     80  C   UNL A   1      43.254  23.644  25.214  1.00  0.00     0.041 A 
ATOM     81  F   UNL A   1      43.849  25.739  26.080  1.00  0.00    -0.206 F 
ATOM     82  C   UNL A   1      42.570  22.438  25.332  1.00  0.00     0.022 A 
BRANCH  79  83
ATOM     83  S   UNL A   1      40.958  20.617  26.696  1.00  0.00     0.124 S 
ATOM     84  O   UNL A   1      39.699  20.791  25.981  1.00  0.00    -0.237 OA
ATOM     85  O   UNL A   1      41.922  19.707  26.088  1.00  0.00    -0.237 OA
ATOM     86  O   UNL A   1      40.841  20.520  28.150  1.00  0.00    -0.744 OA
ENDBRANCH  79  83
ENDBRANCH  52  76
BRANCH  64  87
ATOM     87  C   UNL A   1      46.477  25.935  32.720  1.00  0.00     0.023 A 
ATOM     88  C   UNL A   1      46.426  24.883  33.650  1.00  0.00     0.031 A 
ATOM     89  C   UNL A   1      47.740  26.378  32.286  1.00  0.00     0.131 A 
ATOM     90  C   UNL A   1      47.618  24.346  34.161  1.00  0.00     0.055 A 
ATOM     91  C   UNL A   1      48.920  25.800  32.752  1.00  0.00     0.041 A 
ATOM     92  F   UNL A   1      47.844  27.380  31.399  1.00  0.00    -0.206 F 
ATOM     93  C   UNL A   1      48.864  24.786  33.705  1.00  0.00     0.022 A 
BRANCH  90  94
ATOM     94  S   UNL A   1      47.518  23.124  35.497  1.00  0.00     0.124 S 
ATOM     95  O   UNL A   1      48.918  22.757  35.677  1.00  0.00    -0.237 OA
ATOM     96  O   UNL A   1      46.917  23.896  36.580  1.00  0.00    -0.237 OA
ATOM     97  O   UNL A   1      46.668  22.074  34.939  1.00  0.00    -0.744 OA
ENDBRANCH  90  94
ENDBRANCH  64  87
ENDBRANCH  38  39
ENDBRANCH  30  33
ENDBRANCH  28  29
ENDBRANCH   1  28
TORSDOF 17
ENDMDL
