MODEL 1
REMARK VINA RESULT:     -13.1      0.000      0.000
REMARK SMILES Cc1c(NC(=O)c2ccc(Br)cc2N)cccc1C(=O)NCCCNC(=O)c1ccc(-c2c3nc(c(-c4cc(S(=O)(=O)[O-])ccc4F)c4ccc([nH]4)c(-c4cc(S(=O)(=O)[O-])ccc4F)c4nc(c(-c5cc(S(=O)(=O)[O-])ccc5F)c5ccc2[nH]5)C=C4)C=C3)cc1
REMARK SMILES IDX 23 1 22 2 21 3 19 4 20 5 18 7 1 8 2 9 3 10 15 11 17 12 16 13
REMARK SMILES IDX 4 14 5 15 6 17 7 18 8 19 13 20 9 21 12 22 10 23 11 24 14 25
REMARK SMILES IDX 24 28 25 29 26 30 27 32 28 33 29 34 90 35 30 36 89 37 31 38
REMARK SMILES IDX 32 39 33 40 83 41 34 42 88 43 82 44 84 45 35 46 87 47 81 48
REMARK SMILES IDX 80 49 36 51 68 52 48 53 67 54 49 55 52 56 66 57 85 58 50 59
REMARK SMILES IDX 51 60 65 62 86 63 53 64 37 65 38 66 46 67 39 68 45 69 47 70
REMARK SMILES IDX 44 71 40 72 41 73 42 74 43 75 69 76 70 77 78 78 71 79 77 80
REMARK SMILES IDX 79 81 76 82 72 83 73 84 74 85 75 86 54 87 55 88 63 89 56 90
REMARK SMILES IDX 62 91 64 92 61 93 57 94 58 95 59 96 60 97
REMARK H PARENT 21 6 4 16 14 26 14 27 25 31 84 50 52 61
REMARK Flexibility Score: inf
ROOT
ATOM      1  C   UNL A   1      32.339  30.930  26.779  1.00  0.00     0.042 C 
ENDROOT
BRANCH   1   2
ATOM      2  C   UNL A   1      31.852  30.110  25.576  1.00  0.00     0.118 C 
BRANCH   2   3
ATOM      3  N   UNL A   1      32.961  29.737  24.701  1.00  0.00    -0.352 N 
ATOM      4  C   UNL A   1      33.504  28.575  24.224  1.00  0.00     0.251 C 
ATOM      5  O   UNL A   1      34.404  28.740  23.388  1.00  0.00    -0.269 OA
ATOM      6  H   UNL A   1      33.443  30.529  24.368  1.00  0.00     0.163 HD
BRANCH   4   7
ATOM      7  C   UNL A   1      33.162  27.147  24.581  1.00  0.00     0.044 A 
ATOM      8  C   UNL A   1      32.702  26.179  22.264  1.00  0.00     0.047 C 
ATOM      9  C   UNL A   1      32.839  26.058  23.745  1.00  0.00    -0.015 A 
ATOM     10  C   UNL A   1      32.435  24.816  24.305  1.00  0.00     0.045 A 
ATOM     11  C   UNL A   1      32.247  24.668  25.673  1.00  0.00     0.026 A 
ATOM     12  C   UNL A   1      32.991  26.944  25.973  1.00  0.00     0.014 A 
ATOM     13  C   UNL A   1      32.522  25.740  26.510  1.00  0.00     0.003 A 
BRANCH  10  14
ATOM     14  N   UNL A   1      32.208  23.750  23.419  1.00  0.00    -0.322 N 
ATOM     15  C   UNL A   1      32.980  22.658  23.105  1.00  0.00     0.257 C 
ATOM     16  H   UNL A   1      31.348  23.792  22.941  1.00  0.00     0.170 HD
ATOM     17  O   UNL A   1      32.578  21.875  22.242  1.00  0.00    -0.269 OA
BRANCH  15  18
ATOM     18  C   UNL A   1      34.266  22.357  23.785  1.00  0.00     0.063 A 
ATOM     19  C   UNL A   1      35.338  23.171  23.378  1.00  0.00     0.017 A 
ATOM     20  C   UNL A   1      34.482  21.327  24.725  1.00  0.00     0.045 A 
ATOM     21  C   UNL A   1      36.605  23.012  23.932  1.00  0.00     0.016 A 
ATOM     22  C   UNL A   1      35.759  21.204  25.295  1.00  0.00     0.042 A 
ATOM     23  C   UNL A   1      36.803  22.043  24.907  1.00  0.00     0.020 A 
ATOM     24  Br  UNL A   1      38.513  21.827  25.680  1.00  0.00    -0.051 Br
BRANCH  20  25
ATOM     25  N   UNL A   1      33.576  20.306  24.997  1.00  0.00    -0.398 N 
ATOM     26  H   UNL A   1      33.902  19.398  25.193  1.00  0.00     0.156 HD
ATOM     27  H   UNL A   1      32.610  20.492  24.993  1.00  0.00     0.156 HD
ENDBRANCH  20  25
ENDBRANCH  15  18
ENDBRANCH  10  14
ENDBRANCH   4   7
ENDBRANCH   2   3
ENDBRANCH   1   2
BRANCH   1  28
ATOM     28  C   UNL A   1      33.481  30.337  27.569  1.00  0.00     0.118 C 
BRANCH  28  29
ATOM     29  N   UNL A   1      34.329  31.313  28.258  1.00  0.00    -0.352 N 
ATOM     30  C   UNL A   1      35.487  31.091  28.996  1.00  0.00     0.251 C 
ATOM     31  H   UNL A   1      34.040  32.251  28.189  1.00  0.00     0.163 HD
ATOM     32  O   UNL A   1      36.108  32.007  29.518  1.00  0.00    -0.269 OA
BRANCH  30  33
ATOM     33  C   UNL A   1      36.069  29.721  28.998  1.00  0.00     0.039 A 
ATOM     34  C   UNL A   1      36.690  29.365  30.199  1.00  0.00     0.014 A 
ATOM     35  C   UNL A   1      36.499  29.189  27.792  1.00  0.00     0.014 A 
ATOM     36  C   UNL A   1      37.978  28.859  30.151  1.00  0.00     0.010 A 
ATOM     37  C   UNL A   1      37.824  28.824  27.727  1.00  0.00     0.010 A 
ATOM     38  C   UNL A   1      38.582  28.757  28.902  1.00  0.00    -0.014 A 
BRANCH  38  39
ATOM     39  C   UNL A   1      39.994  28.496  28.719  1.00  0.00     0.031 A 
ATOM     40  C   UNL A   1      40.347  27.095  28.466  1.00  0.00     0.074 A 
ATOM     41  C   UNL A   1      40.915  29.483  28.758  1.00  0.00     0.049 A 
ATOM     42  N   UNL A   1      41.461  26.551  28.792  1.00  0.00    -0.248 NA
ATOM     43  C   UNL A   1      39.383  26.150  27.909  1.00  0.00     0.031 C 
ATOM     44  C   UNL A   1      42.332  29.399  28.417  1.00  0.00     0.029 A 
ATOM     45  N   UNL A   1      40.776  30.748  29.326  1.00  0.00    -0.354 N 
ATOM     46  C   UNL A   1      41.478  25.294  28.232  1.00  0.00     0.074 A 
ATOM     47  C   UNL A   1      40.124  25.049  27.816  1.00  0.00     0.031 C 
ATOM     48  C   UNL A   1      42.980  30.430  28.989  1.00  0.00     0.029 A 
ATOM     49  C   UNL A   1      42.034  31.129  29.840  1.00  0.00     0.049 A 
ATOM     50  H   UNL A   1      39.948  31.280  29.362  1.00  0.00     0.167 HD
ATOM     51  C   UNL A   1      42.680  24.685  28.047  1.00  0.00     0.034 A 
ATOM     52  C   UNL A   1      42.181  31.319  31.187  1.00  0.00     0.034 A 
ATOM     53  C   UNL A   1      43.752  25.498  28.640  1.00  0.00     0.049 A 
ATOM     54  C   UNL A   1      42.995  30.216  31.854  1.00  0.00     0.074 A 
ATOM     55  C   UNL A   1      44.653  26.415  28.125  1.00  0.00     0.029 A 
ATOM     56  N   UNL A   1      43.737  25.715  30.010  1.00  0.00    -0.354 N 
ATOM     57  N   UNL A   1      43.512  29.183  31.239  1.00  0.00    -0.248 NA
ATOM     58  C   UNL A   1      43.213  30.163  33.297  1.00  0.00     0.031 C 
ATOM     59  C   UNL A   1      45.133  27.221  29.205  1.00  0.00     0.029 A 
ATOM     60  C   UNL A   1      44.567  26.759  30.381  1.00  0.00     0.049 A 
ATOM     61  H   UNL A   1      43.199  25.189  30.646  1.00  0.00     0.167 HD
ATOM     62  C   UNL A   1      44.065  28.319  32.151  1.00  0.00     0.074 A 
ATOM     63  C   UNL A   1      43.828  28.976  33.431  1.00  0.00     0.031 C 
ATOM     64  C   UNL A   1      44.644  27.124  31.793  1.00  0.00     0.034 A 
BRANCH  51  65
ATOM     65  C   UNL A   1      42.913  23.540  27.083  1.00  0.00     0.023 A 
ATOM     66  C   UNL A   1      42.276  22.311  27.345  1.00  0.00     0.031 A 
ATOM     67  C   UNL A   1      43.767  23.536  25.958  1.00  0.00     0.131 A 
ATOM     68  C   UNL A   1      42.557  21.157  26.588  1.00  0.00     0.055 A 
ATOM     69  C   UNL A   1      44.086  22.379  25.233  1.00  0.00     0.041 A 
ATOM     70  F   UNL A   1      44.297  24.653  25.452  1.00  0.00    -0.206 F 
ATOM     71  C   UNL A   1      43.485  21.176  25.552  1.00  0.00     0.022 A 
BRANCH  68  72
ATOM     72  S   UNL A   1      41.684  19.622  26.980  1.00  0.00     0.124 S 
ATOM     73  O   UNL A   1      40.728  20.063  27.990  1.00  0.00    -0.237 OA
ATOM     74  O   UNL A   1      41.130  19.244  25.684  1.00  0.00    -0.237 OA
ATOM     75  O   UNL A   1      42.746  18.747  27.475  1.00  0.00    -0.744 OA
ENDBRANCH  68  72
ENDBRANCH  51  65
BRANCH  52  76
ATOM     76  C   UNL A   1      40.969  31.987  31.770  1.00  0.00     0.023 A 
ATOM     77  C   UNL A   1      40.070  31.173  32.501  1.00  0.00     0.031 A 
ATOM     78  C   UNL A   1      41.012  33.354  32.074  1.00  0.00     0.131 A 
ATOM     79  C   UNL A   1      39.444  31.683  33.650  1.00  0.00     0.055 A 
ATOM     80  C   UNL A   1      40.360  33.858  33.202  1.00  0.00     0.041 A 
ATOM     81  F   UNL A   1      41.819  34.183  31.395  1.00  0.00    -0.206 F 
ATOM     82  C   UNL A   1      39.641  33.008  34.038  1.00  0.00     0.022 A 
BRANCH  79  83
ATOM     83  S   UNL A   1      38.573  30.562  34.783  1.00  0.00     0.124 S 
ATOM     84  O   UNL A   1      37.829  29.708  33.867  1.00  0.00    -0.237 OA
ATOM     85  O   UNL A   1      39.663  29.920  35.512  1.00  0.00    -0.237 OA
ATOM     86  O   UNL A   1      37.766  31.473  35.598  1.00  0.00    -0.744 OA
ENDBRANCH  79  83
ENDBRANCH  52  76
BRANCH  64  87
ATOM     87  C   UNL A   1      45.301  26.155  32.766  1.00  0.00     0.023 A 
ATOM     88  C   UNL A   1      44.575  25.471  33.748  1.00  0.00     0.031 A 
ATOM     89  C   UNL A   1      46.700  25.911  32.784  1.00  0.00     0.131 A 
ATOM     90  C   UNL A   1      45.172  24.482  34.550  1.00  0.00     0.055 A 
ATOM     91  C   UNL A   1      47.309  24.985  33.635  1.00  0.00     0.041 A 
ATOM     92  F   UNL A   1      47.554  26.552  31.976  1.00  0.00    -0.206 F 
ATOM     93  C   UNL A   1      46.539  24.236  34.504  1.00  0.00     0.022 A 
BRANCH  90  94
ATOM     94  S   UNL A   1      44.094  23.487  35.605  1.00  0.00     0.124 S 
ATOM     95  O   UNL A   1      44.863  22.264  35.781  1.00  0.00    -0.237 OA
ATOM     96  O   UNL A   1      43.968  24.336  36.784  1.00  0.00    -0.237 OA
ATOM     97  O   UNL A   1      42.871  23.346  34.807  1.00  0.00    -0.744 OA
ENDBRANCH  90  94
ENDBRANCH  64  87
ENDBRANCH  38  39
ENDBRANCH  30  33
ENDBRANCH  28  29
ENDBRANCH   1  28
TORSDOF 16
ENDMDL
MODEL 2
REMARK VINA RESULT:     -12.8      1.857      2.136
REMARK SMILES Cc1c(NC(=O)c2ccc(Br)cc2N)cccc1C(=O)NCCCNC(=O)c1ccc(-c2c3nc(c(-c4cc(S(=O)(=O)[O-])ccc4F)c4ccc([nH]4)c(-c4cc(S(=O)(=O)[O-])ccc4F)c4nc(c(-c5cc(S(=O)(=O)[O-])ccc5F)c5ccc2[nH]5)C=C4)C=C3)cc1
REMARK SMILES IDX 23 1 22 2 21 3 19 4 20 5 18 7 1 8 2 9 3 10 15 11 17 12 16 13
REMARK SMILES IDX 4 14 5 15 6 17 7 18 8 19 13 20 9 21 12 22 10 23 11 24 14 25
REMARK SMILES IDX 24 28 25 29 26 30 27 32 28 33 29 34 90 35 30 36 89 37 31 38
REMARK SMILES IDX 32 39 33 40 83 41 34 42 88 43 82 44 84 45 35 46 87 47 81 48
REMARK SMILES IDX 80 49 36 51 68 52 48 53 67 54 49 55 52 56 66 57 85 58 50 59
REMARK SMILES IDX 51 60 65 62 86 63 53 64 37 65 38 66 46 67 39 68 45 69 47 70
REMARK SMILES IDX 44 71 40 72 41 73 42 74 43 75 69 76 70 77 78 78 71 79 77 80
REMARK SMILES IDX 79 81 76 82 72 83 73 84 74 85 75 86 54 87 55 88 63 89 56 90
REMARK SMILES IDX 62 91 64 92 61 93 57 94 58 95 59 96 60 97
REMARK H PARENT 21 6 4 16 14 26 14 27 25 31 84 50 52 61
REMARK Flexibility Score: inf
ROOT
ATOM      1  C   UNL A   1      32.694  31.154  26.735  1.00  0.00     0.042 C 
ENDROOT
BRANCH   1   2
ATOM      2  C   UNL A   1      32.069  30.162  25.744  1.00  0.00     0.118 C 
BRANCH   2   3
ATOM      3  N   UNL A   1      32.991  29.840  24.658  1.00  0.00    -0.352 N 
ATOM      4  C   UNL A   1      33.469  28.705  24.063  1.00  0.00     0.251 C 
ATOM      5  O   UNL A   1      34.175  28.912  23.065  1.00  0.00    -0.269 OA
ATOM      6  H   UNL A   1      33.365  30.653  24.246  1.00  0.00     0.163 HD
BRANCH   4   7
ATOM      7  C   UNL A   1      33.260  27.261  24.460  1.00  0.00     0.044 A 
ATOM      8  C   UNL A   1      32.526  26.260  22.228  1.00  0.00     0.047 C 
ATOM      9  C   UNL A   1      32.881  26.153  23.674  1.00  0.00    -0.015 A 
ATOM     10  C   UNL A   1      32.630  24.892  24.281  1.00  0.00     0.045 A 
ATOM     11  C   UNL A   1      32.649  24.740  25.662  1.00  0.00     0.026 A 
ATOM     12  C   UNL A   1      33.303  27.054  25.860  1.00  0.00     0.014 A 
ATOM     13  C   UNL A   1      32.982  25.828  26.455  1.00  0.00     0.003 A 
BRANCH  10  14
ATOM     14  N   UNL A   1      32.337  23.812  23.432  1.00  0.00    -0.322 N 
ATOM     15  C   UNL A   1      33.050  22.676  23.140  1.00  0.00     0.257 C 
ATOM     16  H   UNL A   1      31.471  23.881  22.968  1.00  0.00     0.170 HD
ATOM     17  O   UNL A   1      32.596  21.887  22.308  1.00  0.00    -0.269 OA
BRANCH  15  18
ATOM     18  C   UNL A   1      34.333  22.334  23.808  1.00  0.00     0.063 A 
ATOM     19  C   UNL A   1      35.424  23.118  23.394  1.00  0.00     0.017 A 
ATOM     20  C   UNL A   1      34.526  21.294  24.741  1.00  0.00     0.045 A 
ATOM     21  C   UNL A   1      36.691  22.919  23.937  1.00  0.00     0.016 A 
ATOM     22  C   UNL A   1      35.804  21.132  25.301  1.00  0.00     0.042 A 
ATOM     23  C   UNL A   1      36.869  21.941  24.906  1.00  0.00     0.020 A 
ATOM     24  Br  UNL A   1      38.579  21.671  25.664  1.00  0.00    -0.051 Br
BRANCH  20  25
ATOM     25  N   UNL A   1      33.593  20.300  25.018  1.00  0.00    -0.398 N 
ATOM     26  H   UNL A   1      32.698  20.542  25.350  1.00  0.00     0.156 HD
ATOM     27  H   UNL A   1      33.828  19.353  24.881  1.00  0.00     0.156 HD
ENDBRANCH  20  25
ENDBRANCH  15  18
ENDBRANCH  10  14
ENDBRANCH   4   7
ENDBRANCH   2   3
ENDBRANCH   1   2
BRANCH   1  28
ATOM     28  C   UNL A   1      33.552  30.554  27.823  1.00  0.00     0.118 C 
BRANCH  28  29
ATOM     29  N   UNL A   1      34.473  31.491  28.471  1.00  0.00    -0.352 N 
ATOM     30  C   UNL A   1      35.660  31.219  29.144  1.00  0.00     0.251 C 
ATOM     31  H   UNL A   1      34.218  32.440  28.424  1.00  0.00     0.163 HD
ATOM     32  O   UNL A   1      36.343  32.106  29.636  1.00  0.00    -0.269 OA
BRANCH  30  33
ATOM     33  C   UNL A   1      36.187  29.828  29.105  1.00  0.00     0.039 A 
ATOM     34  C   UNL A   1      36.729  29.389  30.318  1.00  0.00     0.014 A 
ATOM     35  C   UNL A   1      36.660  29.338  27.898  1.00  0.00     0.014 A 
ATOM     36  C   UNL A   1      37.998  28.832  30.309  1.00  0.00     0.010 A 
ATOM     37  C   UNL A   1      37.971  28.921  27.882  1.00  0.00     0.010 A 
ATOM     38  C   UNL A   1      38.662  28.766  29.089  1.00  0.00    -0.014 A 
BRANCH  38  39
ATOM     39  C   UNL A   1      40.071  28.456  28.965  1.00  0.00     0.031 A 
ATOM     40  C   UNL A   1      40.387  27.039  28.760  1.00  0.00     0.074 A 
ATOM     41  C   UNL A   1      41.021  29.414  29.015  1.00  0.00     0.049 A 
ATOM     42  N   UNL A   1      41.470  26.469  29.140  1.00  0.00    -0.248 NA
ATOM     43  C   UNL A   1      39.414  26.111  28.190  1.00  0.00     0.031 C 
ATOM     44  C   UNL A   1      42.446  29.277  28.729  1.00  0.00     0.029 A 
ATOM     45  N   UNL A   1      40.902  30.697  29.546  1.00  0.00    -0.354 N 
ATOM     46  C   UNL A   1      41.467  25.198  28.612  1.00  0.00     0.074 A 
ATOM     47  C   UNL A   1      40.122  24.985  28.152  1.00  0.00     0.031 C 
ATOM     48  C   UNL A   1      43.106  30.301  29.299  1.00  0.00     0.029 A 
ATOM     49  C   UNL A   1      42.153  31.052  30.096  1.00  0.00     0.049 A 
ATOM     50  H   UNL A   1      40.091  31.256  29.538  1.00  0.00     0.167 HD
ATOM     51  C   UNL A   1      42.655  24.547  28.487  1.00  0.00     0.034 A 
ATOM     52  C   UNL A   1      42.256  31.271  31.443  1.00  0.00     0.034 A 
ATOM     53  C   UNL A   1      43.730  25.340  29.099  1.00  0.00     0.049 A 
ATOM     54  C   UNL A   1      43.010  30.160  32.167  1.00  0.00     0.074 A 
ATOM     55  C   UNL A   1      44.679  26.216  28.596  1.00  0.00     0.029 A 
ATOM     56  N   UNL A   1      43.672  25.593  30.462  1.00  0.00    -0.354 N 
ATOM     57  N   UNL A   1      43.515  29.097  31.596  1.00  0.00    -0.248 NA
ATOM     58  C   UNL A   1      43.173  30.137  33.617  1.00  0.00     0.031 C 
ATOM     59  C   UNL A   1      45.144  27.033  29.673  1.00  0.00     0.029 A 
ATOM     60  C   UNL A   1      44.521  26.619  30.838  1.00  0.00     0.049 A 
ATOM     61  H   UNL A   1      43.094  25.100  31.090  1.00  0.00     0.167 HD
ATOM     62  C   UNL A   1      44.006  28.239  32.550  1.00  0.00     0.074 A 
ATOM     63  C   UNL A   1      43.744  28.936  33.803  1.00  0.00     0.031 C 
ATOM     64  C   UNL A   1      44.559  27.018  32.243  1.00  0.00     0.034 A 
BRANCH  51  65
ATOM     65  C   UNL A   1      42.885  23.370  27.560  1.00  0.00     0.023 A 
ATOM     66  C   UNL A   1      43.850  23.505  26.543  1.00  0.00     0.031 A 
ATOM     67  C   UNL A   1      42.184  22.145  27.551  1.00  0.00     0.131 A 
ATOM     68  C   UNL A   1      44.019  22.522  25.549  1.00  0.00     0.055 A 
ATOM     69  C   UNL A   1      42.314  21.186  26.537  1.00  0.00     0.041 A 
ATOM     70  F   UNL A   1      41.378  21.769  28.549  1.00  0.00    -0.206 F 
ATOM     71  C   UNL A   1      43.232  21.375  25.521  1.00  0.00     0.022 A 
BRANCH  68  72
ATOM     72  S   UNL A   1      45.292  22.765  24.287  1.00  0.00     0.124 S 
ATOM     73  O   UNL A   1      46.371  21.912  24.772  1.00  0.00    -0.237 OA
ATOM     74  O   UNL A   1      44.610  22.324  23.075  1.00  0.00    -0.237 OA
ATOM     75  O   UNL A   1      45.562  24.201  24.353  1.00  0.00    -0.744 OA
ENDBRANCH  68  72
ENDBRANCH  51  65
BRANCH  52  76
ATOM     76  C   UNL A   1      41.047  31.992  31.964  1.00  0.00     0.023 A 
ATOM     77  C   UNL A   1      40.096  31.225  32.682  1.00  0.00     0.031 A 
ATOM     78  C   UNL A   1      41.123  33.364  32.234  1.00  0.00     0.131 A 
ATOM     79  C   UNL A   1      39.446  31.785  33.794  1.00  0.00     0.055 A 
ATOM     80  C   UNL A   1      40.447  33.918  33.325  1.00  0.00     0.041 A 
ATOM     81  F   UNL A   1      41.979  34.149  31.565  1.00  0.00    -0.206 F 
ATOM     82  C   UNL A   1      39.671  33.114  34.155  1.00  0.00     0.022 A 
BRANCH  79  83
ATOM     83  S   UNL A   1      38.500  30.723  34.923  1.00  0.00     0.124 S 
ATOM     84  O   UNL A   1      37.487  31.636  35.436  1.00  0.00    -0.237 OA
ATOM     85  O   UNL A   1      38.016  29.661  34.046  1.00  0.00    -0.237 OA
ATOM     86  O   UNL A   1      39.508  30.284  35.891  1.00  0.00    -0.744 OA
ENDBRANCH  79  83
ENDBRANCH  52  76
BRANCH  64  87
ATOM     87  C   UNL A   1      45.148  26.054  33.263  1.00  0.00     0.023 A 
ATOM     88  C   UNL A   1      46.510  25.730  33.288  1.00  0.00     0.031 A 
ATOM     89  C   UNL A   1      44.358  25.375  34.228  1.00  0.00     0.131 A 
ATOM     90  C   UNL A   1      47.060  24.943  34.316  1.00  0.00     0.055 A 
ATOM     91  C   UNL A   1      44.893  24.529  35.204  1.00  0.00     0.041 A 
ATOM     92  F   UNL A   1      43.026  25.497  34.284  1.00  0.00    -0.206 F 
ATOM     93  C   UNL A   1      46.259  24.335  35.275  1.00  0.00     0.022 A 
BRANCH  90  94
ATOM     94  S   UNL A   1      48.860  24.797  34.395  1.00  0.00     0.124 S 
ATOM     95  O   UNL A   1      49.045  23.574  35.163  1.00  0.00    -0.237 OA
ATOM     96  O   UNL A   1      49.213  24.722  32.982  1.00  0.00    -0.237 OA
ATOM     97  O   UNL A   1      49.273  26.029  35.074  1.00  0.00    -0.744 OA
ENDBRANCH  90  94
ENDBRANCH  64  87
ENDBRANCH  38  39
ENDBRANCH  30  33
ENDBRANCH  28  29
ENDBRANCH   1  28
TORSDOF 16
ENDMDL
MODEL 3
REMARK VINA RESULT:     -12.7      4.066      9.491
REMARK SMILES Cc1c(NC(=O)c2ccc(Br)cc2N)cccc1C(=O)NCCCNC(=O)c1ccc(-c2c3nc(c(-c4cc(S(=O)(=O)[O-])ccc4F)c4ccc([nH]4)c(-c4cc(S(=O)(=O)[O-])ccc4F)c4nc(c(-c5cc(S(=O)(=O)[O-])ccc5F)c5ccc2[nH]5)C=C4)C=C3)cc1
REMARK SMILES IDX 23 1 22 2 21 3 19 4 20 5 18 7 1 8 2 9 3 10 15 11 17 12 16 13
REMARK SMILES IDX 4 14 5 15 6 17 7 18 8 19 13 20 9 21 12 22 10 23 11 24 14 25
REMARK SMILES IDX 24 28 25 29 26 30 27 32 28 33 29 34 90 35 30 36 89 37 31 38
REMARK SMILES IDX 32 39 33 40 83 41 34 42 88 43 82 44 84 45 35 46 87 47 81 48
REMARK SMILES IDX 80 49 36 51 68 52 48 53 67 54 49 55 52 56 66 57 85 58 50 59
REMARK SMILES IDX 51 60 65 62 86 63 53 64 37 65 38 66 46 67 39 68 45 69 47 70
REMARK SMILES IDX 44 71 40 72 41 73 42 74 43 75 69 76 70 77 78 78 71 79 77 80
REMARK SMILES IDX 79 81 76 82 72 83 73 84 74 85 75 86 54 87 55 88 63 89 56 90
REMARK SMILES IDX 62 91 64 92 61 93 57 94 58 95 59 96 60 97
REMARK H PARENT 21 6 4 16 14 26 14 27 25 31 84 50 52 61
REMARK Flexibility Score: inf
ROOT
ATOM      1  C   UNL A   1      38.541  21.339  25.339  1.00  0.00     0.042 C 
ENDROOT
BRANCH   1   2
ATOM      2  C   UNL A   1      37.172  21.675  24.730  1.00  0.00     0.118 C 
BRANCH   2   3
ATOM      3  N   UNL A   1      36.288  20.512  24.731  1.00  0.00    -0.352 N 
ATOM      4  C   UNL A   1      34.968  20.267  24.993  1.00  0.00     0.251 C 
ATOM      5  O   UNL A   1      34.608  19.105  24.749  1.00  0.00    -0.269 OA
ATOM      6  H   UNL A   1      36.768  19.690  24.475  1.00  0.00     0.163 HD
BRANCH   4   7
ATOM      7  C   UNL A   1      33.915  21.205  25.536  1.00  0.00     0.044 A 
ATOM      8  C   UNL A   1      32.857  22.034  23.365  1.00  0.00     0.047 C 
ATOM      9  C   UNL A   1      32.946  21.970  24.854  1.00  0.00    -0.015 A 
ATOM     10  C   UNL A   1      32.119  22.883  25.563  1.00  0.00     0.045 A 
ATOM     11  C   UNL A   1      32.307  23.123  26.918  1.00  0.00     0.026 A 
ATOM     12  C   UNL A   1      34.049  21.453  26.924  1.00  0.00     0.014 A 
ATOM     13  C   UNL A   1      33.280  22.407  27.600  1.00  0.00     0.003 A 
BRANCH  10  14
ATOM     14  N   UNL A   1      31.122  23.553  24.835  1.00  0.00    -0.322 N 
ATOM     15  C   UNL A   1      30.874  24.893  24.670  1.00  0.00     0.257 C 
ATOM     16  H   UNL A   1      30.494  22.960  24.362  1.00  0.00     0.170 HD
ATOM     17  O   UNL A   1      29.889  25.238  24.013  1.00  0.00    -0.269 OA
BRANCH  15  18
ATOM     18  C   UNL A   1      31.761  25.952  25.217  1.00  0.00     0.063 A 
ATOM     19  C   UNL A   1      31.185  26.708  26.253  1.00  0.00     0.017 A 
ATOM     20  C   UNL A   1      33.056  26.265  24.754  1.00  0.00     0.045 A 
ATOM     21  C   UNL A   1      31.898  27.732  26.871  1.00  0.00     0.016 A 
ATOM     22  C   UNL A   1      33.771  27.279  25.411  1.00  0.00     0.042 A 
ATOM     23  C   UNL A   1      33.198  27.996  26.461  1.00  0.00     0.020 A 
ATOM     24  Br  UNL A   1      34.184  29.372  27.302  1.00  0.00    -0.051 Br
BRANCH  20  25
ATOM     25  N   UNL A   1      33.614  25.771  23.578  1.00  0.00    -0.398 N 
ATOM     26  H   UNL A   1      34.477  25.298  23.603  1.00  0.00     0.156 HD
ATOM     27  H   UNL A   1      33.145  25.895  22.721  1.00  0.00     0.156 HD
ENDBRANCH  20  25
ENDBRANCH  15  18
ENDBRANCH  10  14
ENDBRANCH   4   7
ENDBRANCH   2   3
ENDBRANCH   1   2
BRANCH   1  28
ATOM     28  C   UNL A   1      39.018  22.252  26.443  1.00  0.00     0.118 C 
BRANCH  28  29
ATOM     29  N   UNL A   1      40.447  22.576  26.403  1.00  0.00    -0.352 N 
ATOM     30  C   UNL A   1      41.054  23.823  26.307  1.00  0.00     0.251 C 
ATOM     31  H   UNL A   1      41.059  21.806  26.450  1.00  0.00     0.163 HD
ATOM     32  O   UNL A   1      42.270  23.952  26.291  1.00  0.00    -0.269 OA
BRANCH  30  33
ATOM     33  C   UNL A   1      40.193  25.034  26.402  1.00  0.00     0.039 A 
ATOM     34  C   UNL A   1      40.827  26.218  26.012  1.00  0.00     0.014 A 
ATOM     35  C   UNL A   1      39.184  25.049  27.352  1.00  0.00     0.014 A 
ATOM     36  C   UNL A   1      40.774  27.306  26.867  1.00  0.00     0.010 A 
ATOM     37  C   UNL A   1      39.236  26.064  28.279  1.00  0.00     0.010 A 
ATOM     38  C   UNL A   1      40.107  27.141  28.076  1.00  0.00    -0.014 A 
BRANCH  38  39
ATOM     39  C   UNL A   1      40.190  28.089  29.168  1.00  0.00     0.031 A 
ATOM     40  C   UNL A   1      39.244  29.208  29.102  1.00  0.00     0.074 A 
ATOM     41  C   UNL A   1      41.067  27.936  30.184  1.00  0.00     0.049 A 
ATOM     42  N   UNL A   1      39.456  30.374  29.591  1.00  0.00    -0.248 NA
ATOM     43  C   UNL A   1      37.995  29.112  28.352  1.00  0.00     0.031 C 
ATOM     44  C   UNL A   1      41.141  28.700  31.425  1.00  0.00     0.029 A 
ATOM     45  N   UNL A   1      42.223  27.157  30.193  1.00  0.00    -0.354 N 
ATOM     46  C   UNL A   1      38.278  31.078  29.486  1.00  0.00     0.074 A 
ATOM     47  C   UNL A   1      37.455  30.304  28.597  1.00  0.00     0.031 C 
ATOM     48  C   UNL A   1      42.368  28.553  31.955  1.00  0.00     0.029 A 
ATOM     49  C   UNL A   1      43.176  27.814  31.002  1.00  0.00     0.049 A 
ATOM     50  H   UNL A   1      42.351  26.302  29.721  1.00  0.00     0.167 HD
ATOM     51  C   UNL A   1      38.092  32.152  30.300  1.00  0.00     0.034 A 
ATOM     52  C   UNL A   1      44.337  28.267  30.437  1.00  0.00     0.034 A 
ATOM     53  C   UNL A   1      39.316  32.418  31.068  1.00  0.00     0.049 A 
ATOM     54  C   UNL A   1      44.384  29.787  30.320  1.00  0.00     0.074 A 
ATOM     55  C   UNL A   1      39.731  32.096  32.350  1.00  0.00     0.029 A 
ATOM     56  N   UNL A   1      40.469  32.765  30.377  1.00  0.00    -0.354 N 
ATOM     57  N   UNL A   1      43.435  30.601  30.704  1.00  0.00    -0.248 NA
ATOM     58  C   UNL A   1      45.488  30.492  29.676  1.00  0.00     0.031 C 
ATOM     59  C   UNL A   1      41.156  32.202  32.395  1.00  0.00     0.029 A 
ATOM     60  C   UNL A   1      41.603  32.641  31.161  1.00  0.00     0.049 A 
ATOM     61  H   UNL A   1      40.479  33.065  29.439  1.00  0.00     0.167 HD
ATOM     62  C   UNL A   1      43.739  31.888  30.332  1.00  0.00     0.074 A 
ATOM     63  C   UNL A   1      45.032  31.755  29.670  1.00  0.00     0.031 C 
ATOM     64  C   UNL A   1      42.901  32.952  30.567  1.00  0.00     0.034 A 
BRANCH  51  65
ATOM     65  C   UNL A   1      36.737  32.750  30.620  1.00  0.00     0.023 A 
ATOM     66  C   UNL A   1      36.035  33.396  29.584  1.00  0.00     0.031 A 
ATOM     67  C   UNL A   1      36.105  32.797  31.882  1.00  0.00     0.131 A 
ATOM     68  C   UNL A   1      34.845  34.108  29.830  1.00  0.00     0.055 A 
ATOM     69  C   UNL A   1      34.948  33.545  32.140  1.00  0.00     0.041 A 
ATOM     70  F   UNL A   1      36.528  32.079  32.927  1.00  0.00    -0.206 F 
ATOM     71  C   UNL A   1      34.314  34.214  31.111  1.00  0.00     0.022 A 
BRANCH  68  72
ATOM     72  S   UNL A   1      33.997  34.898  28.441  1.00  0.00     0.124 S 
ATOM     73  O   UNL A   1      32.676  34.280  28.498  1.00  0.00    -0.237 OA
ATOM     74  O   UNL A   1      34.069  36.310  28.799  1.00  0.00    -0.237 OA
ATOM     75  O   UNL A   1      34.809  34.513  27.287  1.00  0.00    -0.744 OA
ENDBRANCH  68  72
ENDBRANCH  51  65
BRANCH  52  76
ATOM     76  C   UNL A   1      44.854  27.294  29.418  1.00  0.00     0.023 A 
ATOM     77  C   UNL A   1      44.575  27.573  28.057  1.00  0.00     0.031 A 
ATOM     78  C   UNL A   1      45.986  26.521  29.711  1.00  0.00     0.131 A 
ATOM     79  C   UNL A   1      45.541  27.296  27.076  1.00  0.00     0.055 A 
ATOM     80  C   UNL A   1      46.926  26.224  28.721  1.00  0.00     0.041 A 
ATOM     81  F   UNL A   1      46.286  26.196  30.976  1.00  0.00    -0.206 F 
ATOM     82  C   UNL A   1      46.745  26.681  27.418  1.00  0.00     0.022 A 
BRANCH  79  83
ATOM     83  S   UNL A   1      45.345  27.959  25.397  1.00  0.00     0.124 S 
ATOM     84  O   UNL A   1      46.023  29.246  25.488  1.00  0.00    -0.237 OA
ATOM     85  O   UNL A   1      46.000  26.951  24.568  1.00  0.00    -0.237 OA
ATOM     86  O   UNL A   1      43.892  28.017  25.229  1.00  0.00    -0.744 OA
ENDBRANCH  79  83
ENDBRANCH  52  76
BRANCH  64  87
ATOM     87  C   UNL A   1      43.215  34.397  30.207  1.00  0.00     0.023 A 
ATOM     88  C   UNL A   1      43.186  34.864  28.887  1.00  0.00     0.031 A 
ATOM     89  C   UNL A   1      43.608  35.363  31.170  1.00  0.00     0.131 A 
ATOM     90  C   UNL A   1      43.348  36.228  28.586  1.00  0.00     0.055 A 
ATOM     91  C   UNL A   1      43.847  36.706  30.861  1.00  0.00     0.041 A 
ATOM     92  F   UNL A   1      43.778  35.064  32.464  1.00  0.00    -0.206 F 
ATOM     93  C   UNL A   1      43.683  37.155  29.565  1.00  0.00     0.022 A 
BRANCH  90  94
ATOM     94  S   UNL A   1      43.041  36.758  26.885  1.00  0.00     0.124 S 
ATOM     95  O   UNL A   1      41.925  37.681  27.037  1.00  0.00    -0.237 OA
ATOM     96  O   UNL A   1      44.321  37.359  26.527  1.00  0.00    -0.237 OA
ATOM     97  O   UNL A   1      42.726  35.507  26.189  1.00  0.00    -0.744 OA
ENDBRANCH  90  94
ENDBRANCH  64  87
ENDBRANCH  38  39
ENDBRANCH  30  33
ENDBRANCH  28  29
ENDBRANCH   1  28
TORSDOF 16
ENDMDL
