MODEL 1
REMARK VINA RESULT:     -10.9      0.000      0.000
REMARK SMILES C[N@@H+](CC(=O)NCCCNC(=O)c1ccc(-c2c3nc(c(-c4cc(S(=O)(=O)[O-])ccc4F)c4ccc([nH]4)c(-c4cc(S(=O)(=O)[O-])ccc4F)c4nc(c(-c5cc(S(=O)(=O)[O-])ccc5F)c5ccc2[nH]5)C=C4)C=C3)cc1)Cc1csc(-c2ccco2)n1
REMARK SMILES IDX 7 1 6 2 4 3 5 4 3 6 2 7 1 8 76 10 77 11 78 12 86 13 79 14
REMARK SMILES IDX 80 15 81 16 82 17 85 18 83 19 84 20 8 21 9 22 10 23 11 24
REMARK SMILES IDX 12 26 13 27 14 28 75 29 15 30 74 31 16 32 17 33 18 34 68 35
REMARK SMILES IDX 19 36 73 37 67 38 69 39 20 40 72 41 66 42 65 43 21 45 53 46
REMARK SMILES IDX 33 47 52 48 34 49 37 50 51 51 70 52 35 53 36 54 50 56 71 57
REMARK SMILES IDX 38 58 22 59 23 60 31 61 24 62 30 63 32 64 29 65 25 66 26 67
REMARK SMILES IDX 27 68 28 69 54 70 55 71 63 72 56 73 62 74 64 75 61 76 57 77
REMARK SMILES IDX 58 78 59 79 60 80 39 81 40 82 48 83 41 84 47 85 49 86 46 87
REMARK SMILES IDX 42 88 43 89 44 90 45 91
REMARK H PARENT 6 5 2 9 10 25 69 44 37 55
REMARK Flexibility Score: inf
ROOT
ATOM      1  C   UNL A   1      31.356  30.284  25.364  1.00  0.00     0.118 C 
ENDROOT
BRANCH   1   2
ATOM      2  N   UNL A   1      32.010  29.290  26.188  1.00  0.00    -0.351 N 
ATOM      3  C   UNL A   1      33.049  28.455  25.890  1.00  0.00     0.275 C 
ATOM      4  O   UNL A   1      33.640  27.930  26.840  1.00  0.00    -0.269 OA
ATOM      5  H   UNL A   1      31.652  29.201  27.100  1.00  0.00     0.163 HD
BRANCH   3   6
ATOM      6  C   UNL A   1      33.545  28.267  24.456  1.00  0.00     0.363 C 
BRANCH   6   7
ATOM      7  N   UNL A   1      33.060  27.088  23.746  1.00  0.00    -0.325 N 
ATOM      8  C   UNL A   1      33.543  25.783  24.109  1.00  0.00     0.333 C 
ATOM      9  H   UNL A   1      32.228  27.092  24.336  1.00  0.00     0.348 HD
BRANCH   7  10
ATOM     10  C   UNL A   1      32.355  27.233  22.483  1.00  0.00     0.320 C 
BRANCH  10  11
ATOM     11  C   UNL A   1      30.960  27.758  22.631  1.00  0.00     0.106 A 
ATOM     12  C   UNL A   1      29.888  27.156  23.267  1.00  0.00     0.097 A 
ATOM     13  N   UNL A   1      30.682  29.022  22.132  1.00  0.00    -0.232 NA
ATOM     14  S   UNL A   1      28.516  28.190  23.226  1.00  0.00    -0.119 S 
ATOM     15  C   UNL A   1      29.428  29.348  22.354  1.00  0.00     0.159 A 
BRANCH  15  16
ATOM     16  C   UNL A   1      28.866  30.572  21.862  1.00  0.00     0.162 A 
ATOM     17  C   UNL A   1      28.772  31.786  22.527  1.00  0.00     0.053 A 
ATOM     18  O   UNL A   1      28.308  30.719  20.615  1.00  0.00    -0.462 OA
ATOM     19  C   UNL A   1      28.138  32.701  21.654  1.00  0.00     0.043 A 
ATOM     20  C   UNL A   1      27.857  31.995  20.511  1.00  0.00     0.196 A 
ENDBRANCH  15  16
ENDBRANCH  10  11
ENDBRANCH   7  10
ENDBRANCH   6   7
ENDBRANCH   3   6
ENDBRANCH   1   2
BRANCH   1  21
ATOM     21  C   UNL A   1      31.226  31.644  26.041  1.00  0.00     0.042 C 
BRANCH  21  22
ATOM     22  C   UNL A   1      32.402  32.045  26.923  1.00  0.00     0.118 C 
BRANCH  22  23
ATOM     23  N   UNL A   1      32.402  33.460  27.256  1.00  0.00    -0.352 N 
ATOM     24  C   UNL A   1      33.174  34.183  28.134  1.00  0.00     0.251 C 
ATOM     25  H   UNL A   1      31.734  33.992  26.766  1.00  0.00     0.163 HD
ATOM     26  O   UNL A   1      32.849  35.344  28.375  1.00  0.00    -0.269 OA
BRANCH  24  27
ATOM     27  C   UNL A   1      34.356  33.595  28.813  1.00  0.00     0.039 A 
ATOM     28  C   UNL A   1      34.152  32.532  29.703  1.00  0.00     0.014 A 
ATOM     29  C   UNL A   1      35.646  34.104  28.647  1.00  0.00     0.014 A 
ATOM     30  C   UNL A   1      35.236  31.952  30.372  1.00  0.00     0.010 A 
ATOM     31  C   UNL A   1      36.737  33.472  29.251  1.00  0.00     0.010 A 
ATOM     32  C   UNL A   1      36.545  32.394  30.128  1.00  0.00    -0.014 A 
BRANCH  32  33
ATOM     33  C   UNL A   1      37.713  31.756  30.796  1.00  0.00     0.031 A 
ATOM     34  C   UNL A   1      38.530  30.714  30.075  1.00  0.00     0.074 A 
ATOM     35  C   UNL A   1      38.008  32.067  32.075  1.00  0.00     0.049 A 
ATOM     36  N   UNL A   1      39.535  29.998  30.511  1.00  0.00    -0.248 NA
ATOM     37  C   UNL A   1      38.142  30.420  28.687  1.00  0.00     0.031 C 
ATOM     38  C   UNL A   1      37.269  33.023  32.903  1.00  0.00     0.029 A 
ATOM     39  N   UNL A   1      38.996  31.605  32.908  1.00  0.00    -0.354 N 
ATOM     40  C   UNL A   1      39.885  29.152  29.463  1.00  0.00     0.074 A 
ATOM     41  C   UNL A   1      38.947  29.411  28.391  1.00  0.00     0.031 C 
ATOM     42  C   UNL A   1      37.837  33.085  34.117  1.00  0.00     0.029 A 
ATOM     43  C   UNL A   1      38.955  32.148  34.171  1.00  0.00     0.049 A 
ATOM     44  H   UNL A   1      39.673  30.947  32.628  1.00  0.00     0.167 HD
ATOM     45  C   UNL A   1      40.904  28.258  29.392  1.00  0.00     0.034 A 
ATOM     46  C   UNL A   1      39.717  31.909  35.258  1.00  0.00     0.034 A 
ATOM     47  C   UNL A   1      41.847  28.027  30.460  1.00  0.00     0.049 A 
ATOM     48  C   UNL A   1      40.847  30.918  35.157  1.00  0.00     0.074 A 
ATOM     49  C   UNL A   1      42.961  27.204  30.465  1.00  0.00     0.029 A 
ATOM     50  N   UNL A   1      41.783  28.609  31.720  1.00  0.00    -0.354 N 
ATOM     51  N   UNL A   1      41.204  30.173  34.136  1.00  0.00    -0.248 NA
ATOM     52  C   UNL A   1      41.685  30.746  36.350  1.00  0.00     0.031 C 
ATOM     53  C   UNL A   1      43.531  27.240  31.743  1.00  0.00     0.029 A 
ATOM     54  C   UNL A   1      42.817  28.140  32.518  1.00  0.00     0.049 A 
ATOM     55  H   UNL A   1      41.102  29.261  32.005  1.00  0.00     0.167 HD
ATOM     56  C   UNL A   1      42.322  29.460  34.560  1.00  0.00     0.074 A 
ATOM     57  C   UNL A   1      42.590  29.878  35.920  1.00  0.00     0.031 C 
ATOM     58  C   UNL A   1      43.064  28.548  33.881  1.00  0.00     0.034 A 
BRANCH  45  59
ATOM     59  C   UNL A   1      41.028  27.445  28.123  1.00  0.00     0.023 A 
ATOM     60  C   UNL A   1      40.665  26.087  28.074  1.00  0.00     0.031 A 
ATOM     61  C   UNL A   1      41.548  28.028  26.954  1.00  0.00     0.131 A 
ATOM     62  C   UNL A   1      40.904  25.339  26.912  1.00  0.00     0.055 A 
ATOM     63  C   UNL A   1      41.705  27.298  25.773  1.00  0.00     0.041 A 
ATOM     64  F   UNL A   1      41.928  29.315  26.942  1.00  0.00    -0.206 F 
ATOM     65  C   UNL A   1      41.399  25.941  25.752  1.00  0.00     0.022 A 
BRANCH  62  66
ATOM     66  S   UNL A   1      40.702  23.538  26.986  1.00  0.00     0.124 S 
ATOM     67  O   UNL A   1      39.288  23.386  26.652  1.00  0.00    -0.237 OA
ATOM     68  O   UNL A   1      41.650  23.073  25.981  1.00  0.00    -0.237 OA
ATOM     69  O   UNL A   1      41.046  23.211  28.368  1.00  0.00    -0.744 OA
ENDBRANCH  62  66
ENDBRANCH  45  59
BRANCH  46  70
ATOM     70  C   UNL A   1      39.428  32.606  36.543  1.00  0.00     0.023 A 
ATOM     71  C   UNL A   1      38.465  32.113  37.438  1.00  0.00     0.031 A 
ATOM     72  C   UNL A   1      40.096  33.796  36.883  1.00  0.00     0.131 A 
ATOM     73  C   UNL A   1      38.171  32.826  38.611  1.00  0.00     0.055 A 
ATOM     74  C   UNL A   1      39.833  34.476  38.071  1.00  0.00     0.041 A 
ATOM     75  F   UNL A   1      41.033  34.303  36.065  1.00  0.00    -0.206 F 
ATOM     76  C   UNL A   1      38.857  33.997  38.939  1.00  0.00     0.022 A 
BRANCH  73  77
ATOM     77  S   UNL A   1      36.828  32.232  39.676  1.00  0.00     0.124 S 
ATOM     78  O   UNL A   1      37.107  32.931  40.925  1.00  0.00    -0.237 OA
ATOM     79  O   UNL A   1      35.645  32.673  38.943  1.00  0.00    -0.237 OA
ATOM     80  O   UNL A   1      37.034  30.786  39.708  1.00  0.00    -0.744 OA
ENDBRANCH  73  77
ENDBRANCH  46  70
BRANCH  58  81
ATOM     81  C   UNL A   1      44.257  27.967  34.598  1.00  0.00     0.023 A 
ATOM     82  C   UNL A   1      44.167  26.778  35.342  1.00  0.00     0.031 A 
ATOM     83  C   UNL A   1      45.501  28.624  34.547  1.00  0.00     0.131 A 
ATOM     84  C   UNL A   1      45.285  26.309  36.049  1.00  0.00     0.055 A 
ATOM     85  C   UNL A   1      46.624  28.122  35.206  1.00  0.00     0.041 A 
ATOM     86  F   UNL A   1      45.643  29.764  33.854  1.00  0.00    -0.206 F 
ATOM     87  C   UNL A   1      46.517  26.966  35.973  1.00  0.00     0.022 A 
BRANCH  84  88
ATOM     88  S   UNL A   1      45.088  24.875  37.142  1.00  0.00     0.124 S 
ATOM     89  O   UNL A   1      44.081  25.351  38.086  1.00  0.00    -0.237 OA
ATOM     90  O   UNL A   1      44.654  23.834  36.218  1.00  0.00    -0.237 OA
ATOM     91  O   UNL A   1      46.424  24.686  37.705  1.00  0.00    -0.744 OA
ENDBRANCH  84  88
ENDBRANCH  58  81
ENDBRANCH  32  33
ENDBRANCH  24  27
ENDBRANCH  22  23
ENDBRANCH  21  22
ENDBRANCH   1  21
TORSDOF 17
ENDMDL
MODEL 2
REMARK VINA RESULT:     -10.8      2.055      2.423
REMARK SMILES C[N@@H+](CC(=O)NCCCNC(=O)c1ccc(-c2c3nc(c(-c4cc(S(=O)(=O)[O-])ccc4F)c4ccc([nH]4)c(-c4cc(S(=O)(=O)[O-])ccc4F)c4nc(c(-c5cc(S(=O)(=O)[O-])ccc5F)c5ccc2[nH]5)C=C4)C=C3)cc1)Cc1csc(-c2ccco2)n1
REMARK SMILES IDX 7 1 6 2 4 3 5 4 3 6 2 7 1 8 76 10 77 11 78 12 86 13 79 14
REMARK SMILES IDX 80 15 81 16 82 17 85 18 83 19 84 20 8 21 9 22 10 23 11 24
REMARK SMILES IDX 12 26 13 27 14 28 75 29 15 30 74 31 16 32 17 33 18 34 68 35
REMARK SMILES IDX 19 36 73 37 67 38 69 39 20 40 72 41 66 42 65 43 21 45 53 46
REMARK SMILES IDX 33 47 52 48 34 49 37 50 51 51 70 52 35 53 36 54 50 56 71 57
REMARK SMILES IDX 38 58 22 59 23 60 31 61 24 62 30 63 32 64 29 65 25 66 26 67
REMARK SMILES IDX 27 68 28 69 54 70 55 71 63 72 56 73 62 74 64 75 61 76 57 77
REMARK SMILES IDX 58 78 59 79 60 80 39 81 40 82 48 83 41 84 47 85 49 86 46 87
REMARK SMILES IDX 42 88 43 89 44 90 45 91
REMARK H PARENT 6 5 2 9 10 25 69 44 37 55
REMARK Flexibility Score: inf
ROOT
ATOM      1  C   UNL A   1      31.263  30.646  25.946  1.00  0.00     0.118 C 
ENDROOT
BRANCH   1   2
ATOM      2  N   UNL A   1      32.088  29.781  26.762  1.00  0.00    -0.351 N 
ATOM      3  C   UNL A   1      33.191  29.051  26.423  1.00  0.00     0.275 C 
ATOM      4  O   UNL A   1      33.909  28.652  27.347  1.00  0.00    -0.269 OA
ATOM      5  H   UNL A   1      31.812  29.707  27.705  1.00  0.00     0.163 HD
BRANCH   3   6
ATOM      6  C   UNL A   1      33.597  28.836  24.965  1.00  0.00     0.363 C 
BRANCH   6   7
ATOM      7  N   UNL A   1      33.198  27.571  24.356  1.00  0.00    -0.325 N 
ATOM      8  C   UNL A   1      33.654  26.328  24.918  1.00  0.00     0.333 C 
ATOM      9  H   UNL A   1      32.310  27.627  24.855  1.00  0.00     0.348 HD
BRANCH   7  10
ATOM     10  C   UNL A   1      32.623  27.551  23.020  1.00  0.00     0.320 C 
BRANCH  10  11
ATOM     11  C   UNL A   1      31.186  27.972  22.979  1.00  0.00     0.106 A 
ATOM     12  C   UNL A   1      30.073  27.233  23.338  1.00  0.00     0.097 A 
ATOM     13  N   UNL A   1      30.899  29.273  22.590  1.00  0.00    -0.232 NA
ATOM     14  S   UNL A   1      28.651  28.184  23.176  1.00  0.00    -0.119 S 
ATOM     15  C   UNL A   1      29.604  29.495  22.622  1.00  0.00     0.159 A 
BRANCH  15  16
ATOM     16  C   UNL A   1      29.039  30.739  22.185  1.00  0.00     0.162 A 
ATOM     17  C   UNL A   1      28.521  31.039  20.933  1.00  0.00     0.053 A 
ATOM     18  O   UNL A   1      28.937  31.859  22.974  1.00  0.00    -0.462 OA
ATOM     19  C   UNL A   1      28.088  32.385  20.964  1.00  0.00     0.043 A 
ATOM     20  C   UNL A   1      28.383  32.845  22.223  1.00  0.00     0.196 A 
ENDBRANCH  15  16
ENDBRANCH  10  11
ENDBRANCH   7  10
ENDBRANCH   6   7
ENDBRANCH   3   6
ENDBRANCH   1   2
BRANCH   1  21
ATOM     21  C   UNL A   1      31.343  32.115  26.344  1.00  0.00     0.042 C 
BRANCH  21  22
ATOM     22  C   UNL A   1      32.565  32.498  27.169  1.00  0.00     0.118 C 
BRANCH  22  23
ATOM     23  N   UNL A   1      32.528  33.877  27.628  1.00  0.00    -0.352 N 
ATOM     24  C   UNL A   1      33.226  34.519  28.623  1.00  0.00     0.251 C 
ATOM     25  H   UNL A   1      31.893  34.450  27.140  1.00  0.00     0.163 HD
ATOM     26  O   UNL A   1      32.874  35.652  28.943  1.00  0.00    -0.269 OA
BRANCH  24  27
ATOM     27  C   UNL A   1      34.361  33.874  29.332  1.00  0.00     0.039 A 
ATOM     28  C   UNL A   1      35.661  34.304  29.036  1.00  0.00     0.014 A 
ATOM     29  C   UNL A   1      34.182  32.816  30.227  1.00  0.00     0.014 A 
ATOM     30  C   UNL A   1      36.762  33.719  29.674  1.00  0.00     0.010 A 
ATOM     31  C   UNL A   1      35.272  32.290  30.924  1.00  0.00     0.010 A 
ATOM     32  C   UNL A   1      36.577  32.728  30.650  1.00  0.00    -0.014 A 
BRANCH  32  33
ATOM     33  C   UNL A   1      37.734  32.130  31.371  1.00  0.00     0.031 A 
ATOM     34  C   UNL A   1      38.566  31.054  30.720  1.00  0.00     0.074 A 
ATOM     35  C   UNL A   1      38.006  32.510  32.636  1.00  0.00     0.049 A 
ATOM     36  N   UNL A   1      39.565  30.365  31.211  1.00  0.00    -0.248 NA
ATOM     37  C   UNL A   1      38.203  30.685  29.344  1.00  0.00     0.031 C 
ATOM     38  C   UNL A   1      37.251  33.505  33.399  1.00  0.00     0.029 A 
ATOM     39  N   UNL A   1      38.981  32.095  33.510  1.00  0.00    -0.354 N 
ATOM     40  C   UNL A   1      39.935  29.466  30.215  1.00  0.00     0.074 A 
ATOM     41  C   UNL A   1      39.015  29.665  29.115  1.00  0.00     0.031 C 
ATOM     42  C   UNL A   1      37.798  33.634  34.618  1.00  0.00     0.029 A 
ATOM     43  C   UNL A   1      38.916  32.704  34.742  1.00  0.00     0.049 A 
ATOM     44  H   UNL A   1      39.664  31.426  33.277  1.00  0.00     0.167 HD
ATOM     45  C   UNL A   1      40.957  28.573  30.210  1.00  0.00     0.034 A 
ATOM     46  C   UNL A   1      39.660  32.525  35.853  1.00  0.00     0.034 A 
ATOM     47  C   UNL A   1      41.882  28.402  31.305  1.00  0.00     0.049 A 
ATOM     48  C   UNL A   1      40.794  31.534  35.824  1.00  0.00     0.074 A 
ATOM     49  C   UNL A   1      42.998  27.584  31.372  1.00  0.00     0.029 A 
ATOM     50  N   UNL A   1      41.795  29.050  32.530  1.00  0.00    -0.354 N 
ATOM     51  N   UNL A   1      41.170  30.738  34.850  1.00  0.00    -0.248 NA
ATOM     52  C   UNL A   1      41.612  31.428  37.039  1.00  0.00     0.031 C 
ATOM     53  C   UNL A   1      43.546  27.690  32.656  1.00  0.00     0.029 A 
ATOM     54  C   UNL A   1      42.816  28.627  33.370  1.00  0.00     0.049 A 
ATOM     55  H   UNL A   1      41.108  29.714  32.769  1.00  0.00     0.167 HD
ATOM     56  C   UNL A   1      42.283  30.052  35.330  1.00  0.00     0.074 A 
ATOM     57  C   UNL A   1      42.525  30.542  36.671  1.00  0.00     0.031 C 
ATOM     58  C   UNL A   1      43.038  29.107  34.713  1.00  0.00     0.034 A 
BRANCH  45  59
ATOM     59  C   UNL A   1      41.106  27.694  28.988  1.00  0.00     0.023 A 
ATOM     60  C   UNL A   1      42.100  27.930  28.022  1.00  0.00     0.031 A 
ATOM     61  C   UNL A   1      40.220  26.624  28.770  1.00  0.00     0.131 A 
ATOM     62  C   UNL A   1      42.132  27.165  26.846  1.00  0.00     0.055 A 
ATOM     63  C   UNL A   1      40.310  25.812  27.638  1.00  0.00     0.041 A 
ATOM     64  F   UNL A   1      39.239  26.358  29.647  1.00  0.00    -0.206 F 
ATOM     65  C   UNL A   1      41.258  26.091  26.658  1.00  0.00     0.022 A 
BRANCH  62  66
ATOM     66  S   UNL A   1      43.229  27.689  25.502  1.00  0.00     0.124 S 
ATOM     67  O   UNL A   1      42.292  28.350  24.597  1.00  0.00    -0.237 OA
ATOM     68  O   UNL A   1      44.176  28.560  26.189  1.00  0.00    -0.237 OA
ATOM     69  O   UNL A   1      43.785  26.433  25.002  1.00  0.00    -0.744 OA
ENDBRANCH  62  66
ENDBRANCH  45  59
BRANCH  46  70
ATOM     70  C   UNL A   1      39.347  33.289  37.094  1.00  0.00     0.023 A 
ATOM     71  C   UNL A   1      39.964  34.520  37.365  1.00  0.00     0.031 A 
ATOM     72  C   UNL A   1      38.440  32.782  38.042  1.00  0.00     0.131 A 
ATOM     73  C   UNL A   1      39.695  35.186  38.571  1.00  0.00     0.055 A 
ATOM     74  C   UNL A   1      38.142  33.469  39.218  1.00  0.00     0.041 A 
ATOM     75  F   UNL A   1      37.817  31.613  37.824  1.00  0.00    -0.206 F 
ATOM     76  C   UNL A   1      38.780  34.674  39.494  1.00  0.00     0.022 A 
BRANCH  73  77
ATOM     77  S   UNL A   1      40.612  36.705  38.949  1.00  0.00     0.124 S 
ATOM     78  O   UNL A   1      41.091  36.436  40.300  1.00  0.00    -0.237 OA
ATOM     79  O   UNL A   1      41.624  36.716  37.898  1.00  0.00    -0.237 OA
ATOM     80  O   UNL A   1      39.595  37.750  38.843  1.00  0.00    -0.744 OA
ENDBRANCH  73  77
ENDBRANCH  46  70
BRANCH  58  81
ATOM     81  C   UNL A   1      44.220  28.569  35.480  1.00  0.00     0.023 A 
ATOM     82  C   UNL A   1      44.084  27.528  36.415  1.00  0.00     0.031 A 
ATOM     83  C   UNL A   1      45.500  29.119  35.283  1.00  0.00     0.131 A 
ATOM     84  C   UNL A   1      45.198  27.103  37.156  1.00  0.00     0.055 A 
ATOM     85  C   UNL A   1      46.615  28.653  35.982  1.00  0.00     0.041 A 
ATOM     86  F   UNL A   1      45.687  30.117  34.406  1.00  0.00    -0.206 F 
ATOM     87  C   UNL A   1      46.466  27.650  36.935  1.00  0.00     0.022 A 
BRANCH  84  88
ATOM     88  S   UNL A   1      44.954  25.886  38.478  1.00  0.00     0.124 S 
ATOM     89  O   UNL A   1      44.553  24.700  37.727  1.00  0.00    -0.237 OA
ATOM     90  O   UNL A   1      46.272  25.831  39.101  1.00  0.00    -0.237 OA
ATOM     91  O   UNL A   1      43.903  26.480  39.304  1.00  0.00    -0.744 OA
ENDBRANCH  84  88
ENDBRANCH  58  81
ENDBRANCH  32  33
ENDBRANCH  24  27
ENDBRANCH  22  23
ENDBRANCH  21  22
ENDBRANCH   1  21
TORSDOF 17
ENDMDL
MODEL 3
REMARK VINA RESULT:     -10.8      3.596      8.512
REMARK SMILES C[N@@H+](CC(=O)NCCCNC(=O)c1ccc(-c2c3nc(c(-c4cc(S(=O)(=O)[O-])ccc4F)c4ccc([nH]4)c(-c4cc(S(=O)(=O)[O-])ccc4F)c4nc(c(-c5cc(S(=O)(=O)[O-])ccc5F)c5ccc2[nH]5)C=C4)C=C3)cc1)Cc1csc(-c2ccco2)n1
REMARK SMILES IDX 7 1 6 2 4 3 5 4 3 6 2 7 1 8 76 10 77 11 78 12 86 13 79 14
REMARK SMILES IDX 80 15 81 16 82 17 85 18 83 19 84 20 8 21 9 22 10 23 11 24
REMARK SMILES IDX 12 26 13 27 14 28 75 29 15 30 74 31 16 32 17 33 18 34 68 35
REMARK SMILES IDX 19 36 73 37 67 38 69 39 20 40 72 41 66 42 65 43 21 45 53 46
REMARK SMILES IDX 33 47 52 48 34 49 37 50 51 51 70 52 35 53 36 54 50 56 71 57
REMARK SMILES IDX 38 58 22 59 23 60 31 61 24 62 30 63 32 64 29 65 25 66 26 67
REMARK SMILES IDX 27 68 28 69 54 70 55 71 63 72 56 73 62 74 64 75 61 76 57 77
REMARK SMILES IDX 58 78 59 79 60 80 39 81 40 82 48 83 41 84 47 85 49 86 46 87
REMARK SMILES IDX 42 88 43 89 44 90 45 91
REMARK H PARENT 6 5 2 9 10 25 69 44 37 55
REMARK Flexibility Score: inf
ROOT
ATOM      1  C   UNL A   1      31.397  27.414  26.319  1.00  0.00     0.118 C 
ENDROOT
BRANCH   1   2
ATOM      2  N   UNL A   1      30.900  26.112  26.709  1.00  0.00    -0.351 N 
ATOM      3  C   UNL A   1      31.444  24.875  26.515  1.00  0.00     0.275 C 
ATOM      4  O   UNL A   1      31.008  23.951  27.211  1.00  0.00    -0.269 OA
ATOM      5  H   UNL A   1      30.039  26.119  27.187  1.00  0.00     0.163 HD
BRANCH   3   6
ATOM      6  C   UNL A   1      32.625  24.655  25.569  1.00  0.00     0.363 C 
BRANCH   6   7
ATOM      7  N   UNL A   1      32.303  24.273  24.198  1.00  0.00    -0.325 N 
ATOM      8  C   UNL A   1      31.565  23.065  23.944  1.00  0.00     0.333 C 
ATOM      9  H   UNL A   1      31.509  24.914  24.222  1.00  0.00     0.348 HD
BRANCH   7  10
ATOM     10  C   UNL A   1      32.982  24.910  23.082  1.00  0.00     0.320 C 
BRANCH  10  11
ATOM     11  C   UNL A   1      32.670  26.369  22.943  1.00  0.00     0.106 A 
ATOM     12  C   UNL A   1      33.557  27.432  22.943  1.00  0.00     0.097 A 
ATOM     13  N   UNL A   1      31.349  26.736  22.731  1.00  0.00    -0.232 NA
ATOM     14  S   UNL A   1      32.715  28.907  22.684  1.00  0.00    -0.119 S 
ATOM     15  C   UNL A   1      31.240  28.041  22.612  1.00  0.00     0.159 A 
BRANCH  15  16
ATOM     16  C   UNL A   1      29.965  28.683  22.470  1.00  0.00     0.162 A 
ATOM     17  C   UNL A   1      28.786  28.379  23.135  1.00  0.00     0.053 A 
ATOM     18  O   UNL A   1      29.719  29.726  21.610  1.00  0.00    -0.462 OA
ATOM     19  C   UNL A   1      27.791  29.268  22.666  1.00  0.00     0.043 A 
ATOM     20  C   UNL A   1      28.406  30.054  21.724  1.00  0.00     0.196 A 
ENDBRANCH  15  16
ENDBRANCH  10  11
ENDBRANCH   7  10
ENDBRANCH   6   7
ENDBRANCH   3   6
ENDBRANCH   1   2
BRANCH   1  21
ATOM     21  C   UNL A   1      32.572  27.895  27.162  1.00  0.00     0.042 C 
BRANCH  21  22
ATOM     22  C   UNL A   1      33.613  28.718  26.414  1.00  0.00     0.118 C 
BRANCH  22  23
ATOM     23  N   UNL A   1      33.573  30.129  26.761  1.00  0.00    -0.352 N 
ATOM     24  C   UNL A   1      34.396  30.888  27.559  1.00  0.00     0.251 C 
ATOM     25  H   UNL A   1      32.828  30.627  26.353  1.00  0.00     0.163 HD
ATOM     26  O   UNL A   1      34.038  32.028  27.848  1.00  0.00    -0.269 OA
BRANCH  24  27
ATOM     27  C   UNL A   1      35.675  30.361  28.099  1.00  0.00     0.039 A 
ATOM     28  C   UNL A   1      35.666  29.764  29.367  1.00  0.00     0.014 A 
ATOM     29  C   UNL A   1      36.889  30.500  27.422  1.00  0.00     0.014 A 
ATOM     30  C   UNL A   1      36.850  29.261  29.920  1.00  0.00     0.010 A 
ATOM     31  C   UNL A   1      38.054  29.925  27.937  1.00  0.00     0.010 A 
ATOM     32  C   UNL A   1      38.051  29.306  29.196  1.00  0.00    -0.014 A 
BRANCH  32  33
ATOM     33  C   UNL A   1      39.309  28.733  29.751  1.00  0.00     0.031 A 
ATOM     34  C   UNL A   1      39.984  29.377  30.935  1.00  0.00     0.074 A 
ATOM     35  C   UNL A   1      39.880  27.666  29.157  1.00  0.00     0.049 A 
ATOM     36  N   UNL A   1      41.116  29.069  31.514  1.00  0.00    -0.248 NA
ATOM     37  C   UNL A   1      39.308  30.543  31.523  1.00  0.00     0.031 C 
ATOM     38  C   UNL A   1      39.356  26.976  27.976  1.00  0.00     0.029 A 
ATOM     39  N   UNL A   1      41.033  26.981  29.452  1.00  0.00    -0.354 N 
ATOM     40  C   UNL A   1      41.301  30.015  32.519  1.00  0.00     0.074 A 
ATOM     41  C   UNL A   1      40.188  30.936  32.431  1.00  0.00     0.031 C 
ATOM     42  C   UNL A   1      40.175  25.962  27.658  1.00  0.00     0.029 A 
ATOM     43  C   UNL A   1      41.304  25.950  28.583  1.00  0.00     0.049 A 
ATOM     44  H   UNL A   1      41.612  27.207  30.216  1.00  0.00     0.167 HD
ATOM     45  C   UNL A   1      42.293  30.096  33.442  1.00  0.00     0.034 A 
ATOM     46  C   UNL A   1      42.349  25.100  28.524  1.00  0.00     0.034 A 
ATOM     47  C   UNL A   1      43.385  29.155  33.534  1.00  0.00     0.049 A 
ATOM     48  C   UNL A   1      43.436  25.202  29.561  1.00  0.00     0.074 A 
ATOM     49  C   UNL A   1      44.397  29.098  34.477  1.00  0.00     0.029 A 
ATOM     50  N   UNL A   1      43.616  28.112  32.647  1.00  0.00    -0.354 N 
ATOM     51  N   UNL A   1      43.562  26.063  30.544  1.00  0.00    -0.248 NA
ATOM     52  C   UNL A   1      44.516  24.209  29.489  1.00  0.00     0.031 C 
ATOM     53  C   UNL A   1      45.273  28.065  34.124  1.00  0.00     0.029 A 
ATOM     54  C   UNL A   1      44.770  27.428  33.001  1.00  0.00     0.049 A 
ATOM     55  H   UNL A   1      43.043  27.890  31.877  1.00  0.00     0.167 HD
ATOM     56  C   UNL A   1      44.723  25.700  31.221  1.00  0.00     0.074 A 
ATOM     57  C   UNL A   1      45.250  24.533  30.543  1.00  0.00     0.031 C 
ATOM     58  C   UNL A   1      45.298  26.277  32.307  1.00  0.00     0.034 A 
BRANCH  45  59
ATOM     59  C   UNL A   1      42.253  31.260  34.405  1.00  0.00     0.023 A 
ATOM     60  C   UNL A   1      42.901  32.476  34.125  1.00  0.00     0.031 A 
ATOM     61  C   UNL A   1      41.583  31.142  35.636  1.00  0.00     0.131 A 
ATOM     62  C   UNL A   1      42.939  33.491  35.094  1.00  0.00     0.055 A 
ATOM     63  C   UNL A   1      41.552  32.188  36.562  1.00  0.00     0.041 A 
ATOM     64  F   UNL A   1      40.959  30.001  35.968  1.00  0.00    -0.206 F 
ATOM     65  C   UNL A   1      42.248  33.364  36.301  1.00  0.00     0.022 A 
BRANCH  62  66
ATOM     66  S   UNL A   1      44.029  34.913  34.815  1.00  0.00     0.124 S 
ATOM     67  O   UNL A   1      45.346  34.283  34.834  1.00  0.00    -0.237 OA
ATOM     68  O   UNL A   1      43.576  35.409  33.521  1.00  0.00    -0.237 OA
ATOM     69  O   UNL A   1      43.748  35.788  35.952  1.00  0.00    -0.744 OA
ENDBRANCH  62  66
ENDBRANCH  45  59
BRANCH  46  70
ATOM     70  C   UNL A   1      42.428  24.086  27.434  1.00  0.00     0.023 A 
ATOM     71  C   UNL A   1      41.834  22.822  27.572  1.00  0.00     0.031 A 
ATOM     72  C   UNL A   1      43.125  24.362  26.244  1.00  0.00     0.131 A 
ATOM     73  C   UNL A   1      41.979  21.867  26.553  1.00  0.00     0.055 A 
ATOM     74  C   UNL A   1      43.227  23.426  25.216  1.00  0.00     0.041 A 
ATOM     75  F   UNL A   1      43.703  25.560  26.060  1.00  0.00    -0.206 F 
ATOM     76  C   UNL A   1      42.662  22.165  25.372  1.00  0.00     0.022 A 
BRANCH  73  77
ATOM     77  S   UNL A   1      41.315  20.201  26.822  1.00  0.00     0.124 S 
ATOM     78  O   UNL A   1      40.934  20.254  28.229  1.00  0.00    -0.237 OA
ATOM     79  O   UNL A   1      40.217  20.155  25.861  1.00  0.00    -0.237 OA
ATOM     80  O   UNL A   1      42.447  19.330  26.513  1.00  0.00    -0.744 OA
ENDBRANCH  73  77
ENDBRANCH  46  70
BRANCH  58  81
ATOM     81  C   UNL A   1      46.548  25.626  32.846  1.00  0.00     0.023 A 
ATOM     82  C   UNL A   1      47.818  25.911  32.316  1.00  0.00     0.031 A 
ATOM     83  C   UNL A   1      46.462  24.695  33.897  1.00  0.00     0.131 A 
ATOM     84  C   UNL A   1      48.947  25.232  32.801  1.00  0.00     0.055 A 
ATOM     85  C   UNL A   1      47.595  24.065  34.414  1.00  0.00     0.041 A 
ATOM     86  F   UNL A   1      45.274  24.383  34.438  1.00  0.00    -0.206 F 
ATOM     87  C   UNL A   1      48.845  24.322  33.858  1.00  0.00     0.022 A 
BRANCH  84  88
ATOM     88  S   UNL A   1      50.541  25.489  31.976  1.00  0.00     0.124 S 
ATOM     89  O   UNL A   1      50.248  26.614  31.093  1.00  0.00    -0.237 OA
ATOM     90  O   UNL A   1      51.431  25.774  33.097  1.00  0.00    -0.237 OA
ATOM     91  O   UNL A   1      50.787  24.217  31.299  1.00  0.00    -0.744 OA
ENDBRANCH  84  88
ENDBRANCH  58  81
ENDBRANCH  32  33
ENDBRANCH  24  27
ENDBRANCH  22  23
ENDBRANCH  21  22
ENDBRANCH   1  21
TORSDOF 17
ENDMDL
