MODEL 1
REMARK VINA RESULT:      -9.5      0.000      0.000
REMARK SMILES CC[C@H](NS(=O)(=O)Cc1ccccc1)C(=O)NCCCNC(=O)c1ccc(-c2c3nc(c(-c4cc(S(=O)(=O)[O-])ccc4F)c4ccc([nH]4)c(-c4cc(S(=O)(=O)[O-])ccc4F)c4nc(c(-c5cc(S(=O)(=O)[O-])ccc5F)c5ccc2[nH]5)C=C4)C=C3)cc1
REMARK SMILES IDX 18 1 17 2 15 3 16 4 3 6 2 7 1 8 4 9 5 11 6 12 7 13 8 14 9 15
REMARK SMILES IDX 10 16 14 17 11 18 13 19 12 20 19 21 20 22 21 23 22 24 23 26
REMARK SMILES IDX 24 27 25 28 86 29 26 30 85 31 27 32 28 33 29 34 79 35 30 36
REMARK SMILES IDX 84 37 78 38 80 39 31 40 83 41 77 42 76 43 32 45 64 46 44 47
REMARK SMILES IDX 63 48 45 49 48 50 62 51 81 52 46 53 47 54 61 56 82 57 49 58
REMARK SMILES IDX 33 59 34 60 42 61 35 62 41 63 43 64 40 65 36 66 37 67 38 68
REMARK SMILES IDX 39 69 65 70 66 71 74 72 67 73 73 74 75 75 72 76 68 77 69 78
REMARK SMILES IDX 70 79 71 80 50 81 51 82 59 83 52 84 58 85 60 86 57 87 53 88
REMARK SMILES IDX 54 89 55 90 56 91
REMARK H PARENT 17 5 4 10 21 25 80 44 48 55
REMARK Flexibility Score: inf
ROOT
ATOM      1  C   UNL A   1      42.551  20.313  26.026  1.00  0.00     0.117 C 
ENDROOT
BRANCH   1   2
ATOM      2  N   UNL A   1      43.865  19.963  25.518  1.00  0.00    -0.355 N 
ATOM      3  C   UNL A   1      45.025  20.697  25.519  1.00  0.00     0.238 C 
ATOM      4  O   UNL A   1      46.099  20.090  25.488  1.00  0.00    -0.273 OA
ATOM      5  H   UNL A   1      43.935  19.068  25.114  1.00  0.00     0.163 HD
BRANCH   3   6
ATOM      6  C   UNL A   1      44.995  22.218  25.641  1.00  0.00     0.158 C 
BRANCH   6   7
ATOM      7  C   UNL A   1      45.405  22.808  24.272  1.00  0.00     0.027 C 
ATOM      8  C   UNL A   1      46.855  23.195  24.041  1.00  0.00     0.006 C 
ENDBRANCH   6   7
BRANCH   6   9
ATOM      9  N   UNL A   1      45.803  22.665  26.805  1.00  0.00    -0.202 NA
ATOM     10  H   UNL A   1      46.618  23.157  26.437  1.00  0.00     0.141 HD
BRANCH   9  11
ATOM     11  S   UNL A   1      45.074  23.684  27.942  1.00  0.00     0.216 S 
ATOM     12  O   UNL A   1      43.977  24.263  27.178  1.00  0.00    -0.212 OA
ATOM     13  O   UNL A   1      44.770  22.903  29.115  1.00  0.00    -0.212 OA
BRANCH  11  14
ATOM     14  C   UNL A   1      46.219  25.051  28.294  1.00  0.00     0.189 C 
BRANCH  14  15
ATOM     15  C   UNL A   1      47.073  25.482  27.128  1.00  0.00    -0.032 A 
ATOM     16  C   UNL A   1      46.531  26.282  26.107  1.00  0.00     0.005 A 
ATOM     17  C   UNL A   1      48.440  25.187  27.062  1.00  0.00     0.005 A 
ATOM     18  C   UNL A   1      47.285  26.642  24.988  1.00  0.00     0.000 A 
ATOM     19  C   UNL A   1      49.203  25.561  25.952  1.00  0.00     0.000 A 
ATOM     20  C   UNL A   1      48.619  26.263  24.902  1.00  0.00     0.000 A 
ENDBRANCH  14  15
ENDBRANCH  11  14
ENDBRANCH   9  11
ENDBRANCH   6   9
ENDBRANCH   3   6
ENDBRANCH   1   2
BRANCH   1  21
ATOM     21  C   UNL A   1      42.471  20.850  27.451  1.00  0.00     0.042 C 
BRANCH  21  22
ATOM     22  C   UNL A   1      41.339  21.808  27.801  1.00  0.00     0.118 C 
BRANCH  22  23
ATOM     23  N   UNL A   1      40.124  21.653  27.028  1.00  0.00    -0.352 N 
ATOM     24  C   UNL A   1      39.271  22.634  26.576  1.00  0.00     0.251 C 
ATOM     25  H   UNL A   1      39.878  20.728  26.796  1.00  0.00     0.163 HD
ATOM     26  O   UNL A   1      38.279  22.322  25.926  1.00  0.00    -0.269 OA
BRANCH  24  27
ATOM     27  C   UNL A   1      39.523  24.048  26.933  1.00  0.00     0.039 A 
ATOM     28  C   UNL A   1      39.253  24.457  28.240  1.00  0.00     0.014 A 
ATOM     29  C   UNL A   1      40.055  24.955  26.009  1.00  0.00     0.014 A 
ATOM     30  C   UNL A   1      39.584  25.752  28.646  1.00  0.00     0.010 A 
ATOM     31  C   UNL A   1      40.433  26.232  26.431  1.00  0.00     0.010 A 
ATOM     32  C   UNL A   1      40.213  26.639  27.757  1.00  0.00    -0.014 A 
BRANCH  32  33
ATOM     33  C   UNL A   1      40.667  27.979  28.223  1.00  0.00     0.031 A 
ATOM     34  C   UNL A   1      42.128  28.336  28.216  1.00  0.00     0.074 A 
ATOM     35  C   UNL A   1      39.762  28.865  28.684  1.00  0.00     0.049 A 
ATOM     36  N   UNL A   1      42.709  29.444  28.602  1.00  0.00    -0.248 NA
ATOM     37  C   UNL A   1      43.056  27.306  27.731  1.00  0.00     0.031 C 
ATOM     38  C   UNL A   1      38.319  28.627  28.773  1.00  0.00     0.029 A 
ATOM     39  N   UNL A   1      39.915  30.141  29.168  1.00  0.00    -0.354 N 
ATOM     40  C   UNL A   1      44.072  29.246  28.408  1.00  0.00     0.074 A 
ATOM     41  C   UNL A   1      44.230  27.889  27.925  1.00  0.00     0.031 C 
ATOM     42  C   UNL A   1      37.721  29.727  29.259  1.00  0.00     0.029 A 
ATOM     43  C   UNL A   1      38.736  30.734  29.555  1.00  0.00     0.049 A 
ATOM     44  H   UNL A   1      40.789  30.590  29.232  1.00  0.00     0.167 HD
ATOM     45  C   UNL A   1      45.094  30.120  28.595  1.00  0.00     0.034 A 
ATOM     46  C   UNL A   1      38.496  31.946  30.096  1.00  0.00     0.034 A 
ATOM     47  C   UNL A   1      44.924  31.470  29.077  1.00  0.00     0.049 A 
ATOM     48  C   UNL A   1      39.651  32.887  30.330  1.00  0.00     0.074 A 
ATOM     49  C   UNL A   1      45.887  32.449  29.256  1.00  0.00     0.029 A 
ATOM     50  N   UNL A   1      43.716  32.031  29.472  1.00  0.00    -0.354 N 
ATOM     51  N   UNL A   1      40.928  32.702  30.089  1.00  0.00    -0.248 NA
ATOM     52  C   UNL A   1      39.330  34.204  30.895  1.00  0.00     0.031 C 
ATOM     53  C   UNL A   1      45.275  33.573  29.821  1.00  0.00     0.029 A 
ATOM     54  C   UNL A   1      43.916  33.328  29.923  1.00  0.00     0.049 A 
ATOM     55  H   UNL A   1      42.844  31.574  29.436  1.00  0.00     0.167 HD
ATOM     56  C   UNL A   1      41.558  33.893  30.443  1.00  0.00     0.074 A 
ATOM     57  C   UNL A   1      40.518  34.790  30.901  1.00  0.00     0.031 C 
ATOM     58  C   UNL A   1      42.875  34.215  30.388  1.00  0.00     0.034 A 
BRANCH  45  59
ATOM     59  C   UNL A   1      46.491  29.626  28.300  1.00  0.00     0.023 A 
ATOM     60  C   UNL A   1      47.209  28.850  29.226  1.00  0.00     0.031 A 
ATOM     61  C   UNL A   1      47.122  29.952  27.086  1.00  0.00     0.131 A 
ATOM     62  C   UNL A   1      48.539  28.489  28.957  1.00  0.00     0.055 A 
ATOM     63  C   UNL A   1      48.416  29.520  26.790  1.00  0.00     0.041 A 
ATOM     64  F   UNL A   1      46.493  30.705  26.171  1.00  0.00    -0.206 F 
ATOM     65  C   UNL A   1      49.139  28.798  27.734  1.00  0.00     0.022 A 
BRANCH  62  66
ATOM     66  S   UNL A   1      49.518  27.738  30.286  1.00  0.00     0.124 S 
ATOM     67  O   UNL A   1      48.751  26.527  30.568  1.00  0.00    -0.237 OA
ATOM     68  O   UNL A   1      50.815  27.540  29.650  1.00  0.00    -0.237 OA
ATOM     69  O   UNL A   1      49.489  28.744  31.344  1.00  0.00    -0.744 OA
ENDBRANCH  62  66
ENDBRANCH  45  59
BRANCH  46  70
ATOM     70  C   UNL A   1      37.108  32.344  30.471  1.00  0.00     0.023 A 
ATOM     71  C   UNL A   1      36.233  32.905  29.526  1.00  0.00     0.031 A 
ATOM     72  C   UNL A   1      36.652  32.213  31.795  1.00  0.00     0.131 A 
ATOM     73  C   UNL A   1      34.967  33.359  29.929  1.00  0.00     0.055 A 
ATOM     74  C   UNL A   1      35.372  32.617  32.179  1.00  0.00     0.041 A 
ATOM     75  F   UNL A   1      37.447  31.679  32.736  1.00  0.00    -0.206 F 
ATOM     76  C   UNL A   1      34.526  33.206  31.244  1.00  0.00     0.022 A 
BRANCH  73  77
ATOM     77  S   UNL A   1      33.932  34.230  28.720  1.00  0.00     0.124 S 
ATOM     78  O   UNL A   1      34.814  35.313  28.300  1.00  0.00    -0.237 OA
ATOM     79  O   UNL A   1      33.680  33.187  27.730  1.00  0.00    -0.237 OA
ATOM     80  O   UNL A   1      32.768  34.639  29.501  1.00  0.00    -0.744 OA
ENDBRANCH  73  77
ENDBRANCH  46  70
BRANCH  58  81
ATOM     81  C   UNL A   1      43.257  35.621  30.787  1.00  0.00     0.023 A 
ATOM     82  C   UNL A   1      43.419  35.994  32.133  1.00  0.00     0.031 A 
ATOM     83  C   UNL A   1      43.451  36.605  29.802  1.00  0.00     0.131 A 
ATOM     84  C   UNL A   1      43.712  37.326  32.460  1.00  0.00     0.055 A 
ATOM     85  C   UNL A   1      43.801  37.916  30.129  1.00  0.00     0.041 A 
ATOM     86  F   UNL A   1      43.306  36.307  28.500  1.00  0.00    -0.206 F 
ATOM     87  C   UNL A   1      43.922  38.286  31.465  1.00  0.00     0.022 A 
BRANCH  84  88
ATOM     88  S   UNL A   1      43.734  37.815  34.207  1.00  0.00     0.124 S 
ATOM     89  O   UNL A   1      42.965  39.055  34.184  1.00  0.00    -0.237 OA
ATOM     90  O   UNL A   1      43.090  36.677  34.857  1.00  0.00    -0.237 OA
ATOM     91  O   UNL A   1      45.156  37.972  34.503  1.00  0.00    -0.744 OA
ENDBRANCH  84  88
ENDBRANCH  58  81
ENDBRANCH  32  33
ENDBRANCH  24  27
ENDBRANCH  22  23
ENDBRANCH  21  22
ENDBRANCH   1  21
TORSDOF 18
ENDMDL
MODEL 2
REMARK VINA RESULT:      -9.5      6.079     10.728
REMARK SMILES CC[C@H](NS(=O)(=O)Cc1ccccc1)C(=O)NCCCNC(=O)c1ccc(-c2c3nc(c(-c4cc(S(=O)(=O)[O-])ccc4F)c4ccc([nH]4)c(-c4cc(S(=O)(=O)[O-])ccc4F)c4nc(c(-c5cc(S(=O)(=O)[O-])ccc5F)c5ccc2[nH]5)C=C4)C=C3)cc1
REMARK SMILES IDX 18 1 17 2 15 3 16 4 3 6 2 7 1 8 4 9 5 11 6 12 7 13 8 14 9 15
REMARK SMILES IDX 10 16 14 17 11 18 13 19 12 20 19 21 20 22 21 23 22 24 23 26
REMARK SMILES IDX 24 27 25 28 86 29 26 30 85 31 27 32 28 33 29 34 79 35 30 36
REMARK SMILES IDX 84 37 78 38 80 39 31 40 83 41 77 42 76 43 32 45 64 46 44 47
REMARK SMILES IDX 63 48 45 49 48 50 62 51 81 52 46 53 47 54 61 56 82 57 49 58
REMARK SMILES IDX 33 59 34 60 42 61 35 62 41 63 43 64 40 65 36 66 37 67 38 68
REMARK SMILES IDX 39 69 65 70 66 71 74 72 67 73 73 74 75 75 72 76 68 77 69 78
REMARK SMILES IDX 70 79 71 80 50 81 51 82 59 83 52 84 58 85 60 86 57 87 53 88
REMARK SMILES IDX 54 89 55 90 56 91
REMARK H PARENT 17 5 4 10 21 25 80 44 48 55
REMARK Flexibility Score: inf
ROOT
ATOM      1  C   UNL A   1      32.175  30.239  26.002  1.00  0.00     0.117 C 
ENDROOT
BRANCH   1   2
ATOM      2  N   UNL A   1      31.374  30.022  24.811  1.00  0.00    -0.355 N 
ATOM      3  C   UNL A   1      30.917  28.847  24.268  1.00  0.00     0.238 C 
ATOM      4  O   UNL A   1      29.902  28.884  23.567  1.00  0.00    -0.273 OA
ATOM      5  H   UNL A   1      31.121  30.838  24.321  1.00  0.00     0.163 HD
BRANCH   3   6
ATOM      6  C   UNL A   1      31.592  27.516  24.588  1.00  0.00     0.158 C 
BRANCH   6   7
ATOM      7  C   UNL A   1      32.759  27.329  23.592  1.00  0.00     0.027 C 
ATOM      8  C   UNL A   1      34.175  27.214  24.129  1.00  0.00     0.006 C 
ENDBRANCH   6   7
BRANCH   6   9
ATOM      9  N   UNL A   1      30.591  26.418  24.625  1.00  0.00    -0.202 NA
ATOM     10  H   UNL A   1      30.821  25.775  23.866  1.00  0.00     0.141 HD
BRANCH   9  11
ATOM     11  S   UNL A   1      30.462  25.499  26.040  1.00  0.00     0.216 S 
ATOM     12  O   UNL A   1      31.534  26.045  26.860  1.00  0.00    -0.212 OA
ATOM     13  O   UNL A   1      29.104  25.595  26.513  1.00  0.00    -0.212 OA
BRANCH  11  14
ATOM     14  C   UNL A   1      30.945  23.791  25.651  1.00  0.00     0.189 C 
BRANCH  14  15
ATOM     15  C   UNL A   1      32.097  23.659  24.687  1.00  0.00    -0.032 A 
ATOM     16  C   UNL A   1      33.423  23.670  25.156  1.00  0.00     0.005 A 
ATOM     17  C   UNL A   1      31.897  23.430  23.320  1.00  0.00     0.005 A 
ATOM     18  C   UNL A   1      34.505  23.611  24.276  1.00  0.00     0.000 A 
ATOM     19  C   UNL A   1      32.979  23.351  22.438  1.00  0.00     0.000 A 
ATOM     20  C   UNL A   1      34.282  23.471  22.912  1.00  0.00     0.000 A 
ENDBRANCH  14  15
ENDBRANCH  11  14
ENDBRANCH   9  11
ENDBRANCH   6   9
ENDBRANCH   3   6
ENDBRANCH   1   2
BRANCH   1  21
ATOM     21  C   UNL A   1      31.823  31.441  26.873  1.00  0.00     0.042 C 
BRANCH  21  22
ATOM     22  C   UNL A   1      32.945  32.382  27.292  1.00  0.00     0.118 C 
BRANCH  22  23
ATOM     23  N   UNL A   1      32.540  33.736  27.615  1.00  0.00    -0.352 N 
ATOM     24  C   UNL A   1      33.132  34.614  28.495  1.00  0.00     0.251 C 
ATOM     25  H   UNL A   1      31.742  34.069  27.146  1.00  0.00     0.163 HD
ATOM     26  O   UNL A   1      32.655  35.734  28.646  1.00  0.00    -0.269 OA
BRANCH  24  27
ATOM     27  C   UNL A   1      34.298  34.178  29.297  1.00  0.00     0.039 A 
ATOM     28  C   UNL A   1      34.058  33.483  30.483  1.00  0.00     0.014 A 
ATOM     29  C   UNL A   1      35.610  34.412  28.871  1.00  0.00     0.014 A 
ATOM     30  C   UNL A   1      35.130  32.957  31.208  1.00  0.00     0.010 A 
ATOM     31  C   UNL A   1      36.677  33.841  29.570  1.00  0.00     0.010 A 
ATOM     32  C   UNL A   1      36.447  33.096  30.738  1.00  0.00    -0.014 A 
BRANCH  32  33
ATOM     33  C   UNL A   1      37.577  32.438  31.451  1.00  0.00     0.031 A 
ATOM     34  C   UNL A   1      38.313  31.288  30.821  1.00  0.00     0.074 A 
ATOM     35  C   UNL A   1      37.919  32.859  32.685  1.00  0.00     0.049 A 
ATOM     36  N   UNL A   1      39.306  30.582  31.299  1.00  0.00    -0.248 NA
ATOM     37  C   UNL A   1      37.859  30.866  29.489  1.00  0.00     0.031 C 
ATOM     38  C   UNL A   1      37.262  33.943  33.419  1.00  0.00     0.029 A 
ATOM     39  N   UNL A   1      38.901  32.428  33.544  1.00  0.00    -0.354 N 
ATOM     40  C   UNL A   1      39.599  29.630  30.328  1.00  0.00     0.074 A 
ATOM     41  C   UNL A   1      38.635  29.817  29.261  1.00  0.00     0.031 C 
ATOM     42  C   UNL A   1      37.872  34.104  34.605  1.00  0.00     0.029 A 
ATOM     43  C   UNL A   1      38.935  33.113  34.737  1.00  0.00     0.049 A 
ATOM     44  H   UNL A   1      39.522  31.695  33.327  1.00  0.00     0.167 HD
ATOM     45  C   UNL A   1      40.588  28.701  30.317  1.00  0.00     0.034 A 
ATOM     46  C   UNL A   1      39.725  32.957  35.819  1.00  0.00     0.034 A 
ATOM     47  C   UNL A   1      41.543  28.525  31.386  1.00  0.00     0.049 A 
ATOM     48  C   UNL A   1      40.795  31.894  35.799  1.00  0.00     0.074 A 
ATOM     49  C   UNL A   1      42.611  27.647  31.452  1.00  0.00     0.029 A 
ATOM     50  N   UNL A   1      41.537  29.229  32.584  1.00  0.00    -0.354 N 
ATOM     51  N   UNL A   1      41.091  31.038  34.849  1.00  0.00    -0.248 NA
ATOM     52  C   UNL A   1      41.644  31.786  36.993  1.00  0.00     0.031 C 
ATOM     53  C   UNL A   1      43.208  27.771  32.712  1.00  0.00     0.029 A 
ATOM     54  C   UNL A   1      42.563  28.781  33.405  1.00  0.00     0.049 A 
ATOM     55  H   UNL A   1      40.899  29.942  32.817  1.00  0.00     0.167 HD
ATOM     56  C   UNL A   1      42.183  30.312  35.318  1.00  0.00     0.074 A 
ATOM     57  C   UNL A   1      42.498  30.840  36.629  1.00  0.00     0.031 C 
ATOM     58  C   UNL A   1      42.866  29.306  34.717  1.00  0.00     0.034 A 
BRANCH  45  59
ATOM     59  C   UNL A   1      40.668  27.787  29.117  1.00  0.00     0.023 A 
ATOM     60  C   UNL A   1      41.604  27.998  28.090  1.00  0.00     0.031 A 
ATOM     61  C   UNL A   1      39.784  26.701  28.987  1.00  0.00     0.131 A 
ATOM     62  C   UNL A   1      41.585  27.185  26.946  1.00  0.00     0.055 A 
ATOM     63  C   UNL A   1      39.825  25.846  27.885  1.00  0.00     0.041 A 
ATOM     64  F   UNL A   1      38.856  26.459  29.927  1.00  0.00    -0.206 F 
ATOM     65  C   UNL A   1      40.719  26.094  26.848  1.00  0.00     0.022 A 
BRANCH  62  66
ATOM     66  S   UNL A   1      42.610  27.663  25.527  1.00  0.00     0.124 S 
ATOM     67  O   UNL A   1      41.886  28.826  25.019  1.00  0.00    -0.237 OA
ATOM     68  O   UNL A   1      43.901  27.935  26.149  1.00  0.00    -0.237 OA
ATOM     69  O   UNL A   1      42.569  26.487  24.663  1.00  0.00    -0.744 OA
ENDBRANCH  62  66
ENDBRANCH  45  59
BRANCH  46  70
ATOM     70  C   UNL A   1      39.533  33.815  37.024  1.00  0.00     0.023 A 
ATOM     71  C   UNL A   1      38.883  33.325  38.168  1.00  0.00     0.031 A 
ATOM     72  C   UNL A   1      39.956  35.157  37.029  1.00  0.00     0.131 A 
ATOM     73  C   UNL A   1      38.632  34.183  39.250  1.00  0.00     0.055 A 
ATOM     74  C   UNL A   1      39.751  35.991  38.130  1.00  0.00     0.041 A 
ATOM     75  F   UNL A   1      40.586  35.673  35.963  1.00  0.00    -0.206 F 
ATOM     76  C   UNL A   1      39.072  35.508  39.244  1.00  0.00     0.022 A 
BRANCH  73  77
ATOM     77  S   UNL A   1      37.642  33.563  40.639  1.00  0.00     0.124 S 
ATOM     78  O   UNL A   1      38.563  32.621  41.264  1.00  0.00    -0.237 OA
ATOM     79  O   UNL A   1      37.371  34.787  41.387  1.00  0.00    -0.237 OA
ATOM     80  O   UNL A   1      36.480  32.963  39.988  1.00  0.00    -0.744 OA
ENDBRANCH  73  77
ENDBRANCH  46  70
BRANCH  58  81
ATOM     81  C   UNL A   1      44.058  28.745  35.455  1.00  0.00     0.023 A 
ATOM     82  C   UNL A   1      43.936  27.683  36.369  1.00  0.00     0.031 A 
ATOM     83  C   UNL A   1      45.337  29.292  35.246  1.00  0.00     0.131 A 
ATOM     84  C   UNL A   1      45.062  27.238  37.078  1.00  0.00     0.055 A 
ATOM     85  C   UNL A   1      46.464  28.805  35.910  1.00  0.00     0.041 A 
ATOM     86  F   UNL A   1      45.513  30.310  34.388  1.00  0.00    -0.206 F 
ATOM     87  C   UNL A   1      46.328  27.780  36.842  1.00  0.00     0.022 A 
BRANCH  84  88
ATOM     88  S   UNL A   1      44.839  25.994  38.380  1.00  0.00     0.124 S 
ATOM     89  O   UNL A   1      46.218  25.697  38.754  1.00  0.00    -0.237 OA
ATOM     90  O   UNL A   1      44.051  26.720  39.373  1.00  0.00    -0.237 OA
ATOM     91  O   UNL A   1      44.132  24.909  37.703  1.00  0.00    -0.744 OA
ENDBRANCH  84  88
ENDBRANCH  58  81
ENDBRANCH  32  33
ENDBRANCH  24  27
ENDBRANCH  22  23
ENDBRANCH  21  22
ENDBRANCH   1  21
TORSDOF 18
ENDMDL
MODEL 3
REMARK VINA RESULT:      -9.5      5.255     11.408
REMARK SMILES CC[C@H](NS(=O)(=O)Cc1ccccc1)C(=O)NCCCNC(=O)c1ccc(-c2c3nc(c(-c4cc(S(=O)(=O)[O-])ccc4F)c4ccc([nH]4)c(-c4cc(S(=O)(=O)[O-])ccc4F)c4nc(c(-c5cc(S(=O)(=O)[O-])ccc5F)c5ccc2[nH]5)C=C4)C=C3)cc1
REMARK SMILES IDX 18 1 17 2 15 3 16 4 3 6 2 7 1 8 4 9 5 11 6 12 7 13 8 14 9 15
REMARK SMILES IDX 10 16 14 17 11 18 13 19 12 20 19 21 20 22 21 23 22 24 23 26
REMARK SMILES IDX 24 27 25 28 86 29 26 30 85 31 27 32 28 33 29 34 79 35 30 36
REMARK SMILES IDX 84 37 78 38 80 39 31 40 83 41 77 42 76 43 32 45 64 46 44 47
REMARK SMILES IDX 63 48 45 49 48 50 62 51 81 52 46 53 47 54 61 56 82 57 49 58
REMARK SMILES IDX 33 59 34 60 42 61 35 62 41 63 43 64 40 65 36 66 37 67 38 68
REMARK SMILES IDX 39 69 65 70 66 71 74 72 67 73 73 74 75 75 72 76 68 77 69 78
REMARK SMILES IDX 70 79 71 80 50 81 51 82 59 83 52 84 58 85 60 86 57 87 53 88
REMARK SMILES IDX 54 89 55 90 56 91
REMARK H PARENT 17 5 4 10 21 25 80 44 48 55
REMARK Flexibility Score: inf
ROOT
ATOM      1  C   UNL A   1      31.498  27.484  26.731  1.00  0.00     0.117 C 
ENDROOT
BRANCH   1   2
ATOM      2  N   UNL A   1      31.392  27.354  25.289  1.00  0.00    -0.355 N 
ATOM      3  C   UNL A   1      31.556  26.244  24.498  1.00  0.00     0.238 C 
ATOM      4  O   UNL A   1      30.982  26.217  23.406  1.00  0.00    -0.273 OA
ATOM      5  H   UNL A   1      31.169  28.184  24.808  1.00  0.00     0.163 HD
BRANCH   3   6
ATOM      6  C   UNL A   1      32.355  25.039  24.987  1.00  0.00     0.158 C 
BRANCH   6   7
ATOM      7  C   UNL A   1      33.675  24.994  24.185  1.00  0.00     0.027 C 
ATOM      8  C   UNL A   1      33.894  23.870  23.187  1.00  0.00     0.006 C 
ENDBRANCH   6   7
BRANCH   6   9
ATOM      9  N   UNL A   1      31.525  23.807  24.936  1.00  0.00    -0.202 NA
ATOM     10  H   UNL A   1      32.045  23.115  24.395  1.00  0.00     0.141 HD
BRANCH   9  11
ATOM     11  S   UNL A   1      31.087  23.076  26.398  1.00  0.00     0.216 S 
ATOM     12  O   UNL A   1      30.424  24.166  27.101  1.00  0.00    -0.212 OA
ATOM     13  O   UNL A   1      30.336  21.884  26.094  1.00  0.00    -0.212 OA
BRANCH  11  14
ATOM     14  C   UNL A   1      32.606  22.723  27.332  1.00  0.00     0.189 C 
BRANCH  14  15
ATOM     15  C   UNL A   1      33.697  22.048  26.540  1.00  0.00    -0.032 A 
ATOM     16  C   UNL A   1      33.397  20.965  25.695  1.00  0.00     0.005 A 
ATOM     17  C   UNL A   1      35.015  22.521  26.541  1.00  0.00     0.005 A 
ATOM     18  C   UNL A   1      34.400  20.286  25.000  1.00  0.00     0.000 A 
ATOM     19  C   UNL A   1      36.019  21.855  25.832  1.00  0.00     0.000 A 
ATOM     20  C   UNL A   1      35.717  20.721  25.085  1.00  0.00     0.000 A 
ENDBRANCH  14  15
ENDBRANCH  11  14
ENDBRANCH   9  11
ENDBRANCH   6   9
ENDBRANCH   3   6
ENDBRANCH   1   2
BRANCH   1  21
ATOM     21  C   UNL A   1      32.722  28.209  27.280  1.00  0.00     0.042 C 
BRANCH  21  22
ATOM     22  C   UNL A   1      33.476  29.157  26.356  1.00  0.00     0.118 C 
BRANCH  22  23
ATOM     23  N   UNL A   1      33.513  30.544  26.773  1.00  0.00    -0.352 N 
ATOM     24  C   UNL A   1      34.490  31.190  27.495  1.00  0.00     0.251 C 
ATOM     25  H   UNL A   1      32.741  31.093  26.507  1.00  0.00     0.163 HD
ATOM     26  O   UNL A   1      34.361  32.380  27.761  1.00  0.00    -0.269 OA
BRANCH  24  27
ATOM     27  C   UNL A   1      35.657  30.429  27.998  1.00  0.00     0.039 A 
ATOM     28  C   UNL A   1      36.832  30.451  27.243  1.00  0.00     0.014 A 
ATOM     29  C   UNL A   1      35.614  29.737  29.213  1.00  0.00     0.014 A 
ATOM     30  C   UNL A   1      37.986  29.842  27.740  1.00  0.00     0.010 A 
ATOM     31  C   UNL A   1      36.783  29.173  29.730  1.00  0.00     0.010 A 
ATOM     32  C   UNL A   1      37.984  29.231  29.005  1.00  0.00    -0.014 A 
BRANCH  32  33
ATOM     33  C   UNL A   1      39.243  28.682  29.580  1.00  0.00     0.031 A 
ATOM     34  C   UNL A   1      39.835  29.273  30.831  1.00  0.00     0.074 A 
ATOM     35  C   UNL A   1      39.873  27.668  28.955  1.00  0.00     0.049 A 
ATOM     36  N   UNL A   1      40.930  28.939  31.464  1.00  0.00    -0.248 NA
ATOM     37  C   UNL A   1      39.108  30.397  31.435  1.00  0.00     0.031 C 
ATOM     38  C   UNL A   1      39.421  27.029  27.717  1.00  0.00     0.029 A 
ATOM     39  N   UNL A   1      41.030  26.995  29.268  1.00  0.00    -0.354 N 
ATOM     40  C   UNL A   1      41.028  29.812  32.542  1.00  0.00     0.074 A 
ATOM     41  C   UNL A   1      39.908  30.726  32.439  1.00  0.00     0.031 C 
ATOM     42  C   UNL A   1      40.276  26.046  27.390  1.00  0.00     0.029 A 
ATOM     43  C   UNL A   1      41.360  26.008  28.368  1.00  0.00     0.049 A 
ATOM     44  H   UNL A   1      41.573  27.200  30.063  1.00  0.00     0.167 HD
ATOM     45  C   UNL A   1      41.952  29.837  33.536  1.00  0.00     0.034 A 
ATOM     46  C   UNL A   1      42.418  25.173  28.325  1.00  0.00     0.034 A 
ATOM     47  C   UNL A   1      43.064  28.921  33.629  1.00  0.00     0.049 A 
ATOM     48  C   UNL A   1      43.452  25.243  29.421  1.00  0.00     0.074 A 
ATOM     49  C   UNL A   1      44.028  28.832  34.619  1.00  0.00     0.029 A 
ATOM     50  N   UNL A   1      43.373  27.944  32.691  1.00  0.00    -0.354 N 
ATOM     51  N   UNL A   1      43.498  26.040  30.463  1.00  0.00    -0.248 NA
ATOM     52  C   UNL A   1      44.568  24.292  29.341  1.00  0.00     0.031 C 
ATOM     53  C   UNL A   1      44.954  27.851  34.248  1.00  0.00     0.029 A 
ATOM     54  C   UNL A   1      44.528  27.271  33.064  1.00  0.00     0.049 A 
ATOM     55  H   UNL A   1      42.848  27.754  31.879  1.00  0.00     0.167 HD
ATOM     56  C   UNL A   1      44.631  25.663  31.179  1.00  0.00     0.074 A 
ATOM     57  C   UNL A   1      45.230  24.561  30.457  1.00  0.00     0.031 C 
ATOM     58  C   UNL A   1      45.127  26.178  32.333  1.00  0.00     0.034 A 
BRANCH  45  59
ATOM     59  C   UNL A   1      41.809  30.912  34.589  1.00  0.00     0.023 A 
ATOM     60  C   UNL A   1      40.703  30.953  35.454  1.00  0.00     0.031 A 
ATOM     61  C   UNL A   1      42.782  31.920  34.716  1.00  0.00     0.131 A 
ATOM     62  C   UNL A   1      40.557  32.019  36.355  1.00  0.00     0.055 A 
ATOM     63  C   UNL A   1      42.671  32.932  35.671  1.00  0.00     0.041 A 
ATOM     64  F   UNL A   1      43.851  31.944  33.906  1.00  0.00    -0.206 F 
ATOM     65  C   UNL A   1      41.546  32.996  36.488  1.00  0.00     0.022 A 
BRANCH  62  66
ATOM     66  S   UNL A   1      38.986  32.189  37.249  1.00  0.00     0.124 S 
ATOM     67  O   UNL A   1      38.373  33.318  36.554  1.00  0.00    -0.237 OA
ATOM     68  O   UNL A   1      38.360  30.890  37.035  1.00  0.00    -0.237 OA
ATOM     69  O   UNL A   1      39.402  32.464  38.622  1.00  0.00    -0.744 OA
ENDBRANCH  62  66
ENDBRANCH  45  59
BRANCH  46  70
ATOM     70  C   UNL A   1      42.569  24.202  27.203  1.00  0.00     0.023 A 
ATOM     71  C   UNL A   1      41.980  22.929  27.259  1.00  0.00     0.031 A 
ATOM     72  C   UNL A   1      43.348  24.519  26.075  1.00  0.00     0.131 A 
ATOM     73  C   UNL A   1      42.218  22.002  26.233  1.00  0.00     0.055 A 
ATOM     74  C   UNL A   1      43.539  23.612  25.031  1.00  0.00     0.041 A 
ATOM     75  F   UNL A   1      43.930  25.724  25.969  1.00  0.00    -0.206 F 
ATOM     76  C   UNL A   1      42.982  22.339  25.114  1.00  0.00     0.022 A 
BRANCH  73  77
ATOM     77  S   UNL A   1      41.582  20.313  26.421  1.00  0.00     0.124 S 
ATOM     78  O   UNL A   1      40.150  20.512  26.228  1.00  0.00    -0.237 OA
ATOM     79  O   UNL A   1      42.281  19.606  25.353  1.00  0.00    -0.237 OA
ATOM     80  O   UNL A   1      41.985  19.947  27.776  1.00  0.00    -0.744 OA
ENDBRANCH  73  77
ENDBRANCH  46  70
BRANCH  58  81
ATOM     81  C   UNL A   1      46.354  25.516  32.912  1.00  0.00     0.023 A 
ATOM     82  C   UNL A   1      46.263  24.461  33.837  1.00  0.00     0.031 A 
ATOM     83  C   UNL A   1      47.636  25.957  32.538  1.00  0.00     0.131 A 
ATOM     84  C   UNL A   1      47.430  23.918  34.397  1.00  0.00     0.055 A 
ATOM     85  C   UNL A   1      48.795  25.374  33.053  1.00  0.00     0.041 A 
ATOM     86  F   UNL A   1      47.783  26.964  31.661  1.00  0.00    -0.206 F 
ATOM     87  C   UNL A   1      48.696  24.357  33.997  1.00  0.00     0.022 A 
BRANCH  84  88
ATOM     88  S   UNL A   1      47.275  22.688  35.721  1.00  0.00     0.124 S 
ATOM     89  O   UNL A   1      45.853  22.364  35.668  1.00  0.00    -0.237 OA
ATOM     90  O   UNL A   1      48.185  21.636  35.277  1.00  0.00    -0.237 OA
ATOM     91  O   UNL A   1      47.702  23.412  36.916  1.00  0.00    -0.744 OA
ENDBRANCH  84  88
ENDBRANCH  58  81
ENDBRANCH  32  33
ENDBRANCH  24  27
ENDBRANCH  22  23
ENDBRANCH  21  22
ENDBRANCH   1  21
TORSDOF 18
ENDMDL
