MODEL 1
REMARK VINA RESULT:     -11.3      0.000      0.000
REMARK SMILES CC[N@@H+]1CCO[C@@H](Cn2cc(C(=O)NCCCNC(=O)c3ccc(-c4c5nc(c(-c6cc(S(=O)(=O)[O-])ccc6F)c6ccc([nH]6)c(-c6cc(S(=O)(=O)[O-])ccc6F)c6nc(c(-c7cc(S(=O)(=O)[O-])ccc7F)c7ccc4[nH]7)C=C6)C=C5)cc3)nn2)C1
REMARK SMILES IDX 16 1 15 2 14 3 12 4 13 5 11 7 9 8 10 9 85 10 84 11 8 12 7 13
REMARK SMILES IDX 3 14 4 15 86 16 5 18 6 19 2 20 1 21 17 22 18 23 19 24 20 26
REMARK SMILES IDX 21 27 22 28 83 29 23 30 82 31 24 32 25 33 26 34 76 35 27 36
REMARK SMILES IDX 81 37 75 38 77 39 28 40 80 41 74 42 73 43 29 45 61 46 41 47
REMARK SMILES IDX 60 48 42 49 45 50 59 51 78 52 43 53 44 54 58 56 79 57 46 58
REMARK SMILES IDX 30 59 31 60 39 61 32 62 38 63 40 64 37 65 33 66 34 67 35 68
REMARK SMILES IDX 36 69 62 70 63 71 71 72 64 73 70 74 72 75 69 76 65 77 66 78
REMARK SMILES IDX 67 79 68 80 47 81 48 82 56 83 49 84 55 85 57 86 54 87 50 88
REMARK SMILES IDX 51 89 52 90 53 91
REMARK H PARENT 14 6 3 17 18 25 77 44 45 55
REMARK Flexibility Score: inf
ROOT
ATOM      1  C   UNL A   1      37.360  30.040  32.179  1.00  0.00     0.042 C 
ENDROOT
BRANCH   1   2
ATOM      2  C   UNL A   1      38.741  30.216  32.822  1.00  0.00     0.118 C 
BRANCH   2   3
ATOM      3  N   UNL A   1      39.518  31.272  32.197  1.00  0.00    -0.351 N 
ATOM      4  C   UNL A   1      39.552  32.635  32.433  1.00  0.00     0.273 C 
ATOM      5  O   UNL A   1      40.428  33.283  31.880  1.00  0.00    -0.267 OA
ATOM      6  H   UNL A   1      40.124  30.967  31.483  1.00  0.00     0.163 HD
BRANCH   4   7
ATOM      7  C   UNL A   1      38.596  33.244  33.353  1.00  0.00     0.170 A 
ATOM      8  N   UNL A   1      36.892  34.166  34.314  1.00  0.00    -0.249 N 
ATOM      9  C   UNL A   1      37.526  34.080  33.113  1.00  0.00     0.145 A 
ATOM     10  N   UNL A   1      37.602  33.583  35.286  1.00  0.00    -0.067 NA
ATOM     11  N   UNL A   1      38.656  33.017  34.714  1.00  0.00    -0.125 NA
BRANCH   8  12
ATOM     12  C   UNL A   1      35.524  34.564  34.541  1.00  0.00     0.184 C 
BRANCH  12  13
ATOM     13  C   UNL A   1      34.904  35.205  33.293  1.00  0.00     0.194 C 
ATOM     14  N   UNL A   1      33.067  34.981  31.551  1.00  0.00    -0.331 N 
ATOM     15  C   UNL A   1      32.660  36.337  31.963  1.00  0.00     0.291 C 
ATOM     16  C   UNL A   1      33.769  34.335  32.685  1.00  0.00     0.296 C 
ATOM     17  H   UNL A   1      32.235  34.439  31.320  1.00  0.00     0.348 HD
ATOM     18  C   UNL A   1      33.811  37.169  32.546  1.00  0.00     0.222 C 
ATOM     19  O   UNL A   1      34.408  36.507  33.670  1.00  0.00    -0.365 OA
BRANCH  14  20
ATOM     20  C   UNL A   1      33.869  34.979  30.319  1.00  0.00     0.258 C 
ATOM     21  C   UNL A   1      34.446  33.589  30.094  1.00  0.00     0.071 C 
ENDBRANCH  14  20
ENDBRANCH  12  13
ENDBRANCH   8  12
ENDBRANCH   4   7
ENDBRANCH   2   3
ENDBRANCH   1   2
BRANCH   1  22
ATOM     22  C   UNL A   1      37.276  30.719  30.823  1.00  0.00     0.118 C 
BRANCH  22  23
ATOM     23  N   UNL A   1      36.293  30.089  29.933  1.00  0.00    -0.352 N 
ATOM     24  C   UNL A   1      36.508  29.448  28.723  1.00  0.00     0.251 C 
ATOM     25  H   UNL A   1      35.356  30.129  30.235  1.00  0.00     0.163 HD
ATOM     26  O   UNL A   1      35.583  29.303  27.932  1.00  0.00    -0.269 OA
BRANCH  24  27
ATOM     27  C   UNL A   1      37.862  28.948  28.415  1.00  0.00     0.039 A 
ATOM     28  C   UNL A   1      38.640  29.463  27.374  1.00  0.00     0.014 A 
ATOM     29  C   UNL A   1      38.364  27.947  29.237  1.00  0.00     0.014 A 
ATOM     30  C   UNL A   1      39.949  29.001  27.231  1.00  0.00     0.010 A 
ATOM     31  C   UNL A   1      39.702  27.681  29.249  1.00  0.00     0.010 A 
ATOM     32  C   UNL A   1      40.476  28.119  28.191  1.00  0.00    -0.014 A 
BRANCH  32  33
ATOM     33  C   UNL A   1      41.878  27.724  28.212  1.00  0.00     0.031 A 
ATOM     34  C   UNL A   1      42.139  26.479  27.452  1.00  0.00     0.074 A 
ATOM     35  C   UNL A   1      42.867  28.541  28.645  1.00  0.00     0.049 A 
ATOM     36  N   UNL A   1      42.366  25.308  27.940  1.00  0.00    -0.248 NA
ATOM     37  C   UNL A   1      41.899  26.473  25.998  1.00  0.00     0.031 C 
ATOM     38  C   UNL A   1      42.766  29.923  29.132  1.00  0.00     0.029 A 
ATOM     39  N   UNL A   1      44.212  28.341  28.641  1.00  0.00    -0.354 N 
ATOM     40  C   UNL A   1      42.601  24.487  26.845  1.00  0.00     0.074 A 
ATOM     41  C   UNL A   1      42.036  25.175  25.718  1.00  0.00     0.031 C 
ATOM     42  C   UNL A   1      43.991  30.498  29.143  1.00  0.00     0.029 A 
ATOM     43  C   UNL A   1      44.987  29.489  28.822  1.00  0.00     0.049 A 
ATOM     44  H   UNL A   1      44.612  27.450  28.520  1.00  0.00     0.167 HD
ATOM     45  C   UNL A   1      43.503  23.468  26.925  1.00  0.00     0.034 A 
ATOM     46  C   UNL A   1      46.341  29.602  28.695  1.00  0.00     0.034 A 
ATOM     47  C   UNL A   1      43.864  23.219  28.308  1.00  0.00     0.049 A 
ATOM     48  C   UNL A   1      46.884  28.228  28.860  1.00  0.00     0.074 A 
ATOM     49  C   UNL A   1      43.150  22.907  29.451  1.00  0.00     0.029 A 
ATOM     50  N   UNL A   1      45.075  23.706  28.753  1.00  0.00    -0.354 N 
ATOM     51  N   UNL A   1      46.785  27.557  29.977  1.00  0.00    -0.248 NA
ATOM     52  C   UNL A   1      47.034  27.413  27.663  1.00  0.00     0.031 C 
ATOM     53  C   UNL A   1      43.743  23.703  30.476  1.00  0.00     0.029 A 
ATOM     54  C   UNL A   1      44.853  24.361  29.940  1.00  0.00     0.049 A 
ATOM     55  H   UNL A   1      45.944  23.604  28.300  1.00  0.00     0.167 HD
ATOM     56  C   UNL A   1      46.406  26.278  29.596  1.00  0.00     0.074 A 
ATOM     57  C   UNL A   1      46.657  26.226  28.153  1.00  0.00     0.031 C 
ATOM     58  C   UNL A   1      45.638  25.490  30.409  1.00  0.00     0.034 A 
BRANCH  45  59
ATOM     59  C   UNL A   1      44.362  22.972  25.782  1.00  0.00     0.023 A 
ATOM     60  C   UNL A   1      44.393  21.580  25.575  1.00  0.00     0.031 A 
ATOM     61  C   UNL A   1      45.345  23.715  25.091  1.00  0.00     0.131 A 
ATOM     62  C   UNL A   1      45.424  20.981  24.834  1.00  0.00     0.055 A 
ATOM     63  C   UNL A   1      46.329  23.120  24.296  1.00  0.00     0.041 A 
ATOM     64  F   UNL A   1      45.478  25.040  25.208  1.00  0.00    -0.206 F 
ATOM     65  C   UNL A   1      46.396  21.742  24.193  1.00  0.00     0.022 A 
BRANCH  62  66
ATOM     66  S   UNL A   1      45.573  19.179  24.886  1.00  0.00     0.124 S 
ATOM     67  O   UNL A   1      44.389  18.812  25.654  1.00  0.00    -0.237 OA
ATOM     68  O   UNL A   1      45.554  18.837  23.467  1.00  0.00    -0.237 OA
ATOM     69  O   UNL A   1      46.850  18.966  25.562  1.00  0.00    -0.744 OA
ENDBRANCH  62  66
ENDBRANCH  45  59
BRANCH  46  70
ATOM     70  C   UNL A   1      47.117  30.735  28.092  1.00  0.00     0.023 A 
ATOM     71  C   UNL A   1      46.537  31.744  27.281  1.00  0.00     0.031 A 
ATOM     72  C   UNL A   1      48.439  30.978  28.532  1.00  0.00     0.131 A 
ATOM     73  C   UNL A   1      47.270  32.916  26.953  1.00  0.00     0.055 A 
ATOM     74  C   UNL A   1      49.153  32.135  28.208  1.00  0.00     0.041 A 
ATOM     75  F   UNL A   1      49.059  30.132  29.370  1.00  0.00    -0.206 F 
ATOM     76  C   UNL A   1      48.569  33.115  27.426  1.00  0.00     0.022 A 
BRANCH  73  77
ATOM     77  S   UNL A   1      46.520  34.260  25.964  1.00  0.00     0.124 S 
ATOM     78  O   UNL A   1      47.620  34.656  25.091  1.00  0.00    -0.237 OA
ATOM     79  O   UNL A   1      45.392  33.591  25.325  1.00  0.00    -0.237 OA
ATOM     80  O   UNL A   1      46.146  35.257  26.968  1.00  0.00    -0.744 OA
ENDBRANCH  73  77
ENDBRANCH  46  70
BRANCH  58  81
ATOM     81  C   UNL A   1      45.438  25.908  31.856  1.00  0.00     0.023 A 
ATOM     82  C   UNL A   1      44.283  26.538  32.380  1.00  0.00     0.031 A 
ATOM     83  C   UNL A   1      46.434  25.521  32.769  1.00  0.00     0.131 A 
ATOM     84  C   UNL A   1      44.169  26.763  33.770  1.00  0.00     0.055 A 
ATOM     85  C   UNL A   1      46.307  25.721  34.143  1.00  0.00     0.041 A 
ATOM     86  F   UNL A   1      47.544  24.898  32.341  1.00  0.00    -0.206 F 
ATOM     87  C   UNL A   1      45.176  26.348  34.648  1.00  0.00     0.022 A 
BRANCH  84  88
ATOM     88  S   UNL A   1      42.720  27.621  34.470  1.00  0.00     0.124 S 
ATOM     89  O   UNL A   1      41.822  27.759  33.330  1.00  0.00    -0.237 OA
ATOM     90  O   UNL A   1      42.285  26.704  35.520  1.00  0.00    -0.237 OA
ATOM     91  O   UNL A   1      43.277  28.883  34.962  1.00  0.00    -0.744 OA
ENDBRANCH  84  88
ENDBRANCH  58  81
ENDBRANCH  32  33
ENDBRANCH  24  27
ENDBRANCH  22  23
ENDBRANCH   1  22
TORSDOF 16
ENDMDL
MODEL 2
REMARK VINA RESULT:     -11.3      4.764     10.270
REMARK SMILES CC[N@@H+]1CCO[C@@H](Cn2cc(C(=O)NCCCNC(=O)c3ccc(-c4c5nc(c(-c6cc(S(=O)(=O)[O-])ccc6F)c6ccc([nH]6)c(-c6cc(S(=O)(=O)[O-])ccc6F)c6nc(c(-c7cc(S(=O)(=O)[O-])ccc7F)c7ccc4[nH]7)C=C6)C=C5)cc3)nn2)C1
REMARK SMILES IDX 16 1 15 2 14 3 12 4 13 5 11 7 9 8 10 9 85 10 84 11 8 12 7 13
REMARK SMILES IDX 3 14 4 15 86 16 5 18 6 19 2 20 1 21 17 22 18 23 19 24 20 26
REMARK SMILES IDX 21 27 22 28 83 29 23 30 82 31 24 32 25 33 26 34 76 35 27 36
REMARK SMILES IDX 81 37 75 38 77 39 28 40 80 41 74 42 73 43 29 45 61 46 41 47
REMARK SMILES IDX 60 48 42 49 45 50 59 51 78 52 43 53 44 54 58 56 79 57 46 58
REMARK SMILES IDX 30 59 31 60 39 61 32 62 38 63 40 64 37 65 33 66 34 67 35 68
REMARK SMILES IDX 36 69 62 70 63 71 71 72 64 73 70 74 72 75 69 76 65 77 66 78
REMARK SMILES IDX 67 79 68 80 47 81 48 82 56 83 49 84 55 85 57 86 54 87 50 88
REMARK SMILES IDX 51 89 52 90 53 91
REMARK H PARENT 14 6 3 17 18 25 77 44 45 55
REMARK Flexibility Score: inf
ROOT
ATOM      1  C   UNL A   1      37.600  19.916  24.818  1.00  0.00     0.042 C 
ENDROOT
BRANCH   1   2
ATOM      2  C   UNL A   1      36.367  20.783  25.103  1.00  0.00     0.118 C 
BRANCH   2   3
ATOM      3  N   UNL A   1      35.132  20.018  25.101  1.00  0.00    -0.351 N 
ATOM      4  C   UNL A   1      33.821  20.411  24.903  1.00  0.00     0.273 C 
ATOM      5  O   UNL A   1      32.979  19.533  24.780  1.00  0.00    -0.267 OA
ATOM      6  H   UNL A   1      35.248  19.055  25.269  1.00  0.00     0.163 HD
BRANCH   4   7
ATOM      7  C   UNL A   1      33.488  21.829  24.797  1.00  0.00     0.170 A 
ATOM      8  N   UNL A   1      33.150  23.942  25.111  1.00  0.00    -0.249 N 
ATOM      9  C   UNL A   1      33.172  22.752  25.772  1.00  0.00     0.145 A 
ATOM     10  N   UNL A   1      33.261  23.771  23.789  1.00  0.00    -0.067 NA
ATOM     11  N   UNL A   1      33.462  22.478  23.578  1.00  0.00    -0.125 NA
BRANCH   8  12
ATOM     12  C   UNL A   1      33.275  25.255  25.695  1.00  0.00     0.184 C 
BRANCH  12  13
ATOM     13  C   UNL A   1      32.099  26.161  25.312  1.00  0.00     0.194 C 
ATOM     14  N   UNL A   1      31.163  27.676  23.499  1.00  0.00    -0.331 N 
ATOM     15  C   UNL A   1      29.967  26.816  23.548  1.00  0.00     0.291 C 
ATOM     16  C   UNL A   1      32.330  26.888  23.958  1.00  0.00     0.296 C 
ATOM     17  H   UNL A   1      31.319  27.975  22.537  1.00  0.00     0.348 HD
ATOM     18  C   UNL A   1      29.766  26.127  24.905  1.00  0.00     0.222 C 
ATOM     19  O   UNL A   1      30.913  25.341  25.260  1.00  0.00    -0.365 OA
BRANCH  14  20
ATOM     20  C   UNL A   1      30.995  28.924  24.256  1.00  0.00     0.258 C 
ATOM     21  C   UNL A   1      29.935  29.784  23.583  1.00  0.00     0.071 C 
ENDBRANCH  14  20
ENDBRANCH  12  13
ENDBRANCH   8  12
ENDBRANCH   4   7
ENDBRANCH   2   3
ENDBRANCH   1   2
BRANCH   1  22
ATOM     22  C   UNL A   1      38.817  20.389  25.595  1.00  0.00     0.118 C 
BRANCH  22  23
ATOM     23  N   UNL A   1      39.825  19.336  25.765  1.00  0.00    -0.352 N 
ATOM     24  C   UNL A   1      41.184  19.472  26.003  1.00  0.00     0.251 C 
ATOM     25  H   UNL A   1      39.492  18.412  25.699  1.00  0.00     0.163 HD
ATOM     26  O   UNL A   1      41.946  18.543  25.758  1.00  0.00    -0.269 OA
BRANCH  24  27
ATOM     27  C   UNL A   1      41.685  20.745  26.554  1.00  0.00     0.039 A 
ATOM     28  C   UNL A   1      42.217  21.759  25.752  1.00  0.00     0.014 A 
ATOM     29  C   UNL A   1      41.576  20.922  27.927  1.00  0.00     0.014 A 
ATOM     30  C   UNL A   1      42.563  22.971  26.353  1.00  0.00     0.010 A 
ATOM     31  C   UNL A   1      41.681  22.172  28.465  1.00  0.00     0.010 A 
ATOM     32  C   UNL A   1      42.272  23.170  27.714  1.00  0.00    -0.014 A 
BRANCH  32  33
ATOM     33  C   UNL A   1      42.443  24.458  28.375  1.00  0.00     0.031 A 
ATOM     34  C   UNL A   1      41.335  25.402  28.094  1.00  0.00     0.074 A 
ATOM     35  C   UNL A   1      43.362  24.672  29.346  1.00  0.00     0.049 A 
ATOM     36  N   UNL A   1      41.367  26.418  27.303  1.00  0.00    -0.248 NA
ATOM     37  C   UNL A   1      39.978  25.059  28.556  1.00  0.00     0.031 C 
ATOM     38  C   UNL A   1      44.312  23.719  29.933  1.00  0.00     0.029 A 
ATOM     39  N   UNL A   1      43.572  25.782  30.102  1.00  0.00    -0.354 N 
ATOM     40  C   UNL A   1      40.118  27.015  27.413  1.00  0.00     0.074 A 
ATOM     41  C   UNL A   1      39.253  26.005  27.956  1.00  0.00     0.031 C 
ATOM     42  C   UNL A   1      44.811  24.218  31.088  1.00  0.00     0.029 A 
ATOM     43  C   UNL A   1      44.347  25.587  31.247  1.00  0.00     0.049 A 
ATOM     44  H   UNL A   1      43.204  26.663  29.859  1.00  0.00     0.167 HD
ATOM     45  C   UNL A   1      39.990  28.370  27.332  1.00  0.00     0.034 A 
ATOM     46  C   UNL A   1      44.571  26.477  32.257  1.00  0.00     0.034 A 
ATOM     47  C   UNL A   1      41.210  28.965  26.821  1.00  0.00     0.049 A 
ATOM     48  C   UNL A   1      44.303  27.823  31.683  1.00  0.00     0.074 A 
ATOM     49  C   UNL A   1      41.959  28.794  25.670  1.00  0.00     0.029 A 
ATOM     50  N   UNL A   1      42.061  29.565  27.726  1.00  0.00    -0.354 N 
ATOM     51  N   UNL A   1      45.022  28.338  30.722  1.00  0.00    -0.248 NA
ATOM     52  C   UNL A   1      42.947  28.342  31.786  1.00  0.00     0.031 C 
ATOM     53  C   UNL A   1      43.315  28.805  26.115  1.00  0.00     0.029 A 
ATOM     54  C   UNL A   1      43.330  29.101  27.480  1.00  0.00     0.049 A 
ATOM     55  H   UNL A   1      41.804  30.211  28.424  1.00  0.00     0.167 HD
ATOM     56  C   UNL A   1      44.102  28.885  29.839  1.00  0.00     0.074 A 
ATOM     57  C   UNL A   1      42.844  28.932  30.589  1.00  0.00     0.031 C 
ATOM     58  C   UNL A   1      44.358  28.960  28.498  1.00  0.00     0.034 A 
BRANCH  45  59
ATOM     59  C   UNL A   1      38.960  29.194  28.074  1.00  0.00     0.023 A 
ATOM     60  C   UNL A   1      39.020  29.158  29.480  1.00  0.00     0.031 A 
ATOM     61  C   UNL A   1      37.785  29.756  27.527  1.00  0.00     0.131 A 
ATOM     62  C   UNL A   1      37.917  29.541  30.262  1.00  0.00     0.055 A 
ATOM     63  C   UNL A   1      36.717  30.200  28.311  1.00  0.00     0.041 A 
ATOM     64  F   UNL A   1      37.553  29.829  26.212  1.00  0.00    -0.206 F 
ATOM     65  C   UNL A   1      36.763  30.060  29.686  1.00  0.00     0.022 A 
BRANCH  62  66
ATOM     66  S   UNL A   1      37.957  29.164  32.031  1.00  0.00     0.124 S 
ATOM     67  O   UNL A   1      38.965  30.105  32.506  1.00  0.00    -0.237 OA
ATOM     68  O   UNL A   1      36.580  29.439  32.426  1.00  0.00    -0.237 OA
ATOM     69  O   UNL A   1      38.347  27.757  32.067  1.00  0.00    -0.744 OA
ENDBRANCH  62  66
ENDBRANCH  45  59
BRANCH  46  70
ATOM     70  C   UNL A   1      44.639  26.200  33.730  1.00  0.00     0.023 A 
ATOM     71  C   UNL A   1      43.550  26.392  34.617  1.00  0.00     0.031 A 
ATOM     72  C   UNL A   1      45.743  25.485  34.248  1.00  0.00     0.131 A 
ATOM     73  C   UNL A   1      43.600  25.878  35.942  1.00  0.00     0.055 A 
ATOM     74  C   UNL A   1      45.784  24.979  35.551  1.00  0.00     0.041 A 
ATOM     75  F   UNL A   1      46.795  25.173  33.474  1.00  0.00    -0.206 F 
ATOM     76  C   UNL A   1      44.708  25.163  36.400  1.00  0.00     0.022 A 
BRANCH  73  77
ATOM     77  S   UNL A   1      42.181  26.055  37.083  1.00  0.00     0.124 S 
ATOM     78  O   UNL A   1      41.542  24.747  36.991  1.00  0.00    -0.237 OA
ATOM     79  O   UNL A   1      42.832  26.372  38.350  1.00  0.00    -0.237 OA
ATOM     80  O   UNL A   1      41.410  27.155  36.504  1.00  0.00    -0.744 OA
ENDBRANCH  73  77
ENDBRANCH  46  70
BRANCH  58  81
ATOM     81  C   UNL A   1      45.773  28.702  28.008  1.00  0.00     0.023 A 
ATOM     82  C   UNL A   1      46.316  27.434  27.685  1.00  0.00     0.031 A 
ATOM     83  C   UNL A   1      46.563  29.833  27.735  1.00  0.00     0.131 A 
ATOM     84  C   UNL A   1      47.608  27.342  27.120  1.00  0.00     0.055 A 
ATOM     85  C   UNL A   1      47.826  29.739  27.153  1.00  0.00     0.041 A 
ATOM     86  F   UNL A   1      46.098  31.065  27.995  1.00  0.00    -0.206 F 
ATOM     87  C   UNL A   1      48.356  28.492  26.848  1.00  0.00     0.022 A 
BRANCH  84  88
ATOM     88  S   UNL A   1      48.358  25.722  26.744  1.00  0.00     0.124 S 
ATOM     89  O   UNL A   1      49.716  25.847  27.260  1.00  0.00    -0.237 OA
ATOM     90  O   UNL A   1      47.485  24.794  27.459  1.00  0.00    -0.237 OA
ATOM     91  O   UNL A   1      48.266  25.636  25.285  1.00  0.00    -0.744 OA
ENDBRANCH  84  88
ENDBRANCH  58  81
ENDBRANCH  32  33
ENDBRANCH  24  27
ENDBRANCH  22  23
ENDBRANCH   1  22
TORSDOF 16
ENDMDL
MODEL 3
REMARK VINA RESULT:     -11.3      4.857      8.639
REMARK SMILES CC[N@@H+]1CCO[C@@H](Cn2cc(C(=O)NCCCNC(=O)c3ccc(-c4c5nc(c(-c6cc(S(=O)(=O)[O-])ccc6F)c6ccc([nH]6)c(-c6cc(S(=O)(=O)[O-])ccc6F)c6nc(c(-c7cc(S(=O)(=O)[O-])ccc7F)c7ccc4[nH]7)C=C6)C=C5)cc3)nn2)C1
REMARK SMILES IDX 16 1 15 2 14 3 12 4 13 5 11 7 9 8 10 9 85 10 84 11 8 12 7 13
REMARK SMILES IDX 3 14 4 15 86 16 5 18 6 19 2 20 1 21 17 22 18 23 19 24 20 26
REMARK SMILES IDX 21 27 22 28 83 29 23 30 82 31 24 32 25 33 26 34 76 35 27 36
REMARK SMILES IDX 81 37 75 38 77 39 28 40 80 41 74 42 73 43 29 45 61 46 41 47
REMARK SMILES IDX 60 48 42 49 45 50 59 51 78 52 43 53 44 54 58 56 79 57 46 58
REMARK SMILES IDX 30 59 31 60 39 61 32 62 38 63 40 64 37 65 33 66 34 67 35 68
REMARK SMILES IDX 36 69 62 70 63 71 71 72 64 73 70 74 72 75 69 76 65 77 66 78
REMARK SMILES IDX 67 79 68 80 47 81 48 82 56 83 49 84 55 85 57 86 54 87 50 88
REMARK SMILES IDX 51 89 52 90 53 91
REMARK H PARENT 14 6 3 17 18 25 77 44 45 55
REMARK Flexibility Score: inf
ROOT
ATOM      1  C   UNL A   1      31.403  31.457  26.416  1.00  0.00     0.042 C 
ENDROOT
BRANCH   1   2
ATOM      2  C   UNL A   1      31.725  30.065  25.859  1.00  0.00     0.118 C 
BRANCH   2   3
ATOM      3  N   UNL A   1      31.385  29.933  24.453  1.00  0.00    -0.351 N 
ATOM      4  C   UNL A   1      31.348  28.823  23.628  1.00  0.00     0.273 C 
ATOM      5  O   UNL A   1      30.858  28.960  22.516  1.00  0.00    -0.267 OA
ATOM      6  H   UNL A   1      31.139  30.778  24.011  1.00  0.00     0.163 HD
BRANCH   4   7
ATOM      7  C   UNL A   1      31.837  27.534  24.110  1.00  0.00     0.170 A 
ATOM      8  N   UNL A   1      32.978  25.880  24.910  1.00  0.00    -0.249 N 
ATOM      9  C   UNL A   1      33.122  27.048  24.227  1.00  0.00     0.145 A 
ATOM     10  N   UNL A   1      31.689  25.553  25.056  1.00  0.00    -0.067 NA
ATOM     11  N   UNL A   1      30.974  26.556  24.563  1.00  0.00    -0.125 NA
BRANCH   8  12
ATOM     12  C   UNL A   1      34.001  25.179  25.647  1.00  0.00     0.184 C 
BRANCH  12  13
ATOM     13  C   UNL A   1      33.748  23.667  25.671  1.00  0.00     0.194 C 
ATOM     14  N   UNL A   1      33.983  21.512  24.343  1.00  0.00    -0.331 N 
ATOM     15  C   UNL A   1      34.731  21.004  25.507  1.00  0.00     0.291 C 
ATOM     16  C   UNL A   1      34.100  22.989  24.317  1.00  0.00     0.296 C 
ATOM     17  H   UNL A   1      34.392  21.129  23.491  1.00  0.00     0.348 HD
ATOM     18  C   UNL A   1      34.347  21.688  26.826  1.00  0.00     0.222 C 
ATOM     19  O   UNL A   1      34.534  23.108  26.745  1.00  0.00    -0.365 OA
BRANCH  14  20
ATOM     20  C   UNL A   1      32.586  21.058  24.325  1.00  0.00     0.258 C 
ATOM     21  C   UNL A   1      32.549  19.537  24.365  1.00  0.00     0.071 C 
ENDBRANCH  14  20
ENDBRANCH  12  13
ENDBRANCH   8  12
ENDBRANCH   4   7
ENDBRANCH   2   3
ENDBRANCH   1   2
BRANCH   1  22
ATOM     22  C   UNL A   1      32.611  32.092  27.083  1.00  0.00     0.118 C 
BRANCH  22  23
ATOM     23  N   UNL A   1      32.392  33.503  27.426  1.00  0.00    -0.352 N 
ATOM     24  C   UNL A   1      33.019  34.262  28.403  1.00  0.00     0.251 C 
ATOM     25  H   UNL A   1      31.709  33.971  26.893  1.00  0.00     0.163 HD
ATOM     26  O   UNL A   1      32.490  35.288  28.816  1.00  0.00    -0.269 OA
BRANCH  24  27
ATOM     27  C   UNL A   1      34.322  33.811  28.925  1.00  0.00     0.039 A 
ATOM     28  C   UNL A   1      34.443  32.981  30.043  1.00  0.00     0.014 A 
ATOM     29  C   UNL A   1      35.454  34.221  28.231  1.00  0.00     0.014 A 
ATOM     30  C   UNL A   1      35.712  32.519  30.396  1.00  0.00     0.010 A 
ATOM     31  C   UNL A   1      36.642  33.580  28.425  1.00  0.00     0.010 A 
ATOM     32  C   UNL A   1      36.806  32.814  29.563  1.00  0.00    -0.014 A 
BRANCH  32  33
ATOM     33  C   UNL A   1      38.127  32.232  29.763  1.00  0.00     0.031 A 
ATOM     34  C   UNL A   1      38.224  30.837  29.269  1.00  0.00     0.074 A 
ATOM     35  C   UNL A   1      39.211  32.966  30.109  1.00  0.00     0.049 A 
ATOM     36  N   UNL A   1      38.242  29.764  29.982  1.00  0.00    -0.248 NA
ATOM     37  C   UNL A   1      38.052  30.583  27.827  1.00  0.00     0.031 C 
ATOM     38  C   UNL A   1      39.306  34.415  30.322  1.00  0.00     0.029 A 
ATOM     39  N   UNL A   1      40.507  32.576  30.243  1.00  0.00    -0.354 N 
ATOM     40  C   UNL A   1      38.395  28.720  29.079  1.00  0.00     0.074 A 
ATOM     41  C   UNL A   1      37.997  29.250  27.805  1.00  0.00     0.031 C 
ATOM     42  C   UNL A   1      40.604  34.798  30.317  1.00  0.00     0.029 A 
ATOM     43  C   UNL A   1      41.442  33.612  30.265  1.00  0.00     0.049 A 
ATOM     44  H   UNL A   1      40.767  31.629  30.320  1.00  0.00     0.167 HD
ATOM     45  C   UNL A   1      39.121  27.616  29.415  1.00  0.00     0.034 A 
ATOM     46  C   UNL A   1      42.802  33.501  30.221  1.00  0.00     0.034 A 
ATOM     47  C   UNL A   1      39.376  27.592  30.843  1.00  0.00     0.049 A 
ATOM     48  C   UNL A   1      43.115  32.121  30.679  1.00  0.00     0.074 A 
ATOM     49  C   UNL A   1      38.570  27.617  31.967  1.00  0.00     0.029 A 
ATOM     50  N   UNL A   1      40.627  27.976  31.279  1.00  0.00    -0.354 N 
ATOM     51  N   UNL A   1      42.861  31.702  31.890  1.00  0.00    -0.248 NA
ATOM     52  C   UNL A   1      43.190  31.075  29.668  1.00  0.00     0.031 C 
ATOM     53  C   UNL A   1      39.233  28.503  32.869  1.00  0.00     0.029 A 
ATOM     54  C   UNL A   1      40.456  28.875  32.304  1.00  0.00     0.049 A 
ATOM     55  H   UNL A   1      41.489  27.663  30.920  1.00  0.00     0.167 HD
ATOM     56  C   UNL A   1      42.304  30.443  31.726  1.00  0.00     0.074 A 
ATOM     57  C   UNL A   1      42.609  30.074  30.341  1.00  0.00     0.031 C 
ATOM     58  C   UNL A   1      41.386  29.948  32.612  1.00  0.00     0.034 A 
BRANCH  45  59
ATOM     59  C   UNL A   1      39.943  26.788  28.451  1.00  0.00     0.023 A 
ATOM     60  C   UNL A   1      41.032  27.434  27.837  1.00  0.00     0.031 A 
ATOM     61  C   UNL A   1      39.575  25.545  27.891  1.00  0.00     0.131 A 
ATOM     62  C   UNL A   1      41.611  26.921  26.665  1.00  0.00     0.055 A 
ATOM     63  C   UNL A   1      40.200  25.003  26.764  1.00  0.00     0.041 A 
ATOM     64  F   UNL A   1      38.539  24.822  28.331  1.00  0.00    -0.206 F 
ATOM     65  C   UNL A   1      41.201  25.709  26.122  1.00  0.00     0.022 A 
BRANCH  62  66
ATOM     66  S   UNL A   1      42.780  27.968  25.764  1.00  0.00     0.124 S 
ATOM     67  O   UNL A   1      42.288  29.301  26.092  1.00  0.00    -0.237 OA
ATOM     68  O   UNL A   1      44.052  27.583  26.367  1.00  0.00    -0.237 OA
ATOM     69  O   UNL A   1      42.598  27.557  24.375  1.00  0.00    -0.744 OA
ENDBRANCH  62  66
ENDBRANCH  45  59
BRANCH  46  70
ATOM     70  C   UNL A   1      43.773  34.369  29.478  1.00  0.00     0.023 A 
ATOM     71  C   UNL A   1      44.341  34.022  28.226  1.00  0.00     0.031 A 
ATOM     72  C   UNL A   1      43.963  35.707  29.895  1.00  0.00     0.131 A 
ATOM     73  C   UNL A   1      45.051  34.989  27.462  1.00  0.00     0.055 A 
ATOM     74  C   UNL A   1      44.659  36.654  29.137  1.00  0.00     0.041 A 
ATOM     75  F   UNL A   1      43.402  36.170  31.023  1.00  0.00    -0.206 F 
ATOM     76  C   UNL A   1      45.197  36.303  27.912  1.00  0.00     0.022 A 
BRANCH  73  77
ATOM     77  S   UNL A   1      45.736  34.583  25.816  1.00  0.00     0.124 S 
ATOM     78  O   UNL A   1      44.532  34.436  25.005  1.00  0.00    -0.237 OA
ATOM     79  O   UNL A   1      46.576  35.740  25.528  1.00  0.00    -0.237 OA
ATOM     80  O   UNL A   1      46.472  33.339  26.047  1.00  0.00    -0.744 OA
ENDBRANCH  73  77
ENDBRANCH  46  70
BRANCH  58  81
ATOM     81  C   UNL A   1      41.188  30.665  33.937  1.00  0.00     0.023 A 
ATOM     82  C   UNL A   1      40.134  31.561  34.240  1.00  0.00     0.031 A 
ATOM     83  C   UNL A   1      42.055  30.309  34.984  1.00  0.00     0.131 A 
ATOM     84  C   UNL A   1      39.991  32.066  35.551  1.00  0.00     0.055 A 
ATOM     85  C   UNL A   1      41.895  30.788  36.283  1.00  0.00     0.041 A 
ATOM     86  F   UNL A   1      43.061  29.445  34.770  1.00  0.00    -0.206 F 
ATOM     87  C   UNL A   1      40.865  31.674  36.571  1.00  0.00     0.022 A 
BRANCH  84  88
ATOM     88  S   UNL A   1      38.677  33.264  35.962  1.00  0.00     0.124 S 
ATOM     89  O   UNL A   1      37.509  32.424  36.191  1.00  0.00    -0.237 OA
ATOM     90  O   UNL A   1      39.220  33.940  37.137  1.00  0.00    -0.237 OA
ATOM     91  O   UNL A   1      38.597  34.104  34.765  1.00  0.00    -0.744 OA
ENDBRANCH  84  88
ENDBRANCH  58  81
ENDBRANCH  32  33
ENDBRANCH  24  27
ENDBRANCH  22  23
ENDBRANCH   1  22
TORSDOF 16
ENDMDL
