MODEL 1
REMARK VINA RESULT:     -13.2      0.000      0.000
REMARK SMILES Cc1ccc(S(=O)(=O)n2cc(C(=O)C(=O)NCC(=O)NCC(=O)NCCCNC(=O)c3ccc(-c4c5nc(c(-c6cc(S(=O)(=O)[O-])ccc6F)c6ccc([nH]6)c(-c6cc(S(=O)(=O)[O-])ccc6F)c6nc(c(-c7cc(S(=O)(=O)[O-])ccc7F)c7ccc4[nH]7)C=C6)C=C5)cc3)c3ccccc32)cc1
REMARK SMILES IDX 22 1 23 2 24 3 21 5 20 6 18 7 19 8 17 10 16 11 14 12 15 13
REMARK SMILES IDX 12 15 13 16 11 17 9 18 10 19 99 20 94 21 98 22 95 23 97 24
REMARK SMILES IDX 96 25 6 26 7 27 8 28 5 29 1 30 2 31 3 32 101 33 4 34 100 35
REMARK SMILES IDX 25 36 26 37 27 38 28 39 29 40 30 42 31 43 32 44 93 45 33 46
REMARK SMILES IDX 92 47 34 48 35 49 36 50 86 51 37 52 91 53 85 54 87 55 38 56
REMARK SMILES IDX 90 57 84 58 83 59 39 61 71 62 51 63 70 64 52 65 55 66 69 67
REMARK SMILES IDX 88 68 53 69 54 70 68 72 89 73 56 74 40 75 41 76 49 77 42 78
REMARK SMILES IDX 48 79 50 80 47 81 43 82 44 83 45 84 46 85 72 86 73 87 81 88
REMARK SMILES IDX 74 89 80 90 82 91 79 92 75 93 76 94 77 95 78 96 57 97 58 98
REMARK SMILES IDX 66 99 59 100 65 101 67 102 64 103 60 104 61 105 62 106
REMARK SMILES IDX 63 107
REMARK H PARENT 24 4 20 9 16 14 28 41 87 60 55 71
REMARK Flexibility Score: inf
ROOT
ATOM      1  C   UNL A   1      39.471  22.034  26.326  1.00  0.00     0.239 C 
ATOM      2  O   UNL A   1      39.662  23.179  26.741  1.00  0.00    -0.273 OA
ATOM      3  N   UNL A   1      40.490  21.121  26.377  1.00  0.00    -0.355 N 
ATOM      4  H   UNL A   1      41.378  21.475  26.609  1.00  0.00     0.163 HD
ENDROOT
BRANCH   1   5
ATOM      5  C   UNL A   1      38.082  21.604  25.822  1.00  0.00     0.216 C 
BRANCH   5   6
ATOM      6  N   UNL A   1      37.769  22.138  24.506  1.00  0.00    -0.346 N 
ATOM      7  C   UNL A   1      36.596  22.516  23.935  1.00  0.00     0.239 C 
ATOM      8  O   UNL A   1      36.651  22.968  22.785  1.00  0.00    -0.273 OA
ATOM      9  H   UNL A   1      38.553  22.244  23.920  1.00  0.00     0.164 HD
BRANCH   7  10
ATOM     10  C   UNL A   1      35.255  22.496  24.687  1.00  0.00     0.216 C 
BRANCH  10  11
ATOM     11  N   UNL A   1      34.677  21.200  25.027  1.00  0.00    -0.340 N 
ATOM     12  C   UNL A   1      33.568  20.528  24.543  1.00  0.00     0.292 C 
ATOM     13  O   UNL A   1      33.326  19.398  24.948  1.00  0.00    -0.265 OA
ATOM     14  H   UNL A   1      35.166  20.714  25.730  1.00  0.00     0.164 HD
BRANCH  12  15
ATOM     15  C   UNL A   1      32.649  21.174  23.499  1.00  0.00     0.252 C 
ATOM     16  O   UNL A   1      32.164  20.432  22.647  1.00  0.00    -0.283 OA
BRANCH  15  17
ATOM     17  C   UNL A   1      32.311  22.605  23.489  1.00  0.00     0.054 A 
ATOM     18  N   UNL A   1      32.117  24.781  23.012  1.00  0.00    -0.240 N 
ATOM     19  C   UNL A   1      32.665  23.592  22.583  1.00  0.00     0.117 A 
ATOM     20  C   UNL A   1      31.415  24.611  24.190  1.00  0.00     0.065 A 
ATOM     21  C   UNL A   1      31.516  23.250  24.502  1.00  0.00     0.012 A 
ATOM     22  C   UNL A   1      30.732  25.508  25.031  1.00  0.00     0.028 A 
ATOM     23  C   UNL A   1      30.894  22.782  25.681  1.00  0.00     0.011 A 
ATOM     24  C   UNL A   1      30.154  25.016  26.205  1.00  0.00     0.002 A 
ATOM     25  C   UNL A   1      30.227  23.668  26.525  1.00  0.00     0.001 A 
BRANCH  18  26
ATOM     26  S   UNL A   1      32.381  26.300  22.278  1.00  0.00     0.268 S 
ATOM     27  O   UNL A   1      31.144  26.611  21.589  1.00  0.00    -0.201 OA
ATOM     28  O   UNL A   1      33.652  26.207  21.587  1.00  0.00    -0.201 OA
BRANCH  26  29
ATOM     29  C   UNL A   1      32.571  27.507  23.570  1.00  0.00     0.088 A 
ATOM     30  C   UNL A   1      32.626  30.313  26.833  1.00  0.00     0.044 C 
ATOM     31  C   UNL A   1      32.622  29.346  25.687  1.00  0.00    -0.051 A 
ATOM     32  C   UNL A   1      31.574  29.368  24.759  1.00  0.00     0.005 A 
ATOM     33  C   UNL A   1      33.660  28.420  25.522  1.00  0.00     0.005 A 
ATOM     34  C   UNL A   1      31.543  28.449  23.707  1.00  0.00     0.022 A 
ATOM     35  C   UNL A   1      33.645  27.510  24.461  1.00  0.00     0.022 A 
ENDBRANCH  26  29
ENDBRANCH  18  26
ENDBRANCH  15  17
ENDBRANCH  12  15
ENDBRANCH  10  11
ENDBRANCH   7  10
ENDBRANCH   5   6
ENDBRANCH   1   5
BRANCH   3  36
ATOM     36  C   UNL A   1      40.413  19.694  26.127  1.00  0.00     0.117 C 
BRANCH  36  37
ATOM     37  C   UNL A   1      41.777  19.029  26.056  1.00  0.00     0.042 C 
BRANCH  37  38
ATOM     38  C   UNL A   1      42.897  20.025  26.249  1.00  0.00     0.118 C 
BRANCH  38  39
ATOM     39  N   UNL A   1      43.313  20.729  25.043  1.00  0.00    -0.352 N 
ATOM     40  C   UNL A   1      43.766  22.034  24.912  1.00  0.00     0.251 C 
ATOM     41  H   UNL A   1      43.266  20.208  24.208  1.00  0.00     0.163 HD
ATOM     42  O   UNL A   1      43.834  22.578  23.812  1.00  0.00    -0.269 OA
BRANCH  40  43
ATOM     43  C   UNL A   1      44.391  22.706  26.085  1.00  0.00     0.039 A 
ATOM     44  C   UNL A   1      43.653  22.645  27.278  1.00  0.00     0.014 A 
ATOM     45  C   UNL A   1      45.316  23.718  25.893  1.00  0.00     0.014 A 
ATOM     46  C   UNL A   1      43.584  23.769  28.085  1.00  0.00     0.010 A 
ATOM     47  C   UNL A   1      45.078  24.898  26.536  1.00  0.00     0.010 A 
ATOM     48  C   UNL A   1      44.180  24.922  27.602  1.00  0.00    -0.014 A 
BRANCH  48  49
ATOM     49  C   UNL A   1      44.054  26.232  28.186  1.00  0.00     0.031 A 
ATOM     50  C   UNL A   1      42.718  26.832  28.088  1.00  0.00     0.074 A 
ATOM     51  C   UNL A   1      45.065  26.659  28.972  1.00  0.00     0.049 A 
ATOM     52  N   UNL A   1      42.473  28.075  28.245  1.00  0.00    -0.248 NA
ATOM     53  C   UNL A   1      41.515  26.058  27.754  1.00  0.00     0.031 C 
ATOM     54  C   UNL A   1      45.083  27.732  29.955  1.00  0.00     0.029 A 
ATOM     55  N   UNL A   1      46.407  26.293  28.849  1.00  0.00    -0.354 N 
ATOM     56  C   UNL A   1      41.111  28.199  28.407  1.00  0.00     0.074 A 
ATOM     57  C   UNL A   1      40.547  26.950  27.975  1.00  0.00     0.031 C 
ATOM     58  C   UNL A   1      46.353  28.153  30.115  1.00  0.00     0.029 A 
ATOM     59  C   UNL A   1      47.162  27.449  29.133  1.00  0.00     0.049 A 
ATOM     60  H   UNL A   1      46.757  25.404  28.611  1.00  0.00     0.167 HD
ATOM     61  C   UNL A   1      40.650  29.292  29.068  1.00  0.00     0.034 A 
ATOM     62  C   UNL A   1      47.866  28.040  28.119  1.00  0.00     0.034 A 
ATOM     63  C   UNL A   1      41.774  30.150  29.427  1.00  0.00     0.049 A 
ATOM     64  C   UNL A   1      47.275  29.394  27.765  1.00  0.00     0.074 A 
ATOM     65  C   UNL A   1      42.528  30.279  30.581  1.00  0.00     0.029 A 
ATOM     66  N   UNL A   1      42.517  30.710  28.402  1.00  0.00    -0.354 N 
ATOM     67  N   UNL A   1      46.035  29.742  27.997  1.00  0.00    -0.248 NA
ATOM     68  C   UNL A   1      48.065  30.493  27.221  1.00  0.00     0.031 C 
ATOM     69  C   UNL A   1      43.772  30.865  30.217  1.00  0.00     0.029 A 
ATOM     70  C   UNL A   1      43.757  31.104  28.853  1.00  0.00     0.049 A 
ATOM     71  H   UNL A   1      42.202  30.812  27.474  1.00  0.00     0.167 HD
ATOM     72  C   UNL A   1      45.863  31.076  27.713  1.00  0.00     0.074 A 
ATOM     73  C   UNL A   1      47.165  31.494  27.221  1.00  0.00     0.031 C 
ATOM     74  C   UNL A   1      44.680  31.737  27.929  1.00  0.00     0.034 A 
BRANCH  61  75
ATOM     75  C   UNL A   1      39.272  29.462  29.634  1.00  0.00     0.023 A 
ATOM     76  C   UNL A   1      38.507  30.548  29.170  1.00  0.00     0.031 A 
ATOM     77  C   UNL A   1      38.650  28.634  30.584  1.00  0.00     0.131 A 
ATOM     78  C   UNL A   1      37.219  30.808  29.657  1.00  0.00     0.055 A 
ATOM     79  C   UNL A   1      37.372  28.907  31.096  1.00  0.00     0.041 A 
ATOM     80  F   UNL A   1      39.225  27.508  31.026  1.00  0.00    -0.206 F 
ATOM     81  C   UNL A   1      36.647  29.997  30.632  1.00  0.00     0.022 A 
BRANCH  78  82
ATOM     82  S   UNL A   1      36.310  32.213  28.966  1.00  0.00     0.124 S 
ATOM     83  O   UNL A   1      35.361  32.518  30.032  1.00  0.00    -0.237 OA
ATOM     84  O   UNL A   1      37.369  33.191  28.747  1.00  0.00    -0.237 OA
ATOM     85  O   UNL A   1      35.716  31.663  27.748  1.00  0.00    -0.744 OA
ENDBRANCH  78  82
ENDBRANCH  61  75
BRANCH  62  86
ATOM     86  C   UNL A   1      48.449  27.004  27.195  1.00  0.00     0.023 A 
ATOM     87  C   UNL A   1      47.985  27.052  25.855  1.00  0.00     0.031 A 
ATOM     88  C   UNL A   1      49.710  26.435  27.422  1.00  0.00     0.131 A 
ATOM     89  C   UNL A   1      48.871  26.806  24.791  1.00  0.00     0.055 A 
ATOM     90  C   UNL A   1      50.545  26.078  26.349  1.00  0.00     0.041 A 
ATOM     91  F   UNL A   1      50.218  26.364  28.660  1.00  0.00    -0.206 F 
ATOM     92  C   UNL A   1      50.157  26.330  25.031  1.00  0.00     0.022 A 
BRANCH  89  93
ATOM     93  S   UNL A   1      48.436  27.448  23.137  1.00  0.00     0.124 S 
ATOM     94  O   UNL A   1      48.279  26.217  22.372  1.00  0.00    -0.237 OA
ATOM     95  O   UNL A   1      47.213  28.206  23.403  1.00  0.00    -0.237 OA
ATOM     96  O   UNL A   1      49.575  28.290  22.770  1.00  0.00    -0.744 OA
ENDBRANCH  89  93
ENDBRANCH  62  86
BRANCH  74  97
ATOM     97  C   UNL A   1      44.273  33.078  27.342  1.00  0.00     0.023 A 
ATOM     98  C   UNL A   1      44.075  34.218  28.122  1.00  0.00     0.031 A 
ATOM     99  C   UNL A   1      44.162  33.285  25.938  1.00  0.00     0.131 A 
ATOM    100  C   UNL A   1      43.704  35.443  27.545  1.00  0.00     0.055 A 
ATOM    101  C   UNL A   1      43.910  34.531  25.359  1.00  0.00     0.041 A 
ATOM    102  F   UNL A   1      44.301  32.292  25.049  1.00  0.00    -0.206 F 
ATOM    103  C   UNL A   1      43.655  35.622  26.167  1.00  0.00     0.022 A 
BRANCH 100 104
ATOM    104  S   UNL A   1      43.183  36.765  28.663  1.00  0.00     0.124 S 
ATOM    105  O   UNL A   1      43.013  36.039  29.919  1.00  0.00    -0.237 OA
ATOM    106  O   UNL A   1      44.316  37.682  28.611  1.00  0.00    -0.237 OA
ATOM    107  O   UNL A   1      41.948  37.259  28.058  1.00  0.00    -0.744 OA
ENDBRANCH 100 104
ENDBRANCH  74  97
ENDBRANCH  48  49
ENDBRANCH  40  43
ENDBRANCH  38  39
ENDBRANCH  37  38
ENDBRANCH  36  37
ENDBRANCH   3  36
TORSDOF 20
ENDMDL
MODEL 2
REMARK VINA RESULT:     -12.8      1.892      2.988
REMARK SMILES Cc1ccc(S(=O)(=O)n2cc(C(=O)C(=O)NCC(=O)NCC(=O)NCCCNC(=O)c3ccc(-c4c5nc(c(-c6cc(S(=O)(=O)[O-])ccc6F)c6ccc([nH]6)c(-c6cc(S(=O)(=O)[O-])ccc6F)c6nc(c(-c7cc(S(=O)(=O)[O-])ccc7F)c7ccc4[nH]7)C=C6)C=C5)cc3)c3ccccc32)cc1
REMARK SMILES IDX 22 1 23 2 24 3 21 5 20 6 18 7 19 8 17 10 16 11 14 12 15 13
REMARK SMILES IDX 12 15 13 16 11 17 9 18 10 19 99 20 94 21 98 22 95 23 97 24
REMARK SMILES IDX 96 25 6 26 7 27 8 28 5 29 1 30 2 31 3 32 101 33 4 34 100 35
REMARK SMILES IDX 25 36 26 37 27 38 28 39 29 40 30 42 31 43 32 44 93 45 33 46
REMARK SMILES IDX 92 47 34 48 35 49 36 50 86 51 37 52 91 53 85 54 87 55 38 56
REMARK SMILES IDX 90 57 84 58 83 59 39 61 71 62 51 63 70 64 52 65 55 66 69 67
REMARK SMILES IDX 88 68 53 69 54 70 68 72 89 73 56 74 40 75 41 76 49 77 42 78
REMARK SMILES IDX 48 79 50 80 47 81 43 82 44 83 45 84 46 85 72 86 73 87 81 88
REMARK SMILES IDX 74 89 80 90 82 91 79 92 75 93 76 94 77 95 78 96 57 97 58 98
REMARK SMILES IDX 66 99 59 100 65 101 67 102 64 103 60 104 61 105 62 106
REMARK SMILES IDX 63 107
REMARK H PARENT 24 4 20 9 16 14 28 41 87 60 55 71
REMARK Flexibility Score: inf
ROOT
ATOM      1  C   UNL A   1      36.280  22.743  26.093  1.00  0.00     0.239 C 
ATOM      2  O   UNL A   1      35.250  23.318  26.451  1.00  0.00    -0.273 OA
ATOM      3  N   UNL A   1      37.497  23.310  26.366  1.00  0.00    -0.355 N 
ATOM      4  H   UNL A   1      37.478  24.232  26.708  1.00  0.00     0.163 HD
ENDROOT
BRANCH   1   5
ATOM      5  C   UNL A   1      36.212  21.366  25.409  1.00  0.00     0.216 C 
BRANCH   5   6
ATOM      6  N   UNL A   1      34.897  20.754  25.501  1.00  0.00    -0.346 N 
ATOM      7  C   UNL A   1      33.744  20.972  24.817  1.00  0.00     0.239 C 
ATOM      8  O   UNL A   1      32.776  20.258  25.107  1.00  0.00    -0.273 OA
ATOM      9  H   UNL A   1      34.830  20.050  26.186  1.00  0.00     0.164 HD
BRANCH   7  10
ATOM     10  C   UNL A   1      33.635  21.978  23.659  1.00  0.00     0.216 C 
BRANCH  10  11
ATOM     11  N   UNL A   1      32.307  22.455  23.287  1.00  0.00    -0.340 N 
ATOM     12  C   UNL A   1      31.482  23.418  23.841  1.00  0.00     0.292 C 
ATOM     13  O   UNL A   1      30.422  23.689  23.293  1.00  0.00    -0.265 OA
ATOM     14  H   UNL A   1      31.927  22.008  22.496  1.00  0.00     0.164 HD
BRANCH  12  15
ATOM     15  C   UNL A   1      31.886  24.157  25.123  1.00  0.00     0.252 C 
ATOM     16  O   UNL A   1      32.030  23.477  26.137  1.00  0.00    -0.283 OA
BRANCH  15  17
ATOM     17  C   UNL A   1      32.127  25.606  25.184  1.00  0.00     0.054 A 
ATOM     18  N   UNL A   1      32.229  27.761  25.770  1.00  0.00    -0.240 N 
ATOM     19  C   UNL A   1      31.814  26.515  26.183  1.00  0.00     0.117 A 
ATOM     20  C   UNL A   1      32.800  27.707  24.513  1.00  0.00     0.065 A 
ATOM     21  C   UNL A   1      32.756  26.362  24.131  1.00  0.00     0.012 A 
ATOM     22  C   UNL A   1      33.322  28.696  23.659  1.00  0.00     0.028 A 
ATOM     23  C   UNL A   1      33.268  26.004  22.863  1.00  0.00     0.011 A 
ATOM     24  C   UNL A   1      33.792  28.311  22.400  1.00  0.00     0.002 A 
ATOM     25  C   UNL A   1      33.773  26.981  22.007  1.00  0.00     0.001 A 
BRANCH  18  26
ATOM     26  S   UNL A   1      31.951  29.215  26.621  1.00  0.00     0.268 S 
ATOM     27  O   UNL A   1      31.319  28.816  27.863  1.00  0.00    -0.201 OA
ATOM     28  O   UNL A   1      31.319  30.125  25.686  1.00  0.00    -0.201 OA
BRANCH  26  29
ATOM     29  C   UNL A   1      33.531  29.912  27.047  1.00  0.00     0.088 A 
ATOM     30  C   UNL A   1      37.166  31.742  28.448  1.00  0.00     0.044 C 
ATOM     31  C   UNL A   1      35.906  31.104  27.941  1.00  0.00    -0.051 A 
ATOM     32  C   UNL A   1      34.732  31.860  27.841  1.00  0.00     0.005 A 
ATOM     33  C   UNL A   1      35.887  29.758  27.554  1.00  0.00     0.005 A 
ATOM     34  C   UNL A   1      33.547  31.267  27.402  1.00  0.00     0.022 A 
ATOM     35  C   UNL A   1      34.708  29.163  27.095  1.00  0.00     0.022 A 
ENDBRANCH  26  29
ENDBRANCH  18  26
ENDBRANCH  15  17
ENDBRANCH  12  15
ENDBRANCH  10  11
ENDBRANCH   7  10
ENDBRANCH   5   6
ENDBRANCH   1   5
BRANCH   3  36
ATOM     36  C   UNL A   1      38.807  22.710  26.207  1.00  0.00     0.117 C 
BRANCH  36  37
ATOM     37  C   UNL A   1      39.891  23.434  26.989  1.00  0.00     0.042 C 
BRANCH  37  38
ATOM     38  C   UNL A   1      40.802  22.469  27.710  1.00  0.00     0.118 C 
BRANCH  38  39
ATOM     39  N   UNL A   1      41.522  21.539  26.851  1.00  0.00    -0.352 N 
ATOM     40  C   UNL A   1      42.787  21.673  26.296  1.00  0.00     0.251 C 
ATOM     41  H   UNL A   1      41.049  20.703  26.637  1.00  0.00     0.163 HD
ATOM     42  O   UNL A   1      43.164  20.936  25.387  1.00  0.00    -0.269 OA
BRANCH  40  43
ATOM     43  C   UNL A   1      43.780  22.564  26.956  1.00  0.00     0.039 A 
ATOM     44  C   UNL A   1      43.751  22.561  28.360  1.00  0.00     0.014 A 
ATOM     45  C   UNL A   1      44.297  23.653  26.276  1.00  0.00     0.014 A 
ATOM     46  C   UNL A   1      43.893  23.760  29.039  1.00  0.00     0.010 A 
ATOM     47  C   UNL A   1      44.204  24.865  26.896  1.00  0.00     0.010 A 
ATOM     48  C   UNL A   1      43.960  24.910  28.268  1.00  0.00    -0.014 A 
BRANCH  48  49
ATOM     49  C   UNL A   1      43.912  26.256  28.775  1.00  0.00     0.031 A 
ATOM     50  C   UNL A   1      42.578  26.870  28.787  1.00  0.00     0.074 A 
ATOM     51  C   UNL A   1      45.009  26.717  29.413  1.00  0.00     0.049 A 
ATOM     52  N   UNL A   1      42.362  28.124  28.888  1.00  0.00    -0.248 NA
ATOM     53  C   UNL A   1      41.339  26.094  28.642  1.00  0.00     0.031 C 
ATOM     54  C   UNL A   1      45.146  27.852  30.314  1.00  0.00     0.029 A 
ATOM     55  N   UNL A   1      46.325  26.323  29.165  1.00  0.00    -0.354 N 
ATOM     56  C   UNL A   1      41.029  28.279  29.193  1.00  0.00     0.074 A 
ATOM     57  C   UNL A   1      40.410  27.014  28.911  1.00  0.00     0.031 C 
ATOM     58  C   UNL A   1      46.429  28.262  30.303  1.00  0.00     0.029 A 
ATOM     59  C   UNL A   1      47.117  27.483  29.286  1.00  0.00     0.049 A 
ATOM     60  H   UNL A   1      46.639  25.415  28.949  1.00  0.00     0.167 HD
ATOM     61  C   UNL A   1      40.654  29.420  29.828  1.00  0.00     0.034 A 
ATOM     62  C   UNL A   1      47.706  27.996  28.163  1.00  0.00     0.034 A 
ATOM     63  C   UNL A   1      41.818  30.281  30.002  1.00  0.00     0.049 A 
ATOM     64  C   UNL A   1      47.091  29.334  27.788  1.00  0.00     0.074 A 
ATOM     65  C   UNL A   1      42.699  30.473  31.053  1.00  0.00     0.029 A 
ATOM     66  N   UNL A   1      42.446  30.762  28.865  1.00  0.00    -0.354 N 
ATOM     67  N   UNL A   1      45.887  29.716  28.134  1.00  0.00    -0.248 NA
ATOM     68  C   UNL A   1      47.823  30.383  27.087  1.00  0.00     0.031 C 
ATOM     69  C   UNL A   1      43.899  31.015  30.514  1.00  0.00     0.029 A 
ATOM     70  C   UNL A   1      43.732  31.165  29.148  1.00  0.00     0.049 A 
ATOM     71  H   UNL A   1      42.029  30.809  27.974  1.00  0.00     0.167 HD
ATOM     72  C   UNL A   1      45.696  31.031  27.783  1.00  0.00     0.074 A 
ATOM     73  C   UNL A   1      46.938  31.395  27.123  1.00  0.00     0.031 C 
ATOM     74  C   UNL A   1      44.550  31.723  28.087  1.00  0.00     0.034 A 
BRANCH  61  75
ATOM     75  C   UNL A   1      39.351  29.647  30.533  1.00  0.00     0.023 A 
ATOM     76  C   UNL A   1      39.305  30.663  31.506  1.00  0.00     0.031 A 
ATOM     77  C   UNL A   1      38.149  28.952  30.314  1.00  0.00     0.131 A 
ATOM     78  C   UNL A   1      38.141  30.935  32.238  1.00  0.00     0.055 A 
ATOM     79  C   UNL A   1      36.989  29.202  31.064  1.00  0.00     0.041 A 
ATOM     80  F   UNL A   1      38.027  28.038  29.343  1.00  0.00    -0.206 F 
ATOM     81  C   UNL A   1      36.979  30.199  32.032  1.00  0.00     0.022 A 
BRANCH  78  82
ATOM     82  S   UNL A   1      38.184  32.286  33.442  1.00  0.00     0.124 S 
ATOM     83  O   UNL A   1      37.429  33.331  32.757  1.00  0.00    -0.237 OA
ATOM     84  O   UNL A   1      37.543  31.686  34.606  1.00  0.00    -0.237 OA
ATOM     85  O   UNL A   1      39.613  32.556  33.595  1.00  0.00    -0.744 OA
ENDBRANCH  78  82
ENDBRANCH  61  75
BRANCH  62  86
ATOM     86  C   UNL A   1      48.173  26.894  27.250  1.00  0.00     0.023 A 
ATOM     87  C   UNL A   1      47.776  27.016  25.893  1.00  0.00     0.031 A 
ATOM     88  C   UNL A   1      49.330  26.149  27.518  1.00  0.00     0.131 A 
ATOM     89  C   UNL A   1      48.661  26.654  24.861  1.00  0.00     0.055 A 
ATOM     90  C   UNL A   1      50.149  25.683  26.475  1.00  0.00     0.041 A 
ATOM     91  F   UNL A   1      49.772  25.998  28.775  1.00  0.00    -0.206 F 
ATOM     92  C   UNL A   1      49.855  25.998  25.147  1.00  0.00     0.022 A 
BRANCH  89  93
ATOM     93  S   UNL A   1      48.389  27.363  23.200  1.00  0.00     0.124 S 
ATOM     94  O   UNL A   1      49.561  28.216  23.045  1.00  0.00    -0.237 OA
ATOM     95  O   UNL A   1      48.338  26.172  22.352  1.00  0.00    -0.237 OA
ATOM     96  O   UNL A   1      47.104  28.054  23.313  1.00  0.00    -0.744 OA
ENDBRANCH  89  93
ENDBRANCH  62  86
BRANCH  74  97
ATOM     97  C   UNL A   1      44.090  33.030  27.462  1.00  0.00     0.023 A 
ATOM     98  C   UNL A   1      43.646  34.115  28.217  1.00  0.00     0.031 A 
ATOM     99  C   UNL A   1      44.177  33.267  26.061  1.00  0.00     0.131 A 
ATOM    100  C   UNL A   1      43.233  35.310  27.606  1.00  0.00     0.055 A 
ATOM    101  C   UNL A   1      43.880  34.496  25.467  1.00  0.00     0.041 A 
ATOM    102  F   UNL A   1      44.565  32.325  25.191  1.00  0.00    -0.206 F 
ATOM    103  C   UNL A   1      43.380  35.526  26.240  1.00  0.00     0.022 A 
BRANCH 100 104
ATOM    104  S   UNL A   1      42.397  36.530  28.645  1.00  0.00     0.124 S 
ATOM    105  O   UNL A   1      42.253  37.655  27.723  1.00  0.00    -0.237 OA
ATOM    106  O   UNL A   1      41.161  35.842  29.002  1.00  0.00    -0.237 OA
ATOM    107  O   UNL A   1      43.335  36.744  29.745  1.00  0.00    -0.744 OA
ENDBRANCH 100 104
ENDBRANCH  74  97
ENDBRANCH  48  49
ENDBRANCH  40  43
ENDBRANCH  38  39
ENDBRANCH  37  38
ENDBRANCH  36  37
ENDBRANCH   3  36
TORSDOF 20
ENDMDL
MODEL 3
REMARK VINA RESULT:     -11.7      2.168      2.886
REMARK SMILES Cc1ccc(S(=O)(=O)n2cc(C(=O)C(=O)NCC(=O)NCC(=O)NCCCNC(=O)c3ccc(-c4c5nc(c(-c6cc(S(=O)(=O)[O-])ccc6F)c6ccc([nH]6)c(-c6cc(S(=O)(=O)[O-])ccc6F)c6nc(c(-c7cc(S(=O)(=O)[O-])ccc7F)c7ccc4[nH]7)C=C6)C=C5)cc3)c3ccccc32)cc1
REMARK SMILES IDX 22 1 23 2 24 3 21 5 20 6 18 7 19 8 17 10 16 11 14 12 15 13
REMARK SMILES IDX 12 15 13 16 11 17 9 18 10 19 99 20 94 21 98 22 95 23 97 24
REMARK SMILES IDX 96 25 6 26 7 27 8 28 5 29 1 30 2 31 3 32 101 33 4 34 100 35
REMARK SMILES IDX 25 36 26 37 27 38 28 39 29 40 30 42 31 43 32 44 93 45 33 46
REMARK SMILES IDX 92 47 34 48 35 49 36 50 86 51 37 52 91 53 85 54 87 55 38 56
REMARK SMILES IDX 90 57 84 58 83 59 39 61 71 62 51 63 70 64 52 65 55 66 69 67
REMARK SMILES IDX 88 68 53 69 54 70 68 72 89 73 56 74 40 75 41 76 49 77 42 78
REMARK SMILES IDX 48 79 50 80 47 81 43 82 44 83 45 84 46 85 72 86 73 87 81 88
REMARK SMILES IDX 74 89 80 90 82 91 79 92 75 93 76 94 77 95 78 96 57 97 58 98
REMARK SMILES IDX 66 99 59 100 65 101 67 102 64 103 60 104 61 105 62 106
REMARK SMILES IDX 63 107
REMARK H PARENT 24 4 20 9 16 14 28 41 87 60 55 71
REMARK Flexibility Score: inf
ROOT
ATOM      1  C   UNL A   1      37.136  21.422  24.942  1.00  0.00     0.239 C 
ATOM      2  O   UNL A   1      36.982  20.201  25.024  1.00  0.00    -0.273 OA
ATOM      3  N   UNL A   1      37.554  22.122  26.042  1.00  0.00    -0.355 N 
ATOM      4  H   UNL A   1      37.568  21.626  26.892  1.00  0.00     0.163 HD
ENDROOT
BRANCH   1   5
ATOM      5  C   UNL A   1      36.930  22.150  23.602  1.00  0.00     0.216 C 
BRANCH   5   6
ATOM      6  N   UNL A   1      36.293  23.447  23.756  1.00  0.00    -0.346 N 
ATOM      7  C   UNL A   1      35.029  23.874  23.503  1.00  0.00     0.239 C 
ATOM      8  O   UNL A   1      34.771  25.055  23.767  1.00  0.00    -0.273 OA
ATOM      9  H   UNL A   1      36.890  24.147  24.108  1.00  0.00     0.164 HD
BRANCH   7  10
ATOM     10  C   UNL A   1      33.913  22.938  23.008  1.00  0.00     0.216 C 
BRANCH  10  11
ATOM     11  N   UNL A   1      33.648  21.724  23.773  1.00  0.00    -0.340 N 
ATOM     12  C   UNL A   1      33.538  21.494  25.133  1.00  0.00     0.292 C 
ATOM     13  O   UNL A   1      33.235  20.377  25.532  1.00  0.00    -0.265 OA
ATOM     14  H   UNL A   1      33.524  20.919  23.219  1.00  0.00     0.164 HD
BRANCH  12  15
ATOM     15  C   UNL A   1      33.779  22.622  26.144  1.00  0.00     0.252 C 
ATOM     16  O   UNL A   1      34.785  22.538  26.846  1.00  0.00    -0.283 OA
BRANCH  15  17
ATOM     17  C   UNL A   1      32.893  23.787  26.288  1.00  0.00     0.054 A 
ATOM     18  N   UNL A   1      32.028  25.842  26.458  1.00  0.00    -0.240 N 
ATOM     19  C   UNL A   1      33.197  25.139  26.265  1.00  0.00     0.117 A 
ATOM     20  C   UNL A   1      30.954  24.989  26.623  1.00  0.00     0.065 A 
ATOM     21  C   UNL A   1      31.473  23.694  26.509  1.00  0.00     0.012 A 
ATOM     22  C   UNL A   1      29.590  25.213  26.889  1.00  0.00     0.028 A 
ATOM     23  C   UNL A   1      30.589  22.600  26.649  1.00  0.00     0.011 A 
ATOM     24  C   UNL A   1      28.751  24.107  27.052  1.00  0.00     0.002 A 
ATOM     25  C   UNL A   1      29.241  22.815  26.927  1.00  0.00     0.001 A 
BRANCH  18  26
ATOM     26  S   UNL A   1      31.924  27.538  26.623  1.00  0.00     0.268 S 
ATOM     27  O   UNL A   1      33.292  28.013  26.558  1.00  0.00    -0.201 OA
ATOM     28  O   UNL A   1      31.068  27.788  27.765  1.00  0.00    -0.201 OA
BRANCH  26  29
ATOM     29  C   UNL A   1      31.088  28.177  25.189  1.00  0.00     0.088 A 
ATOM     30  C   UNL A   1      28.697  29.530  21.875  1.00  0.00     0.044 C 
ATOM     31  C   UNL A   1      29.547  29.062  23.019  1.00  0.00    -0.051 A 
ATOM     32  C   UNL A   1      29.598  27.700  23.339  1.00  0.00     0.005 A 
ATOM     33  C   UNL A   1      30.303  29.968  23.773  1.00  0.00     0.005 A 
ATOM     34  C   UNL A   1      30.360  27.257  24.423  1.00  0.00     0.022 A 
ATOM     35  C   UNL A   1      31.082  29.530  24.847  1.00  0.00     0.022 A 
ENDBRANCH  26  29
ENDBRANCH  18  26
ENDBRANCH  15  17
ENDBRANCH  12  15
ENDBRANCH  10  11
ENDBRANCH   7  10
ENDBRANCH   5   6
ENDBRANCH   1   5
BRANCH   3  36
ATOM     36  C   UNL A   1      37.976  23.508  26.099  1.00  0.00     0.117 C 
BRANCH  36  37
ATOM     37  C   UNL A   1      39.468  23.665  26.346  1.00  0.00     0.042 C 
BRANCH  37  38
ATOM     38  C   UNL A   1      40.007  22.569  27.235  1.00  0.00     0.118 C 
BRANCH  38  39
ATOM     39  N   UNL A   1      40.713  21.500  26.542  1.00  0.00    -0.352 N 
ATOM     40  C   UNL A   1      42.066  21.401  26.250  1.00  0.00     0.251 C 
ATOM     41  H   UNL A   1      40.156  20.746  26.241  1.00  0.00     0.163 HD
ATOM     42  O   UNL A   1      42.483  20.578  25.438  1.00  0.00    -0.269 OA
BRANCH  40  43
ATOM     43  C   UNL A   1      43.047  22.140  27.092  1.00  0.00     0.039 A 
ATOM     44  C   UNL A   1      42.864  22.015  28.478  1.00  0.00     0.014 A 
ATOM     45  C   UNL A   1      43.718  23.236  26.577  1.00  0.00     0.014 A 
ATOM     46  C   UNL A   1      43.023  23.133  29.281  1.00  0.00     0.010 A 
ATOM     47  C   UNL A   1      43.652  24.392  27.299  1.00  0.00     0.010 A 
ATOM     48  C   UNL A   1      43.263  24.336  28.637  1.00  0.00    -0.014 A 
BRANCH  48  49
ATOM     49  C   UNL A   1      43.264  25.631  29.265  1.00  0.00     0.031 A 
ATOM     50  C   UNL A   1      42.060  26.437  29.032  1.00  0.00     0.074 A 
ATOM     51  C   UNL A   1      44.218  25.870  30.190  1.00  0.00     0.049 A 
ATOM     52  N   UNL A   1      41.989  27.698  29.219  1.00  0.00    -0.248 NA
ATOM     53  C   UNL A   1      40.806  25.873  28.515  1.00  0.00     0.031 C 
ATOM     54  C   UNL A   1      44.273  26.898  31.219  1.00  0.00     0.029 A 
ATOM     55  N   UNL A   1      45.493  25.301  30.216  1.00  0.00    -0.354 N 
ATOM     56  C   UNL A   1      40.653  28.030  29.217  1.00  0.00     0.074 A 
ATOM     57  C   UNL A   1      39.966  26.899  28.659  1.00  0.00     0.031 C 
ATOM     58  C   UNL A   1      45.560  27.108  31.555  1.00  0.00     0.029 A 
ATOM     59  C   UNL A   1      46.373  26.314  30.647  1.00  0.00     0.049 A 
ATOM     60  H   UNL A   1      45.732  24.375  29.980  1.00  0.00     0.167 HD
ATOM     61  C   UNL A   1      40.283  29.162  29.870  1.00  0.00     0.034 A 
ATOM     62  C   UNL A   1      47.284  26.816  29.759  1.00  0.00     0.034 A 
ATOM     63  C   UNL A   1      41.468  29.821  30.407  1.00  0.00     0.049 A 
ATOM     64  C   UNL A   1      46.958  28.257  29.401  1.00  0.00     0.074 A 
ATOM     65  C   UNL A   1      42.077  29.796  31.650  1.00  0.00     0.029 A 
ATOM     66  N   UNL A   1      42.415  30.287  29.510  1.00  0.00    -0.354 N 
ATOM     67  N   UNL A   1      45.766  28.789  29.495  1.00  0.00    -0.248 NA
ATOM     68  C   UNL A   1      47.970  29.233  29.014  1.00  0.00     0.031 C 
ATOM     69  C   UNL A   1      43.432  30.189  31.472  1.00  0.00     0.029 A 
ATOM     70  C   UNL A   1      43.631  30.467  30.130  1.00  0.00     0.049 A 
ATOM     71  H   UNL A   1      42.241  30.465  28.557  1.00  0.00     0.167 HD
ATOM     72  C   UNL A   1      45.838  30.141  29.258  1.00  0.00     0.074 A 
ATOM     73  C   UNL A   1      47.241  30.362  28.953  1.00  0.00     0.031 C 
ATOM     74  C   UNL A   1      44.752  30.974  29.359  1.00  0.00     0.034 A 
BRANCH  61  75
ATOM     75  C   UNL A   1      38.885  29.531  30.269  1.00  0.00     0.023 A 
ATOM     76  C   UNL A   1      38.384  30.767  29.820  1.00  0.00     0.031 A 
ATOM     77  C   UNL A   1      38.006  28.758  31.046  1.00  0.00     0.131 A 
ATOM     78  C   UNL A   1      37.100  31.213  30.162  1.00  0.00     0.055 A 
ATOM     79  C   UNL A   1      36.730  29.213  31.414  1.00  0.00     0.041 A 
ATOM     80  F   UNL A   1      38.317  27.517  31.444  1.00  0.00    -0.206 F 
ATOM     81  C   UNL A   1      36.269  30.446  30.971  1.00  0.00     0.022 A 
BRANCH  78  82
ATOM     82  S   UNL A   1      36.544  32.805  29.503  1.00  0.00     0.124 S 
ATOM     83  O   UNL A   1      36.600  32.575  28.062  1.00  0.00    -0.237 OA
ATOM     84  O   UNL A   1      35.213  32.935  30.084  1.00  0.00    -0.237 OA
ATOM     85  O   UNL A   1      37.537  33.748  30.017  1.00  0.00    -0.744 OA
ENDBRANCH  78  82
ENDBRANCH  61  75
BRANCH  62  86
ATOM     86  C   UNL A   1      47.817  25.729  28.864  1.00  0.00     0.023 A 
ATOM     87  C   UNL A   1      47.089  25.515  27.664  1.00  0.00     0.031 A 
ATOM     88  C   UNL A   1      49.168  25.358  28.873  1.00  0.00     0.131 A 
ATOM     89  C   UNL A   1      47.768  25.218  26.469  1.00  0.00     0.055 A 
ATOM     90  C   UNL A   1      49.813  24.944  27.695  1.00  0.00     0.041 A 
ATOM     91  F   UNL A   1      49.922  25.539  29.967  1.00  0.00    -0.206 F 
ATOM     92  C   UNL A   1      49.132  24.943  26.475  1.00  0.00     0.022 A 
BRANCH  89  93
ATOM     93  S   UNL A   1      46.915  25.542  24.887  1.00  0.00     0.124 S 
ATOM     94  O   UNL A   1      45.825  26.414  25.309  1.00  0.00    -0.237 OA
ATOM     95  O   UNL A   1      47.966  26.162  24.081  1.00  0.00    -0.237 OA
ATOM     96  O   UNL A   1      46.524  24.213  24.414  1.00  0.00    -0.744 OA
ENDBRANCH  89  93
ENDBRANCH  62  86
BRANCH  74  97
ATOM     97  C   UNL A   1      44.633  32.379  28.793  1.00  0.00     0.023 A 
ATOM     98  C   UNL A   1      44.328  32.634  27.456  1.00  0.00     0.031 A 
ATOM     99  C   UNL A   1      44.729  33.535  29.619  1.00  0.00     0.131 A 
ATOM    100  C   UNL A   1      44.221  33.946  26.969  1.00  0.00     0.055 A 
ATOM    101  C   UNL A   1      44.504  34.834  29.156  1.00  0.00     0.041 A 
ATOM    102  F   UNL A   1      45.037  33.469  30.921  1.00  0.00    -0.206 F 
ATOM    103  C   UNL A   1      44.269  35.050  27.812  1.00  0.00     0.022 A 
BRANCH 100 104
ATOM    104  S   UNL A   1      44.124  34.162  25.177  1.00  0.00     0.124 S 
ATOM    105  O   UNL A   1      43.798  32.808  24.733  1.00  0.00    -0.237 OA
ATOM    106  O   UNL A   1      43.055  35.146  25.038  1.00  0.00    -0.237 OA
ATOM    107  O   UNL A   1      45.459  34.631  24.814  1.00  0.00    -0.744 OA
ENDBRANCH 100 104
ENDBRANCH  74  97
ENDBRANCH  48  49
ENDBRANCH  40  43
ENDBRANCH  38  39
ENDBRANCH  37  38
ENDBRANCH  36  37
ENDBRANCH   3  36
TORSDOF 20
ENDMDL
