MODEL 1
REMARK VINA RESULT:     -11.8      0.000      0.000
REMARK SMILES COc1ncnc(N2CCCC[C@H]2CC(=O)NCCCNC(=O)c2ccc(-c3c4nc(c(-c5cc(S(=O)(=O)[O-])ccc5F)c5ccc([nH]5)c(-c5cc(S(=O)(=O)[O-])ccc5F)c5nc(c(-c6cc(S(=O)(=O)[O-])ccc6F)c6ccc3[nH]6)C=C5)C=C4)cc2)c1[N+](=O)[O-]
REMARK SMILES IDX 19 1 18 2 17 3 15 4 16 5 14 7 13 8 8 9 9 10 10 11 12 12
REMARK SMILES IDX 11 13 7 14 3 15 4 16 87 17 5 18 6 19 2 20 1 21 88 22 89 23
REMARK SMILES IDX 90 24 20 25 21 26 22 27 23 29 24 30 25 31 86 32 26 33 85 34
REMARK SMILES IDX 27 35 28 36 29 37 79 38 30 39 84 40 78 41 80 42 31 43 83 44
REMARK SMILES IDX 77 45 76 46 32 48 64 49 44 50 63 51 45 52 48 53 62 54 81 55
REMARK SMILES IDX 46 56 47 57 61 59 82 60 49 61 33 62 34 63 42 64 35 65 41 66
REMARK SMILES IDX 43 67 40 68 36 69 37 70 38 71 39 72 65 73 66 74 74 75 67 76
REMARK SMILES IDX 73 77 75 78 72 79 68 80 69 81 70 82 71 83 50 84 51 85 59 86
REMARK SMILES IDX 52 87 58 88 60 89 57 90 53 91 54 92 55 93 56 94
REMARK H PARENT 17 6 21 28 80 47 48 58
REMARK Flexibility Score: inf
ROOT
ATOM      1  C   UNL A   1      31.030  30.133  24.999  1.00  0.00     0.042 C 
ENDROOT
BRANCH   1   2
ATOM      2  C   UNL A   1      31.350  28.842  24.237  1.00  0.00     0.117 C 
BRANCH   2   3
ATOM      3  N   UNL A   1      30.215  27.934  24.120  1.00  0.00    -0.356 N 
ATOM      4  C   UNL A   1      30.137  26.593  23.876  1.00  0.00     0.222 C 
ATOM      5  O   UNL A   1      29.014  26.088  23.863  1.00  0.00    -0.275 OA
ATOM      6  H   UNL A   1      29.340  28.369  24.240  1.00  0.00     0.163 HD
BRANCH   4   7
ATOM      7  C   UNL A   1      31.383  25.755  23.700  1.00  0.00     0.125 C 
BRANCH   7   8
ATOM      8  C   UNL A   1      31.826  24.833  24.861  1.00  0.00     0.093 C 
ATOM      9  N   UNL A   1      32.912  23.881  24.572  1.00  0.00    -0.347 N 
ATOM     10  C   UNL A   1      34.226  24.491  24.302  1.00  0.00     0.118 C 
ATOM     11  C   UNL A   1      34.671  25.457  25.390  1.00  0.00     0.022 C 
ATOM     12  C   UNL A   1      32.268  25.680  26.079  1.00  0.00     0.026 C 
ATOM     13  C   UNL A   1      33.580  26.419  25.833  1.00  0.00     0.004 C 
BRANCH   9  14
ATOM     14  C   UNL A   1      32.822  22.511  24.371  1.00  0.00     0.215 A 
ATOM     15  C   UNL A   1      32.888  20.172  24.828  1.00  0.00     0.299 A 
ATOM     16  N   UNL A   1      32.369  19.834  23.638  1.00  0.00    -0.196 NA
ATOM     17  C   UNL A   1      33.174  21.473  25.212  1.00  0.00     0.372 A 
ATOM     18  C   UNL A   1      32.115  20.864  22.842  1.00  0.00     0.228 A 
ATOM     19  N   UNL A   1      32.302  22.154  23.166  1.00  0.00    -0.212 NA
BRANCH  15  20
ATOM     20  O   UNL A   1      33.170  19.109  25.654  1.00  0.00    -0.476 OA
ATOM     21  C   UNL A   1      32.612  17.923  25.084  1.00  0.00     0.280 C 
ENDBRANCH  15  20
BRANCH  17  22
ATOM     22  N   UNL A   1      33.864  21.621  26.446  1.00  0.00     0.072 N 
ATOM     23  O   UNL A   1      35.101  21.650  26.422  1.00  0.00    -0.258 OA
ATOM     24  O   UNL A   1      33.172  21.749  27.468  1.00  0.00    -0.258 OA
ENDBRANCH  17  22
ENDBRANCH   9  14
ENDBRANCH   7   8
ENDBRANCH   4   7
ENDBRANCH   2   3
ENDBRANCH   1   2
BRANCH   1  25
ATOM     25  C   UNL A   1      32.019  30.456  26.115  1.00  0.00     0.118 C 
BRANCH  25  26
ATOM     26  N   UNL A   1      32.043  31.881  26.372  1.00  0.00    -0.352 N 
ATOM     27  C   UNL A   1      32.803  32.608  27.254  1.00  0.00     0.251 C 
ATOM     28  H   UNL A   1      31.416  32.412  25.829  1.00  0.00     0.163 HD
ATOM     29  O   UNL A   1      32.368  33.700  27.618  1.00  0.00    -0.269 OA
BRANCH  27  30
ATOM     30  C   UNL A   1      34.109  32.125  27.776  1.00  0.00     0.039 A 
ATOM     31  C   UNL A   1      34.217  30.777  28.146  1.00  0.00     0.014 A 
ATOM     32  C   UNL A   1      35.176  32.985  28.051  1.00  0.00     0.014 A 
ATOM     33  C   UNL A   1      35.365  30.305  28.796  1.00  0.00     0.010 A 
ATOM     34  C   UNL A   1      36.356  32.495  28.619  1.00  0.00     0.010 A 
ATOM     35  C   UNL A   1      36.450  31.160  29.043  1.00  0.00    -0.014 A 
BRANCH  35  36
ATOM     36  C   UNL A   1      37.633  30.711  29.834  1.00  0.00     0.031 A 
ATOM     37  C   UNL A   1      38.655  29.795  29.201  1.00  0.00     0.074 A 
ATOM     38  C   UNL A   1      37.790  31.094  31.117  1.00  0.00     0.049 A 
ATOM     39  N   UNL A   1      39.689  29.199  29.740  1.00  0.00    -0.248 NA
ATOM     40  C   UNL A   1      38.463  29.485  27.777  1.00  0.00     0.031 C 
ATOM     41  C   UNL A   1      36.882  31.973  31.854  1.00  0.00     0.029 A 
ATOM     42  N   UNL A   1      38.768  30.786  32.031  1.00  0.00    -0.354 N 
ATOM     43  C   UNL A   1      40.250  28.420  28.730  1.00  0.00     0.074 A 
ATOM     44  C   UNL A   1      39.401  28.573  27.569  1.00  0.00     0.031 C 
ATOM     45  C   UNL A   1      37.359  32.155  33.097  1.00  0.00     0.029 A 
ATOM     46  C   UNL A   1      38.577  31.366  33.264  1.00  0.00     0.049 A 
ATOM     47  H   UNL A   1      39.536  30.206  31.824  1.00  0.00     0.167 HD
ATOM     48  C   UNL A   1      41.382  27.668  28.755  1.00  0.00     0.034 A 
ATOM     49  C   UNL A   1      39.290  31.265  34.405  1.00  0.00     0.034 A 
ATOM     50  C   UNL A   1      42.240  27.550  29.910  1.00  0.00     0.049 A 
ATOM     51  C   UNL A   1      40.527  30.398  34.424  1.00  0.00     0.074 A 
ATOM     52  C   UNL A   1      43.430  26.851  30.034  1.00  0.00     0.029 A 
ATOM     53  N   UNL A   1      42.005  28.148  31.142  1.00  0.00    -0.354 N 
ATOM     54  N   UNL A   1      41.047  29.678  33.458  1.00  0.00    -0.248 NA
ATOM     55  C   UNL A   1      41.274  30.339  35.687  1.00  0.00     0.031 C 
ATOM     56  C   UNL A   1      43.878  26.973  31.353  1.00  0.00     0.029 A 
ATOM     57  C   UNL A   1      43.011  27.813  32.035  1.00  0.00     0.049 A 
ATOM     58  H   UNL A   1      41.235  28.724  31.351  1.00  0.00     0.167 HD
ATOM     59  C   UNL A   1      42.204  29.111  33.989  1.00  0.00     0.074 A 
ATOM     60  C   UNL A   1      42.307  29.579  35.355  1.00  0.00     0.031 C 
ATOM     61  C   UNL A   1      43.103  28.283  33.397  1.00  0.00     0.034 A 
BRANCH  48  62
ATOM     62  C   UNL A   1      41.734  26.899  27.501  1.00  0.00     0.023 A 
ATOM     63  C   UNL A   1      41.514  25.514  27.396  1.00  0.00     0.031 A 
ATOM     64  C   UNL A   1      42.339  27.549  26.411  1.00  0.00     0.131 A 
ATOM     65  C   UNL A   1      41.982  24.811  26.276  1.00  0.00     0.055 A 
ATOM     66  C   UNL A   1      42.716  26.858  25.257  1.00  0.00     0.041 A 
ATOM     67  F   UNL A   1      42.593  28.867  26.455  1.00  0.00    -0.206 F 
ATOM     68  C   UNL A   1      42.557  25.478  25.192  1.00  0.00     0.022 A 
BRANCH  65  69
ATOM     69  S   UNL A   1      41.985  22.998  26.331  1.00  0.00     0.124 S 
ATOM     70  O   UNL A   1      40.556  22.707  26.437  1.00  0.00    -0.237 OA
ATOM     71  O   UNL A   1      42.616  22.645  25.063  1.00  0.00    -0.237 OA
ATOM     72  O   UNL A   1      42.766  22.691  27.525  1.00  0.00    -0.744 OA
ENDBRANCH  65  69
ENDBRANCH  48  62
BRANCH  49  73
ATOM     73  C   UNL A   1      38.858  31.991  35.633  1.00  0.00     0.023 A 
ATOM     74  C   UNL A   1      38.228  31.311  36.687  1.00  0.00     0.031 A 
ATOM     75  C   UNL A   1      39.031  33.381  35.755  1.00  0.00     0.131 A 
ATOM     76  C   UNL A   1      37.754  32.028  37.798  1.00  0.00     0.055 A 
ATOM     77  C   UNL A   1      38.605  34.081  36.885  1.00  0.00     0.041 A 
ATOM     78  F   UNL A   1      39.630  34.078  34.777  1.00  0.00    -0.206 F 
ATOM     79  C   UNL A   1      37.950  33.405  37.910  1.00  0.00     0.022 A 
BRANCH  76  80
ATOM     80  S   UNL A   1      36.802  31.140  39.061  1.00  0.00     0.124 S 
ATOM     81  O   UNL A   1      36.684  29.813  38.466  1.00  0.00    -0.237 OA
ATOM     82  O   UNL A   1      37.673  31.246  40.227  1.00  0.00    -0.237 OA
ATOM     83  O   UNL A   1      35.557  31.900  39.146  1.00  0.00    -0.744 OA
ENDBRANCH  76  80
ENDBRANCH  49  73
BRANCH  61  84
ATOM     84  C   UNL A   1      44.308  27.881  34.212  1.00  0.00     0.023 A 
ATOM     85  C   UNL A   1      44.310  26.730  35.020  1.00  0.00     0.031 A 
ATOM     86  C   UNL A   1      45.473  28.668  34.181  1.00  0.00     0.131 A 
ATOM     87  C   UNL A   1      45.434  26.429  35.805  1.00  0.00     0.055 A 
ATOM     88  C   UNL A   1      46.609  28.332  34.918  1.00  0.00     0.041 A 
ATOM     89  F   UNL A   1      45.528  29.778  33.428  1.00  0.00    -0.206 F 
ATOM     90  C   UNL A   1      46.590  27.213  35.746  1.00  0.00     0.022 A 
BRANCH  87  91
ATOM     91  S   UNL A   1      45.337  25.044  36.972  1.00  0.00     0.124 S 
ATOM     92  O   UNL A   1      44.357  24.174  36.329  1.00  0.00    -0.237 OA
ATOM     93  O   UNL A   1      46.711  24.554  36.990  1.00  0.00    -0.237 OA
ATOM     94  O   UNL A   1      44.887  25.672  38.213  1.00  0.00    -0.744 OA
ENDBRANCH  87  91
ENDBRANCH  61  84
ENDBRANCH  35  36
ENDBRANCH  27  30
ENDBRANCH  25  26
ENDBRANCH   1  25
TORSDOF 17
ENDMDL
MODEL 2
REMARK VINA RESULT:     -11.8      5.002     10.131
REMARK SMILES COc1ncnc(N2CCCC[C@H]2CC(=O)NCCCNC(=O)c2ccc(-c3c4nc(c(-c5cc(S(=O)(=O)[O-])ccc5F)c5ccc([nH]5)c(-c5cc(S(=O)(=O)[O-])ccc5F)c5nc(c(-c6cc(S(=O)(=O)[O-])ccc6F)c6ccc3[nH]6)C=C5)C=C4)cc2)c1[N+](=O)[O-]
REMARK SMILES IDX 19 1 18 2 17 3 15 4 16 5 14 7 13 8 8 9 9 10 10 11 12 12
REMARK SMILES IDX 11 13 7 14 3 15 4 16 87 17 5 18 6 19 2 20 1 21 88 22 89 23
REMARK SMILES IDX 90 24 20 25 21 26 22 27 23 29 24 30 25 31 86 32 26 33 85 34
REMARK SMILES IDX 27 35 28 36 29 37 79 38 30 39 84 40 78 41 80 42 31 43 83 44
REMARK SMILES IDX 77 45 76 46 32 48 64 49 44 50 63 51 45 52 48 53 62 54 81 55
REMARK SMILES IDX 46 56 47 57 61 59 82 60 49 61 33 62 34 63 42 64 35 65 41 66
REMARK SMILES IDX 43 67 40 68 36 69 37 70 38 71 39 72 65 73 66 74 74 75 67 76
REMARK SMILES IDX 73 77 75 78 72 79 68 80 69 81 70 82 71 83 50 84 51 85 59 86
REMARK SMILES IDX 52 87 58 88 60 89 57 90 53 91 54 92 55 93 56 94
REMARK H PARENT 17 6 21 28 80 47 48 58
REMARK Flexibility Score: inf
ROOT
ATOM      1  C   UNL A   1      34.561  21.424  26.007  1.00  0.00     0.042 C 
ENDROOT
BRANCH   1   2
ATOM      2  C   UNL A   1      34.172  21.930  27.400  1.00  0.00     0.117 C 
BRANCH   2   3
ATOM      3  N   UNL A   1      32.748  22.213  27.543  1.00  0.00    -0.356 N 
ATOM      4  C   UNL A   1      31.987  23.285  27.178  1.00  0.00     0.222 C 
ATOM      5  O   UNL A   1      30.780  23.223  27.410  1.00  0.00    -0.275 OA
ATOM      6  H   UNL A   1      32.241  21.495  27.986  1.00  0.00     0.163 HD
BRANCH   4   7
ATOM      7  C   UNL A   1      32.593  24.466  26.454  1.00  0.00     0.125 C 
BRANCH   7   8
ATOM      8  C   UNL A   1      31.822  25.079  25.260  1.00  0.00     0.093 C 
ATOM      9  N   UNL A   1      32.362  26.327  24.695  1.00  0.00    -0.347 N 
ATOM     10  C   UNL A   1      33.672  26.201  24.032  1.00  0.00     0.118 C 
ATOM     11  C   UNL A   1      33.704  25.107  22.974  1.00  0.00     0.022 C 
ATOM     12  C   UNL A   1      31.725  24.054  24.103  1.00  0.00     0.026 C 
ATOM     13  C   UNL A   1      33.071  23.802  23.430  1.00  0.00     0.004 C 
BRANCH   9  14
ATOM     14  C   UNL A   1      31.874  27.617  24.843  1.00  0.00     0.215 A 
ATOM     15  C   UNL A   1      31.477  29.764  25.801  1.00  0.00     0.299 A 
ATOM     16  N   UNL A   1      30.848  30.233  24.713  1.00  0.00    -0.196 NA
ATOM     17  C   UNL A   1      31.953  28.469  25.929  1.00  0.00     0.372 A 
ATOM     18  C   UNL A   1      30.736  29.352  23.726  1.00  0.00     0.228 A 
ATOM     19  N   UNL A   1      31.230  28.103  23.748  1.00  0.00    -0.212 NA
BRANCH  15  20
ATOM     20  O   UNL A   1      31.583  30.665  26.834  1.00  0.00    -0.476 OA
ATOM     21  C   UNL A   1      31.429  31.987  26.311  1.00  0.00     0.280 C 
ENDBRANCH  15  20
BRANCH  17  22
ATOM     22  N   UNL A   1      32.450  28.111  27.212  1.00  0.00     0.072 N 
ATOM     23  O   UNL A   1      33.649  28.309  27.447  1.00  0.00    -0.258 OA
ATOM     24  O   UNL A   1      31.633  27.657  28.027  1.00  0.00    -0.258 OA
ENDBRANCH  17  22
ENDBRANCH   9  14
ENDBRANCH   7   8
ENDBRANCH   4   7
ENDBRANCH   2   3
ENDBRANCH   1   2
BRANCH   1  25
ATOM     25  C   UNL A   1      35.886  21.981  25.492  1.00  0.00     0.118 C 
BRANCH  25  26
ATOM     26  N   UNL A   1      36.908  20.955  25.513  1.00  0.00    -0.352 N 
ATOM     27  C   UNL A   1      38.270  21.065  25.637  1.00  0.00     0.251 C 
ATOM     28  H   UNL A   1      36.573  20.033  25.424  1.00  0.00     0.163 HD
ATOM     29  O   UNL A   1      38.961  20.146  25.198  1.00  0.00    -0.269 OA
BRANCH  27  30
ATOM     30  C   UNL A   1      38.926  22.240  26.272  1.00  0.00     0.039 A 
ATOM     31  C   UNL A   1      38.407  23.514  26.001  1.00  0.00     0.014 A 
ATOM     32  C   UNL A   1      40.115  22.138  26.998  1.00  0.00     0.014 A 
ATOM     33  C   UNL A   1      39.079  24.664  26.434  1.00  0.00     0.010 A 
ATOM     34  C   UNL A   1      40.738  23.283  27.506  1.00  0.00     0.010 A 
ATOM     35  C   UNL A   1      40.256  24.563  27.191  1.00  0.00    -0.014 A 
BRANCH  35  36
ATOM     36  C   UNL A   1      41.051  25.770  27.564  1.00  0.00     0.031 A 
ATOM     37  C   UNL A   1      40.394  26.892  28.335  1.00  0.00     0.074 A 
ATOM     38  C   UNL A   1      42.344  25.884  27.200  1.00  0.00     0.049 A 
ATOM     39  N   UNL A   1      40.865  28.070  28.660  1.00  0.00    -0.248 NA
ATOM     40  C   UNL A   1      39.007  26.664  28.769  1.00  0.00     0.031 C 
ATOM     41  C   UNL A   1      43.103  24.882  26.454  1.00  0.00     0.029 A 
ATOM     42  N   UNL A   1      43.246  26.900  27.405  1.00  0.00    -0.354 N 
ATOM     43  C   UNL A   1      39.823  28.733  29.306  1.00  0.00     0.074 A 
ATOM     44  C   UNL A   1      38.680  27.847  29.266  1.00  0.00     0.031 C 
ATOM     45  C   UNL A   1      44.362  25.320  26.286  1.00  0.00     0.029 A 
ATOM     46  C   UNL A   1      44.488  26.654  26.865  1.00  0.00     0.049 A 
ATOM     47  H   UNL A   1      43.026  27.726  27.893  1.00  0.00     0.167 HD
ATOM     48  C   UNL A   1      39.823  29.954  29.901  1.00  0.00     0.034 A 
ATOM     49  C   UNL A   1      45.598  27.420  26.827  1.00  0.00     0.034 A 
ATOM     50  C   UNL A   1      40.980  30.816  29.964  1.00  0.00     0.049 A 
ATOM     51  C   UNL A   1      45.570  28.788  27.465  1.00  0.00     0.074 A 
ATOM     52  C   UNL A   1      41.103  32.053  30.576  1.00  0.00     0.029 A 
ATOM     53  N   UNL A   1      42.216  30.532  29.397  1.00  0.00    -0.354 N 
ATOM     54  N   UNL A   1      44.580  29.394  28.080  1.00  0.00    -0.248 NA
ATOM     55  C   UNL A   1      46.811  29.571  27.409  1.00  0.00     0.031 C 
ATOM     56  C   UNL A   1      42.389  32.542  30.326  1.00  0.00     0.029 A 
ATOM     57  C   UNL A   1      43.096  31.579  29.624  1.00  0.00     0.049 A 
ATOM     58  H   UNL A   1      42.435  29.708  28.906  1.00  0.00     0.167 HD
ATOM     59  C   UNL A   1      45.095  30.614  28.515  1.00  0.00     0.074 A 
ATOM     60  C   UNL A   1      46.481  30.652  28.100  1.00  0.00     0.031 C 
ATOM     61  C   UNL A   1      44.477  31.608  29.202  1.00  0.00     0.034 A 
BRANCH  48  62
ATOM     62  C   UNL A   1      38.522  30.433  30.506  1.00  0.00     0.023 A 
ATOM     63  C   UNL A   1      37.605  31.208  29.773  1.00  0.00     0.031 A 
ATOM     64  C   UNL A   1      38.211  30.149  31.849  1.00  0.00     0.131 A 
ATOM     65  C   UNL A   1      36.479  31.752  30.409  1.00  0.00     0.055 A 
ATOM     66  C   UNL A   1      37.038  30.614  32.449  1.00  0.00     0.041 A 
ATOM     67  F   UNL A   1      39.052  29.428  32.608  1.00  0.00    -0.206 F 
ATOM     68  C   UNL A   1      36.174  31.437  31.735  1.00  0.00     0.022 A 
BRANCH  65  69
ATOM     69  S   UNL A   1      35.515  33.012  29.530  1.00  0.00     0.124 S 
ATOM     70  O   UNL A   1      35.399  34.054  30.547  1.00  0.00    -0.237 OA
ATOM     71  O   UNL A   1      36.371  33.326  28.390  1.00  0.00    -0.237 OA
ATOM     72  O   UNL A   1      34.268  32.327  29.205  1.00  0.00    -0.744 OA
ENDBRANCH  65  69
ENDBRANCH  48  62
BRANCH  49  73
ATOM     73  C   UNL A   1      46.834  26.926  26.155  1.00  0.00     0.023 A 
ATOM     74  C   UNL A   1      47.858  26.311  26.892  1.00  0.00     0.031 A 
ATOM     75  C   UNL A   1      47.028  27.096  24.773  1.00  0.00     0.131 A 
ATOM     76  C   UNL A   1      49.048  25.929  26.253  1.00  0.00     0.055 A 
ATOM     77  C   UNL A   1      48.191  26.667  24.132  1.00  0.00     0.041 A 
ATOM     78  F   UNL A   1      46.078  27.675  24.020  1.00  0.00    -0.206 F 
ATOM     79  C   UNL A   1      49.216  26.091  24.877  1.00  0.00     0.022 A 
BRANCH  76  80
ATOM     80  S   UNL A   1      50.410  25.289  27.266  1.00  0.00     0.124 S 
ATOM     81  O   UNL A   1      49.770  24.174  27.954  1.00  0.00    -0.237 OA
ATOM     82  O   UNL A   1      51.400  24.937  26.254  1.00  0.00    -0.237 OA
ATOM     83  O   UNL A   1      50.766  26.425  28.113  1.00  0.00    -0.744 OA
ENDBRANCH  76  80
ENDBRANCH  49  73
BRANCH  61  84
ATOM     84  C   UNL A   1      45.320  32.797  29.598  1.00  0.00     0.023 A 
ATOM     85  C   UNL A   1      45.434  33.934  28.780  1.00  0.00     0.031 A 
ATOM     86  C   UNL A   1      46.023  32.786  30.816  1.00  0.00     0.131 A 
ATOM     87  C   UNL A   1      46.276  34.990  29.163  1.00  0.00     0.055 A 
ATOM     88  C   UNL A   1      46.812  33.863  31.221  1.00  0.00     0.041 A 
ATOM     89  F   UNL A   1      45.951  31.726  31.638  1.00  0.00    -0.206 F 
ATOM     90  C   UNL A   1      46.952  34.969  30.387  1.00  0.00     0.022 A 
BRANCH  87  91
ATOM     91  S   UNL A   1      46.544  36.357  28.003  1.00  0.00     0.124 S 
ATOM     92  O   UNL A   1      45.841  37.455  28.659  1.00  0.00    -0.237 OA
ATOM     93  O   UNL A   1      47.999  36.460  27.971  1.00  0.00    -0.237 OA
ATOM     94  O   UNL A   1      45.930  35.881  26.764  1.00  0.00    -0.744 OA
ENDBRANCH  87  91
ENDBRANCH  61  84
ENDBRANCH  35  36
ENDBRANCH  27  30
ENDBRANCH  25  26
ENDBRANCH   1  25
TORSDOF 17
ENDMDL
MODEL 3
REMARK VINA RESULT:     -11.7      4.993      8.352
REMARK SMILES COc1ncnc(N2CCCC[C@H]2CC(=O)NCCCNC(=O)c2ccc(-c3c4nc(c(-c5cc(S(=O)(=O)[O-])ccc5F)c5ccc([nH]5)c(-c5cc(S(=O)(=O)[O-])ccc5F)c5nc(c(-c6cc(S(=O)(=O)[O-])ccc6F)c6ccc3[nH]6)C=C5)C=C4)cc2)c1[N+](=O)[O-]
REMARK SMILES IDX 19 1 18 2 17 3 15 4 16 5 14 7 13 8 8 9 9 10 10 11 12 12
REMARK SMILES IDX 11 13 7 14 3 15 4 16 87 17 5 18 6 19 2 20 1 21 88 22 89 23
REMARK SMILES IDX 90 24 20 25 21 26 22 27 23 29 24 30 25 31 86 32 26 33 85 34
REMARK SMILES IDX 27 35 28 36 29 37 79 38 30 39 84 40 78 41 80 42 31 43 83 44
REMARK SMILES IDX 77 45 76 46 32 48 64 49 44 50 63 51 45 52 48 53 62 54 81 55
REMARK SMILES IDX 46 56 47 57 61 59 82 60 49 61 33 62 34 63 42 64 35 65 41 66
REMARK SMILES IDX 43 67 40 68 36 69 37 70 38 71 39 72 65 73 66 74 74 75 67 76
REMARK SMILES IDX 73 77 75 78 72 79 68 80 69 81 70 82 71 83 50 84 51 85 59 86
REMARK SMILES IDX 52 87 58 88 60 89 57 90 53 91 54 92 55 93 56 94
REMARK H PARENT 17 6 21 28 80 47 48 58
REMARK Flexibility Score: inf
ROOT
ATOM      1  C   UNL A   1      36.606  19.608  24.913  1.00  0.00     0.042 C 
ENDROOT
BRANCH   1   2
ATOM      2  C   UNL A   1      35.312  20.430  24.902  1.00  0.00     0.117 C 
BRANCH   2   3
ATOM      3  N   UNL A   1      34.951  20.971  26.208  1.00  0.00    -0.356 N 
ATOM      4  C   UNL A   1      34.603  22.226  26.613  1.00  0.00     0.222 C 
ATOM      5  O   UNL A   1      34.318  22.375  27.802  1.00  0.00    -0.275 OA
ATOM      6  H   UNL A   1      34.961  20.305  26.933  1.00  0.00     0.163 HD
BRANCH   4   7
ATOM      7  C   UNL A   1      34.503  23.369  25.627  1.00  0.00     0.125 C 
BRANCH   7   8
ATOM      8  C   UNL A   1      33.113  23.995  25.357  1.00  0.00     0.093 C 
ATOM      9  N   UNL A   1      33.031  24.973  24.259  1.00  0.00    -0.347 N 
ATOM     10  C   UNL A   1      33.258  24.424  22.911  1.00  0.00     0.118 C 
ATOM     11  C   UNL A   1      32.372  23.228  22.595  1.00  0.00     0.022 C 
ATOM     12  C   UNL A   1      32.074  22.885  25.064  1.00  0.00     0.026 C 
ATOM     13  C   UNL A   1      32.308  22.205  23.718  1.00  0.00     0.004 C 
BRANCH   9  14
ATOM     14  C   UNL A   1      32.923  26.353  24.347  1.00  0.00     0.215 A 
ATOM     15  C   UNL A   1      32.128  28.498  25.016  1.00  0.00     0.299 A 
ATOM     16  N   UNL A   1      33.120  29.158  24.400  1.00  0.00    -0.196 NA
ATOM     17  C   UNL A   1      31.962  27.123  24.975  1.00  0.00     0.372 A 
ATOM     18  C   UNL A   1      33.975  28.376  23.754  1.00  0.00     0.228 A 
ATOM     19  N   UNL A   1      33.921  27.035  23.722  1.00  0.00    -0.212 NA
BRANCH  15  20
ATOM     20  O   UNL A   1      31.228  29.303  25.676  1.00  0.00    -0.476 OA
ATOM     21  C   UNL A   1      31.936  30.386  26.282  1.00  0.00     0.280 C 
ENDBRANCH  15  20
BRANCH  17  22
ATOM     22  N   UNL A   1      30.766  26.621  25.555  1.00  0.00     0.072 N 
ATOM     23  O   UNL A   1      30.785  26.318  26.755  1.00  0.00    -0.258 OA
ATOM     24  O   UNL A   1      29.767  26.557  24.823  1.00  0.00    -0.258 OA
ENDBRANCH  17  22
ENDBRANCH   9  14
ENDBRANCH   7   8
ENDBRANCH   4   7
ENDBRANCH   2   3
ENDBRANCH   1   2
BRANCH   1  25
ATOM     25  C   UNL A   1      37.869  20.442  25.102  1.00  0.00     0.118 C 
BRANCH  25  26
ATOM     26  N   UNL A   1      38.930  19.631  25.663  1.00  0.00    -0.352 N 
ATOM     27  C   UNL A   1      40.160  19.998  26.150  1.00  0.00     0.251 C 
ATOM     28  H   UNL A   1      38.741  18.666  25.702  1.00  0.00     0.163 HD
ATOM     29  O   UNL A   1      41.048  19.145  26.163  1.00  0.00    -0.269 OA
BRANCH  27  30
ATOM     30  C   UNL A   1      40.449  21.369  26.651  1.00  0.00     0.039 A 
ATOM     31  C   UNL A   1      39.782  22.447  26.053  1.00  0.00     0.014 A 
ATOM     32  C   UNL A   1      41.459  21.634  27.580  1.00  0.00     0.014 A 
ATOM     33  C   UNL A   1      40.134  23.766  26.367  1.00  0.00     0.010 A 
ATOM     34  C   UNL A   1      41.749  22.949  27.959  1.00  0.00     0.010 A 
ATOM     35  C   UNL A   1      41.125  24.034  27.324  1.00  0.00    -0.014 A 
BRANCH  35  36
ATOM     36  C   UNL A   1      41.597  25.424  27.590  1.00  0.00     0.031 A 
ATOM     37  C   UNL A   1      42.970  25.852  27.124  1.00  0.00     0.074 A 
ATOM     38  C   UNL A   1      40.824  26.299  28.263  1.00  0.00     0.049 A 
ATOM     39  N   UNL A   1      43.618  26.968  27.348  1.00  0.00    -0.248 NA
ATOM     40  C   UNL A   1      43.725  24.874  26.326  1.00  0.00     0.031 C 
ATOM     41  C   UNL A   1      39.481  26.022  28.773  1.00  0.00     0.029 A 
ATOM     42  N   UNL A   1      41.059  27.599  28.641  1.00  0.00    -0.354 N 
ATOM     43  C   UNL A   1      44.865  26.813  26.746  1.00  0.00     0.074 A 
ATOM     44  C   UNL A   1      44.901  25.470  26.207  1.00  0.00     0.031 C 
ATOM     45  C   UNL A   1      39.002  27.124  29.372  1.00  0.00     0.029 A 
ATOM     46  C   UNL A   1      40.019  28.171  29.337  1.00  0.00     0.049 A 
ATOM     47  H   UNL A   1      41.894  28.077  28.432  1.00  0.00     0.167 HD
ATOM     48  C   UNL A   1      45.878  27.711  26.628  1.00  0.00     0.034 A 
ATOM     49  C   UNL A   1      39.903  29.392  29.898  1.00  0.00     0.034 A 
ATOM     50  C   UNL A   1      45.818  29.059  27.141  1.00  0.00     0.049 A 
ATOM     51  C   UNL A   1      41.051  30.366  29.786  1.00  0.00     0.074 A 
ATOM     52  C   UNL A   1      46.767  30.063  27.042  1.00  0.00     0.029 A 
ATOM     53  N   UNL A   1      44.749  29.595  27.847  1.00  0.00    -0.354 N 
ATOM     54  N   UNL A   1      42.217  30.205  29.205  1.00  0.00    -0.248 NA
ATOM     55  C   UNL A   1      40.862  31.687  30.399  1.00  0.00     0.031 C 
ATOM     56  C   UNL A   1      46.299  31.182  27.741  1.00  0.00     0.029 A 
ATOM     57  C   UNL A   1      45.026  30.904  28.211  1.00  0.00     0.049 A 
ATOM     58  H   UNL A   1      43.916  29.115  28.060  1.00  0.00     0.167 HD
ATOM     59  C   UNL A   1      42.884  31.420  29.353  1.00  0.00     0.074 A 
ATOM     60  C   UNL A   1      41.987  32.303  30.068  1.00  0.00     0.031 C 
ATOM     61  C   UNL A   1      44.124  31.775  28.928  1.00  0.00     0.034 A 
BRANCH  48  62
ATOM     62  C   UNL A   1      47.142  27.247  25.939  1.00  0.00     0.023 A 
ATOM     63  C   UNL A   1      48.167  26.586  26.639  1.00  0.00     0.031 A 
ATOM     64  C   UNL A   1      47.348  27.508  24.572  1.00  0.00     0.131 A 
ATOM     65  C   UNL A   1      49.382  26.298  26.000  1.00  0.00     0.055 A 
ATOM     66  C   UNL A   1      48.523  27.131  23.918  1.00  0.00     0.041 A 
ATOM     67  F   UNL A   1      46.416  28.151  23.851  1.00  0.00    -0.206 F 
ATOM     68  C   UNL A   1      49.557  26.541  24.636  1.00  0.00     0.022 A 
BRANCH  65  69
ATOM     69  S   UNL A   1      50.787  25.761  27.014  1.00  0.00     0.124 S 
ATOM     70  O   UNL A   1      50.366  24.419  27.411  1.00  0.00    -0.237 OA
ATOM     71  O   UNL A   1      51.900  25.826  26.071  1.00  0.00    -0.237 OA
ATOM     72  O   UNL A   1      50.826  26.740  28.095  1.00  0.00    -0.744 OA
ENDBRANCH  65  69
ENDBRANCH  48  62
BRANCH  49  73
ATOM     73  C   UNL A   1      38.659  29.772  30.627  1.00  0.00     0.023 A 
ATOM     74  C   UNL A   1      37.686  30.581  30.019  1.00  0.00     0.031 A 
ATOM     75  C   UNL A   1      38.442  29.366  31.956  1.00  0.00     0.131 A 
ATOM     76  C   UNL A   1      36.563  30.996  30.752  1.00  0.00     0.055 A 
ATOM     77  C   UNL A   1      37.298  29.738  32.664  1.00  0.00     0.041 A 
ATOM     78  F   UNL A   1      39.339  28.589  32.583  1.00  0.00    -0.206 F 
ATOM     79  C   UNL A   1      36.356  30.569  32.065  1.00  0.00     0.022 A 
BRANCH  76  80
ATOM     80  S   UNL A   1      35.414  32.172  29.987  1.00  0.00     0.124 S 
ATOM     81  O   UNL A   1      34.971  31.432  28.811  1.00  0.00    -0.237 OA
ATOM     82  O   UNL A   1      34.422  32.357  31.041  1.00  0.00    -0.237 OA
ATOM     83  O   UNL A   1      36.252  33.338  29.713  1.00  0.00    -0.744 OA
ENDBRANCH  76  80
ENDBRANCH  49  73
BRANCH  61  84
ATOM     84  C   UNL A   1      44.555  33.200  29.178  1.00  0.00     0.023 A 
ATOM     85  C   UNL A   1      44.152  34.257  28.343  1.00  0.00     0.031 A 
ATOM     86  C   UNL A   1      45.388  33.502  30.270  1.00  0.00     0.131 A 
ATOM     87  C   UNL A   1      44.627  35.556  28.582  1.00  0.00     0.055 A 
ATOM     88  C   UNL A   1      45.809  34.805  30.538  1.00  0.00     0.041 A 
ATOM     89  F   UNL A   1      45.805  32.532  31.101  1.00  0.00    -0.206 F 
ATOM     90  C   UNL A   1      45.438  35.840  29.684  1.00  0.00     0.022 A 
BRANCH  87  91
ATOM     91  S   UNL A   1      44.237  36.861  27.383  1.00  0.00     0.124 S 
ATOM     92  O   UNL A   1      43.468  36.132  26.381  1.00  0.00    -0.237 OA
ATOM     93  O   UNL A   1      43.488  37.815  28.193  1.00  0.00    -0.237 OA
ATOM     94  O   UNL A   1      45.552  37.323  26.940  1.00  0.00    -0.744 OA
ENDBRANCH  87  91
ENDBRANCH  61  84
ENDBRANCH  35  36
ENDBRANCH  27  30
ENDBRANCH  25  26
ENDBRANCH   1  25
TORSDOF 17
ENDMDL
