MODEL 1
REMARK VINA RESULT:     -11.8      0.000      0.000
REMARK SMILES Cn1ccnc1[C@@H]1[C@@H](C(=O)NCCCNC(=O)c2ccc(-c3c4nc(c(-c5cc(S(=O)(=O)[O-])ccc5F)c5ccc([nH]5)c(-c5cc(S(=O)(=O)[O-])ccc5F)c5nc(c(-c6cc(S(=O)(=O)[O-])ccc6F)c6ccc3[nH]6)C=C5)C=C4)cc2)CC(=O)N1CCCOC1CCCCC1
REMARK SMILES IDX 12 1 11 2 9 3 10 4 8 6 7 7 84 8 81 9 82 10 83 11 6 12 1 13
REMARK SMILES IDX 2 14 3 15 4 16 5 17 85 18 86 19 87 20 88 21 89 22 90 23
REMARK SMILES IDX 94 24 91 25 93 26 92 27 13 28 14 29 15 30 16 31 17 33 18 34
REMARK SMILES IDX 19 35 80 36 20 37 79 38 21 39 22 40 23 41 73 42 24 43 78 44
REMARK SMILES IDX 72 45 74 46 25 47 77 48 71 49 70 50 26 52 58 53 38 54 57 55
REMARK SMILES IDX 39 56 42 57 56 58 75 59 40 60 41 61 55 63 76 64 43 65 27 66
REMARK SMILES IDX 28 67 36 68 29 69 35 70 37 71 34 72 30 73 31 74 32 75 33 76
REMARK SMILES IDX 59 77 60 78 68 79 61 80 67 81 69 82 66 83 62 84 63 85 64 86
REMARK SMILES IDX 65 87 44 88 45 89 53 90 46 91 52 92 54 93 51 94 47 95 48 96
REMARK SMILES IDX 49 97 50 98
REMARK H PARENT 11 5 15 32 74 51 42 62
REMARK Flexibility Score: inf
ROOT
ATOM      1  C   UNL A   1      31.471  30.899  25.759  1.00  0.00     0.117 C 
ENDROOT
BRANCH   1   2
ATOM      2  N   UNL A   1      31.984  29.657  26.321  1.00  0.00    -0.356 N 
ATOM      3  C   UNL A   1      32.441  28.534  25.718  1.00  0.00     0.226 C 
ATOM      4  O   UNL A   1      32.822  27.600  26.424  1.00  0.00    -0.275 OA
ATOM      5  H   UNL A   1      32.002  29.630  27.305  1.00  0.00     0.163 HD
BRANCH   3   6
ATOM      6  C   UNL A   1      32.478  28.407  24.221  1.00  0.00     0.118 C 
ATOM      7  C   UNL A   1      31.372  27.488  23.711  1.00  0.00     0.164 C 
ATOM      8  N   UNL A   1      31.983  26.672  22.671  1.00  0.00    -0.332 N 
ATOM      9  C   UNL A   1      33.786  27.869  23.680  1.00  0.00     0.116 C 
ATOM     10  C   UNL A   1      33.372  26.910  22.598  1.00  0.00     0.224 C 
ATOM     11  O   UNL A   1      34.157  26.349  21.866  1.00  0.00    -0.275 OA
BRANCH   7  12
ATOM     12  C   UNL A   1      30.081  28.220  23.442  1.00  0.00     0.132 A 
ATOM     13  C   UNL A   1      28.195  26.529  23.912  1.00  0.00     0.151 C 
ATOM     14  N   UNL A   1      28.769  27.789  23.507  1.00  0.00    -0.336 N 
ATOM     15  C   UNL A   1      27.969  28.807  23.040  1.00  0.00     0.107 A 
ATOM     16  C   UNL A   1      28.823  29.801  22.653  1.00  0.00     0.131 A 
ATOM     17  N   UNL A   1      30.111  29.423  22.881  1.00  0.00    -0.239 NA
ENDBRANCH   7  12
BRANCH   8  18
ATOM     18  C   UNL A   1      31.603  25.308  22.243  1.00  0.00     0.122 C 
BRANCH  18  19
ATOM     19  C   UNL A   1      31.279  24.127  23.164  1.00  0.00     0.050 C 
BRANCH  19  20
ATOM     20  C   UNL A   1      32.310  23.264  23.892  1.00  0.00     0.162 C 
BRANCH  20  21
ATOM     21  O   UNL A   1      33.107  23.880  24.906  1.00  0.00    -0.378 OA
BRANCH  21  22
ATOM     22  C   UNL A   1      34.491  24.028  24.566  1.00  0.00     0.118 C 
ATOM     23  C   UNL A   1      35.299  23.845  25.835  1.00  0.00     0.032 C 
ATOM     24  C   UNL A   1      34.909  22.997  23.518  1.00  0.00     0.032 C 
ATOM     25  C   UNL A   1      36.793  23.701  25.700  1.00  0.00     0.003 C 
ATOM     26  C   UNL A   1      36.428  23.008  23.320  1.00  0.00     0.003 C 
ATOM     27  C   UNL A   1      37.167  22.713  24.622  1.00  0.00     0.000 C 
ENDBRANCH  21  22
ENDBRANCH  20  21
ENDBRANCH  19  20
ENDBRANCH  18  19
ENDBRANCH   8  18
ENDBRANCH   3   6
ENDBRANCH   1   2
BRANCH   1  28
ATOM     28  C   UNL A   1      31.362  31.996  26.783  1.00  0.00     0.042 C 
BRANCH  28  29
ATOM     29  C   UNL A   1      32.715  32.495  27.231  1.00  0.00     0.118 C 
BRANCH  29  30
ATOM     30  N   UNL A   1      32.685  33.890  27.651  1.00  0.00    -0.352 N 
ATOM     31  C   UNL A   1      33.451  34.524  28.600  1.00  0.00     0.251 C 
ATOM     32  H   UNL A   1      32.022  34.456  27.194  1.00  0.00     0.163 HD
ATOM     33  O   UNL A   1      33.147  35.649  28.984  1.00  0.00    -0.269 OA
BRANCH  31  34
ATOM     34  C   UNL A   1      34.614  33.813  29.167  1.00  0.00     0.039 A 
ATOM     35  C   UNL A   1      35.901  34.265  28.883  1.00  0.00     0.014 A 
ATOM     36  C   UNL A   1      34.417  32.740  30.037  1.00  0.00     0.014 A 
ATOM     37  C   UNL A   1      36.988  33.684  29.540  1.00  0.00     0.010 A 
ATOM     38  C   UNL A   1      35.477  32.269  30.795  1.00  0.00     0.010 A 
ATOM     39  C   UNL A   1      36.780  32.715  30.535  1.00  0.00    -0.014 A 
BRANCH  39  40
ATOM     40  C   UNL A   1      37.907  32.108  31.286  1.00  0.00     0.031 A 
ATOM     41  C   UNL A   1      38.701  30.996  30.649  1.00  0.00     0.074 A 
ATOM     42  C   UNL A   1      38.172  32.506  32.545  1.00  0.00     0.049 A 
ATOM     43  N   UNL A   1      39.660  30.267  31.158  1.00  0.00    -0.248 NA
ATOM     44  C   UNL A   1      38.339  30.627  29.270  1.00  0.00     0.031 C 
ATOM     45  C   UNL A   1      37.438  33.538  33.282  1.00  0.00     0.029 A 
ATOM     46  N   UNL A   1      39.131  32.088  33.433  1.00  0.00    -0.354 N 
ATOM     47  C   UNL A   1      39.996  29.346  30.172  1.00  0.00     0.074 A 
ATOM     48  C   UNL A   1      39.085  29.554  29.070  1.00  0.00     0.031 C 
ATOM     49  C   UNL A   1      37.997  33.699  34.492  1.00  0.00     0.029 A 
ATOM     50  C   UNL A   1      39.093  32.748  34.640  1.00  0.00     0.049 A 
ATOM     51  H   UNL A   1      39.784  31.382  33.225  1.00  0.00     0.167 HD
ATOM     52  C   UNL A   1      41.000  28.436  30.169  1.00  0.00     0.034 A 
ATOM     53  C   UNL A   1      39.852  32.593  35.744  1.00  0.00     0.034 A 
ATOM     54  C   UNL A   1      41.917  28.264  31.266  1.00  0.00     0.049 A 
ATOM     55  C   UNL A   1      40.950  31.559  35.725  1.00  0.00     0.074 A 
ATOM     56  C   UNL A   1      43.006  27.415  31.354  1.00  0.00     0.029 A 
ATOM     57  N   UNL A   1      41.853  28.955  32.470  1.00  0.00    -0.354 N 
ATOM     58  N   UNL A   1      41.292  30.732  34.762  1.00  0.00    -0.248 NA
ATOM     59  C   UNL A   1      41.773  31.444  36.936  1.00  0.00     0.031 C 
ATOM     60  C   UNL A   1      43.555  27.539  32.633  1.00  0.00     0.029 A 
ATOM     61  C   UNL A   1      42.863  28.527  33.317  1.00  0.00     0.049 A 
ATOM     62  H   UNL A   1      41.187  29.646  32.690  1.00  0.00     0.167 HD
ATOM     63  C   UNL A   1      42.392  30.026  35.242  1.00  0.00     0.074 A 
ATOM     64  C   UNL A   1      42.664  30.536  36.569  1.00  0.00     0.031 C 
ATOM     65  C   UNL A   1      43.115  29.047  34.640  1.00  0.00     0.034 A 
BRANCH  52  66
ATOM     66  C   UNL A   1      41.139  27.555  28.950  1.00  0.00     0.023 A 
ATOM     67  C   UNL A   1      42.148  27.768  27.995  1.00  0.00     0.031 A 
ATOM     68  C   UNL A   1      40.231  26.506  28.723  1.00  0.00     0.131 A 
ATOM     69  C   UNL A   1      42.180  26.998  26.823  1.00  0.00     0.055 A 
ATOM     70  C   UNL A   1      40.322  25.685  27.597  1.00  0.00     0.041 A 
ATOM     71  F   UNL A   1      39.229  26.269  29.584  1.00  0.00    -0.206 F 
ATOM     72  C   UNL A   1      41.291  25.938  26.631  1.00  0.00     0.022 A 
BRANCH  69  73
ATOM     73  S   UNL A   1      43.305  27.495  25.490  1.00  0.00     0.124 S 
ATOM     74  O   UNL A   1      42.373  28.057  24.515  1.00  0.00    -0.237 OA
ATOM     75  O   UNL A   1      44.184  28.448  26.157  1.00  0.00    -0.237 OA
ATOM     76  O   UNL A   1      43.934  26.240  25.086  1.00  0.00    -0.744 OA
ENDBRANCH  69  73
ENDBRANCH  52  66
BRANCH  53  77
ATOM     77  C   UNL A   1      39.607  33.424  36.959  1.00  0.00     0.023 A 
ATOM     78  C   UNL A   1      38.878  32.918  38.046  1.00  0.00     0.031 A 
ATOM     79  C   UNL A   1      40.053  34.756  37.030  1.00  0.00     0.131 A 
ATOM     80  C   UNL A   1      38.565  33.753  39.130  1.00  0.00     0.055 A 
ATOM     81  C   UNL A   1      39.791  35.565  38.137  1.00  0.00     0.041 A 
ATOM     82  F   UNL A   1      40.758  35.292  36.020  1.00  0.00    -0.206 F 
ATOM     83  C   UNL A   1      39.027  35.069  39.189  1.00  0.00     0.022 A 
BRANCH  80  84
ATOM     84  S   UNL A   1      37.449  33.124  40.415  1.00  0.00     0.124 S 
ATOM     85  O   UNL A   1      36.349  32.595  39.617  1.00  0.00    -0.237 OA
ATOM     86  O   UNL A   1      38.287  32.138  41.087  1.00  0.00    -0.237 OA
ATOM     87  O   UNL A   1      37.133  34.314  41.202  1.00  0.00    -0.744 OA
ENDBRANCH  80  84
ENDBRANCH  53  77
BRANCH  65  88
ATOM     88  C   UNL A   1      44.303  28.505  35.398  1.00  0.00     0.023 A 
ATOM     89  C   UNL A   1      44.172  27.475  36.344  1.00  0.00     0.031 A 
ATOM     90  C   UNL A   1      45.586  29.034  35.167  1.00  0.00     0.131 A 
ATOM     91  C   UNL A   1      45.295  27.044  37.065  1.00  0.00     0.055 A 
ATOM     92  C   UNL A   1      46.709  28.555  35.839  1.00  0.00     0.041 A 
ATOM     93  F   UNL A   1      45.768  30.021  34.275  1.00  0.00    -0.206 F 
ATOM     94  C   UNL A   1      46.566  27.563  36.805  1.00  0.00     0.022 A 
BRANCH  91  95
ATOM     95  S   UNL A   1      45.057  25.860  38.418  1.00  0.00     0.124 S 
ATOM     96  O   UNL A   1      46.431  25.547  38.794  1.00  0.00    -0.237 OA
ATOM     97  O   UNL A   1      44.292  26.641  39.384  1.00  0.00    -0.237 OA
ATOM     98  O   UNL A   1      44.322  24.764  37.788  1.00  0.00    -0.744 OA
ENDBRANCH  91  95
ENDBRANCH  65  88
ENDBRANCH  39  40
ENDBRANCH  31  34
ENDBRANCH  29  30
ENDBRANCH  28  29
ENDBRANCH   1  28
TORSDOF 19
ENDMDL
MODEL 2
REMARK VINA RESULT:     -11.6      1.576      2.138
REMARK SMILES Cn1ccnc1[C@@H]1[C@@H](C(=O)NCCCNC(=O)c2ccc(-c3c4nc(c(-c5cc(S(=O)(=O)[O-])ccc5F)c5ccc([nH]5)c(-c5cc(S(=O)(=O)[O-])ccc5F)c5nc(c(-c6cc(S(=O)(=O)[O-])ccc6F)c6ccc3[nH]6)C=C5)C=C4)cc2)CC(=O)N1CCCOC1CCCCC1
REMARK SMILES IDX 12 1 11 2 9 3 10 4 8 6 7 7 84 8 81 9 82 10 83 11 6 12 1 13
REMARK SMILES IDX 2 14 3 15 4 16 5 17 85 18 86 19 87 20 88 21 89 22 90 23
REMARK SMILES IDX 94 24 91 25 93 26 92 27 13 28 14 29 15 30 16 31 17 33 18 34
REMARK SMILES IDX 19 35 80 36 20 37 79 38 21 39 22 40 23 41 73 42 24 43 78 44
REMARK SMILES IDX 72 45 74 46 25 47 77 48 71 49 70 50 26 52 58 53 38 54 57 55
REMARK SMILES IDX 39 56 42 57 56 58 75 59 40 60 41 61 55 63 76 64 43 65 27 66
REMARK SMILES IDX 28 67 36 68 29 69 35 70 37 71 34 72 30 73 31 74 32 75 33 76
REMARK SMILES IDX 59 77 60 78 68 79 61 80 67 81 69 82 66 83 62 84 63 85 64 86
REMARK SMILES IDX 65 87 44 88 45 89 53 90 46 91 52 92 54 93 51 94 47 95 48 96
REMARK SMILES IDX 49 97 50 98
REMARK H PARENT 11 5 15 32 74 51 42 62
REMARK Flexibility Score: inf
ROOT
ATOM      1  C   UNL A   1      32.204  30.504  26.256  1.00  0.00     0.117 C 
ENDROOT
BRANCH   1   2
ATOM      2  N   UNL A   1      31.812  29.375  27.090  1.00  0.00    -0.356 N 
ATOM      3  C   UNL A   1      31.995  28.045  26.921  1.00  0.00     0.226 C 
ATOM      4  O   UNL A   1      31.558  27.277  27.779  1.00  0.00    -0.275 OA
ATOM      5  H   UNL A   1      31.336  29.623  27.915  1.00  0.00     0.163 HD
BRANCH   3   6
ATOM      6  C   UNL A   1      32.700  27.496  25.713  1.00  0.00     0.118 C 
ATOM      7  C   UNL A   1      31.736  26.750  24.795  1.00  0.00     0.164 C 
ATOM      8  N   UNL A   1      32.448  25.557  24.359  1.00  0.00    -0.332 N 
ATOM      9  C   UNL A   1      33.830  26.542  26.038  1.00  0.00     0.116 C 
ATOM     10  C   UNL A   1      33.686  25.439  25.026  1.00  0.00     0.224 C 
ATOM     11  O   UNL A   1      34.478  24.530  24.911  1.00  0.00    -0.275 OA
BRANCH   7  12
ATOM     12  C   UNL A   1      31.076  27.652  23.783  1.00  0.00     0.132 A 
ATOM     13  C   UNL A   1      32.979  28.988  22.674  1.00  0.00     0.151 C 
ATOM     14  N   UNL A   1      31.615  28.597  22.929  1.00  0.00    -0.336 N 
ATOM     15  C   UNL A   1      30.571  29.240  22.302  1.00  0.00     0.107 A 
ATOM     16  C   UNL A   1      29.432  28.705  22.835  1.00  0.00     0.131 A 
ATOM     17  N   UNL A   1      29.752  27.754  23.756  1.00  0.00    -0.239 NA
ENDBRANCH   7  12
BRANCH   8  18
ATOM     18  C   UNL A   1      31.878  24.252  23.956  1.00  0.00     0.122 C 
BRANCH  18  19
ATOM     19  C   UNL A   1      31.837  22.979  24.809  1.00  0.00     0.050 C 
BRANCH  19  20
ATOM     20  C   UNL A   1      32.059  21.559  24.289  1.00  0.00     0.162 C 
BRANCH  20  21
ATOM     21  O   UNL A   1      33.292  20.910  24.611  1.00  0.00    -0.378 OA
BRANCH  21  22
ATOM     22  C   UNL A   1      33.235  19.479  24.585  1.00  0.00     0.118 C 
ATOM     23  C   UNL A   1      32.593  19.067  23.275  1.00  0.00     0.032 C 
ATOM     24  C   UNL A   1      34.633  18.875  24.702  1.00  0.00     0.032 C 
ATOM     25  C   UNL A   1      32.649  17.610  22.895  1.00  0.00     0.003 C 
ATOM     26  C   UNL A   1      34.596  17.364  24.452  1.00  0.00     0.003 C 
ATOM     27  C   UNL A   1      34.034  17.037  23.071  1.00  0.00     0.000 C 
ENDBRANCH  21  22
ENDBRANCH  20  21
ENDBRANCH  19  20
ENDBRANCH  18  19
ENDBRANCH   8  18
ENDBRANCH   3   6
ENDBRANCH   1   2
BRANCH   1  28
ATOM     28  C   UNL A   1      31.784  31.826  26.839  1.00  0.00     0.042 C 
BRANCH  28  29
ATOM     29  C   UNL A   1      32.934  32.551  27.497  1.00  0.00     0.118 C 
BRANCH  29  30
ATOM     30  N   UNL A   1      32.669  33.973  27.675  1.00  0.00    -0.352 N 
ATOM     31  C   UNL A   1      33.193  34.841  28.604  1.00  0.00     0.251 C 
ATOM     32  H   UNL A   1      32.024  34.367  27.043  1.00  0.00     0.163 HD
ATOM     33  O   UNL A   1      32.698  35.953  28.753  1.00  0.00    -0.269 OA
BRANCH  31  34
ATOM     34  C   UNL A   1      34.327  34.393  29.435  1.00  0.00     0.039 A 
ATOM     35  C   UNL A   1      34.080  33.805  30.674  1.00  0.00     0.014 A 
ATOM     36  C   UNL A   1      35.631  34.495  28.948  1.00  0.00     0.014 A 
ATOM     37  C   UNL A   1      35.143  33.248  31.388  1.00  0.00     0.010 A 
ATOM     38  C   UNL A   1      36.656  33.813  29.585  1.00  0.00     0.010 A 
ATOM     39  C   UNL A   1      36.430  33.207  30.827  1.00  0.00    -0.014 A 
BRANCH  39  40
ATOM     40  C   UNL A   1      37.575  32.583  31.538  1.00  0.00     0.031 A 
ATOM     41  C   UNL A   1      38.310  31.439  30.888  1.00  0.00     0.074 A 
ATOM     42  C   UNL A   1      37.907  32.997  32.776  1.00  0.00     0.049 A 
ATOM     43  N   UNL A   1      39.271  30.694  31.369  1.00  0.00    -0.248 NA
ATOM     44  C   UNL A   1      37.875  31.054  29.535  1.00  0.00     0.031 C 
ATOM     45  C   UNL A   1      37.234  34.063  33.524  1.00  0.00     0.029 A 
ATOM     46  N   UNL A   1      38.894  32.570  33.628  1.00  0.00    -0.354 N 
ATOM     47  C   UNL A   1      39.538  29.746  30.386  1.00  0.00     0.074 A 
ATOM     48  C   UNL A   1      38.583  29.957  29.323  1.00  0.00     0.031 C 
ATOM     49  C   UNL A   1      37.852  34.231  34.704  1.00  0.00     0.029 A 
ATOM     50  C   UNL A   1      38.929  33.253  34.823  1.00  0.00     0.049 A 
ATOM     51  H   UNL A   1      39.518  31.843  33.405  1.00  0.00     0.167 HD
ATOM     52  C   UNL A   1      40.516  28.808  30.357  1.00  0.00     0.034 A 
ATOM     53  C   UNL A   1      39.733  33.098  35.893  1.00  0.00     0.034 A 
ATOM     54  C   UNL A   1      41.477  28.632  31.414  1.00  0.00     0.049 A 
ATOM     55  C   UNL A   1      40.801  32.034  35.846  1.00  0.00     0.074 A 
ATOM     56  C   UNL A   1      42.545  27.755  31.470  1.00  0.00     0.029 A 
ATOM     57  N   UNL A   1      41.486  29.347  32.606  1.00  0.00    -0.354 N 
ATOM     58  N   UNL A   1      41.076  31.181  34.885  1.00  0.00    -0.248 NA
ATOM     59  C   UNL A   1      41.675  31.920  37.020  1.00  0.00     0.031 C 
ATOM     60  C   UNL A   1      43.155  27.888  32.721  1.00  0.00     0.029 A 
ATOM     61  C   UNL A   1      42.521  28.908  33.415  1.00  0.00     0.049 A 
ATOM     62  H   UNL A   1      40.849  30.060  32.841  1.00  0.00     0.167 HD
ATOM     63  C   UNL A   1      42.179  30.454  35.329  1.00  0.00     0.074 A 
ATOM     64  C   UNL A   1      42.525  30.981  36.632  1.00  0.00     0.031 C 
ATOM     65  C   UNL A   1      42.848  29.445  34.714  1.00  0.00     0.034 A 
BRANCH  52  66
ATOM     66  C   UNL A   1      40.575  27.901  29.150  1.00  0.00     0.023 A 
ATOM     67  C   UNL A   1      41.533  28.081  28.136  1.00  0.00     0.031 A 
ATOM     68  C   UNL A   1      39.643  26.861  28.995  1.00  0.00     0.131 A 
ATOM     69  C   UNL A   1      41.490  27.288  26.981  1.00  0.00     0.055 A 
ATOM     70  C   UNL A   1      39.661  26.016  27.883  1.00  0.00     0.041 A 
ATOM     71  F   UNL A   1      38.688  26.655  29.915  1.00  0.00    -0.206 F 
ATOM     72  C   UNL A   1      40.579  26.237  26.860  1.00  0.00     0.022 A 
BRANCH  69  73
ATOM     73  S   UNL A   1      42.545  27.743  25.577  1.00  0.00     0.124 S 
ATOM     74  O   UNL A   1      43.821  28.002  26.241  1.00  0.00    -0.237 OA
ATOM     75  O   UNL A   1      42.490  26.550  24.741  1.00  0.00    -0.237 OA
ATOM     76  O   UNL A   1      41.889  28.926  25.025  1.00  0.00    -0.744 OA
ENDBRANCH  69  73
ENDBRANCH  52  66
BRANCH  53  77
ATOM     77  C   UNL A   1      39.565  33.958  37.102  1.00  0.00     0.023 A 
ATOM     78  C   UNL A   1      38.999  33.448  38.280  1.00  0.00     0.031 A 
ATOM     79  C   UNL A   1      39.920  35.319  37.079  1.00  0.00     0.131 A 
ATOM     80  C   UNL A   1      38.749  34.301  39.366  1.00  0.00     0.055 A 
ATOM     81  C   UNL A   1      39.725  36.152  38.183  1.00  0.00     0.041 A 
ATOM     82  F   UNL A   1      40.469  35.861  35.980  1.00  0.00    -0.206 F 
ATOM     83  C   UNL A   1      39.120  35.647  39.330  1.00  0.00     0.022 A 
BRANCH  80  84
ATOM     84  S   UNL A   1      37.830  33.650  40.788  1.00  0.00     0.124 S 
ATOM     85  O   UNL A   1      37.709  34.836  41.629  1.00  0.00    -0.237 OA
ATOM     86  O   UNL A   1      36.600  33.178  40.163  1.00  0.00    -0.237 OA
ATOM     87  O   UNL A   1      38.707  32.603  41.308  1.00  0.00    -0.744 OA
ENDBRANCH  80  84
ENDBRANCH  53  77
BRANCH  65  88
ATOM     88  C   UNL A   1      44.054  28.885  35.428  1.00  0.00     0.023 A 
ATOM     89  C   UNL A   1      43.953  27.805  36.321  1.00  0.00     0.031 A 
ATOM     90  C   UNL A   1      45.325  29.448  35.210  1.00  0.00     0.131 A 
ATOM     91  C   UNL A   1      45.092  27.356  37.005  1.00  0.00     0.055 A 
ATOM     92  C   UNL A   1      46.465  28.954  35.843  1.00  0.00     0.041 A 
ATOM     93  F   UNL A   1      45.479  30.483  34.369  1.00  0.00    -0.206 F 
ATOM     94  C   UNL A   1      46.350  27.911  36.758  1.00  0.00     0.022 A 
BRANCH  91  95
ATOM     95  S   UNL A   1      44.891  26.100  38.297  1.00  0.00     0.124 S 
ATOM     96  O   UNL A   1      46.269  25.688  38.538  1.00  0.00    -0.237 OA
ATOM     97  O   UNL A   1      44.254  26.855  39.370  1.00  0.00    -0.237 OA
ATOM     98  O   UNL A   1      44.044  25.090  37.664  1.00  0.00    -0.744 OA
ENDBRANCH  91  95
ENDBRANCH  65  88
ENDBRANCH  39  40
ENDBRANCH  31  34
ENDBRANCH  29  30
ENDBRANCH  28  29
ENDBRANCH   1  28
TORSDOF 19
ENDMDL
MODEL 3
REMARK VINA RESULT:     -11.6      1.505      7.533
REMARK SMILES Cn1ccnc1[C@@H]1[C@@H](C(=O)NCCCNC(=O)c2ccc(-c3c4nc(c(-c5cc(S(=O)(=O)[O-])ccc5F)c5ccc([nH]5)c(-c5cc(S(=O)(=O)[O-])ccc5F)c5nc(c(-c6cc(S(=O)(=O)[O-])ccc6F)c6ccc3[nH]6)C=C5)C=C4)cc2)CC(=O)N1CCCOC1CCCCC1
REMARK SMILES IDX 12 1 11 2 9 3 10 4 8 6 7 7 84 8 81 9 82 10 83 11 6 12 1 13
REMARK SMILES IDX 2 14 3 15 4 16 5 17 85 18 86 19 87 20 88 21 89 22 90 23
REMARK SMILES IDX 94 24 91 25 93 26 92 27 13 28 14 29 15 30 16 31 17 33 18 34
REMARK SMILES IDX 19 35 80 36 20 37 79 38 21 39 22 40 23 41 73 42 24 43 78 44
REMARK SMILES IDX 72 45 74 46 25 47 77 48 71 49 70 50 26 52 58 53 38 54 57 55
REMARK SMILES IDX 39 56 42 57 56 58 75 59 40 60 41 61 55 63 76 64 43 65 27 66
REMARK SMILES IDX 28 67 36 68 29 69 35 70 37 71 34 72 30 73 31 74 32 75 33 76
REMARK SMILES IDX 59 77 60 78 68 79 61 80 67 81 69 82 66 83 62 84 63 85 64 86
REMARK SMILES IDX 65 87 44 88 45 89 53 90 46 91 52 92 54 93 51 94 47 95 48 96
REMARK SMILES IDX 49 97 50 98
REMARK H PARENT 11 5 15 32 74 51 42 62
REMARK Flexibility Score: inf
ROOT
ATOM      1  C   UNL A   1      31.655  30.750  25.798  1.00  0.00     0.117 C 
ENDROOT
BRANCH   1   2
ATOM      2  N   UNL A   1      31.982  29.454  26.377  1.00  0.00    -0.356 N 
ATOM      3  C   UNL A   1      32.328  28.284  25.790  1.00  0.00     0.226 C 
ATOM      4  O   UNL A   1      32.555  27.309  26.508  1.00  0.00    -0.275 OA
ATOM      5  H   UNL A   1      31.947  29.425  27.360  1.00  0.00     0.163 HD
BRANCH   3   6
ATOM      6  C   UNL A   1      32.425  28.155  24.296  1.00  0.00     0.118 C 
ATOM      7  C   UNL A   1      31.269  27.335  23.730  1.00  0.00     0.164 C 
ATOM      8  N   UNL A   1      31.857  26.469  22.717  1.00  0.00    -0.332 N 
ATOM      9  C   UNL A   1      33.706  27.505  23.815  1.00  0.00     0.116 C 
ATOM     10  C   UNL A   1      33.263  26.586  22.711  1.00  0.00     0.224 C 
ATOM     11  O   UNL A   1      34.030  25.959  22.014  1.00  0.00    -0.275 OA
BRANCH   7  12
ATOM     12  C   UNL A   1      30.062  28.176  23.403  1.00  0.00     0.132 A 
ATOM     13  C   UNL A   1      28.011  26.688  23.876  1.00  0.00     0.151 C 
ATOM     14  N   UNL A   1      28.713  27.873  23.447  1.00  0.00    -0.336 N 
ATOM     15  C   UNL A   1      28.025  28.946  22.925  1.00  0.00     0.107 A 
ATOM     16  C   UNL A   1      28.979  29.841  22.530  1.00  0.00     0.131 A 
ATOM     17  N   UNL A   1      30.219  29.351  22.805  1.00  0.00    -0.239 NA
ENDBRANCH   7  12
BRANCH   8  18
ATOM     18  C   UNL A   1      31.380  25.143  22.266  1.00  0.00     0.122 C 
BRANCH  18  19
ATOM     19  C   UNL A   1      30.661  24.098  23.125  1.00  0.00     0.050 C 
BRANCH  19  20
ATOM     20  C   UNL A   1      31.089  23.657  24.525  1.00  0.00     0.162 C 
BRANCH  20  21
ATOM     21  O   UNL A   1      32.282  24.222  25.073  1.00  0.00    -0.378 OA
BRANCH  21  22
ATOM     22  C   UNL A   1      33.487  23.541  24.703  1.00  0.00     0.118 C 
ATOM     23  C   UNL A   1      34.646  24.264  25.359  1.00  0.00     0.032 C 
ATOM     24  C   UNL A   1      33.450  22.082  25.154  1.00  0.00     0.032 C 
ATOM     25  C   UNL A   1      35.996  23.595  25.332  1.00  0.00     0.003 C 
ATOM     26  C   UNL A   1      34.815  21.416  24.959  1.00  0.00     0.003 C 
ATOM     27  C   UNL A   1      35.910  22.143  25.736  1.00  0.00     0.000 C 
ENDBRANCH  21  22
ENDBRANCH  20  21
ENDBRANCH  19  20
ENDBRANCH  18  19
ENDBRANCH   8  18
ENDBRANCH   3   6
ENDBRANCH   1   2
BRANCH   1  28
ATOM     28  C   UNL A   1      31.463  31.817  26.841  1.00  0.00     0.042 C 
BRANCH  28  29
ATOM     29  C   UNL A   1      32.771  32.439  27.269  1.00  0.00     0.118 C 
BRANCH  29  30
ATOM     30  N   UNL A   1      32.634  33.849  27.612  1.00  0.00    -0.352 N 
ATOM     31  C   UNL A   1      33.271  34.565  28.597  1.00  0.00     0.251 C 
ATOM     32  H   UNL A   1      31.995  34.359  27.063  1.00  0.00     0.163 HD
ATOM     33  O   UNL A   1      32.878  35.689  28.892  1.00  0.00    -0.269 OA
BRANCH  31  34
ATOM     34  C   UNL A   1      34.403  33.941  29.312  1.00  0.00     0.039 A 
ATOM     35  C   UNL A   1      34.151  33.027  30.332  1.00  0.00     0.014 A 
ATOM     36  C   UNL A   1      35.713  34.216  28.916  1.00  0.00     0.014 A 
ATOM     37  C   UNL A   1      35.218  32.329  30.901  1.00  0.00     0.010 A 
ATOM     38  C   UNL A   1      36.748  33.419  29.374  1.00  0.00     0.010 A 
ATOM     39  C   UNL A   1      36.519  32.485  30.393  1.00  0.00    -0.014 A 
BRANCH  39  40
ATOM     40  C   UNL A   1      37.670  31.727  30.943  1.00  0.00     0.031 A 
ATOM     41  C   UNL A   1      38.176  32.056  32.324  1.00  0.00     0.074 A 
ATOM     42  C   UNL A   1      38.291  30.801  30.188  1.00  0.00     0.049 A 
ATOM     43  N   UNL A   1      39.219  31.586  32.957  1.00  0.00    -0.248 NA
ATOM     44  C   UNL A   1      37.435  33.083  33.075  1.00  0.00     0.031 C 
ATOM     45  C   UNL A   1      37.920  30.435  28.818  1.00  0.00     0.029 A 
ATOM     46  N   UNL A   1      39.371  29.999  30.461  1.00  0.00    -0.354 N 
ATOM     47  C   UNL A   1      39.267  32.273  34.166  1.00  0.00     0.074 A 
ATOM     48  C   UNL A   1      38.202  33.248  34.140  1.00  0.00     0.031 C 
ATOM     49  C   UNL A   1      38.732  29.455  28.388  1.00  0.00     0.029 A 
ATOM     50  C   UNL A   1      39.714  29.160  29.426  1.00  0.00     0.049 A 
ATOM     51  H   UNL A   1      39.853  30.023  31.318  1.00  0.00     0.167 HD
ATOM     52  C   UNL A   1      40.100  32.081  35.217  1.00  0.00     0.034 A 
ATOM     53  C   UNL A   1      40.715  28.263  29.325  1.00  0.00     0.034 A 
ATOM     54  C   UNL A   1      41.138  31.083  35.234  1.00  0.00     0.049 A 
ATOM     55  C   UNL A   1      41.643  28.081  30.501  1.00  0.00     0.074 A 
ATOM     56  C   UNL A   1      42.004  30.759  36.262  1.00  0.00     0.029 A 
ATOM     57  N   UNL A   1      41.452  30.246  34.170  1.00  0.00    -0.354 N 
ATOM     58  N   UNL A   1      41.641  28.701  31.659  1.00  0.00    -0.248 NA
ATOM     59  C   UNL A   1      42.700  27.071  30.361  1.00  0.00     0.031 C 
ATOM     60  C   UNL A   1      42.888  29.780  35.798  1.00  0.00     0.029 A 
ATOM     61  C   UNL A   1      42.520  29.430  34.507  1.00  0.00     0.049 A 
ATOM     62  H   UNL A   1      40.985  30.235  33.303  1.00  0.00     0.167 HD
ATOM     63  C   UNL A   1      42.673  28.128  32.397  1.00  0.00     0.074 A 
ATOM     64  C   UNL A   1      43.263  27.105  31.559  1.00  0.00     0.031 C 
ATOM     65  C   UNL A   1      43.096  28.418  33.655  1.00  0.00     0.034 A 
BRANCH  52  66
ATOM     66  C   UNL A   1      39.924  32.980  36.418  1.00  0.00     0.023 A 
ATOM     67  C   UNL A   1      39.202  32.567  37.551  1.00  0.00     0.031 A 
ATOM     68  C   UNL A   1      40.461  34.279  36.419  1.00  0.00     0.131 A 
ATOM     69  C   UNL A   1      38.969  33.466  38.602  1.00  0.00     0.055 A 
ATOM     70  C   UNL A   1      40.301  35.140  37.506  1.00  0.00     0.041 A 
ATOM     71  F   UNL A   1      41.137  34.741  35.356  1.00  0.00    -0.206 F 
ATOM     72  C   UNL A   1      39.538  34.742  38.601  1.00  0.00     0.022 A 
BRANCH  69  73
ATOM     73  S   UNL A   1      37.792  32.997  39.899  1.00  0.00     0.124 S 
ATOM     74  O   UNL A   1      38.451  31.832  40.487  1.00  0.00    -0.237 OA
ATOM     75  O   UNL A   1      37.746  34.193  40.732  1.00  0.00    -0.237 OA
ATOM     76  O   UNL A   1      36.566  32.702  39.160  1.00  0.00    -0.744 OA
ENDBRANCH  69  73
ENDBRANCH  52  66
BRANCH  53  77
ATOM     77  C   UNL A   1      40.903  27.469  28.075  1.00  0.00     0.023 A 
ATOM     78  C   UNL A   1      40.618  26.096  28.040  1.00  0.00     0.031 A 
ATOM     79  C   UNL A   1      41.424  28.062  26.910  1.00  0.00     0.131 A 
ATOM     80  C   UNL A   1      40.908  25.348  26.888  1.00  0.00     0.055 A 
ATOM     81  C   UNL A   1      41.654  27.326  25.746  1.00  0.00     0.041 A 
ATOM     82  F   UNL A   1      41.712  29.374  26.885  1.00  0.00    -0.206 F 
ATOM     83  C   UNL A   1      41.411  25.956  25.737  1.00  0.00     0.022 A 
BRANCH  80  84
ATOM     84  S   UNL A   1      40.718  23.545  26.954  1.00  0.00     0.124 S 
ATOM     85  O   UNL A   1      41.077  23.261  28.339  1.00  0.00    -0.237 OA
ATOM     86  O   UNL A   1      39.311  23.376  26.608  1.00  0.00    -0.237 OA
ATOM     87  O   UNL A   1      41.667  23.066  25.952  1.00  0.00    -0.744 OA
ENDBRANCH  80  84
ENDBRANCH  53  77
BRANCH  65  88
ATOM     88  C   UNL A   1      44.217  27.576  34.214  1.00  0.00     0.023 A 
ATOM     89  C   UNL A   1      43.978  26.333  34.825  1.00  0.00     0.031 A 
ATOM     90  C   UNL A   1      45.546  28.031  34.133  1.00  0.00     0.131 A 
ATOM     91  C   UNL A   1      45.046  25.613  35.381  1.00  0.00     0.055 A 
ATOM     92  C   UNL A   1      46.610  27.279  34.629  1.00  0.00     0.041 A 
ATOM     93  F   UNL A   1      45.831  29.212  33.561  1.00  0.00    -0.206 F 
ATOM     94  C   UNL A   1      46.362  26.068  35.270  1.00  0.00     0.022 A 
BRANCH  91  95
ATOM     95  S   UNL A   1      44.680  24.117  36.338  1.00  0.00     0.124 S 
ATOM     96  O   UNL A   1      43.587  23.527  35.573  1.00  0.00    -0.237 OA
ATOM     97  O   UNL A   1      45.950  23.400  36.293  1.00  0.00    -0.237 OA
ATOM     98  O   UNL A   1      44.308  24.635  37.654  1.00  0.00    -0.744 OA
ENDBRANCH  91  95
ENDBRANCH  65  88
ENDBRANCH  39  40
ENDBRANCH  31  34
ENDBRANCH  29  30
ENDBRANCH  28  29
ENDBRANCH   1  28
TORSDOF 19
ENDMDL
