MODEL 1
REMARK VINA RESULT:     -13.1      0.000      0.000
REMARK SMILES Cc1cc(C(=O)NCCCNC(=O)c2ccc(-c3c4nc(c(-c5cc(S(=O)(=O)[O-])ccc5F)c5ccc([nH]5)c(-c5cc(S(=O)(=O)[O-])ccc5F)c5nc(c(-c6cc(S(=O)(=O)[O-])ccc6F)c6ccc3[nH]6)C=C5)C=C4)cc2)ccc1NS(=O)(=O)c1ccc(C#N)cc1C
REMARK SMILES IDX 8 1 7 2 5 3 6 4 4 6 1 7 2 8 3 9 79 10 78 11 77 12 80 13
REMARK SMILES IDX 81 15 82 16 83 17 84 18 85 19 91 20 86 21 90 22 92 23 87 24
REMARK SMILES IDX 88 25 89 26 9 27 10 28 11 29 12 30 13 32 14 33 15 34 76 35
REMARK SMILES IDX 16 36 75 37 17 38 18 39 19 40 69 41 20 42 74 43 68 44 70 45
REMARK SMILES IDX 21 46 73 47 67 48 66 49 22 51 54 52 34 53 53 54 35 55 38 56
REMARK SMILES IDX 52 57 71 58 36 59 37 60 51 62 72 63 39 64 23 65 24 66 32 67
REMARK SMILES IDX 25 68 31 69 33 70 30 71 26 72 27 73 28 74 29 75 55 76 56 77
REMARK SMILES IDX 64 78 57 79 63 80 65 81 62 82 58 83 59 84 60 85 61 86 40 87
REMARK SMILES IDX 41 88 49 89 42 90 48 91 50 92 47 93 43 94 44 95 45 96 46 97
REMARK H PARENT 7 5 80 14 11 31 70 50 38 61
REMARK Flexibility Score: inf
ROOT
ATOM      1  C   UNL A   1      32.025  30.377  25.636  1.00  0.00     0.118 C 
ENDROOT
BRANCH   1   2
ATOM      2  N   UNL A   1      33.036  30.029  24.636  1.00  0.00    -0.352 N 
ATOM      3  C   UNL A   1      33.129  28.855  23.863  1.00  0.00     0.251 C 
ATOM      4  O   UNL A   1      33.995  28.738  22.998  1.00  0.00    -0.269 OA
ATOM      5  H   UNL A   1      33.740  30.702  24.484  1.00  0.00     0.163 HD
BRANCH   3   6
ATOM      6  C   UNL A   1      32.237  27.678  24.136  1.00  0.00     0.040 A 
ATOM      7  C   UNL A   1      28.677  26.395  24.032  1.00  0.00     0.046 C 
ATOM      8  C   UNL A   1      30.175  26.381  24.128  1.00  0.00    -0.026 A 
ATOM      9  C   UNL A   1      30.864  27.617  23.912  1.00  0.00     0.019 A 
ATOM     10  C   UNL A   1      30.935  25.211  24.363  1.00  0.00     0.052 A 
ATOM     11  C   UNL A   1      32.272  25.312  24.198  1.00  0.00     0.028 A 
ATOM     12  C   UNL A   1      32.802  26.516  24.579  1.00  0.00     0.016 A 
BRANCH  10  13
ATOM     13  N   UNL A   1      30.405  23.982  24.853  1.00  0.00    -0.279 N 
ATOM     14  H   UNL A   1      29.611  23.643  24.377  1.00  0.00     0.180 HD
BRANCH  13  15
ATOM     15  S   UNL A   1      30.952  23.016  26.151  1.00  0.00     0.262 S 
ATOM     16  O   UNL A   1      31.082  23.953  27.250  1.00  0.00    -0.201 OA
ATOM     17  O   UNL A   1      29.976  21.943  26.233  1.00  0.00    -0.201 OA
BRANCH  15  18
ATOM     18  C   UNL A   1      32.579  22.190  26.049  1.00  0.00     0.090 A 
ATOM     19  C   UNL A   1      33.428  22.014  27.146  1.00  0.00     0.024 A 
ATOM     20  C   UNL A   1      33.077  21.807  24.779  1.00  0.00    -0.029 A 
ATOM     21  C   UNL A   1      34.816  21.792  26.967  1.00  0.00     0.021 A 
ATOM     22  C   UNL A   1      34.458  21.544  24.615  1.00  0.00     0.024 A 
ATOM     23  C   UNL A   1      32.204  21.459  23.603  1.00  0.00     0.046 C 
ATOM     24  C   UNL A   1      35.340  21.606  25.691  1.00  0.00     0.052 A 
BRANCH  24  25
ATOM     25  C   UNL A   1      36.753  21.436  25.453  1.00  0.00     0.099 C 
ATOM     26  N   UNL A   1      37.896  21.379  25.331  1.00  0.00    -0.192 NA
ENDBRANCH  24  25
ENDBRANCH  15  18
ENDBRANCH  13  15
ENDBRANCH  10  13
ENDBRANCH   3   6
ENDBRANCH   1   2
BRANCH   1  27
ATOM     27  C   UNL A   1      32.345  30.968  26.979  1.00  0.00     0.042 C 
BRANCH  27  28
ATOM     28  C   UNL A   1      33.500  30.371  27.729  1.00  0.00     0.118 C 
BRANCH  28  29
ATOM     29  N   UNL A   1      34.441  31.322  28.339  1.00  0.00    -0.352 N 
ATOM     30  C   UNL A   1      35.663  31.095  28.977  1.00  0.00     0.251 C 
ATOM     31  H   UNL A   1      34.167  32.266  28.290  1.00  0.00     0.163 HD
ATOM     32  O   UNL A   1      36.386  32.028  29.320  1.00  0.00    -0.269 OA
BRANCH  30  33
ATOM     33  C   UNL A   1      36.203  29.707  29.106  1.00  0.00     0.039 A 
ATOM     34  C   UNL A   1      36.750  29.391  30.355  1.00  0.00     0.014 A 
ATOM     35  C   UNL A   1      36.715  29.108  27.976  1.00  0.00     0.014 A 
ATOM     36  C   UNL A   1      38.061  28.945  30.405  1.00  0.00     0.010 A 
ATOM     37  C   UNL A   1      38.074  28.916  27.988  1.00  0.00     0.010 A 
ATOM     38  C   UNL A   1      38.754  28.912  29.205  1.00  0.00    -0.014 A 
BRANCH  38  39
ATOM     39  C   UNL A   1      40.168  28.648  29.078  1.00  0.00     0.031 A 
ATOM     40  C   UNL A   1      40.458  27.232  28.813  1.00  0.00     0.074 A 
ATOM     41  C   UNL A   1      41.054  29.668  29.098  1.00  0.00     0.049 A 
ATOM     42  N   UNL A   1      41.511  26.616  29.194  1.00  0.00    -0.248 NA
ATOM     43  C   UNL A   1      39.474  26.334  28.195  1.00  0.00     0.031 C 
ATOM     44  C   UNL A   1      42.474  29.667  28.765  1.00  0.00     0.029 A 
ATOM     45  N   UNL A   1      40.843  30.942  29.634  1.00  0.00    -0.354 N 
ATOM     46  C   UNL A   1      41.510  25.399  28.543  1.00  0.00     0.074 A 
ATOM     47  C   UNL A   1      40.157  25.194  28.119  1.00  0.00     0.031 C 
ATOM     48  C   UNL A   1      43.063  30.729  29.352  1.00  0.00     0.029 A 
ATOM     49  C   UNL A   1      42.068  31.380  30.188  1.00  0.00     0.049 A 
ATOM     50  H   UNL A   1      39.996  31.442  29.628  1.00  0.00     0.167 HD
ATOM     51  C   UNL A   1      42.712  24.830  28.260  1.00  0.00     0.034 A 
ATOM     52  C   UNL A   1      42.165  31.543  31.545  1.00  0.00     0.034 A 
ATOM     53  C   UNL A   1      43.777  25.663  28.838  1.00  0.00     0.049 A 
ATOM     54  C   UNL A   1      42.935  30.392  32.188  1.00  0.00     0.074 A 
ATOM     55  C   UNL A   1      44.597  26.650  28.317  1.00  0.00     0.029 A 
ATOM     56  N   UNL A   1      43.784  25.856  30.212  1.00  0.00    -0.354 N 
ATOM     57  N   UNL A   1      43.365  29.334  31.549  1.00  0.00    -0.248 NA
ATOM     58  C   UNL A   1      43.236  30.334  33.611  1.00  0.00     0.031 C 
ATOM     59  C   UNL A   1      45.036  27.476  29.402  1.00  0.00     0.029 A 
ATOM     60  C   UNL A   1      44.521  26.965  30.581  1.00  0.00     0.049 A 
ATOM     61  H   UNL A   1      43.318  25.269  30.851  1.00  0.00     0.167 HD
ATOM     62  C   UNL A   1      43.993  28.473  32.412  1.00  0.00     0.074 A 
ATOM     63  C   UNL A   1      43.826  29.130  33.708  1.00  0.00     0.031 C 
ATOM     64  C   UNL A   1      44.597  27.306  32.000  1.00  0.00     0.034 A 
BRANCH  51  65
ATOM     65  C   UNL A   1      42.953  23.738  27.240  1.00  0.00     0.023 A 
ATOM     66  C   UNL A   1      42.296  22.508  27.439  1.00  0.00     0.031 A 
ATOM     67  C   UNL A   1      43.800  23.780  26.110  1.00  0.00     0.131 A 
ATOM     68  C   UNL A   1      42.522  21.401  26.601  1.00  0.00     0.055 A 
ATOM     69  C   UNL A   1      44.043  22.672  25.285  1.00  0.00     0.041 A 
ATOM     70  F   UNL A   1      44.416  24.895  25.707  1.00  0.00    -0.206 F 
ATOM     71  C   UNL A   1      43.405  21.470  25.529  1.00  0.00     0.022 A 
BRANCH  68  72
ATOM     72  S   UNL A   1      41.637  19.861  26.943  1.00  0.00     0.124 S 
ATOM     73  O   UNL A   1      42.686  19.028  27.521  1.00  0.00    -0.237 OA
ATOM     74  O   UNL A   1      40.586  20.305  27.851  1.00  0.00    -0.237 OA
ATOM     75  O   UNL A   1      41.172  19.437  25.622  1.00  0.00    -0.744 OA
ENDBRANCH  68  72
ENDBRANCH  51  65
BRANCH  52  76
ATOM     76  C   UNL A   1      40.918  32.197  32.092  1.00  0.00     0.023 A 
ATOM     77  C   UNL A   1      40.017  31.342  32.782  1.00  0.00     0.031 A 
ATOM     78  C   UNL A   1      41.002  33.530  32.508  1.00  0.00     0.131 A 
ATOM     79  C   UNL A   1      39.548  31.723  34.053  1.00  0.00     0.055 A 
ATOM     80  C   UNL A   1      40.476  33.915  33.741  1.00  0.00     0.041 A 
ATOM     81  F   UNL A   1      41.755  34.416  31.839  1.00  0.00    -0.206 F 
ATOM     82  C   UNL A   1      39.841  32.985  34.561  1.00  0.00     0.022 A 
BRANCH  79  83
ATOM     83  S   UNL A   1      38.787  30.484  35.143  1.00  0.00     0.124 S 
ATOM     84  O   UNL A   1      39.925  29.994  35.911  1.00  0.00    -0.237 OA
ATOM     85  O   UNL A   1      37.804  31.268  35.883  1.00  0.00    -0.237 OA
ATOM     86  O   UNL A   1      38.189  29.509  34.228  1.00  0.00    -0.744 OA
ENDBRANCH  79  83
ENDBRANCH  52  76
BRANCH  64  87
ATOM     87  C   UNL A   1      45.309  26.333  32.925  1.00  0.00     0.023 A 
ATOM     88  C   UNL A   1      44.605  25.499  33.792  1.00  0.00     0.031 A 
ATOM     89  C   UNL A   1      46.722  26.217  33.006  1.00  0.00     0.131 A 
ATOM     90  C   UNL A   1      45.245  24.475  34.503  1.00  0.00     0.055 A 
ATOM     91  C   UNL A   1      47.371  25.254  33.784  1.00  0.00     0.041 A 
ATOM     92  F   UNL A   1      47.560  27.022  32.343  1.00  0.00    -0.206 F 
ATOM     93  C   UNL A   1      46.628  24.343  34.507  1.00  0.00     0.022 A 
BRANCH  90  94
ATOM     94  S   UNL A   1      44.196  23.277  35.352  1.00  0.00     0.124 S 
ATOM     95  O   UNL A   1      44.693  23.342  36.724  1.00  0.00    -0.237 OA
ATOM     96  O   UNL A   1      42.868  23.844  35.136  1.00  0.00    -0.237 OA
ATOM     97  O   UNL A   1      44.464  22.026  34.649  1.00  0.00    -0.744 OA
ENDBRANCH  90  94
ENDBRANCH  64  87
ENDBRANCH  38  39
ENDBRANCH  30  33
ENDBRANCH  28  29
ENDBRANCH  27  28
ENDBRANCH   1  27
TORSDOF 17
ENDMDL
MODEL 2
REMARK VINA RESULT:     -12.7      1.845      2.116
REMARK SMILES Cc1cc(C(=O)NCCCNC(=O)c2ccc(-c3c4nc(c(-c5cc(S(=O)(=O)[O-])ccc5F)c5ccc([nH]5)c(-c5cc(S(=O)(=O)[O-])ccc5F)c5nc(c(-c6cc(S(=O)(=O)[O-])ccc6F)c6ccc3[nH]6)C=C5)C=C4)cc2)ccc1NS(=O)(=O)c1ccc(C#N)cc1C
REMARK SMILES IDX 8 1 7 2 5 3 6 4 4 6 1 7 2 8 3 9 79 10 78 11 77 12 80 13
REMARK SMILES IDX 81 15 82 16 83 17 84 18 85 19 91 20 86 21 90 22 92 23 87 24
REMARK SMILES IDX 88 25 89 26 9 27 10 28 11 29 12 30 13 32 14 33 15 34 76 35
REMARK SMILES IDX 16 36 75 37 17 38 18 39 19 40 69 41 20 42 74 43 68 44 70 45
REMARK SMILES IDX 21 46 73 47 67 48 66 49 22 51 54 52 34 53 53 54 35 55 38 56
REMARK SMILES IDX 52 57 71 58 36 59 37 60 51 62 72 63 39 64 23 65 24 66 32 67
REMARK SMILES IDX 25 68 31 69 33 70 30 71 26 72 27 73 28 74 29 75 55 76 56 77
REMARK SMILES IDX 64 78 57 79 63 80 65 81 62 82 58 83 59 84 60 85 61 86 40 87
REMARK SMILES IDX 41 88 49 89 42 90 48 91 50 92 47 93 43 94 44 95 45 96 46 97
REMARK H PARENT 7 5 80 14 11 31 70 50 38 61
REMARK Flexibility Score: inf
ROOT
ATOM      1  C   UNL A   1      33.405  29.573  25.708  1.00  0.00     0.118 C 
ENDROOT
BRANCH   1   2
ATOM      2  N   UNL A   1      33.704  29.495  24.276  1.00  0.00    -0.352 N 
ATOM      3  C   UNL A   1      33.143  28.631  23.316  1.00  0.00     0.251 C 
ATOM      4  O   UNL A   1      33.438  28.736  22.127  1.00  0.00    -0.269 OA
ATOM      5  H   UNL A   1      34.383  30.126  23.943  1.00  0.00     0.163 HD
BRANCH   3   6
ATOM      6  C   UNL A   1      32.247  27.497  23.726  1.00  0.00     0.040 A 
ATOM      7  C   UNL A   1      28.655  26.350  24.061  1.00  0.00     0.046 C 
ATOM      8  C   UNL A   1      30.153  26.281  23.990  1.00  0.00    -0.026 A 
ATOM      9  C   UNL A   1      30.856  27.482  23.658  1.00  0.00     0.019 A 
ATOM     10  C   UNL A   1      30.893  25.089  24.178  1.00  0.00     0.052 A 
ATOM     11  C   UNL A   1      32.206  25.135  23.862  1.00  0.00     0.028 A 
ATOM     12  C   UNL A   1      32.817  26.327  24.141  1.00  0.00     0.016 A 
BRANCH  10  13
ATOM     13  N   UNL A   1      30.378  23.897  24.765  1.00  0.00    -0.279 N 
ATOM     14  H   UNL A   1      29.577  23.522  24.330  1.00  0.00     0.180 HD
BRANCH  13  15
ATOM     15  S   UNL A   1      30.955  23.028  26.117  1.00  0.00     0.262 S 
ATOM     16  O   UNL A   1      31.102  24.041  27.144  1.00  0.00    -0.201 OA
ATOM     17  O   UNL A   1      29.987  21.959  26.294  1.00  0.00    -0.201 OA
BRANCH  15  18
ATOM     18  C   UNL A   1      32.585  22.204  26.042  1.00  0.00     0.090 A 
ATOM     19  C   UNL A   1      33.441  22.080  27.141  1.00  0.00     0.024 A 
ATOM     20  C   UNL A   1      33.076  21.765  24.788  1.00  0.00    -0.029 A 
ATOM     21  C   UNL A   1      34.828  21.854  26.963  1.00  0.00     0.021 A 
ATOM     22  C   UNL A   1      34.457  21.500  24.627  1.00  0.00     0.024 A 
ATOM     23  C   UNL A   1      32.197  21.362  23.634  1.00  0.00     0.046 C 
ATOM     24  C   UNL A   1      35.346  21.613  25.694  1.00  0.00     0.052 A 
BRANCH  24  25
ATOM     25  C   UNL A   1      36.758  21.437  25.455  1.00  0.00     0.099 C 
ATOM     26  N   UNL A   1      37.889  21.399  25.243  1.00  0.00    -0.192 NA
ENDBRANCH  24  25
ENDBRANCH  15  18
ENDBRANCH  13  15
ENDBRANCH  10  13
ENDBRANCH   3   6
ENDBRANCH   1   2
BRANCH   1  27
ATOM     27  C   UNL A   1      33.060  30.849  26.422  1.00  0.00     0.042 C 
BRANCH  27  28
ATOM     28  C   UNL A   1      33.389  30.922  27.884  1.00  0.00     0.118 C 
BRANCH  28  29
ATOM     29  N   UNL A   1      34.509  31.800  28.255  1.00  0.00    -0.352 N 
ATOM     30  C   UNL A   1      35.808  31.480  28.656  1.00  0.00     0.251 C 
ATOM     31  H   UNL A   1      34.312  32.764  28.216  1.00  0.00     0.163 HD
ATOM     32  O   UNL A   1      36.661  32.352  28.808  1.00  0.00    -0.269 OA
BRANCH  30  33
ATOM     33  C   UNL A   1      36.244  30.053  28.744  1.00  0.00     0.039 A 
ATOM     34  C   UNL A   1      36.637  29.625  30.017  1.00  0.00     0.014 A 
ATOM     35  C   UNL A   1      36.830  29.489  27.633  1.00  0.00     0.014 A 
ATOM     36  C   UNL A   1      37.905  29.086  30.166  1.00  0.00     0.010 A 
ATOM     37  C   UNL A   1      38.166  29.203  27.766  1.00  0.00     0.010 A 
ATOM     38  C   UNL A   1      38.716  29.077  29.041  1.00  0.00    -0.014 A 
BRANCH  38  39
ATOM     39  C   UNL A   1      40.115  28.723  29.038  1.00  0.00     0.031 A 
ATOM     40  C   UNL A   1      40.336  27.287  28.826  1.00  0.00     0.074 A 
ATOM     41  C   UNL A   1      41.060  29.687  29.112  1.00  0.00     0.049 A 
ATOM     42  N   UNL A   1      41.313  26.617  29.305  1.00  0.00    -0.248 NA
ATOM     43  C   UNL A   1      39.351  26.435  28.146  1.00  0.00     0.031 C 
ATOM     44  C   UNL A   1      42.500  29.591  28.897  1.00  0.00     0.029 A 
ATOM     45  N   UNL A   1      40.887  30.985  29.603  1.00  0.00    -0.354 N 
ATOM     46  C   UNL A   1      41.288  25.386  28.680  1.00  0.00     0.074 A 
ATOM     47  C   UNL A   1      39.964  25.254  28.150  1.00  0.00     0.031 C 
ATOM     48  C   UNL A   1      43.105  30.628  29.510  1.00  0.00     0.029 A 
ATOM     49  C   UNL A   1      42.088  31.360  30.248  1.00  0.00     0.049 A 
ATOM     50  H   UNL A   1      40.077  31.536  29.517  1.00  0.00     0.167 HD
ATOM     51  C   UNL A   1      42.470  24.737  28.509  1.00  0.00     0.034 A 
ATOM     52  C   UNL A   1      42.084  31.551  31.605  1.00  0.00     0.034 A 
ATOM     53  C   UNL A   1      43.535  25.517  29.158  1.00  0.00     0.049 A 
ATOM     54  C   UNL A   1      42.724  30.371  32.332  1.00  0.00     0.074 A 
ATOM     55  C   UNL A   1      44.456  26.439  28.687  1.00  0.00     0.029 A 
ATOM     56  N   UNL A   1      43.442  25.743  30.523  1.00  0.00    -0.354 N 
ATOM     57  N   UNL A   1      43.137  29.272  31.752  1.00  0.00    -0.248 NA
ATOM     58  C   UNL A   1      42.903  30.330  33.777  1.00  0.00     0.031 C 
ATOM     59  C   UNL A   1      44.856  27.262  29.789  1.00  0.00     0.029 A 
ATOM     60  C   UNL A   1      44.215  26.814  30.930  1.00  0.00     0.049 A 
ATOM     61  H   UNL A   1      42.889  25.202  31.133  1.00  0.00     0.167 HD
ATOM     62  C   UNL A   1      43.637  28.396  32.681  1.00  0.00     0.074 A 
ATOM     63  C   UNL A   1      43.407  29.094  33.945  1.00  0.00     0.031 C 
ATOM     64  C   UNL A   1      44.197  27.184  32.343  1.00  0.00     0.034 A 
BRANCH  51  65
ATOM     65  C   UNL A   1      42.724  23.608  27.534  1.00  0.00     0.023 A 
ATOM     66  C   UNL A   1      43.775  23.771  26.611  1.00  0.00     0.031 A 
ATOM     67  C   UNL A   1      42.002  22.400  27.401  1.00  0.00     0.131 A 
ATOM     68  C   UNL A   1      44.036  22.822  25.606  1.00  0.00     0.055 A 
ATOM     69  C   UNL A   1      42.247  21.462  26.387  1.00  0.00     0.041 A 
ATOM     70  F   UNL A   1      41.046  22.029  28.256  1.00  0.00    -0.206 F 
ATOM     71  C   UNL A   1      43.267  21.670  25.478  1.00  0.00     0.022 A 
BRANCH  68  72
ATOM     72  S   UNL A   1      45.405  23.126  24.462  1.00  0.00     0.124 S 
ATOM     73  O   UNL A   1      44.842  22.686  23.190  1.00  0.00    -0.237 OA
ATOM     74  O   UNL A   1      45.623  24.559  24.616  1.00  0.00    -0.237 OA
ATOM     75  O   UNL A   1      46.477  22.280  24.987  1.00  0.00    -0.744 OA
ENDBRANCH  68  72
ENDBRANCH  51  65
BRANCH  52  76
ATOM     76  C   UNL A   1      40.840  32.293  32.033  1.00  0.00     0.023 A 
ATOM     77  C   UNL A   1      39.894  31.545  32.784  1.00  0.00     0.031 A 
ATOM     78  C   UNL A   1      40.951  33.662  32.300  1.00  0.00     0.131 A 
ATOM     79  C   UNL A   1      39.398  32.078  33.988  1.00  0.00     0.055 A 
ATOM     80  C   UNL A   1      40.398  34.197  33.464  1.00  0.00     0.041 A 
ATOM     81  F   UNL A   1      41.750  34.448  31.563  1.00  0.00    -0.206 F 
ATOM     82  C   UNL A   1      39.713  33.381  34.361  1.00  0.00     0.022 A 
BRANCH  79  83
ATOM     83  S   UNL A   1      38.568  30.990  35.184  1.00  0.00     0.124 S 
ATOM     84  O   UNL A   1      38.161  29.861  34.356  1.00  0.00    -0.237 OA
ATOM     85  O   UNL A   1      39.620  30.724  36.160  1.00  0.00    -0.237 OA
ATOM     86  O   UNL A   1      37.469  31.799  35.714  1.00  0.00    -0.744 OA
ENDBRANCH  79  83
ENDBRANCH  52  76
BRANCH  64  87
ATOM     87  C   UNL A   1      44.768  26.193  33.344  1.00  0.00     0.023 A 
ATOM     88  C   UNL A   1      46.101  25.789  33.294  1.00  0.00     0.031 A 
ATOM     89  C   UNL A   1      44.001  25.583  34.372  1.00  0.00     0.131 A 
ATOM     90  C   UNL A   1      46.675  25.029  34.322  1.00  0.00     0.055 A 
ATOM     91  C   UNL A   1      44.551  24.750  35.349  1.00  0.00     0.041 A 
ATOM     92  F   UNL A   1      42.680  25.754  34.495  1.00  0.00    -0.206 F 
ATOM     93  C   UNL A   1      45.909  24.502  35.355  1.00  0.00     0.022 A 
BRANCH  90  94
ATOM     94  S   UNL A   1      48.467  24.823  34.299  1.00  0.00     0.124 S 
ATOM     95  O   UNL A   1      48.618  23.372  34.346  1.00  0.00    -0.237 OA
ATOM     96  O   UNL A   1      48.819  25.452  33.028  1.00  0.00    -0.237 OA
ATOM     97  O   UNL A   1      48.910  25.538  35.493  1.00  0.00    -0.744 OA
ENDBRANCH  90  94
ENDBRANCH  64  87
ENDBRANCH  38  39
ENDBRANCH  30  33
ENDBRANCH  28  29
ENDBRANCH  27  28
ENDBRANCH   1  27
TORSDOF 17
ENDMDL
MODEL 3
REMARK VINA RESULT:     -12.5      3.743      9.247
REMARK SMILES Cc1cc(C(=O)NCCCNC(=O)c2ccc(-c3c4nc(c(-c5cc(S(=O)(=O)[O-])ccc5F)c5ccc([nH]5)c(-c5cc(S(=O)(=O)[O-])ccc5F)c5nc(c(-c6cc(S(=O)(=O)[O-])ccc6F)c6ccc3[nH]6)C=C5)C=C4)cc2)ccc1NS(=O)(=O)c1ccc(C#N)cc1C
REMARK SMILES IDX 8 1 7 2 5 3 6 4 4 6 1 7 2 8 3 9 79 10 78 11 77 12 80 13
REMARK SMILES IDX 81 15 82 16 83 17 84 18 85 19 91 20 86 21 90 22 92 23 87 24
REMARK SMILES IDX 88 25 89 26 9 27 10 28 11 29 12 30 13 32 14 33 15 34 76 35
REMARK SMILES IDX 16 36 75 37 17 38 18 39 19 40 69 41 20 42 74 43 68 44 70 45
REMARK SMILES IDX 21 46 73 47 67 48 66 49 22 51 54 52 34 53 53 54 35 55 38 56
REMARK SMILES IDX 52 57 71 58 36 59 37 60 51 62 72 63 39 64 23 65 24 66 32 67
REMARK SMILES IDX 25 68 31 69 33 70 30 71 26 72 27 73 28 74 29 75 55 76 56 77
REMARK SMILES IDX 64 78 57 79 63 80 65 81 62 82 58 83 59 84 60 85 61 86 40 87
REMARK SMILES IDX 41 88 49 89 42 90 48 91 50 92 47 93 43 94 44 95 45 96 46 97
REMARK H PARENT 7 5 80 14 11 31 70 50 38 61
REMARK Flexibility Score: inf
ROOT
ATOM      1  C   UNL A   1      36.833  22.915  25.709  1.00  0.00     0.118 C 
ENDROOT
BRANCH   1   2
ATOM      2  N   UNL A   1      35.999  22.064  26.561  1.00  0.00    -0.352 N 
ATOM      3  C   UNL A   1      34.622  21.795  26.440  1.00  0.00     0.251 C 
ATOM      4  O   UNL A   1      34.070  20.991  27.188  1.00  0.00    -0.269 OA
ATOM      5  H   UNL A   1      36.459  21.624  27.312  1.00  0.00     0.163 HD
BRANCH   3   6
ATOM      6  C   UNL A   1      33.769  22.552  25.461  1.00  0.00     0.040 A 
ATOM      7  C   UNL A   1      33.143  23.261  21.796  1.00  0.00     0.046 C 
ATOM      8  C   UNL A   1      32.910  23.206  23.278  1.00  0.00    -0.026 A 
ATOM      9  C   UNL A   1      33.869  22.502  24.073  1.00  0.00     0.019 A 
ATOM     10  C   UNL A   1      31.774  23.759  23.913  1.00  0.00     0.052 A 
ATOM     11  C   UNL A   1      31.589  23.437  25.212  1.00  0.00     0.028 A 
ATOM     12  C   UNL A   1      32.742  23.316  25.938  1.00  0.00     0.016 A 
BRANCH  10  13
ATOM     13  N   UNL A   1      30.886  24.700  23.316  1.00  0.00    -0.279 N 
ATOM     14  H   UNL A   1      30.425  24.390  22.502  1.00  0.00     0.180 HD
BRANCH  13  15
ATOM     15  S   UNL A   1      30.508  26.290  23.813  1.00  0.00     0.262 S 
ATOM     16  O   UNL A   1      30.661  27.077  22.605  1.00  0.00    -0.201 OA
ATOM     17  O   UNL A   1      29.199  26.168  24.433  1.00  0.00    -0.201 OA
BRANCH  15  18
ATOM     18  C   UNL A   1      31.559  27.130  25.051  1.00  0.00     0.090 A 
ATOM     19  C   UNL A   1      31.114  27.492  26.326  1.00  0.00     0.024 A 
ATOM     20  C   UNL A   1      32.859  27.550  24.677  1.00  0.00    -0.029 A 
ATOM     21  C   UNL A   1      31.772  28.504  27.068  1.00  0.00     0.021 A 
ATOM     22  C   UNL A   1      33.530  28.530  25.447  1.00  0.00     0.024 A 
ATOM     23  C   UNL A   1      33.685  26.882  23.610  1.00  0.00     0.046 C 
ATOM     24  C   UNL A   1      32.960  29.060  26.601  1.00  0.00     0.052 A 
BRANCH  24  25
ATOM     25  C   UNL A   1      33.635  30.132  27.291  1.00  0.00     0.099 C 
ATOM     26  N   UNL A   1      34.122  31.054  27.779  1.00  0.00    -0.192 NA
ENDBRANCH  24  25
ENDBRANCH  15  18
ENDBRANCH  13  15
ENDBRANCH  10  13
ENDBRANCH   3   6
ENDBRANCH   1   2
BRANCH   1  27
ATOM     27  C   UNL A   1      38.246  22.583  25.323  1.00  0.00     0.042 C 
BRANCH  27  28
ATOM     28  C   UNL A   1      39.107  21.944  26.373  1.00  0.00     0.118 C 
BRANCH  28  29
ATOM     29  N   UNL A   1      40.482  22.452  26.484  1.00  0.00    -0.352 N 
ATOM     30  C   UNL A   1      40.948  23.760  26.640  1.00  0.00     0.251 C 
ATOM     31  H   UNL A   1      41.185  21.764  26.441  1.00  0.00     0.163 HD
ATOM     32  O   UNL A   1      42.137  23.994  26.845  1.00  0.00    -0.269 OA
BRANCH  30  33
ATOM     33  C   UNL A   1      39.985  24.900  26.734  1.00  0.00     0.039 A 
ATOM     34  C   UNL A   1      40.418  26.099  26.157  1.00  0.00     0.014 A 
ATOM     35  C   UNL A   1      39.143  24.943  27.823  1.00  0.00     0.014 A 
ATOM     36  C   UNL A   1      40.455  27.235  26.949  1.00  0.00     0.010 A 
ATOM     37  C   UNL A   1      39.394  25.962  28.709  1.00  0.00     0.010 A 
ATOM     38  C   UNL A   1      40.119  27.075  28.285  1.00  0.00    -0.014 A 
BRANCH  38  39
ATOM     39  C   UNL A   1      40.266  28.092  29.298  1.00  0.00     0.031 A 
ATOM     40  C   UNL A   1      39.313  29.198  29.133  1.00  0.00     0.074 A 
ATOM     41  C   UNL A   1      41.132  27.914  30.321  1.00  0.00     0.049 A 
ATOM     42  N   UNL A   1      39.535  30.412  29.463  1.00  0.00    -0.248 NA
ATOM     43  C   UNL A   1      38.038  29.033  28.422  1.00  0.00     0.031 C 
ATOM     44  C   UNL A   1      41.278  28.679  31.554  1.00  0.00     0.029 A 
ATOM     45  N   UNL A   1      42.229  27.047  30.339  1.00  0.00    -0.354 N 
ATOM     46  C   UNL A   1      38.324  31.070  29.375  1.00  0.00     0.074 A 
ATOM     47  C   UNL A   1      37.502  30.245  28.541  1.00  0.00     0.031 C 
ATOM     48  C   UNL A   1      42.515  28.474  32.053  1.00  0.00     0.029 A 
ATOM     49  C   UNL A   1      43.251  27.670  31.092  1.00  0.00     0.049 A 
ATOM     50  H   UNL A   1      42.281  26.166  29.905  1.00  0.00     0.167 HD
ATOM     51  C   UNL A   1      38.113  32.124  30.207  1.00  0.00     0.034 A 
ATOM     52  C   UNL A   1      44.403  28.058  30.458  1.00  0.00     0.034 A 
ATOM     53  C   UNL A   1      39.342  32.373  30.975  1.00  0.00     0.049 A 
ATOM     54  C   UNL A   1      44.428  29.568  30.232  1.00  0.00     0.074 A 
ATOM     55  C   UNL A   1      39.760  31.999  32.242  1.00  0.00     0.029 A 
ATOM     56  N   UNL A   1      40.498  32.691  30.278  1.00  0.00    -0.354 N 
ATOM     57  N   UNL A   1      43.441  30.381  30.514  1.00  0.00    -0.248 NA
ATOM     58  C   UNL A   1      45.556  30.262  29.628  1.00  0.00     0.031 C 
ATOM     59  C   UNL A   1      41.191  32.035  32.261  1.00  0.00     0.029 A 
ATOM     60  C   UNL A   1      41.638  32.470  31.026  1.00  0.00     0.049 A 
ATOM     61  H   UNL A   1      40.505  33.034  29.355  1.00  0.00     0.167 HD
ATOM     62  C   UNL A   1      43.765  31.668  30.168  1.00  0.00     0.074 A 
ATOM     63  C   UNL A   1      45.086  31.520  29.559  1.00  0.00     0.031 C 
ATOM     64  C   UNL A   1      42.935  32.740  30.409  1.00  0.00     0.034 A 
BRANCH  51  65
ATOM     65  C   UNL A   1      36.765  32.719  30.552  1.00  0.00     0.023 A 
ATOM     66  C   UNL A   1      36.074  33.396  29.529  1.00  0.00     0.031 A 
ATOM     67  C   UNL A   1      36.113  32.717  31.806  1.00  0.00     0.131 A 
ATOM     68  C   UNL A   1      34.857  34.062  29.768  1.00  0.00     0.055 A 
ATOM     69  C   UNL A   1      34.911  33.398  32.052  1.00  0.00     0.041 A 
ATOM     70  F   UNL A   1      36.568  32.033  32.859  1.00  0.00    -0.206 F 
ATOM     71  C   UNL A   1      34.276  34.079  31.031  1.00  0.00     0.022 A 
BRANCH  68  72
ATOM     72  S   UNL A   1      34.049  34.911  28.390  1.00  0.00     0.124 S 
ATOM     73  O   UNL A   1      34.887  34.523  27.260  1.00  0.00    -0.237 OA
ATOM     74  O   UNL A   1      32.705  34.347  28.425  1.00  0.00    -0.237 OA
ATOM     75  O   UNL A   1      34.135  36.323  28.765  1.00  0.00    -0.744 OA
ENDBRANCH  68  72
ENDBRANCH  51  65
BRANCH  52  76
ATOM     76  C   UNL A   1      44.851  27.002  29.475  1.00  0.00     0.023 A 
ATOM     77  C   UNL A   1      44.245  27.047  28.191  1.00  0.00     0.031 A 
ATOM     78  C   UNL A   1      46.169  26.542  29.560  1.00  0.00     0.131 A 
ATOM     79  C   UNL A   1      45.061  27.012  27.046  1.00  0.00     0.055 A 
ATOM     80  C   UNL A   1      46.954  26.446  28.410  1.00  0.00     0.041 A 
ATOM     81  F   UNL A   1      46.769  26.378  30.748  1.00  0.00    -0.206 F 
ATOM     82  C   UNL A   1      46.429  26.784  27.165  1.00  0.00     0.022 A 
BRANCH  79  83
ATOM     83  S   UNL A   1      44.385  27.524  25.438  1.00  0.00     0.124 S 
ATOM     84  O   UNL A   1      45.584  27.871  24.686  1.00  0.00    -0.237 OA
ATOM     85  O   UNL A   1      43.672  26.331  24.995  1.00  0.00    -0.237 OA
ATOM     86  O   UNL A   1      43.503  28.650  25.754  1.00  0.00    -0.744 OA
ENDBRANCH  79  83
ENDBRANCH  52  76
BRANCH  64  87
ATOM     87  C   UNL A   1      43.263  34.179  30.048  1.00  0.00     0.023 A 
ATOM     88  C   UNL A   1      43.404  35.164  31.024  1.00  0.00     0.031 A 
ATOM     89  C   UNL A   1      43.418  34.639  28.713  1.00  0.00     0.131 A 
ATOM     90  C   UNL A   1      43.891  36.440  30.710  1.00  0.00     0.055 A 
ATOM     91  C   UNL A   1      43.818  35.938  28.389  1.00  0.00     0.041 A 
ATOM     92  F   UNL A   1      43.196  33.865  27.644  1.00  0.00    -0.206 F 
ATOM     93  C   UNL A   1      44.101  36.839  29.395  1.00  0.00     0.022 A 
BRANCH  90  94
ATOM     94  S   UNL A   1      44.315  37.526  32.088  1.00  0.00     0.124 S 
ATOM     95  O   UNL A   1      44.253  38.850  31.475  1.00  0.00    -0.237 OA
ATOM     96  O   UNL A   1      43.249  37.223  33.040  1.00  0.00    -0.237 OA
ATOM     97  O   UNL A   1      45.649  37.079  32.479  1.00  0.00    -0.744 OA
ENDBRANCH  90  94
ENDBRANCH  64  87
ENDBRANCH  38  39
ENDBRANCH  30  33
ENDBRANCH  28  29
ENDBRANCH  27  28
ENDBRANCH   1  27
TORSDOF 17
ENDMDL
