MODEL 1
REMARK VINA RESULT:     -12.1      0.000      0.000
REMARK SMILES O=C(NCCCNC(=O)c1ccc(COc2cccc(C(F)(F)F)c2)nc1)c1ccc(-c2c3nc(c(-c4cc(S(=O)(=O)[O-])ccc4F)c4ccc([nH]4)c(-c4cc(S(=O)(=O)[O-])ccc4F)c4nc(c(-c5cc(S(=O)(=O)[O-])ccc5F)c5ccc2[nH]5)C=C4)C=C3)cc1
REMARK SMILES IDX 5 1 4 2 3 3 1 4 2 5 28 7 29 8 90 9 30 10 89 11 31 12 32 13
REMARK SMILES IDX 33 14 83 15 34 16 88 17 82 18 84 19 35 20 87 21 81 22 80 23
REMARK SMILES IDX 36 25 68 26 48 27 67 28 49 29 52 30 66 31 85 32 50 33 51 34
REMARK SMILES IDX 65 36 86 37 53 38 37 39 38 40 46 41 39 42 45 43 47 44 44 45
REMARK SMILES IDX 40 46 41 47 42 48 43 49 69 50 70 51 78 52 71 53 77 54 79 55
REMARK SMILES IDX 76 56 72 57 73 58 74 59 75 60 54 61 55 62 63 63 56 64 62 65
REMARK SMILES IDX 64 66 61 67 57 68 58 69 59 70 60 71 6 72 7 73 8 74 9 76
REMARK SMILES IDX 10 77 11 78 27 79 12 80 26 81 13 82 14 83 15 84 16 85 17 86
REMARK SMILES IDX 25 87 18 88 20 89 19 90 21 91 22 92 23 93 24 94
REMARK H PARENT 3 6 84 24 52 35 7 75
REMARK Flexibility Score: inf
ROOT
ATOM      1  C   UNL A   1      31.536  32.009  26.489  1.00  0.00     0.042 C 
ENDROOT
BRANCH   1   2
ATOM      2  C   UNL A   1      32.792  32.507  27.186  1.00  0.00     0.118 C 
BRANCH   2   3
ATOM      3  N   UNL A   1      32.658  33.881  27.656  1.00  0.00    -0.352 N 
ATOM      4  O   UNL A   1      32.853  35.612  29.079  1.00  0.00    -0.269 OA
ATOM      5  C   UNL A   1      33.277  34.521  28.700  1.00  0.00     0.251 C 
ATOM      6  H   UNL A   1      32.023  34.435  27.145  1.00  0.00     0.163 HD
BRANCH   5   7
ATOM      7  C   UNL A   1      34.438  33.899  29.370  1.00  0.00     0.039 A 
ATOM      8  C   UNL A   1      34.250  32.888  30.315  1.00  0.00     0.014 A 
ATOM      9  C   UNL A   1      35.731  34.308  29.033  1.00  0.00     0.014 A 
ATOM     10  C   UNL A   1      35.331  32.410  31.041  1.00  0.00     0.010 A 
ATOM     11  C   UNL A   1      36.829  33.742  29.685  1.00  0.00     0.010 A 
ATOM     12  C   UNL A   1      36.636  32.809  30.716  1.00  0.00    -0.014 A 
BRANCH  12  13
ATOM     13  C   UNL A   1      37.778  32.173  31.421  1.00  0.00     0.031 A 
ATOM     14  C   UNL A   1      38.592  31.094  30.767  1.00  0.00     0.074 A 
ATOM     15  C   UNL A   1      38.082  32.601  32.662  1.00  0.00     0.049 A 
ATOM     16  N   UNL A   1      39.612  30.427  31.245  1.00  0.00    -0.248 NA
ATOM     17  C   UNL A   1      38.202  30.702  29.405  1.00  0.00     0.031 C 
ATOM     18  C   UNL A   1      37.347  33.635  33.397  1.00  0.00     0.029 A 
ATOM     19  N   UNL A   1      39.086  32.238  33.521  1.00  0.00    -0.354 N 
ATOM     20  C   UNL A   1      39.975  29.522  30.253  1.00  0.00     0.074 A 
ATOM     21  C   UNL A   1      39.040  29.704  29.162  1.00  0.00     0.031 C 
ATOM     22  C   UNL A   1      37.946  33.849  34.576  1.00  0.00     0.029 A 
ATOM     23  C   UNL A   1      39.058  32.917  34.716  1.00  0.00     0.049 A 
ATOM     24  H   UNL A   1      39.762  31.557  33.303  1.00  0.00     0.167 HD
ATOM     25  C   UNL A   1      40.998  28.629  30.257  1.00  0.00     0.034 A 
ATOM     26  C   UNL A   1      39.816  32.784  35.820  1.00  0.00     0.034 A 
ATOM     27  C   UNL A   1      41.917  28.470  31.361  1.00  0.00     0.049 A 
ATOM     28  C   UNL A   1      40.921  31.766  35.812  1.00  0.00     0.074 A 
ATOM     29  C   UNL A   1      43.016  27.632  31.456  1.00  0.00     0.029 A 
ATOM     30  N   UNL A   1      41.839  29.154  32.569  1.00  0.00    -0.354 N 
ATOM     31  N   UNL A   1      41.269  30.937  34.856  1.00  0.00    -0.248 NA
ATOM     32  C   UNL A   1      41.735  31.669  37.028  1.00  0.00     0.031 C 
ATOM     33  C   UNL A   1      43.555  27.756  32.742  1.00  0.00     0.029 A 
ATOM     34  C   UNL A   1      42.843  28.728  33.427  1.00  0.00     0.049 A 
ATOM     35  H   UNL A   1      41.167  29.840  32.786  1.00  0.00     0.167 HD
ATOM     36  C   UNL A   1      42.355  30.223  35.353  1.00  0.00     0.074 A 
ATOM     37  C   UNL A   1      42.615  30.739  36.683  1.00  0.00     0.031 C 
ATOM     38  C   UNL A   1      43.071  29.233  34.762  1.00  0.00     0.034 A 
BRANCH  25  39
ATOM     39  C   UNL A   1      41.136  27.725  29.053  1.00  0.00     0.023 A 
ATOM     40  C   UNL A   1      42.140  27.916  28.089  1.00  0.00     0.031 A 
ATOM     41  C   UNL A   1      40.224  26.673  28.850  1.00  0.00     0.131 A 
ATOM     42  C   UNL A   1      42.161  27.125  26.928  1.00  0.00     0.055 A 
ATOM     43  C   UNL A   1      40.299  25.836  27.733  1.00  0.00     0.041 A 
ATOM     44  F   UNL A   1      39.229  26.451  29.724  1.00  0.00    -0.206 F 
ATOM     45  C   UNL A   1      41.262  26.070  26.756  1.00  0.00     0.022 A 
BRANCH  42  46
ATOM     46  S   UNL A   1      43.278  27.594  25.577  1.00  0.00     0.124 S 
ATOM     47  O   UNL A   1      42.336  28.062  24.563  1.00  0.00    -0.237 OA
ATOM     48  O   UNL A   1      44.110  28.618  26.198  1.00  0.00    -0.237 OA
ATOM     49  O   UNL A   1      43.962  26.346  25.250  1.00  0.00    -0.744 OA
ENDBRANCH  42  46
ENDBRANCH  25  39
BRANCH  26  50
ATOM     50  C   UNL A   1      39.513  33.599  37.027  1.00  0.00     0.023 A 
ATOM     51  C   UNL A   1      38.796  33.067  38.109  1.00  0.00     0.031 A 
ATOM     52  C   UNL A   1      39.953  34.934  37.116  1.00  0.00     0.131 A 
ATOM     53  C   UNL A   1      38.516  33.875  39.223  1.00  0.00     0.055 A 
ATOM     54  C   UNL A   1      39.715  35.717  38.245  1.00  0.00     0.041 A 
ATOM     55  F   UNL A   1      40.650  35.487  36.111  1.00  0.00    -0.206 F 
ATOM     56  C   UNL A   1      38.984  35.189  39.305  1.00  0.00     0.022 A 
BRANCH  53  57
ATOM     57  S   UNL A   1      37.478  33.199  40.546  1.00  0.00     0.124 S 
ATOM     58  O   UNL A   1      36.302  32.756  39.805  1.00  0.00    -0.237 OA
ATOM     59  O   UNL A   1      38.328  32.146  41.091  1.00  0.00    -0.237 OA
ATOM     60  O   UNL A   1      37.264  34.344  41.429  1.00  0.00    -0.744 OA
ENDBRANCH  53  57
ENDBRANCH  26  50
BRANCH  38  61
ATOM     61  C   UNL A   1      44.223  28.669  35.555  1.00  0.00     0.023 A 
ATOM     62  C   UNL A   1      44.052  27.580  36.430  1.00  0.00     0.031 A 
ATOM     63  C   UNL A   1      45.501  29.243  35.452  1.00  0.00     0.131 A 
ATOM     64  C   UNL A   1      45.131  27.135  37.208  1.00  0.00     0.055 A 
ATOM     65  C   UNL A   1      46.585  28.758  36.185  1.00  0.00     0.041 A 
ATOM     66  F   UNL A   1      45.718  30.287  34.637  1.00  0.00    -0.206 F 
ATOM     67  C   UNL A   1      46.400  27.706  37.079  1.00  0.00     0.022 A 
BRANCH  64  68
ATOM     68  S   UNL A   1      44.835  25.853  38.457  1.00  0.00     0.124 S 
ATOM     69  O   UNL A   1      46.195  25.469  38.823  1.00  0.00    -0.237 OA
ATOM     70  O   UNL A   1      44.081  26.577  39.475  1.00  0.00    -0.237 OA
ATOM     71  O   UNL A   1      44.078  24.836  37.731  1.00  0.00    -0.744 OA
ENDBRANCH  64  68
ENDBRANCH  38  61
ENDBRANCH  12  13
ENDBRANCH   5   7
ENDBRANCH   2   3
ENDBRANCH   1   2
BRANCH   1  72
ATOM     72  C   UNL A   1      31.650  30.575  26.001  1.00  0.00     0.118 C 
BRANCH  72  73
ATOM     73  N   UNL A   1      31.670  29.632  27.111  1.00  0.00    -0.352 N 
ATOM     74  C   UNL A   1      31.634  28.267  27.080  1.00  0.00     0.252 C 
ATOM     75  H   UNL A   1      31.713  30.034  28.008  1.00  0.00     0.163 HD
ATOM     76  O   UNL A   1      31.363  27.634  28.101  1.00  0.00    -0.269 OA
BRANCH  74  77
ATOM     77  C   UNL A   1      31.956  27.539  25.845  1.00  0.00     0.058 A 
ATOM     78  C   UNL A   1      33.246  27.081  25.573  1.00  0.00     0.017 A 
ATOM     79  C   UNL A   1      30.930  27.169  24.992  1.00  0.00     0.125 A 
ATOM     80  C   UNL A   1      33.466  26.281  24.458  1.00  0.00     0.028 A 
ATOM     81  N   UNL A   1      31.113  26.368  23.914  1.00  0.00    -0.257 NA
ATOM     82  C   UNL A   1      32.369  25.902  23.683  1.00  0.00     0.078 A 
BRANCH  82  83
ATOM     83  C   UNL A   1      32.513  24.750  22.709  1.00  0.00     0.285 C 
BRANCH  83  84
ATOM     84  O   UNL A   1      32.055  23.484  23.238  1.00  0.00    -0.487 OA
BRANCH  84  85
ATOM     85  C   UNL A   1      33.010  22.770  23.913  1.00  0.00     0.120 A 
ATOM     86  C   UNL A   1      32.599  21.974  24.979  1.00  0.00     0.046 A 
ATOM     87  C   UNL A   1      34.371  22.919  23.651  1.00  0.00     0.059 A 
ATOM     88  C   UNL A   1      33.548  21.282  25.736  1.00  0.00     0.004 A 
ATOM     89  C   UNL A   1      35.331  22.177  24.354  1.00  0.00     0.059 A 
ATOM     90  C   UNL A   1      34.905  21.369  25.416  1.00  0.00     0.013 A 
BRANCH  89  91
ATOM     91  C   UNL A   1      36.791  22.272  23.984  1.00  0.00     0.416 C 
ATOM     92  F   UNL A   1      36.986  22.768  22.732  1.00  0.00    -0.166 F 
ATOM     93  F   UNL A   1      37.486  23.092  24.823  1.00  0.00    -0.166 F 
ATOM     94  F   UNL A   1      37.440  21.075  24.029  1.00  0.00    -0.166 F 
ENDBRANCH  89  91
ENDBRANCH  84  85
ENDBRANCH  83  84
ENDBRANCH  82  83
ENDBRANCH  74  77
ENDBRANCH  72  73
ENDBRANCH   1  72
TORSDOF 17
ENDMDL
MODEL 2
REMARK VINA RESULT:     -12.0      1.549      2.051
REMARK SMILES O=C(NCCCNC(=O)c1ccc(COc2cccc(C(F)(F)F)c2)nc1)c1ccc(-c2c3nc(c(-c4cc(S(=O)(=O)[O-])ccc4F)c4ccc([nH]4)c(-c4cc(S(=O)(=O)[O-])ccc4F)c4nc(c(-c5cc(S(=O)(=O)[O-])ccc5F)c5ccc2[nH]5)C=C4)C=C3)cc1
REMARK SMILES IDX 5 1 4 2 3 3 1 4 2 5 28 7 29 8 90 9 30 10 89 11 31 12 32 13
REMARK SMILES IDX 33 14 83 15 34 16 88 17 82 18 84 19 35 20 87 21 81 22 80 23
REMARK SMILES IDX 36 25 68 26 48 27 67 28 49 29 52 30 66 31 85 32 50 33 51 34
REMARK SMILES IDX 65 36 86 37 53 38 37 39 38 40 46 41 39 42 45 43 47 44 44 45
REMARK SMILES IDX 40 46 41 47 42 48 43 49 69 50 70 51 78 52 71 53 77 54 79 55
REMARK SMILES IDX 76 56 72 57 73 58 74 59 75 60 54 61 55 62 63 63 56 64 62 65
REMARK SMILES IDX 64 66 61 67 57 68 58 69 59 70 60 71 6 72 7 73 8 74 9 76
REMARK SMILES IDX 10 77 11 78 27 79 12 80 26 81 13 82 14 83 15 84 16 85 17 86
REMARK SMILES IDX 25 87 18 88 20 89 19 90 21 91 22 92 23 93 24 94
REMARK H PARENT 3 6 84 24 52 35 7 75
REMARK Flexibility Score: inf
ROOT
ATOM      1  C   UNL A   1      31.531  32.099  26.983  1.00  0.00     0.042 C 
ENDROOT
BRANCH   1   2
ATOM      2  C   UNL A   1      32.830  32.880  27.110  1.00  0.00     0.118 C 
BRANCH   2   3
ATOM      3  N   UNL A   1      32.629  34.197  27.704  1.00  0.00    -0.352 N 
ATOM      4  O   UNL A   1      32.720  35.789  29.290  1.00  0.00    -0.269 OA
ATOM      5  C   UNL A   1      33.196  34.756  28.821  1.00  0.00     0.251 C 
ATOM      6  H   UNL A   1      31.985  34.773  27.230  1.00  0.00     0.163 HD
BRANCH   5   7
ATOM      7  C   UNL A   1      34.364  34.117  29.462  1.00  0.00     0.039 A 
ATOM      8  C   UNL A   1      34.184  33.120  30.422  1.00  0.00     0.014 A 
ATOM      9  C   UNL A   1      35.654  34.496  29.081  1.00  0.00     0.014 A 
ATOM     10  C   UNL A   1      35.278  32.626  31.120  1.00  0.00     0.010 A 
ATOM     11  C   UNL A   1      36.760  33.914  29.706  1.00  0.00     0.010 A 
ATOM     12  C   UNL A   1      36.580  32.994  30.751  1.00  0.00    -0.014 A 
BRANCH  12  13
ATOM     13  C   UNL A   1      37.729  32.342  31.427  1.00  0.00     0.031 A 
ATOM     14  C   UNL A   1      38.485  31.223  30.770  1.00  0.00     0.074 A 
ATOM     15  C   UNL A   1      38.096  32.792  32.644  1.00  0.00     0.049 A 
ATOM     16  N   UNL A   1      39.503  30.538  31.225  1.00  0.00    -0.248 NA
ATOM     17  C   UNL A   1      38.030  30.809  29.436  1.00  0.00     0.031 C 
ATOM     18  C   UNL A   1      37.420  33.866  33.380  1.00  0.00     0.029 A 
ATOM     19  N   UNL A   1      39.121  32.419  33.472  1.00  0.00    -0.354 N 
ATOM     20  C   UNL A   1      39.800  29.597  30.244  1.00  0.00     0.074 A 
ATOM     21  C   UNL A   1      38.828  29.781  29.186  1.00  0.00     0.031 C 
ATOM     22  C   UNL A   1      38.072  34.090  34.529  1.00  0.00     0.029 A 
ATOM     23  C   UNL A   1      39.161  33.129  34.650  1.00  0.00     0.049 A 
ATOM     24  H   UNL A   1      39.768  31.713  33.246  1.00  0.00     0.167 HD
ATOM     25  C   UNL A   1      40.796  28.675  30.232  1.00  0.00     0.034 A 
ATOM     26  C   UNL A   1      39.957  33.000  35.726  1.00  0.00     0.034 A 
ATOM     27  C   UNL A   1      41.753  28.515  31.302  1.00  0.00     0.049 A 
ATOM     28  C   UNL A   1      41.031  31.950  35.702  1.00  0.00     0.074 A 
ATOM     29  C   UNL A   1      42.829  27.646  31.376  1.00  0.00     0.029 A 
ATOM     30  N   UNL A   1      41.743  29.231  32.495  1.00  0.00    -0.354 N 
ATOM     31  N   UNL A   1      41.317  31.086  34.755  1.00  0.00    -0.248 NA
ATOM     32  C   UNL A   1      41.890  31.858  36.887  1.00  0.00     0.031 C 
ATOM     33  C   UNL A   1      43.422  27.786  32.637  1.00  0.00     0.029 A 
ATOM     34  C   UNL A   1      42.767  28.796  33.324  1.00  0.00     0.049 A 
ATOM     35  H   UNL A   1      41.101  29.942  32.719  1.00  0.00     0.167 HD
ATOM     36  C   UNL A   1      42.400  30.353  35.227  1.00  0.00     0.074 A 
ATOM     37  C   UNL A   1      42.727  30.893  36.533  1.00  0.00     0.031 C 
ATOM     38  C   UNL A   1      43.063  29.327  34.636  1.00  0.00     0.034 A 
BRANCH  25  39
ATOM     39  C   UNL A   1      40.859  27.737  29.048  1.00  0.00     0.023 A 
ATOM     40  C   UNL A   1      41.801  27.899  28.017  1.00  0.00     0.031 A 
ATOM     41  C   UNL A   1      39.936  26.681  28.930  1.00  0.00     0.131 A 
ATOM     42  C   UNL A   1      41.750  27.076  26.881  1.00  0.00     0.055 A 
ATOM     43  C   UNL A   1      39.943  25.812  27.835  1.00  0.00     0.041 A 
ATOM     44  F   UNL A   1      38.998  26.484  29.870  1.00  0.00    -0.206 F 
ATOM     45  C   UNL A   1      40.843  26.018  26.794  1.00  0.00     0.022 A 
BRANCH  42  46
ATOM     46  S   UNL A   1      42.781  27.507  25.450  1.00  0.00     0.124 S 
ATOM     47  O   UNL A   1      44.041  27.875  26.093  1.00  0.00    -0.237 OA
ATOM     48  O   UNL A   1      42.792  26.266  24.685  1.00  0.00    -0.237 OA
ATOM     49  O   UNL A   1      42.061  28.617  24.831  1.00  0.00    -0.744 OA
ENDBRANCH  42  46
ENDBRANCH  25  39
BRANCH  26  50
ATOM     50  C   UNL A   1      39.727  33.854  36.923  1.00  0.00     0.023 A 
ATOM     51  C   UNL A   1      39.088  33.354  38.067  1.00  0.00     0.031 A 
ATOM     52  C   UNL A   1      40.159  35.195  36.937  1.00  0.00     0.131 A 
ATOM     53  C   UNL A   1      38.874  34.197  39.169  1.00  0.00     0.055 A 
ATOM     54  C   UNL A   1      39.989  36.013  38.053  1.00  0.00     0.041 A 
ATOM     55  F   UNL A   1      40.783  35.717  35.870  1.00  0.00    -0.206 F 
ATOM     56  C   UNL A   1      39.333  35.517  39.175  1.00  0.00     0.022 A 
BRANCH  53  57
ATOM     57  S   UNL A   1      37.932  33.560  40.580  1.00  0.00     0.124 S 
ATOM     58  O   UNL A   1      38.883  32.630  41.178  1.00  0.00    -0.237 OA
ATOM     59  O   UNL A   1      37.660  34.777  41.338  1.00  0.00    -0.237 OA
ATOM     60  O   UNL A   1      36.762  32.942  39.957  1.00  0.00    -0.744 OA
ENDBRANCH  53  57
ENDBRANCH  26  50
BRANCH  38  61
ATOM     61  C   UNL A   1      44.228  28.748  35.398  1.00  0.00     0.023 A 
ATOM     62  C   UNL A   1      44.046  27.762  36.384  1.00  0.00     0.031 A 
ATOM     63  C   UNL A   1      45.533  29.206  35.150  1.00  0.00     0.131 A 
ATOM     64  C   UNL A   1      45.147  27.305  37.124  1.00  0.00     0.055 A 
ATOM     65  C   UNL A   1      46.632  28.705  35.849  1.00  0.00     0.041 A 
ATOM     66  F   UNL A   1      45.761  30.150  34.223  1.00  0.00    -0.206 F 
ATOM     67  C   UNL A   1      46.440  27.758  36.852  1.00  0.00     0.022 A 
BRANCH  64  68
ATOM     68  S   UNL A   1      44.855  26.171  38.510  1.00  0.00     0.124 S 
ATOM     69  O   UNL A   1      43.456  26.440  38.830  1.00  0.00    -0.237 OA
ATOM     70  O   UNL A   1      45.134  24.869  37.914  1.00  0.00    -0.237 OA
ATOM     71  O   UNL A   1      45.817  26.609  39.519  1.00  0.00    -0.744 OA
ENDBRANCH  64  68
ENDBRANCH  38  61
ENDBRANCH  12  13
ENDBRANCH   5   7
ENDBRANCH   2   3
ENDBRANCH   1   2
BRANCH   1  72
ATOM     72  C   UNL A   1      31.744  30.634  26.644  1.00  0.00     0.118 C 
BRANCH  72  73
ATOM     73  N   UNL A   1      31.371  30.342  25.268  1.00  0.00    -0.352 N 
ATOM     74  C   UNL A   1      31.649  29.235  24.517  1.00  0.00     0.252 C 
ATOM     75  H   UNL A   1      30.848  31.041  24.814  1.00  0.00     0.163 HD
ATOM     76  O   UNL A   1      31.516  29.271  23.293  1.00  0.00    -0.269 OA
BRANCH  74  77
ATOM     77  C   UNL A   1      32.069  27.983  25.161  1.00  0.00     0.058 A 
ATOM     78  C   UNL A   1      31.154  27.122  25.767  1.00  0.00     0.017 A 
ATOM     79  C   UNL A   1      33.384  27.570  25.041  1.00  0.00     0.125 A 
ATOM     80  C   UNL A   1      31.585  25.888  26.239  1.00  0.00     0.028 A 
ATOM     81  N   UNL A   1      33.825  26.361  25.468  1.00  0.00    -0.257 NA
ATOM     82  C   UNL A   1      32.914  25.520  26.024  1.00  0.00     0.078 A 
BRANCH  82  83
ATOM     83  C   UNL A   1      33.315  24.067  26.180  1.00  0.00     0.285 C 
BRANCH  83  84
ATOM     84  O   UNL A   1      32.195  23.152  26.147  1.00  0.00    -0.487 OA
BRANCH  84  85
ATOM     85  C   UNL A   1      32.292  22.166  25.201  1.00  0.00     0.120 A 
ATOM     86  C   UNL A   1      32.092  22.514  23.869  1.00  0.00     0.046 A 
ATOM     87  C   UNL A   1      32.453  20.823  25.544  1.00  0.00     0.059 A 
ATOM     88  C   UNL A   1      32.115  21.528  22.880  1.00  0.00     0.004 A 
ATOM     89  C   UNL A   1      32.550  19.830  24.560  1.00  0.00     0.059 A 
ATOM     90  C   UNL A   1      32.361  20.195  23.220  1.00  0.00     0.013 A 
BRANCH  89  91
ATOM     91  C   UNL A   1      32.831  18.398  24.944  1.00  0.00     0.416 C 
ATOM     92  F   UNL A   1      32.092  17.507  24.231  1.00  0.00    -0.166 F 
ATOM     93  F   UNL A   1      34.135  18.052  24.738  1.00  0.00    -0.166 F 
ATOM     94  F   UNL A   1      32.591  18.133  26.258  1.00  0.00    -0.166 F 
ENDBRANCH  89  91
ENDBRANCH  84  85
ENDBRANCH  83  84
ENDBRANCH  82  83
ENDBRANCH  74  77
ENDBRANCH  72  73
ENDBRANCH   1  72
TORSDOF 17
ENDMDL
MODEL 3
REMARK VINA RESULT:     -11.9      3.011      8.300
REMARK SMILES O=C(NCCCNC(=O)c1ccc(COc2cccc(C(F)(F)F)c2)nc1)c1ccc(-c2c3nc(c(-c4cc(S(=O)(=O)[O-])ccc4F)c4ccc([nH]4)c(-c4cc(S(=O)(=O)[O-])ccc4F)c4nc(c(-c5cc(S(=O)(=O)[O-])ccc5F)c5ccc2[nH]5)C=C4)C=C3)cc1
REMARK SMILES IDX 5 1 4 2 3 3 1 4 2 5 28 7 29 8 90 9 30 10 89 11 31 12 32 13
REMARK SMILES IDX 33 14 83 15 34 16 88 17 82 18 84 19 35 20 87 21 81 22 80 23
REMARK SMILES IDX 36 25 68 26 48 27 67 28 49 29 52 30 66 31 85 32 50 33 51 34
REMARK SMILES IDX 65 36 86 37 53 38 37 39 38 40 46 41 39 42 45 43 47 44 44 45
REMARK SMILES IDX 40 46 41 47 42 48 43 49 69 50 70 51 78 52 71 53 77 54 79 55
REMARK SMILES IDX 76 56 72 57 73 58 74 59 75 60 54 61 55 62 63 63 56 64 62 65
REMARK SMILES IDX 64 66 61 67 57 68 58 69 59 70 60 71 6 72 7 73 8 74 9 76
REMARK SMILES IDX 10 77 11 78 27 79 12 80 26 81 13 82 14 83 15 84 16 85 17 86
REMARK SMILES IDX 25 87 18 88 20 89 19 90 21 91 22 92 23 93 24 94
REMARK H PARENT 3 6 84 24 52 35 7 75
REMARK Flexibility Score: inf
ROOT
ATOM      1  C   UNL A   1      33.057  29.064  24.792  1.00  0.00     0.042 C 
ENDROOT
BRANCH   1   2
ATOM      2  C   UNL A   1      33.940  29.331  26.001  1.00  0.00     0.118 C 
BRANCH   2   3
ATOM      3  N   UNL A   1      33.650  30.617  26.625  1.00  0.00    -0.352 N 
ATOM      4  O   UNL A   1      33.706  32.207  28.216  1.00  0.00    -0.269 OA
ATOM      5  C   UNL A   1      34.249  31.232  27.696  1.00  0.00     0.251 C 
ATOM      6  H   UNL A   1      32.909  31.121  26.215  1.00  0.00     0.163 HD
BRANCH   5   7
ATOM      7  C   UNL A   1      35.531  30.722  28.226  1.00  0.00     0.039 A 
ATOM      8  C   UNL A   1      35.546  29.681  29.156  1.00  0.00     0.014 A 
ATOM      9  C   UNL A   1      36.733  31.270  27.770  1.00  0.00     0.014 A 
ATOM     10  C   UNL A   1      36.740  29.305  29.754  1.00  0.00     0.010 A 
ATOM     11  C   UNL A   1      37.945  30.809  28.290  1.00  0.00     0.010 A 
ATOM     12  C   UNL A   1      37.957  29.843  29.308  1.00  0.00    -0.014 A 
BRANCH  12  13
ATOM     13  C   UNL A   1      39.224  29.316  29.874  1.00  0.00     0.031 A 
ATOM     14  C   UNL A   1      39.842  29.927  31.099  1.00  0.00     0.074 A 
ATOM     15  C   UNL A   1      39.804  28.259  29.272  1.00  0.00     0.049 A 
ATOM     16  N   UNL A   1      40.948  29.598  31.716  1.00  0.00    -0.248 NA
ATOM     17  C   UNL A   1      39.133  31.064  31.703  1.00  0.00     0.031 C 
ATOM     18  C   UNL A   1      39.294  27.597  28.066  1.00  0.00     0.029 A 
ATOM     19  N   UNL A   1      40.931  27.547  29.587  1.00  0.00    -0.354 N 
ATOM     20  C   UNL A   1      41.082  30.498  32.768  1.00  0.00     0.074 A 
ATOM     21  C   UNL A   1      39.959  31.408  32.681  1.00  0.00     0.031 C 
ATOM     22  C   UNL A   1      40.083  26.556  27.769  1.00  0.00     0.029 A 
ATOM     23  C   UNL A   1      41.195  26.521  28.711  1.00  0.00     0.049 A 
ATOM     24  H   UNL A   1      41.497  27.750  30.367  1.00  0.00     0.167 HD
ATOM     25  C   UNL A   1      42.051  30.549  33.717  1.00  0.00     0.034 A 
ATOM     26  C   UNL A   1      42.233  25.667  28.645  1.00  0.00     0.034 A 
ATOM     27  C   UNL A   1      43.160  29.626  33.781  1.00  0.00     0.049 A 
ATOM     28  C   UNL A   1      43.309  25.766  29.688  1.00  0.00     0.074 A 
ATOM     29  C   UNL A   1      44.173  29.556  34.723  1.00  0.00     0.029 A 
ATOM     30  N   UNL A   1      43.413  28.618  32.857  1.00  0.00    -0.354 N 
ATOM     31  N   UNL A   1      43.407  26.605  30.693  1.00  0.00    -0.248 NA
ATOM     32  C   UNL A   1      44.411  24.803  29.591  1.00  0.00     0.031 C 
ATOM     33  C   UNL A   1      45.072  28.557  34.330  1.00  0.00     0.029 A 
ATOM     34  C   UNL A   1      44.583  27.949  33.184  1.00  0.00     0.049 A 
ATOM     35  H   UNL A   1      42.844  28.410  32.081  1.00  0.00     0.167 HD
ATOM     36  C   UNL A   1      44.581  26.263  31.357  1.00  0.00     0.074 A 
ATOM     37  C   UNL A   1      45.140  25.127  30.650  1.00  0.00     0.031 C 
ATOM     38  C   UNL A   1      45.143  26.835  32.452  1.00  0.00     0.034 A 
BRANCH  25  39
ATOM     39  C   UNL A   1      41.976  31.674  34.725  1.00  0.00     0.023 A 
ATOM     40  C   UNL A   1      41.050  31.667  35.783  1.00  0.00     0.031 A 
ATOM     41  C   UNL A   1      42.825  32.790  34.605  1.00  0.00     0.131 A 
ATOM     42  C   UNL A   1      40.937  32.785  36.626  1.00  0.00     0.055 A 
ATOM     43  C   UNL A   1      42.764  33.864  35.498  1.00  0.00     0.041 A 
ATOM     44  F   UNL A   1      43.717  32.867  33.605  1.00  0.00    -0.206 F 
ATOM     45  C   UNL A   1      41.805  33.872  36.506  1.00  0.00     0.022 A 
BRANCH  42  46
ATOM     46  S   UNL A   1      39.539  32.863  37.780  1.00  0.00     0.124 S 
ATOM     47  O   UNL A   1      38.756  31.696  37.377  1.00  0.00    -0.237 OA
ATOM     48  O   UNL A   1      40.196  32.775  39.078  1.00  0.00    -0.237 OA
ATOM     49  O   UNL A   1      38.918  34.151  37.479  1.00  0.00    -0.744 OA
ENDBRANCH  42  46
ENDBRANCH  25  39
BRANCH  26  50
ATOM     50  C   UNL A   1      42.318  24.692  27.524  1.00  0.00     0.023 A 
ATOM     51  C   UNL A   1      41.740  23.417  27.618  1.00  0.00     0.031 A 
ATOM     52  C   UNL A   1      42.978  25.034  26.328  1.00  0.00     0.131 A 
ATOM     53  C   UNL A   1      41.857  22.519  26.545  1.00  0.00     0.055 A 
ATOM     54  C   UNL A   1      43.048  24.157  25.246  1.00  0.00     0.041 A 
ATOM     55  F   UNL A   1      43.539  26.245  26.185  1.00  0.00    -0.206 F 
ATOM     56  C   UNL A   1      42.493  22.886  25.356  1.00  0.00     0.022 A 
BRANCH  53  57
ATOM     57  S   UNL A   1      41.215  20.837  26.747  1.00  0.00     0.124 S 
ATOM     58  O   UNL A   1      40.885  20.812  28.168  1.00  0.00    -0.237 OA
ATOM     59  O   UNL A   1      40.083  20.832  25.825  1.00  0.00    -0.237 OA
ATOM     60  O   UNL A   1      42.341  19.992  26.352  1.00  0.00    -0.744 OA
ENDBRANCH  53  57
ENDBRANCH  26  50
BRANCH  38  61
ATOM     61  C   UNL A   1      46.419  26.212  32.958  1.00  0.00     0.023 A 
ATOM     62  C   UNL A   1      46.405  25.092  33.809  1.00  0.00     0.031 A 
ATOM     63  C   UNL A   1      47.664  26.760  32.604  1.00  0.00     0.131 A 
ATOM     64  C   UNL A   1      47.611  24.590  34.320  1.00  0.00     0.055 A 
ATOM     65  C   UNL A   1      48.863  26.220  33.069  1.00  0.00     0.041 A 
ATOM     66  F   UNL A   1      47.733  27.832  31.799  1.00  0.00    -0.206 F 
ATOM     67  C   UNL A   1      48.841  25.136  33.942  1.00  0.00     0.022 A 
BRANCH  64  68
ATOM     68  S   UNL A   1      47.549  23.264  35.557  1.00  0.00     0.124 S 
ATOM     69  O   UNL A   1      46.219  23.450  36.131  1.00  0.00    -0.237 OA
ATOM     70  O   UNL A   1      47.730  22.067  34.742  1.00  0.00    -0.237 OA
ATOM     71  O   UNL A   1      48.660  23.578  36.452  1.00  0.00    -0.744 OA
ENDBRANCH  64  68
ENDBRANCH  38  61
ENDBRANCH  12  13
ENDBRANCH   5   7
ENDBRANCH   2   3
ENDBRANCH   1   2
BRANCH   1  72
ATOM     72  C   UNL A   1      31.594  29.389  25.036  1.00  0.00     0.118 C 
BRANCH  72  73
ATOM     73  N   UNL A   1      30.916  29.765  23.804  1.00  0.00    -0.352 N 
ATOM     74  C   UNL A   1      30.633  28.999  22.708  1.00  0.00     0.252 C 
ATOM     75  H   UNL A   1      30.622  30.703  23.751  1.00  0.00     0.163 HD
ATOM     76  O   UNL A   1      30.321  29.536  21.645  1.00  0.00    -0.269 OA
BRANCH  74  77
ATOM     77  C   UNL A   1      30.658  27.533  22.797  1.00  0.00     0.058 A 
ATOM     78  C   UNL A   1      31.684  26.777  22.230  1.00  0.00     0.017 A 
ATOM     79  C   UNL A   1      29.721  26.888  23.585  1.00  0.00     0.125 A 
ATOM     80  C   UNL A   1      31.732  25.407  22.461  1.00  0.00     0.028 A 
ATOM     81  N   UNL A   1      29.760  25.558  23.848  1.00  0.00    -0.257 NA
ATOM     82  C   UNL A   1      30.786  24.843  23.317  1.00  0.00     0.078 A 
BRANCH  82  83
ATOM     83  C   UNL A   1      31.030  23.457  23.880  1.00  0.00     0.285 C 
BRANCH  83  84
ATOM     84  O   UNL A   1      31.774  22.594  22.989  1.00  0.00    -0.487 OA
BRANCH  84  85
ATOM     85  C   UNL A   1      32.885  22.020  23.548  1.00  0.00     0.120 A 
ATOM     86  C   UNL A   1      32.724  20.826  24.244  1.00  0.00     0.046 A 
ATOM     87  C   UNL A   1      34.127  22.656  23.551  1.00  0.00     0.059 A 
ATOM     88  C   UNL A   1      33.819  20.242  24.887  1.00  0.00     0.004 A 
ATOM     89  C   UNL A   1      35.251  22.050  24.129  1.00  0.00     0.059 A 
ATOM     90  C   UNL A   1      35.080  20.841  24.816  1.00  0.00     0.013 A 
BRANCH  89  91
ATOM     91  C   UNL A   1      36.607  22.703  24.029  1.00  0.00     0.416 C 
ATOM     92  F   UNL A   1      36.760  23.735  24.901  1.00  0.00    -0.166 F 
ATOM     93  F   UNL A   1      37.623  21.833  24.300  1.00  0.00    -0.166 F 
ATOM     94  F   UNL A   1      36.879  23.201  22.791  1.00  0.00    -0.166 F 
ENDBRANCH  89  91
ENDBRANCH  84  85
ENDBRANCH  83  84
ENDBRANCH  82  83
ENDBRANCH  74  77
ENDBRANCH  72  73
ENDBRANCH   1  72
TORSDOF 17
ENDMDL
