MODEL 1
REMARK VINA RESULT:     -12.3      0.000      0.000
REMARK SMILES O=C(NCCCNC(=O)[C@H]1CCCN(C(=O)CCOc2ccc(F)cc2)C1)c1ccc(-c2c3nc(c(-c4cc(S(=O)(=O)[O-])ccc4F)c4ccc([nH]4)c(-c4cc(S(=O)(=O)[O-])ccc4F)c4nc(c(-c5cc(S(=O)(=O)[O-])ccc5F)c5ccc2[nH]5)C=C4)C=C3)cc1
REMARK SMILES IDX 6 1 5 2 4 3 3 4 1 5 2 6 28 8 29 9 90 10 30 11 89 12 31 13
REMARK SMILES IDX 32 14 33 15 83 16 34 17 88 18 82 19 84 20 35 21 87 22 81 23
REMARK SMILES IDX 80 24 36 26 68 27 48 28 67 29 49 30 52 31 66 32 85 33 50 34
REMARK SMILES IDX 51 35 65 37 86 38 53 39 37 40 38 41 46 42 39 43 45 44 47 45
REMARK SMILES IDX 44 46 40 47 41 48 42 49 43 50 69 51 70 52 78 53 71 54 77 55
REMARK SMILES IDX 79 56 76 57 72 58 73 59 74 60 75 61 54 62 55 63 63 64 56 65
REMARK SMILES IDX 62 66 64 67 61 68 57 69 58 70 59 71 60 72 7 73 8 74 9 76
REMARK SMILES IDX 10 77 11 78 27 79 12 80 14 81 13 82 15 83 16 84 17 85 18 86
REMARK SMILES IDX 19 87 20 88 21 89 26 90 22 91 25 92 23 93 24 94
REMARK H PARENT 3 7 84 25 52 36 7 75
REMARK Flexibility Score: inf
ROOT
ATOM      1  C   UNL A   1      31.892  27.833  27.126  1.00  0.00     0.117 C 
ENDROOT
BRANCH   1   2
ATOM      2  C   UNL A   1      31.660  29.015  26.164  1.00  0.00     0.042 C 
BRANCH   2   3
ATOM      3  C   UNL A   1      32.908  29.798  25.801  1.00  0.00     0.118 C 
BRANCH   3   4
ATOM      4  N   UNL A   1      32.735  31.202  26.149  1.00  0.00    -0.352 N 
ATOM      5  O   UNL A   1      32.775  32.961  27.540  1.00  0.00    -0.269 OA
ATOM      6  C   UNL A   1      33.320  31.929  27.156  1.00  0.00     0.251 C 
ATOM      7  H   UNL A   1      32.107  31.701  25.579  1.00  0.00     0.163 HD
BRANCH   6   8
ATOM      8  C   UNL A   1      34.595  31.488  27.765  1.00  0.00     0.039 A 
ATOM      9  C   UNL A   1      35.642  32.391  27.964  1.00  0.00     0.014 A 
ATOM     10  C   UNL A   1      34.715  30.172  28.226  1.00  0.00     0.014 A 
ATOM     11  C   UNL A   1      36.843  31.959  28.515  1.00  0.00     0.010 A 
ATOM     12  C   UNL A   1      35.886  29.763  28.869  1.00  0.00     0.010 A 
ATOM     13  C   UNL A   1      36.962  30.653  29.013  1.00  0.00    -0.014 A 
BRANCH  13  14
ATOM     14  C   UNL A   1      38.175  30.259  29.771  1.00  0.00     0.031 A 
ATOM     15  C   UNL A   1      39.171  29.300  29.185  1.00  0.00     0.074 A 
ATOM     16  C   UNL A   1      38.366  30.774  31.004  1.00  0.00     0.049 A 
ATOM     17  N   UNL A   1      40.231  28.778  29.745  1.00  0.00    -0.248 NA
ATOM     18  C   UNL A   1      38.950  28.865  27.795  1.00  0.00     0.031 C 
ATOM     19  C   UNL A   1      37.477  31.738  31.661  1.00  0.00     0.029 A 
ATOM     20  N   UNL A   1      39.365  30.574  31.920  1.00  0.00    -0.354 N 
ATOM     21  C   UNL A   1      40.809  27.963  28.782  1.00  0.00     0.074 A 
ATOM     22  C   UNL A   1      39.958  28.020  27.612  1.00  0.00     0.031 C 
ATOM     23  C   UNL A   1      37.992  32.073  32.853  1.00  0.00     0.029 A 
ATOM     24  C   UNL A   1      39.197  31.287  33.086  1.00  0.00     0.049 A 
ATOM     25  H   UNL A   1      40.131  29.976  31.761  1.00  0.00     0.167 HD
ATOM     26  C   UNL A   1      41.955  27.247  28.866  1.00  0.00     0.034 A 
ATOM     27  C   UNL A   1      39.911  31.288  34.227  1.00  0.00     0.034 A 
ATOM     28  C   UNL A   1      42.793  27.199  30.037  1.00  0.00     0.049 A 
ATOM     29  C   UNL A   1      41.113  30.388  34.323  1.00  0.00     0.074 A 
ATOM     30  C   UNL A   1      43.972  26.496  30.216  1.00  0.00     0.029 A 
ATOM     31  N   UNL A   1      42.553  27.880  31.222  1.00  0.00    -0.354 N 
ATOM     32  N   UNL A   1      41.631  29.602  33.408  1.00  0.00    -0.248 NA
ATOM     33  C   UNL A   1      41.826  30.374  35.606  1.00  0.00     0.031 C 
ATOM     34  C   UNL A   1      44.404  26.692  31.529  1.00  0.00     0.029 A 
ATOM     35  C   UNL A   1      43.545  27.587  32.144  1.00  0.00     0.049 A 
ATOM     36  H   UNL A   1      41.790  28.481  31.383  1.00  0.00     0.167 HD
ATOM     37  C   UNL A   1      42.755  29.031  33.996  1.00  0.00     0.074 A 
ATOM     38  C   UNL A   1      42.848  29.577  35.334  1.00  0.00     0.031 C 
ATOM     39  C   UNL A   1      43.631  28.137  33.474  1.00  0.00     0.034 A 
BRANCH  26  40
ATOM     40  C   UNL A   1      42.390  26.450  27.667  1.00  0.00     0.023 A 
ATOM     41  C   UNL A   1      42.076  25.088  27.550  1.00  0.00     0.031 A 
ATOM     42  C   UNL A   1      43.019  27.086  26.581  1.00  0.00     0.131 A 
ATOM     43  C   UNL A   1      42.392  24.399  26.370  1.00  0.00     0.055 A 
ATOM     44  C   UNL A   1      43.284  26.409  25.391  1.00  0.00     0.041 A 
ATOM     45  F   UNL A   1      43.350  28.385  26.650  1.00  0.00    -0.206 F 
ATOM     46  C   UNL A   1      42.968  25.058  25.279  1.00  0.00     0.022 A 
BRANCH  43  47
ATOM     47  S   UNL A   1      42.060  22.620  26.287  1.00  0.00     0.124 S 
ATOM     48  O   UNL A   1      42.686  22.145  27.519  1.00  0.00    -0.237 OA
ATOM     49  O   UNL A   1      40.603  22.570  26.252  1.00  0.00    -0.237 OA
ATOM     50  O   UNL A   1      42.728  22.203  25.055  1.00  0.00    -0.744 OA
ENDBRANCH  43  47
ENDBRANCH  26  40
BRANCH  27  51
ATOM     51  C   UNL A   1      39.507  32.140  35.380  1.00  0.00     0.023 A 
ATOM     52  C   UNL A   1      40.020  33.437  35.518  1.00  0.00     0.031 A 
ATOM     53  C   UNL A   1      38.649  31.659  36.386  1.00  0.00     0.131 A 
ATOM     54  C   UNL A   1      39.720  34.190  36.663  1.00  0.00     0.055 A 
ATOM     55  C   UNL A   1      38.304  32.434  37.493  1.00  0.00     0.041 A 
ATOM     56  F   UNL A   1      38.125  30.425  36.301  1.00  0.00    -0.206 F 
ATOM     57  C   UNL A   1      38.854  33.702  37.644  1.00  0.00     0.022 A 
BRANCH  54  58
ATOM     58  S   UNL A   1      40.550  35.785  36.888  1.00  0.00     0.124 S 
ATOM     59  O   UNL A   1      39.718  36.666  36.077  1.00  0.00    -0.237 OA
ATOM     60  O   UNL A   1      40.463  35.970  38.333  1.00  0.00    -0.237 OA
ATOM     61  O   UNL A   1      41.895  35.542  36.372  1.00  0.00    -0.744 OA
ENDBRANCH  54  58
ENDBRANCH  27  51
BRANCH  39  62
ATOM     62  C   UNL A   1      44.795  27.724  34.338  1.00  0.00     0.023 A 
ATOM     63  C   UNL A   1      44.722  26.606  35.184  1.00  0.00     0.031 A 
ATOM     64  C   UNL A   1      45.997  28.453  34.304  1.00  0.00     0.131 A 
ATOM     65  C   UNL A   1      45.811  26.279  36.003  1.00  0.00     0.055 A 
ATOM     66  C   UNL A   1      47.101  28.082  35.071  1.00  0.00     0.041 A 
ATOM     67  F   UNL A   1      46.124  29.529  33.510  1.00  0.00    -0.206 F 
ATOM     68  C   UNL A   1      47.008  26.999  35.938  1.00  0.00     0.022 A 
BRANCH  65  69
ATOM     69  S   UNL A   1      45.614  24.943  37.212  1.00  0.00     0.124 S 
ATOM     70  O   UNL A   1      44.217  24.567  37.022  1.00  0.00    -0.237 OA
ATOM     71  O   UNL A   1      46.603  23.968  36.765  1.00  0.00    -0.237 OA
ATOM     72  O   UNL A   1      45.914  25.589  38.488  1.00  0.00    -0.744 OA
ENDBRANCH  65  69
ENDBRANCH  39  62
ENDBRANCH  13  14
ENDBRANCH   6   8
ENDBRANCH   3   4
ENDBRANCH   2   3
ENDBRANCH   1   2
BRANCH   1  73
ATOM     73  N   UNL A   1      30.954  26.679  27.079  1.00  0.00    -0.356 N 
ATOM     74  C   UNL A   1      30.335  25.874  26.137  1.00  0.00     0.224 C 
ATOM     75  H   UNL A   1      30.698  26.405  27.989  1.00  0.00     0.163 HD
ATOM     76  O   UNL A   1      29.806  24.852  26.603  1.00  0.00    -0.275 OA
BRANCH  74  77
ATOM     77  C   UNL A   1      30.220  26.123  24.393  1.00  0.00     0.098 C 
ATOM     78  C   UNL A   1      29.526  27.861  23.186  1.00  0.00     0.017 C 
ATOM     79  C   UNL A   1      32.112  25.719  24.256  1.00  0.00     0.132 C 
ATOM     80  C   UNL A   1      31.060  28.868  22.420  1.00  0.00     0.022 C 
ATOM     81  N   UNL A   1      33.011  26.437  23.057  1.00  0.00    -0.342 N 
ATOM     82  C   UNL A   1      32.808  28.134  22.685  1.00  0.00     0.119 C 
BRANCH  81  83
ATOM     83  C   UNL A   1      33.231  25.435  22.049  1.00  0.00     0.226 C 
ATOM     84  O   UNL A   1      33.161  25.708  20.847  1.00  0.00    -0.275 OA
BRANCH  83  85
ATOM     85  C   UNL A   1      33.855  24.077  22.474  1.00  0.00     0.141 C 
BRANCH  85  86
ATOM     86  C   UNL A   1      32.874  22.834  22.669  1.00  0.00     0.239 C 
BRANCH  86  87
ATOM     87  O   UNL A   1      32.570  22.026  23.865  1.00  0.00    -0.493 OA
BRANCH  87  88
ATOM     88  C   UNL A   1      32.819  20.690  23.889  1.00  0.00     0.119 A 
ATOM     89  C   UNL A   1      32.123  19.833  22.688  1.00  0.00     0.049 A 
ATOM     90  C   UNL A   1      34.026  19.903  24.763  1.00  0.00     0.049 A 
ATOM     91  C   UNL A   1      32.472  17.965  22.261  1.00  0.00     0.043 A 
ATOM     92  C   UNL A   1      34.487  18.251  24.491  1.00  0.00     0.043 A 
ATOM     93  C   UNL A   1      33.781  17.243  23.266  1.00  0.00     0.123 A 
ATOM     94  F   UNL A   1      34.289  16.022  23.078  1.00  0.00    -0.207 F 
ENDBRANCH  87  88
ENDBRANCH  86  87
ENDBRANCH  85  86
ENDBRANCH  83  85
ENDBRANCH  81  83
ENDBRANCH  74  77
ENDBRANCH   1  73
TORSDOF 18
ENDMDL
MODEL 2
REMARK VINA RESULT:     -12.2      3.117      4.915
REMARK SMILES O=C(NCCCNC(=O)[C@H]1CCCN(C(=O)CCOc2ccc(F)cc2)C1)c1ccc(-c2c3nc(c(-c4cc(S(=O)(=O)[O-])ccc4F)c4ccc([nH]4)c(-c4cc(S(=O)(=O)[O-])ccc4F)c4nc(c(-c5cc(S(=O)(=O)[O-])ccc5F)c5ccc2[nH]5)C=C4)C=C3)cc1
REMARK SMILES IDX 6 1 5 2 4 3 3 4 1 5 2 6 28 8 29 9 90 10 30 11 89 12 31 13
REMARK SMILES IDX 32 14 33 15 83 16 34 17 88 18 82 19 84 20 35 21 87 22 81 23
REMARK SMILES IDX 80 24 36 26 68 27 48 28 67 29 49 30 52 31 66 32 85 33 50 34
REMARK SMILES IDX 51 35 65 37 86 38 53 39 37 40 38 41 46 42 39 43 45 44 47 45
REMARK SMILES IDX 44 46 40 47 41 48 42 49 43 50 69 51 70 52 78 53 71 54 77 55
REMARK SMILES IDX 79 56 76 57 72 58 73 59 74 60 75 61 54 62 55 63 63 64 56 65
REMARK SMILES IDX 62 66 64 67 61 68 57 69 58 70 59 71 60 72 7 73 8 74 9 76
REMARK SMILES IDX 10 77 11 78 27 79 12 80 14 81 13 82 15 83 16 84 17 85 18 86
REMARK SMILES IDX 19 87 20 88 21 89 26 90 22 91 25 92 23 93 24 94
REMARK H PARENT 3 7 84 25 52 36 7 75
REMARK Flexibility Score: inf
ROOT
ATOM      1  C   UNL A   1      31.482  30.887  26.474  1.00  0.00     0.117 C 
ENDROOT
BRANCH   1   2
ATOM      2  C   UNL A   1      31.561  32.422  26.589  1.00  0.00     0.042 C 
BRANCH   2   3
ATOM      3  C   UNL A   1      32.827  32.950  27.240  1.00  0.00     0.118 C 
BRANCH   3   4
ATOM      4  N   UNL A   1      32.611  34.307  27.722  1.00  0.00    -0.352 N 
ATOM      5  O   UNL A   1      32.495  35.900  29.297  1.00  0.00    -0.269 OA
ATOM      6  C   UNL A   1      33.082  34.914  28.861  1.00  0.00     0.251 C 
ATOM      7  H   UNL A   1      32.044  34.872  27.148  1.00  0.00     0.163 HD
BRANCH   6   8
ATOM      8  C   UNL A   1      34.288  34.398  29.547  1.00  0.00     0.039 A 
ATOM      9  C   UNL A   1      34.178  33.660  30.728  1.00  0.00     0.014 A 
ATOM     10  C   UNL A   1      35.544  34.580  28.956  1.00  0.00     0.014 A 
ATOM     11  C   UNL A   1      35.319  33.202  31.375  1.00  0.00     0.010 A 
ATOM     12  C   UNL A   1      36.682  34.036  29.557  1.00  0.00     0.010 A 
ATOM     13  C   UNL A   1      36.578  33.347  30.775  1.00  0.00    -0.014 A 
BRANCH  13  14
ATOM     14  C   UNL A   1      37.764  32.688  31.376  1.00  0.00     0.031 A 
ATOM     15  C   UNL A   1      38.401  31.499  30.716  1.00  0.00     0.074 A 
ATOM     16  C   UNL A   1      38.259  33.175  32.534  1.00  0.00     0.049 A 
ATOM     17  N   UNL A   1      39.380  30.750  31.152  1.00  0.00    -0.248 NA
ATOM     18  C   UNL A   1      37.872  31.093  29.403  1.00  0.00     0.031 C 
ATOM     19  C   UNL A   1      37.737  34.344  33.249  1.00  0.00     0.029 A 
ATOM     20  N   UNL A   1      39.311  32.761  33.309  1.00  0.00    -0.354 N 
ATOM     21  C   UNL A   1      39.592  29.791  30.170  1.00  0.00     0.074 A 
ATOM     22  C   UNL A   1      38.610  30.023  29.132  1.00  0.00     0.031 C 
ATOM     23  C   UNL A   1      38.494  34.575  34.331  1.00  0.00     0.029 A 
ATOM     24  C   UNL A   1      39.498  33.526  34.439  1.00  0.00     0.049 A 
ATOM     25  H   UNL A   1      39.879  31.990  33.081  1.00  0.00     0.167 HD
ATOM     26  C   UNL A   1      40.534  28.820  30.136  1.00  0.00     0.034 A 
ATOM     27  C   UNL A   1      40.359  33.382  35.464  1.00  0.00     0.034 A 
ATOM     28  C   UNL A   1      41.506  28.601  31.176  1.00  0.00     0.049 A 
ATOM     29  C   UNL A   1      41.313  32.219  35.446  1.00  0.00     0.074 A 
ATOM     30  C   UNL A   1      42.498  27.636  31.230  1.00  0.00     0.029 A 
ATOM     31  N   UNL A   1      41.620  29.351  32.337  1.00  0.00    -0.354 N 
ATOM     32  N   UNL A   1      41.482  31.306  34.518  1.00  0.00    -0.248 NA
ATOM     33  C   UNL A   1      42.191  32.066  36.612  1.00  0.00     0.031 C 
ATOM     34  C   UNL A   1      43.160  27.755  32.453  1.00  0.00     0.029 A 
ATOM     35  C   UNL A   1      42.644  28.850  33.125  1.00  0.00     0.049 A 
ATOM     36  H   UNL A   1      41.056  30.125  32.567  1.00  0.00     0.167 HD
ATOM     37  C   UNL A   1      42.515  30.493  34.975  1.00  0.00     0.074 A 
ATOM     38  C   UNL A   1      42.940  31.036  36.249  1.00  0.00     0.031 C 
ATOM     39  C   UNL A   1      43.062  29.398  34.391  1.00  0.00     0.034 A 
BRANCH  26  40
ATOM     40  C   UNL A   1      40.578  27.908  28.940  1.00  0.00     0.023 A 
ATOM     41  C   UNL A   1      41.478  28.136  27.888  1.00  0.00     0.031 A 
ATOM     42  C   UNL A   1      39.798  26.738  28.909  1.00  0.00     0.131 A 
ATOM     43  C   UNL A   1      41.579  27.207  26.844  1.00  0.00     0.055 A 
ATOM     44  C   UNL A   1      39.939  25.792  27.894  1.00  0.00     0.041 A 
ATOM     45  F   UNL A   1      38.913  26.482  29.886  1.00  0.00    -0.206 F 
ATOM     46  C   UNL A   1      40.835  26.022  26.854  1.00  0.00     0.022 A 
BRANCH  43  47
ATOM     47  S   UNL A   1      42.681  27.577  25.455  1.00  0.00     0.124 S 
ATOM     48  O   UNL A   1      42.718  26.294  24.756  1.00  0.00    -0.237 OA
ATOM     49  O   UNL A   1      41.979  28.656  24.770  1.00  0.00    -0.237 OA
ATOM     50  O   UNL A   1      43.934  27.962  26.103  1.00  0.00    -0.744 OA
ENDBRANCH  43  47
ENDBRANCH  26  40
BRANCH  27  51
ATOM     51  C   UNL A   1      40.351  34.339  36.606  1.00  0.00     0.023 A 
ATOM     52  C   UNL A   1      39.768  33.980  37.829  1.00  0.00     0.031 A 
ATOM     53  C   UNL A   1      40.875  35.638  36.481  1.00  0.00     0.131 A 
ATOM     54  C   UNL A   1      39.668  34.925  38.861  1.00  0.00     0.055 A 
ATOM     55  C   UNL A   1      40.829  36.556  37.531  1.00  0.00     0.041 A 
ATOM     56  F   UNL A   1      41.450  36.033  35.333  1.00  0.00    -0.206 F 
ATOM     57  C   UNL A   1      40.208  36.206  38.725  1.00  0.00     0.022 A 
BRANCH  54  58
ATOM     58  S   UNL A   1      38.745  34.477  40.355  1.00  0.00     0.124 S 
ATOM     59  O   UNL A   1      39.771  33.808  41.146  1.00  0.00    -0.237 OA
ATOM     60  O   UNL A   1      38.305  35.781  40.841  1.00  0.00    -0.237 OA
ATOM     61  O   UNL A   1      37.681  33.613  39.848  1.00  0.00    -0.744 OA
ENDBRANCH  54  58
ENDBRANCH  27  51
BRANCH  39  62
ATOM     62  C   UNL A   1      44.213  28.737  35.105  1.00  0.00     0.023 A 
ATOM     63  C   UNL A   1      44.002  27.817  36.145  1.00  0.00     0.031 A 
ATOM     64  C   UNL A   1      45.538  29.022  34.730  1.00  0.00     0.131 A 
ATOM     65  C   UNL A   1      45.098  27.255  36.813  1.00  0.00     0.055 A 
ATOM     66  C   UNL A   1      46.625  28.408  35.353  1.00  0.00     0.041 A 
ATOM     67  F   UNL A   1      45.797  29.891  33.740  1.00  0.00    -0.206 F 
ATOM     68  C   UNL A   1      46.409  27.530  36.410  1.00  0.00     0.022 A 
BRANCH  65  69
ATOM     69  S   UNL A   1      44.788  26.217  38.265  1.00  0.00     0.124 S 
ATOM     70  O   UNL A   1      45.072  24.882  37.748  1.00  0.00    -0.237 OA
ATOM     71  O   UNL A   1      45.743  26.742  39.235  1.00  0.00    -0.237 OA
ATOM     72  O   UNL A   1      43.384  26.475  38.577  1.00  0.00    -0.744 OA
ENDBRANCH  65  69
ENDBRANCH  39  62
ENDBRANCH  13  14
ENDBRANCH   6   8
ENDBRANCH   3   4
ENDBRANCH   2   3
ENDBRANCH   1   2
BRANCH   1  73
ATOM     73  N   UNL A   1      32.692  30.083  26.796  1.00  0.00    -0.356 N 
ATOM     74  C   UNL A   1      33.339  28.945  26.347  1.00  0.00     0.224 C 
ATOM     75  H   UNL A   1      33.177  30.480  27.555  1.00  0.00     0.163 HD
ATOM     76  O   UNL A   1      34.487  28.794  26.798  1.00  0.00    -0.275 OA
BRANCH  74  77
ATOM     77  C   UNL A   1      32.740  27.716  25.230  1.00  0.00     0.098 C 
ATOM     78  C   UNL A   1      33.710  26.664  23.523  1.00  0.00     0.017 C 
ATOM     79  C   UNL A   1      32.309  26.601  26.757  1.00  0.00     0.132 C 
ATOM     80  C   UNL A   1      34.231  24.810  24.020  1.00  0.00     0.022 C 
ATOM     81  N   UNL A   1      32.375  24.948  26.600  1.00  0.00    -0.342 N 
ATOM     82  C   UNL A   1      33.699  24.186  25.749  1.00  0.00     0.119 C 
BRANCH  81  83
ATOM     83  C   UNL A   1      31.015  24.488  26.509  1.00  0.00     0.226 C 
ATOM     84  O   UNL A   1      30.600  23.572  27.225  1.00  0.00    -0.275 OA
BRANCH  83  85
ATOM     85  C   UNL A   1      29.990  25.348  25.721  1.00  0.00     0.141 C 
BRANCH  85  86
ATOM     86  C   UNL A   1      30.018  25.269  24.128  1.00  0.00     0.239 C 
BRANCH  86  87
ATOM     87  O   UNL A   1      30.355  26.290  23.119  1.00  0.00    -0.493 OA
BRANCH  87  88
ATOM     88  C   UNL A   1      29.718  27.491  23.097  1.00  0.00     0.119 A 
ATOM     89  C   UNL A   1      30.513  28.683  22.317  1.00  0.00     0.049 A 
ATOM     90  C   UNL A   1      28.094  27.779  23.440  1.00  0.00     0.049 A 
ATOM     91  C   UNL A   1      29.794  30.436  21.864  1.00  0.00     0.043 A 
ATOM     92  C   UNL A   1      27.285  29.271  23.074  1.00  0.00     0.043 A 
ATOM     93  C   UNL A   1      28.051  30.614  22.283  1.00  0.00     0.123 A 
ATOM     94  F   UNL A   1      27.302  31.671  21.958  1.00  0.00    -0.207 F 
ENDBRANCH  87  88
ENDBRANCH  86  87
ENDBRANCH  85  86
ENDBRANCH  83  85
ENDBRANCH  81  83
ENDBRANCH  74  77
ENDBRANCH   1  73
TORSDOF 18
ENDMDL
MODEL 3
REMARK VINA RESULT:     -12.1      1.690      2.743
REMARK SMILES O=C(NCCCNC(=O)[C@H]1CCCN(C(=O)CCOc2ccc(F)cc2)C1)c1ccc(-c2c3nc(c(-c4cc(S(=O)(=O)[O-])ccc4F)c4ccc([nH]4)c(-c4cc(S(=O)(=O)[O-])ccc4F)c4nc(c(-c5cc(S(=O)(=O)[O-])ccc5F)c5ccc2[nH]5)C=C4)C=C3)cc1
REMARK SMILES IDX 6 1 5 2 4 3 3 4 1 5 2 6 28 8 29 9 90 10 30 11 89 12 31 13
REMARK SMILES IDX 32 14 33 15 83 16 34 17 88 18 82 19 84 20 35 21 87 22 81 23
REMARK SMILES IDX 80 24 36 26 68 27 48 28 67 29 49 30 52 31 66 32 85 33 50 34
REMARK SMILES IDX 51 35 65 37 86 38 53 39 37 40 38 41 46 42 39 43 45 44 47 45
REMARK SMILES IDX 44 46 40 47 41 48 42 49 43 50 69 51 70 52 78 53 71 54 77 55
REMARK SMILES IDX 79 56 76 57 72 58 73 59 74 60 75 61 54 62 55 63 63 64 56 65
REMARK SMILES IDX 62 66 64 67 61 68 57 69 58 70 59 71 60 72 7 73 8 74 9 76
REMARK SMILES IDX 10 77 11 78 27 79 12 80 14 81 13 82 15 83 16 84 17 85 18 86
REMARK SMILES IDX 19 87 20 88 21 89 26 90 22 91 25 92 23 93 24 94
REMARK H PARENT 3 7 84 25 52 36 7 75
REMARK Flexibility Score: inf
ROOT
ATOM      1  C   UNL A   1      32.454  28.688  23.006  1.00  0.00     0.117 C 
ENDROOT
BRANCH   1   2
ATOM      2  C   UNL A   1      33.473  29.167  24.057  1.00  0.00     0.042 C 
BRANCH   2   3
ATOM      3  C   UNL A   1      32.959  29.186  25.485  1.00  0.00     0.118 C 
BRANCH   3   4
ATOM      4  N   UNL A   1      32.638  30.550  25.881  1.00  0.00    -0.352 N 
ATOM      5  O   UNL A   1      32.464  32.246  27.340  1.00  0.00    -0.269 OA
ATOM      6  C   UNL A   1      33.119  31.289  26.934  1.00  0.00     0.251 C 
ATOM      7  H   UNL A   1      31.979  31.010  25.311  1.00  0.00     0.163 HD
BRANCH   6   8
ATOM      8  C   UNL A   1      34.414  30.950  27.566  1.00  0.00     0.039 A 
ATOM      9  C   UNL A   1      35.377  31.935  27.793  1.00  0.00     0.014 A 
ATOM     10  C   UNL A   1      34.634  29.644  28.018  1.00  0.00     0.014 A 
ATOM     11  C   UNL A   1      36.599  31.600  28.366  1.00  0.00     0.010 A 
ATOM     12  C   UNL A   1      35.823  29.329  28.681  1.00  0.00     0.010 A 
ATOM     13  C   UNL A   1      36.817  30.304  28.855  1.00  0.00    -0.014 A 
BRANCH  13  14
ATOM     14  C   UNL A   1      38.044  30.005  29.635  1.00  0.00     0.031 A 
ATOM     15  C   UNL A   1      39.098  29.085  29.088  1.00  0.00     0.074 A 
ATOM     16  C   UNL A   1      38.193  30.570  30.851  1.00  0.00     0.049 A 
ATOM     17  N   UNL A   1      40.181  28.645  29.673  1.00  0.00    -0.248 NA
ATOM     18  C   UNL A   1      38.916  28.593  27.712  1.00  0.00     0.031 C 
ATOM     19  C   UNL A   1      37.245  31.503  31.470  1.00  0.00     0.029 A 
ATOM     20  N   UNL A   1      39.194  30.458  31.781  1.00  0.00    -0.354 N 
ATOM     21  C   UNL A   1      40.813  27.832  28.742  1.00  0.00     0.074 A 
ATOM     22  C   UNL A   1      39.971  27.802  27.565  1.00  0.00     0.031 C 
ATOM     23  C   UNL A   1      37.729  31.905  32.654  1.00  0.00     0.029 A 
ATOM     24  C   UNL A   1      38.974  31.198  32.921  1.00  0.00     0.049 A 
ATOM     25  H   UNL A   1      39.994  29.900  31.647  1.00  0.00     0.167 HD
ATOM     26  C   UNL A   1      41.997  27.186  28.859  1.00  0.00     0.034 A 
ATOM     27  C   UNL A   1      39.677  31.277  34.067  1.00  0.00     0.034 A 
ATOM     28  C   UNL A   1      42.826  27.225  30.037  1.00  0.00     0.049 A 
ATOM     29  C   UNL A   1      40.927  30.451  34.202  1.00  0.00     0.074 A 
ATOM     30  C   UNL A   1      44.042  26.597  30.248  1.00  0.00     0.029 A 
ATOM     31  N   UNL A   1      42.537  27.929  31.196  1.00  0.00    -0.354 N 
ATOM     32  N   UNL A   1      41.498  29.667  33.317  1.00  0.00    -0.248 NA
ATOM     33  C   UNL A   1      41.628  30.521  35.489  1.00  0.00     0.031 C 
ATOM     34  C   UNL A   1      44.449  26.860  31.557  1.00  0.00     0.029 A 
ATOM     35  C   UNL A   1      43.535  27.725  32.135  1.00  0.00     0.049 A 
ATOM     36  H   UNL A   1      41.739  28.491  31.332  1.00  0.00     0.167 HD
ATOM     37  C   UNL A   1      42.647  29.181  33.932  1.00  0.00     0.074 A 
ATOM     38  C   UNL A   1      42.697  29.775  35.252  1.00  0.00     0.031 C 
ATOM     39  C   UNL A   1      43.577  28.322  33.446  1.00  0.00     0.034 A 
BRANCH  26  40
ATOM     40  C   UNL A   1      42.489  26.377  27.690  1.00  0.00     0.023 A 
ATOM     41  C   UNL A   1      42.374  24.978  27.678  1.00  0.00     0.031 A 
ATOM     42  C   UNL A   1      42.965  27.017  26.532  1.00  0.00     0.131 A 
ATOM     43  C   UNL A   1      42.732  24.260  26.528  1.00  0.00     0.055 A 
ATOM     44  C   UNL A   1      43.271  26.302  25.374  1.00  0.00     0.041 A 
ATOM     45  F   UNL A   1      43.104  28.352  26.499  1.00  0.00    -0.206 F 
ATOM     46  C   UNL A   1      43.153  24.915  25.367  1.00  0.00     0.022 A 
BRANCH  43  47
ATOM     47  S   UNL A   1      42.662  22.451  26.578  1.00  0.00     0.124 S 
ATOM     48  O   UNL A   1      44.080  22.099  26.544  1.00  0.00    -0.237 OA
ATOM     49  O   UNL A   1      41.972  22.194  27.837  1.00  0.00    -0.237 OA
ATOM     50  O   UNL A   1      41.911  22.103  25.373  1.00  0.00    -0.744 OA
ENDBRANCH  43  47
ENDBRANCH  26  40
BRANCH  27  51
ATOM     51  C   UNL A   1      39.214  32.142  35.187  1.00  0.00     0.023 A 
ATOM     52  C   UNL A   1      39.723  33.439  35.340  1.00  0.00     0.031 A 
ATOM     53  C   UNL A   1      38.301  31.674  36.150  1.00  0.00     0.131 A 
ATOM     54  C   UNL A   1      39.365  34.204  36.460  1.00  0.00     0.055 A 
ATOM     55  C   UNL A   1      37.899  32.461  37.229  1.00  0.00     0.041 A 
ATOM     56  F   UNL A   1      37.778  30.441  36.049  1.00  0.00    -0.206 F 
ATOM     57  C   UNL A   1      38.445  33.729  37.397  1.00  0.00     0.022 A 
BRANCH  54  58
ATOM     58  S   UNL A   1      40.187  35.799  36.714  1.00  0.00     0.124 S 
ATOM     59  O   UNL A   1      39.653  36.585  35.607  1.00  0.00    -0.237 OA
ATOM     60  O   UNL A   1      39.724  36.169  38.047  1.00  0.00    -0.237 OA
ATOM     61  O   UNL A   1      41.606  35.467  36.619  1.00  0.00    -0.744 OA
ENDBRANCH  54  58
ENDBRANCH  27  51
BRANCH  39  62
ATOM     62  C   UNL A   1      44.755  28.005  34.333  1.00  0.00     0.023 A 
ATOM     63  C   UNL A   1      44.742  26.907  35.207  1.00  0.00     0.031 A 
ATOM     64  C   UNL A   1      45.910  28.806  34.290  1.00  0.00     0.131 A 
ATOM     65  C   UNL A   1      45.840  26.669  36.045  1.00  0.00     0.055 A 
ATOM     66  C   UNL A   1      47.026  28.525  35.078  1.00  0.00     0.041 A 
ATOM     67  F   UNL A   1      45.978  29.867  33.470  1.00  0.00    -0.206 F 
ATOM     68  C   UNL A   1      46.990  27.461  35.972  1.00  0.00     0.022 A 
BRANCH  65  69
ATOM     69  S   UNL A   1      45.712  25.356  37.287  1.00  0.00     0.124 S 
ATOM     70  O   UNL A   1      47.100  25.209  37.714  1.00  0.00    -0.237 OA
ATOM     71  O   UNL A   1      44.802  25.938  38.267  1.00  0.00    -0.237 OA
ATOM     72  O   UNL A   1      45.172  24.225  36.535  1.00  0.00    -0.744 OA
ENDBRANCH  65  69
ENDBRANCH  39  62
ENDBRANCH  13  14
ENDBRANCH   6   8
ENDBRANCH   3   4
ENDBRANCH   2   3
ENDBRANCH   1   2
BRANCH   1  73
ATOM     73  N   UNL A   1      32.873  27.653  22.023  1.00  0.00    -0.356 N 
ATOM     74  C   UNL A   1      33.244  26.319  22.005  1.00  0.00     0.224 C 
ATOM     75  H   UNL A   1      32.894  28.030  21.114  1.00  0.00     0.163 HD
ATOM     76  O   UNL A   1      33.279  25.811  20.872  1.00  0.00    -0.275 OA
BRANCH  74  77
ATOM     77  C   UNL A   1      33.653  25.280  23.372  1.00  0.00     0.098 C 
ATOM     78  C   UNL A   1      33.752  25.680  25.561  1.00  0.00     0.017 C 
ATOM     79  C   UNL A   1      32.250  24.064  22.812  1.00  0.00     0.132 C 
ATOM     80  C   UNL A   1      32.166  24.936  26.502  1.00  0.00     0.022 C 
ATOM     81  N   UNL A   1      31.445  23.170  23.957  1.00  0.00    -0.342 N 
ATOM     82  C   UNL A   1      30.938  23.899  25.464  1.00  0.00     0.119 C 
BRANCH  81  83
ATOM     83  C   UNL A   1      31.958  21.829  23.869  1.00  0.00     0.226 C 
ATOM     84  O   UNL A   1      32.521  21.424  22.848  1.00  0.00    -0.275 OA
BRANCH  83  85
ATOM     85  C   UNL A   1      32.071  20.989  25.171  1.00  0.00     0.141 C 
BRANCH  85  86
ATOM     86  C   UNL A   1      33.450  20.238  25.456  1.00  0.00     0.239 C 
BRANCH  86  87
ATOM     87  O   UNL A   1      34.663  20.106  24.628  1.00  0.00    -0.493 OA
BRANCH  87  88
ATOM     88  C   UNL A   1      35.748  20.896  24.844  1.00  0.00     0.119 A 
ATOM     89  C   UNL A   1      35.414  22.407  25.361  1.00  0.00     0.049 A 
ATOM     90  C   UNL A   1      37.350  20.395  24.996  1.00  0.00     0.049 A 
ATOM     91  C   UNL A   1      36.707  23.709  26.014  1.00  0.00     0.043 A 
ATOM     92  C   UNL A   1      38.622  21.414  25.591  1.00  0.00     0.043 A 
ATOM     93  C   UNL A   1      38.379  23.047  26.128  1.00  0.00     0.123 A 
ATOM     94  F   UNL A   1      39.412  23.701  26.666  1.00  0.00    -0.207 F 
ENDBRANCH  87  88
ENDBRANCH  86  87
ENDBRANCH  85  86
ENDBRANCH  83  85
ENDBRANCH  81  83
ENDBRANCH  74  77
ENDBRANCH   1  73
TORSDOF 18
ENDMDL
