MODEL 1
REMARK VINA RESULT:     -12.7      0.000      0.000
REMARK SMILES Cc1ccc(OCCC(=O)N2C[C@H](O)C[C@@H]2C(=O)NCCCNC(=O)c2ccc(-c3c4nc(c(-c5cc(S(=O)(=O)[O-])ccc5F)c5ccc([nH]5)c(-c5cc(S(=O)(=O)[O-])ccc5F)c5nc(c(-c6cc(S(=O)(=O)[O-])ccc6F)c6ccc3[nH]6)C=C5)C=C4)cc2)cc1
REMARK SMILES IDX 20 1 19 2 17 3 18 4 16 6 11 7 12 8 13 9 15 10 9 11 10 12
REMARK SMILES IDX 8 13 7 14 6 15 5 16 1 17 2 18 3 19 90 20 4 21 89 22 14 23
REMARK SMILES IDX 21 25 22 26 23 27 24 28 25 30 26 31 27 32 88 33 28 34 87 35
REMARK SMILES IDX 29 36 30 37 31 38 81 39 32 40 86 41 80 42 82 43 33 44 85 45
REMARK SMILES IDX 79 46 78 47 34 49 66 50 46 51 65 52 47 53 50 54 64 55 83 56
REMARK SMILES IDX 48 57 49 58 63 60 84 61 51 62 35 63 36 64 44 65 37 66 43 67
REMARK SMILES IDX 45 68 42 69 38 70 39 71 40 72 41 73 67 74 68 75 76 76 69 77
REMARK SMILES IDX 75 78 77 79 74 80 70 81 71 82 72 83 73 84 52 85 53 86 61 87
REMARK SMILES IDX 54 88 60 89 62 90 59 91 55 92 56 93 57 94 58 95
REMARK H PARENT 19 5 14 24 23 29 82 48 50 59
REMARK Flexibility Score: inf
ROOT
ATOM      1  C   UNL A   1      32.564  30.643  26.823  1.00  0.00     0.117 C 
ENDROOT
BRANCH   1   2
ATOM      2  N   UNL A   1      33.217  29.908  25.746  1.00  0.00    -0.354 N 
ATOM      3  C   UNL A   1      32.692  29.289  24.652  1.00  0.00     0.242 C 
ATOM      4  O   UNL A   1      33.449  29.133  23.684  1.00  0.00    -0.273 OA
ATOM      5  H   UNL A   1      34.197  29.848  25.822  1.00  0.00     0.163 HD
BRANCH   3   6
ATOM      6  C   UNL A   1      31.265  28.675  24.599  1.00  0.00     0.177 C 
ATOM      7  N   UNL A   1      31.026  27.470  23.806  1.00  0.00    -0.328 N 
ATOM      8  C   UNL A   1      30.442  27.809  22.513  1.00  0.00     0.152 C 
ATOM      9  C   UNL A   1      30.311  29.328  22.483  1.00  0.00     0.136 C 
ATOM     10  C   UNL A   1      30.328  29.718  23.957  1.00  0.00     0.069 C 
BRANCH   7  11
ATOM     11  C   UNL A   1      30.953  26.209  24.377  1.00  0.00     0.226 C 
ATOM     12  O   UNL A   1      30.158  25.939  25.278  1.00  0.00    -0.275 OA
BRANCH  11  13
ATOM     13  C   UNL A   1      31.983  25.182  23.920  1.00  0.00     0.141 C 
BRANCH  13  14
ATOM     14  C   UNL A   1      33.404  25.688  23.704  1.00  0.00     0.239 C 
BRANCH  14  15
ATOM     15  O   UNL A   1      34.235  24.773  22.968  1.00  0.00    -0.493 OA
BRANCH  15  16
ATOM     16  C   UNL A   1      35.096  24.005  23.700  1.00  0.00     0.119 A 
ATOM     17  C   UNL A   1      38.382  22.335  25.900  1.00  0.00     0.044 C 
ATOM     18  C   UNL A   1      37.170  22.850  25.187  1.00  0.00    -0.051 A 
ATOM     19  C   UNL A   1      36.399  23.881  25.739  1.00  0.00     0.007 A 
ATOM     20  C   UNL A   1      36.810  22.324  23.945  1.00  0.00     0.007 A 
ATOM     21  C   UNL A   1      35.355  24.447  25.001  1.00  0.00     0.046 A 
ATOM     22  C   UNL A   1      35.771  22.891  23.210  1.00  0.00     0.046 A 
ENDBRANCH  15  16
ENDBRANCH  14  15
ENDBRANCH  13  14
ENDBRANCH  11  13
ENDBRANCH   7  11
BRANCH   9  23
ATOM     23  O   UNL A   1      31.367  29.936  21.750  1.00  0.00    -0.391 OA
ATOM     24  H   UNL A   1      31.925  30.451  22.353  1.00  0.00     0.211 HD
ENDBRANCH   9  23
ENDBRANCH   3   6
ENDBRANCH   1   2
BRANCH   1  25
ATOM     25  C   UNL A   1      33.516  31.535  27.607  1.00  0.00     0.042 C 
BRANCH  25  26
ATOM     26  C   UNL A   1      34.979  31.128  27.561  1.00  0.00     0.118 C 
BRANCH  26  27
ATOM     27  N   UNL A   1      35.824  31.824  28.534  1.00  0.00    -0.352 N 
ATOM     28  C   UNL A   1      36.871  31.294  29.279  1.00  0.00     0.251 C 
ATOM     29  H   UNL A   1      35.627  32.778  28.677  1.00  0.00     0.163 HD
ATOM     30  O   UNL A   1      37.492  31.931  30.111  1.00  0.00    -0.269 OA
BRANCH  28  31
ATOM     31  C   UNL A   1      37.294  29.921  28.925  1.00  0.00     0.039 A 
ATOM     32  C   UNL A   1      37.421  29.041  30.005  1.00  0.00     0.014 A 
ATOM     33  C   UNL A   1      37.994  29.730  27.737  1.00  0.00     0.014 A 
ATOM     34  C   UNL A   1      38.475  28.140  30.008  1.00  0.00     0.010 A 
ATOM     35  C   UNL A   1      39.096  28.895  27.782  1.00  0.00     0.010 A 
ATOM     36  C   UNL A   1      39.388  28.183  28.957  1.00  0.00    -0.014 A 
BRANCH  36  37
ATOM     37  C   UNL A   1      40.751  27.674  29.087  1.00  0.00     0.031 A 
ATOM     38  C   UNL A   1      41.049  26.272  28.732  1.00  0.00     0.074 A 
ATOM     39  C   UNL A   1      41.754  28.487  29.497  1.00  0.00     0.049 A 
ATOM     40  N   UNL A   1      42.131  25.660  29.068  1.00  0.00    -0.248 NA
ATOM     41  C   UNL A   1      40.091  25.406  28.051  1.00  0.00     0.031 C 
ATOM     42  C   UNL A   1      43.192  28.241  29.407  1.00  0.00     0.029 A 
ATOM     43  N   UNL A   1      41.648  29.588  30.352  1.00  0.00    -0.354 N 
ATOM     44  C   UNL A   1      42.155  24.462  28.401  1.00  0.00     0.074 A 
ATOM     45  C   UNL A   1      40.814  24.293  27.908  1.00  0.00     0.031 C 
ATOM     46  C   UNL A   1      43.818  28.951  30.356  1.00  0.00     0.029 A 
ATOM     47  C   UNL A   1      42.795  29.576  31.171  1.00  0.00     0.049 A 
ATOM     48  H   UNL A   1      40.914  30.243  30.377  1.00  0.00     0.167 HD
ATOM     49  C   UNL A   1      43.353  23.839  28.229  1.00  0.00     0.034 A 
ATOM     50  C   UNL A   1      42.703  29.483  32.527  1.00  0.00     0.034 A 
ATOM     51  C   UNL A   1      44.347  24.355  29.180  1.00  0.00     0.049 A 
ATOM     52  C   UNL A   1      43.399  28.273  33.105  1.00  0.00     0.074 A 
ATOM     53  C   UNL A   1      45.486  25.134  29.070  1.00  0.00     0.029 A 
ATOM     54  N   UNL A   1      44.067  24.272  30.544  1.00  0.00    -0.354 N 
ATOM     55  N   UNL A   1      43.822  27.260  32.398  1.00  0.00    -0.248 NA
ATOM     56  C   UNL A   1      43.660  28.104  34.529  1.00  0.00     0.031 C 
ATOM     57  C   UNL A   1      45.836  25.586  30.376  1.00  0.00     0.029 A 
ATOM     58  C   UNL A   1      44.941  25.042  31.285  1.00  0.00     0.049 A 
ATOM     59  H   UNL A   1      43.339  23.732  30.930  1.00  0.00     0.167 HD
ATOM     60  C   UNL A   1      44.362  26.306  33.226  1.00  0.00     0.074 A 
ATOM     61  C   UNL A   1      44.266  26.904  34.548  1.00  0.00     0.031 C 
ATOM     62  C   UNL A   1      44.817  25.106  32.742  1.00  0.00     0.034 A 
BRANCH  49  63
ATOM     63  C   UNL A   1      43.689  22.918  27.064  1.00  0.00     0.023 A 
ATOM     64  C   UNL A   1      43.016  21.680  26.958  1.00  0.00     0.031 A 
ATOM     65  C   UNL A   1      44.731  23.104  26.124  1.00  0.00     0.131 A 
ATOM     66  C   UNL A   1      43.395  20.712  26.001  1.00  0.00     0.055 A 
ATOM     67  C   UNL A   1      45.073  22.164  25.145  1.00  0.00     0.041 A 
ATOM     68  F   UNL A   1      45.527  24.177  26.118  1.00  0.00    -0.206 F 
ATOM     69  C   UNL A   1      44.412  20.955  25.084  1.00  0.00     0.022 A 
BRANCH  66  70
ATOM     70  S   UNL A   1      42.594  19.085  26.010  1.00  0.00     0.124 S 
ATOM     71  O   UNL A   1      42.618  18.738  27.426  1.00  0.00    -0.237 OA
ATOM     72  O   UNL A   1      41.287  19.378  25.434  1.00  0.00    -0.237 OA
ATOM     73  O   UNL A   1      43.470  18.273  25.164  1.00  0.00    -0.744 OA
ENDBRANCH  66  70
ENDBRANCH  49  63
BRANCH  50  74
ATOM     74  C   UNL A   1      41.498  30.165  33.076  1.00  0.00     0.023 A 
ATOM     75  C   UNL A   1      41.530  31.575  33.086  1.00  0.00     0.031 A 
ATOM     76  C   UNL A   1      40.250  29.536  33.157  1.00  0.00     0.131 A 
ATOM     77  C   UNL A   1      40.343  32.310  32.970  1.00  0.00     0.055 A 
ATOM     78  C   UNL A   1      39.061  30.279  33.127  1.00  0.00     0.041 A 
ATOM     79  F   UNL A   1      40.154  28.198  33.121  1.00  0.00    -0.206 F 
ATOM     80  C   UNL A   1      39.104  31.668  32.979  1.00  0.00     0.022 A 
BRANCH  77  81
ATOM     81  S   UNL A   1      40.445  34.064  32.497  1.00  0.00     0.124 S 
ATOM     82  O   UNL A   1      40.313  34.001  31.048  1.00  0.00    -0.237 OA
ATOM     83  O   UNL A   1      39.322  34.662  33.213  1.00  0.00    -0.237 OA
ATOM     84  O   UNL A   1      41.754  34.472  33.006  1.00  0.00    -0.744 OA
ENDBRANCH  77  81
ENDBRANCH  50  74
BRANCH  62  85
ATOM     85  C   UNL A   1      45.237  23.895  33.569  1.00  0.00     0.023 A 
ATOM     86  C   UNL A   1      46.536  23.682  34.057  1.00  0.00     0.031 A 
ATOM     87  C   UNL A   1      44.288  22.912  33.953  1.00  0.00     0.131 A 
ATOM     88  C   UNL A   1      46.868  22.534  34.804  1.00  0.00     0.055 A 
ATOM     89  C   UNL A   1      44.602  21.808  34.756  1.00  0.00     0.041 A 
ATOM     90  F   UNL A   1      43.002  22.981  33.582  1.00  0.00    -0.206 F 
ATOM     91  C   UNL A   1      45.905  21.603  35.175  1.00  0.00     0.022 A 
BRANCH  88  92
ATOM     92  S   UNL A   1      48.608  22.260  35.233  1.00  0.00     0.124 S 
ATOM     93  O   UNL A   1      49.085  21.494  34.085  1.00  0.00    -0.237 OA
ATOM     94  O   UNL A   1      49.121  23.622  35.340  1.00  0.00    -0.237 OA
ATOM     95  O   UNL A   1      48.544  21.518  36.491  1.00  0.00    -0.744 OA
ENDBRANCH  88  92
ENDBRANCH  62  85
ENDBRANCH  36  37
ENDBRANCH  28  31
ENDBRANCH  26  27
ENDBRANCH  25  26
ENDBRANCH   1  25
TORSDOF 19
ENDMDL
MODEL 2
REMARK VINA RESULT:     -12.5      4.435     10.958
REMARK SMILES Cc1ccc(OCCC(=O)N2C[C@H](O)C[C@@H]2C(=O)NCCCNC(=O)c2ccc(-c3c4nc(c(-c5cc(S(=O)(=O)[O-])ccc5F)c5ccc([nH]5)c(-c5cc(S(=O)(=O)[O-])ccc5F)c5nc(c(-c6cc(S(=O)(=O)[O-])ccc6F)c6ccc3[nH]6)C=C5)C=C4)cc2)cc1
REMARK SMILES IDX 20 1 19 2 17 3 18 4 16 6 11 7 12 8 13 9 15 10 9 11 10 12
REMARK SMILES IDX 8 13 7 14 6 15 5 16 1 17 2 18 3 19 90 20 4 21 89 22 14 23
REMARK SMILES IDX 21 25 22 26 23 27 24 28 25 30 26 31 27 32 88 33 28 34 87 35
REMARK SMILES IDX 29 36 30 37 31 38 81 39 32 40 86 41 80 42 82 43 33 44 85 45
REMARK SMILES IDX 79 46 78 47 34 49 66 50 46 51 65 52 47 53 50 54 64 55 83 56
REMARK SMILES IDX 48 57 49 58 63 60 84 61 51 62 35 63 36 64 44 65 37 66 43 67
REMARK SMILES IDX 45 68 42 69 38 70 39 71 40 72 41 73 67 74 68 75 76 76 69 77
REMARK SMILES IDX 75 78 77 79 74 80 70 81 71 82 72 83 73 84 52 85 53 86 61 87
REMARK SMILES IDX 54 88 60 89 62 90 59 91 55 92 56 93 57 94 58 95
REMARK H PARENT 19 5 14 24 23 29 82 48 50 59
REMARK Flexibility Score: inf
ROOT
ATOM      1  C   UNL A   1      37.665  21.210  25.198  1.00  0.00     0.117 C 
ENDROOT
BRANCH   1   2
ATOM      2  N   UNL A   1      36.542  21.753  25.956  1.00  0.00    -0.354 N 
ATOM      3  C   UNL A   1      35.210  21.479  25.880  1.00  0.00     0.242 C 
ATOM      4  O   UNL A   1      34.535  21.715  26.891  1.00  0.00    -0.273 OA
ATOM      5  H   UNL A   1      36.787  22.426  26.631  1.00  0.00     0.163 HD
BRANCH   3   6
ATOM      6  C   UNL A   1      34.487  21.014  24.585  1.00  0.00     0.177 C 
ATOM      7  N   UNL A   1      33.131  21.482  24.305  1.00  0.00    -0.328 N 
ATOM      8  C   UNL A   1      32.147  20.474  24.681  1.00  0.00     0.152 C 
ATOM      9  C   UNL A   1      32.932  19.294  25.244  1.00  0.00     0.136 C 
ATOM     10  C   UNL A   1      34.328  19.482  24.661  1.00  0.00     0.069 C 
BRANCH   7  11
ATOM     11  C   UNL A   1      32.873  22.519  23.421  1.00  0.00     0.226 C 
ATOM     12  O   UNL A   1      32.592  22.321  22.238  1.00  0.00    -0.275 OA
BRANCH  11  13
ATOM     13  C   UNL A   1      33.060  23.938  23.946  1.00  0.00     0.141 C 
BRANCH  13  14
ATOM     14  C   UNL A   1      32.615  24.202  25.379  1.00  0.00     0.239 C 
BRANCH  14  15
ATOM     15  O   UNL A   1      31.761  25.351  25.514  1.00  0.00    -0.493 OA
BRANCH  15  16
ATOM     16  C   UNL A   1      32.299  26.444  26.133  1.00  0.00     0.119 A 
ATOM     17  C   UNL A   1      33.485  30.358  27.438  1.00  0.00     0.044 C 
ATOM     18  C   UNL A   1      33.095  28.957  27.083  1.00  0.00    -0.051 A 
ATOM     19  C   UNL A   1      31.802  28.486  27.340  1.00  0.00     0.007 A 
ATOM     20  C   UNL A   1      34.015  28.109  26.462  1.00  0.00     0.007 A 
ATOM     21  C   UNL A   1      31.410  27.225  26.878  1.00  0.00     0.046 A 
ATOM     22  C   UNL A   1      33.622  26.855  26.000  1.00  0.00     0.046 A 
ENDBRANCH  15  16
ENDBRANCH  14  15
ENDBRANCH  13  14
ENDBRANCH  11  13
ENDBRANCH   7  11
BRANCH   9  23
ATOM     23  O   UNL A   1      32.934  19.289  26.665  1.00  0.00    -0.391 OA
ATOM     24  H   UNL A   1      32.143  19.745  26.992  1.00  0.00     0.211 HD
ENDBRANCH   9  23
ENDBRANCH   3   6
ENDBRANCH   1   2
BRANCH   1  25
ATOM     25  C   UNL A   1      39.015  21.483  25.845  1.00  0.00     0.042 C 
BRANCH  25  26
ATOM     26  C   UNL A   1      39.187  22.871  26.436  1.00  0.00     0.118 C 
BRANCH  26  27
ATOM     27  N   UNL A   1      40.508  23.111  27.023  1.00  0.00    -0.352 N 
ATOM     28  C   UNL A   1      41.037  24.323  27.451  1.00  0.00     0.251 C 
ATOM     29  H   UNL A   1      41.088  22.322  27.127  1.00  0.00     0.163 HD
ATOM     30  O   UNL A   1      42.170  24.447  27.880  1.00  0.00    -0.269 OA
BRANCH  28  31
ATOM     31  C   UNL A   1      40.102  25.470  27.478  1.00  0.00     0.039 A 
ATOM     32  C   UNL A   1      40.457  26.545  26.656  1.00  0.00     0.014 A 
ATOM     33  C   UNL A   1      39.295  25.639  28.599  1.00  0.00     0.014 A 
ATOM     34  C   UNL A   1      40.253  27.835  27.124  1.00  0.00     0.010 A 
ATOM     35  C   UNL A   1      39.175  26.922  29.102  1.00  0.00     0.010 A 
ATOM     36  C   UNL A   1      39.747  28.002  28.410  1.00  0.00    -0.014 A 
BRANCH  36  37
ATOM     37  C   UNL A   1      39.957  29.227  29.177  1.00  0.00     0.031 A 
ATOM     38  C   UNL A   1      38.973  30.324  29.096  1.00  0.00     0.074 A 
ATOM     39  C   UNL A   1      41.033  29.354  29.993  1.00  0.00     0.049 A 
ATOM     40  N   UNL A   1      39.198  31.525  29.501  1.00  0.00    -0.248 NA
ATOM     41  C   UNL A   1      37.673  30.175  28.447  1.00  0.00     0.031 C 
ATOM     42  C   UNL A   1      41.246  30.358  31.033  1.00  0.00     0.029 A 
ATOM     43  N   UNL A   1      42.285  28.755  29.833  1.00  0.00    -0.354 N 
ATOM     44  C   UNL A   1      38.010  32.208  29.461  1.00  0.00     0.074 A 
ATOM     45  C   UNL A   1      37.141  31.379  28.669  1.00  0.00     0.031 C 
ATOM     46  C   UNL A   1      42.564  30.512  31.229  1.00  0.00     0.029 A 
ATOM     47  C   UNL A   1      43.243  29.708  30.233  1.00  0.00     0.049 A 
ATOM     48  H   UNL A   1      42.463  27.845  29.503  1.00  0.00     0.167 HD
ATOM     49  C   UNL A   1      37.875  33.322  30.232  1.00  0.00     0.034 A 
ATOM     50  C   UNL A   1      44.202  30.160  29.376  1.00  0.00     0.034 A 
ATOM     51  C   UNL A   1      39.192  33.837  30.632  1.00  0.00     0.049 A 
ATOM     52  C   UNL A   1      44.158  31.652  29.142  1.00  0.00     0.074 A 
ATOM     53  C   UNL A   1      39.888  33.901  31.827  1.00  0.00     0.029 A 
ATOM     54  N   UNL A   1      40.106  34.173  29.635  1.00  0.00    -0.354 N 
ATOM     55  N   UNL A   1      43.162  32.421  29.490  1.00  0.00    -0.248 NA
ATOM     56  C   UNL A   1      45.228  32.392  28.485  1.00  0.00     0.031 C 
ATOM     57  C   UNL A   1      41.249  34.197  31.525  1.00  0.00     0.029 A 
ATOM     58  C   UNL A   1      41.371  34.362  30.154  1.00  0.00     0.049 A 
ATOM     59  H   UNL A   1      39.878  34.265  28.680  1.00  0.00     0.167 HD
ATOM     60  C   UNL A   1      43.409  33.713  29.092  1.00  0.00     0.074 A 
ATOM     61  C   UNL A   1      44.735  33.642  28.499  1.00  0.00     0.031 C 
ATOM     62  C   UNL A   1      42.487  34.712  29.273  1.00  0.00     0.034 A 
BRANCH  49  63
ATOM     63  C   UNL A   1      36.556  33.824  30.802  1.00  0.00     0.023 A 
ATOM     64  C   UNL A   1      35.612  34.404  29.925  1.00  0.00     0.031 A 
ATOM     65  C   UNL A   1      36.214  33.907  32.173  1.00  0.00     0.131 A 
ATOM     66  C   UNL A   1      34.444  35.036  30.408  1.00  0.00     0.055 A 
ATOM     67  C   UNL A   1      35.034  34.491  32.647  1.00  0.00     0.041 A 
ATOM     68  F   UNL A   1      37.017  33.483  33.153  1.00  0.00    -0.206 F 
ATOM     69  C   UNL A   1      34.144  35.069  31.765  1.00  0.00     0.022 A 
BRANCH  66  70
ATOM     70  S   UNL A   1      33.344  35.891  29.247  1.00  0.00     0.124 S 
ATOM     71  O   UNL A   1      32.492  34.806  28.774  1.00  0.00    -0.237 OA
ATOM     72  O   UNL A   1      32.712  36.892  30.098  1.00  0.00    -0.237 OA
ATOM     73  O   UNL A   1      34.263  36.431  28.244  1.00  0.00    -0.744 OA
ENDBRANCH  66  70
ENDBRANCH  49  63
BRANCH  50  74
ATOM     74  C   UNL A   1      44.656  29.120  28.411  1.00  0.00     0.023 A 
ATOM     75  C   UNL A   1      45.469  28.094  28.938  1.00  0.00     0.031 A 
ATOM     76  C   UNL A   1      43.998  28.879  27.200  1.00  0.00     0.131 A 
ATOM     77  C   UNL A   1      45.446  26.813  28.372  1.00  0.00     0.055 A 
ATOM     78  C   UNL A   1      44.045  27.618  26.588  1.00  0.00     0.041 A 
ATOM     79  F   UNL A   1      43.188  29.806  26.665  1.00  0.00    -0.206 F 
ATOM     80  C   UNL A   1      44.727  26.564  27.202  1.00  0.00     0.022 A 
BRANCH  77  81
ATOM     81  S   UNL A   1      46.100  25.419  29.340  1.00  0.00     0.124 S 
ATOM     82  O   UNL A   1      46.642  26.088  30.516  1.00  0.00    -0.237 OA
ATOM     83  O   UNL A   1      44.917  24.593  29.567  1.00  0.00    -0.237 OA
ATOM     84  O   UNL A   1      47.078  24.813  28.437  1.00  0.00    -0.744 OA
ENDBRANCH  77  81
ENDBRANCH  50  74
BRANCH  62  85
ATOM     85  C   UNL A   1      42.551  36.121  28.694  1.00  0.00     0.023 A 
ATOM     86  C   UNL A   1      42.952  37.257  29.416  1.00  0.00     0.031 A 
ATOM     87  C   UNL A   1      42.255  36.361  27.326  1.00  0.00     0.131 A 
ATOM     88  C   UNL A   1      42.976  38.538  28.830  1.00  0.00     0.055 A 
ATOM     89  C   UNL A   1      42.348  37.623  26.725  1.00  0.00     0.041 A 
ATOM     90  F   UNL A   1      41.874  35.378  26.498  1.00  0.00    -0.206 F 
ATOM     91  C   UNL A   1      42.696  38.728  27.481  1.00  0.00     0.022 A 
BRANCH  88  92
ATOM     92  S   UNL A   1      43.333  39.963  29.893  1.00  0.00     0.124 S 
ATOM     93  O   UNL A   1      44.075  40.836  28.987  1.00  0.00    -0.237 OA
ATOM     94  O   UNL A   1      41.997  40.422  30.259  1.00  0.00    -0.237 OA
ATOM     95  O   UNL A   1      44.117  39.394  30.987  1.00  0.00    -0.744 OA
ENDBRANCH  88  92
ENDBRANCH  62  85
ENDBRANCH  36  37
ENDBRANCH  28  31
ENDBRANCH  26  27
ENDBRANCH  25  26
ENDBRANCH   1  25
TORSDOF 19
ENDMDL
MODEL 3
REMARK VINA RESULT:     -12.1      1.557      2.012
REMARK SMILES Cc1ccc(OCCC(=O)N2C[C@H](O)C[C@@H]2C(=O)NCCCNC(=O)c2ccc(-c3c4nc(c(-c5cc(S(=O)(=O)[O-])ccc5F)c5ccc([nH]5)c(-c5cc(S(=O)(=O)[O-])ccc5F)c5nc(c(-c6cc(S(=O)(=O)[O-])ccc6F)c6ccc3[nH]6)C=C5)C=C4)cc2)cc1
REMARK SMILES IDX 20 1 19 2 17 3 18 4 16 6 11 7 12 8 13 9 15 10 9 11 10 12
REMARK SMILES IDX 8 13 7 14 6 15 5 16 1 17 2 18 3 19 90 20 4 21 89 22 14 23
REMARK SMILES IDX 21 25 22 26 23 27 24 28 25 30 26 31 27 32 88 33 28 34 87 35
REMARK SMILES IDX 29 36 30 37 31 38 81 39 32 40 86 41 80 42 82 43 33 44 85 45
REMARK SMILES IDX 79 46 78 47 34 49 66 50 46 51 65 52 47 53 50 54 64 55 83 56
REMARK SMILES IDX 48 57 49 58 63 60 84 61 51 62 35 63 36 64 44 65 37 66 43 67
REMARK SMILES IDX 45 68 42 69 38 70 39 71 40 72 41 73 67 74 68 75 76 76 69 77
REMARK SMILES IDX 75 78 77 79 74 80 70 81 71 82 72 83 73 84 52 85 53 86 61 87
REMARK SMILES IDX 54 88 60 89 62 90 59 91 55 92 56 93 57 94 58 95
REMARK H PARENT 19 5 14 24 23 29 82 48 50 59
REMARK Flexibility Score: inf
ROOT
ATOM      1  C   UNL A   1      32.163  29.968  26.805  1.00  0.00     0.117 C 
ENDROOT
BRANCH   1   2
ATOM      2  N   UNL A   1      31.788  30.051  25.397  1.00  0.00    -0.354 N 
ATOM      3  C   UNL A   1      31.127  29.162  24.605  1.00  0.00     0.242 C 
ATOM      4  O   UNL A   1      30.548  29.625  23.612  1.00  0.00    -0.273 OA
ATOM      5  H   UNL A   1      32.058  30.883  24.947  1.00  0.00     0.163 HD
BRANCH   3   6
ATOM      6  C   UNL A   1      31.160  27.622  24.806  1.00  0.00     0.177 C 
ATOM      7  N   UNL A   1      32.385  26.880  24.510  1.00  0.00    -0.328 N 
ATOM      8  C   UNL A   1      32.308  26.256  23.194  1.00  0.00     0.152 C 
ATOM      9  C   UNL A   1      30.949  26.635  22.616  1.00  0.00     0.136 C 
ATOM     10  C   UNL A   1      30.126  27.000  23.845  1.00  0.00     0.069 C 
BRANCH   7  11
ATOM     11  C   UNL A   1      33.265  26.478  25.503  1.00  0.00     0.226 C 
ATOM     12  O   UNL A   1      34.025  27.266  26.067  1.00  0.00    -0.275 OA
BRANCH  11  13
ATOM     13  C   UNL A   1      33.339  24.984  25.799  1.00  0.00     0.141 C 
BRANCH  13  14
ATOM     14  C   UNL A   1      34.648  24.282  25.459  1.00  0.00     0.239 C 
BRANCH  14  15
ATOM     15  O   UNL A   1      34.641  23.646  24.168  1.00  0.00    -0.493 OA
BRANCH  15  16
ATOM     16  C   UNL A   1      34.289  22.326  24.140  1.00  0.00     0.119 A 
ATOM     17  C   UNL A   1      32.556  18.440  24.708  1.00  0.00     0.044 C 
ATOM     18  C   UNL A   1      33.191  19.763  24.411  1.00  0.00    -0.051 A 
ATOM     19  C   UNL A   1      32.481  20.764  23.737  1.00  0.00     0.007 A 
ATOM     20  C   UNL A   1      34.497  20.023  24.831  1.00  0.00     0.007 A 
ATOM     21  C   UNL A   1      33.036  22.039  23.589  1.00  0.00     0.046 A 
ATOM     22  C   UNL A   1      35.048  21.295  24.685  1.00  0.00     0.046 A 
ENDBRANCH  15  16
ENDBRANCH  14  15
ENDBRANCH  13  14
ENDBRANCH  11  13
ENDBRANCH   7  11
BRANCH   9  23
ATOM     23  O   UNL A   1      31.048  27.712  21.692  1.00  0.00    -0.391 OA
ATOM     24  H   UNL A   1      31.581  27.435  20.930  1.00  0.00     0.211 HD
ENDBRANCH   9  23
ENDBRANCH   3   6
ENDBRANCH   1   2
BRANCH   1  25
ATOM     25  C   UNL A   1      33.192  31.011  27.216  1.00  0.00     0.042 C 
BRANCH  25  26
ATOM     26  C   UNL A   1      34.576  30.472  27.537  1.00  0.00     0.118 C 
BRANCH  26  27
ATOM     27  N   UNL A   1      35.435  31.420  28.252  1.00  0.00    -0.352 N 
ATOM     28  C   UNL A   1      36.688  31.178  28.802  1.00  0.00     0.251 C 
ATOM     29  H   UNL A   1      35.084  32.334  28.353  1.00  0.00     0.163 HD
ATOM     30  O   UNL A   1      37.317  32.010  29.431  1.00  0.00    -0.269 OA
BRANCH  28  31
ATOM     31  C   UNL A   1      37.299  29.868  28.483  1.00  0.00     0.039 A 
ATOM     32  C   UNL A   1      37.388  28.976  29.557  1.00  0.00     0.014 A 
ATOM     33  C   UNL A   1      38.158  29.787  27.389  1.00  0.00     0.014 A 
ATOM     34  C   UNL A   1      38.527  28.193  29.678  1.00  0.00     0.010 A 
ATOM     35  C   UNL A   1      39.330  29.074  27.559  1.00  0.00     0.010 A 
ATOM     36  C   UNL A   1      39.551  28.363  28.751  1.00  0.00    -0.014 A 
BRANCH  36  37
ATOM     37  C   UNL A   1      40.935  27.999  29.043  1.00  0.00     0.031 A 
ATOM     38  C   UNL A   1      41.492  26.740  28.511  1.00  0.00     0.074 A 
ATOM     39  C   UNL A   1      41.727  28.825  29.770  1.00  0.00     0.049 A 
ATOM     40  N   UNL A   1      42.584  26.202  28.931  1.00  0.00    -0.248 NA
ATOM     41  C   UNL A   1      40.797  25.922  27.521  1.00  0.00     0.031 C 
ATOM     42  C   UNL A   1      43.181  28.769  29.909  1.00  0.00     0.029 A 
ATOM     43  N   UNL A   1      41.321  29.714  30.768  1.00  0.00    -0.354 N 
ATOM     44  C   UNL A   1      42.894  25.171  28.082  1.00  0.00     0.074 A 
ATOM     45  C   UNL A   1      41.691  24.950  27.324  1.00  0.00     0.031 C 
ATOM     46  C   UNL A   1      43.531  29.344  31.068  1.00  0.00     0.029 A 
ATOM     47  C   UNL A   1      42.308  29.673  31.773  1.00  0.00     0.049 A 
ATOM     48  H   UNL A   1      40.504  30.263  30.770  1.00  0.00     0.167 HD
ATOM     49  C   UNL A   1      44.183  24.737  28.031  1.00  0.00     0.034 A 
ATOM     50  C   UNL A   1      42.012  29.303  33.050  1.00  0.00     0.034 A 
ATOM     51  C   UNL A   1      44.921  25.165  29.227  1.00  0.00     0.049 A 
ATOM     52  C   UNL A   1      42.777  28.091  33.528  1.00  0.00     0.074 A 
ATOM     53  C   UNL A   1      45.934  26.077  29.470  1.00  0.00     0.029 A 
ATOM     54  N   UNL A   1      44.440  24.782  30.478  1.00  0.00    -0.354 N 
ATOM     55  N   UNL A   1      43.455  27.294  32.747  1.00  0.00    -0.248 NA
ATOM     56  C   UNL A   1      42.826  27.673  34.924  1.00  0.00     0.031 C 
ATOM     57  C   UNL A   1      45.997  26.297  30.877  1.00  0.00     0.029 A 
ATOM     58  C   UNL A   1      45.057  25.485  31.493  1.00  0.00     0.049 A 
ATOM     59  H   UNL A   1      43.747  24.095  30.620  1.00  0.00     0.167 HD
ATOM     60  C   UNL A   1      43.990  26.263  33.482  1.00  0.00     0.074 A 
ATOM     61  C   UNL A   1      43.592  26.571  34.846  1.00  0.00     0.031 C 
ATOM     62  C   UNL A   1      44.691  25.244  32.889  1.00  0.00     0.034 A 
BRANCH  49  63
ATOM     63  C   UNL A   1      44.837  24.111  26.807  1.00  0.00     0.023 A 
ATOM     64  C   UNL A   1      44.462  22.802  26.429  1.00  0.00     0.031 A 
ATOM     65  C   UNL A   1      45.912  24.653  26.063  1.00  0.00     0.131 A 
ATOM     66  C   UNL A   1      45.144  22.103  25.409  1.00  0.00     0.055 A 
ATOM     67  C   UNL A   1      46.555  23.977  25.020  1.00  0.00     0.041 A 
ATOM     68  F   UNL A   1      46.454  25.845  26.325  1.00  0.00    -0.206 F 
ATOM     69  C   UNL A   1      46.181  22.691  24.692  1.00  0.00     0.022 A 
BRANCH  66  70
ATOM     70  S   UNL A   1      44.717  20.373  25.069  1.00  0.00     0.124 S 
ATOM     71  O   UNL A   1      45.889  19.663  25.568  1.00  0.00    -0.237 OA
ATOM     72  O   UNL A   1      43.482  20.203  25.825  1.00  0.00    -0.237 OA
ATOM     73  O   UNL A   1      44.555  20.343  23.615  1.00  0.00    -0.744 OA
ENDBRANCH  66  70
ENDBRANCH  49  63
BRANCH  50  74
ATOM     74  C   UNL A   1      40.647  29.718  33.474  1.00  0.00     0.023 A 
ATOM     75  C   UNL A   1      40.470  31.091  33.750  1.00  0.00     0.031 A 
ATOM     76  C   UNL A   1      39.508  28.953  33.197  1.00  0.00     0.131 A 
ATOM     77  C   UNL A   1      39.224  31.699  33.546  1.00  0.00     0.055 A 
ATOM     78  C   UNL A   1      38.245  29.551  33.077  1.00  0.00     0.041 A 
ATOM     79  F   UNL A   1      39.616  27.650  32.897  1.00  0.00    -0.206 F 
ATOM     80  C   UNL A   1      38.109  30.936  33.199  1.00  0.00     0.022 A 
BRANCH  77  81
ATOM     81  S   UNL A   1      39.147  33.512  33.434  1.00  0.00     0.124 S 
ATOM     82  O   UNL A   1      40.537  33.865  33.178  1.00  0.00    -0.237 OA
ATOM     83  O   UNL A   1      38.220  33.733  32.327  1.00  0.00    -0.237 OA
ATOM     84  O   UNL A   1      38.613  33.906  34.737  1.00  0.00    -0.744 OA
ENDBRANCH  77  81
ENDBRANCH  50  74
BRANCH  62  85
ATOM     85  C   UNL A   1      45.146  23.950  33.555  1.00  0.00     0.023 A 
ATOM     86  C   UNL A   1      46.466  23.685  33.953  1.00  0.00     0.031 A 
ATOM     87  C   UNL A   1      44.213  22.928  33.875  1.00  0.00     0.131 A 
ATOM     88  C   UNL A   1      46.830  22.462  34.551  1.00  0.00     0.055 A 
ATOM     89  C   UNL A   1      44.562  21.742  34.534  1.00  0.00     0.041 A 
ATOM     90  F   UNL A   1      42.910  23.036  33.577  1.00  0.00    -0.206 F 
ATOM     91  C   UNL A   1      45.882  21.494  34.863  1.00  0.00     0.022 A 
BRANCH  88  92
ATOM     92  S   UNL A   1      48.588  22.146  34.861  1.00  0.00     0.124 S 
ATOM     93  O   UNL A   1      48.623  22.043  36.317  1.00  0.00    -0.237 OA
ATOM     94  O   UNL A   1      48.815  20.902  34.134  1.00  0.00    -0.237 OA
ATOM     95  O   UNL A   1      49.256  23.322  34.306  1.00  0.00    -0.744 OA
ENDBRANCH  88  92
ENDBRANCH  62  85
ENDBRANCH  36  37
ENDBRANCH  28  31
ENDBRANCH  26  27
ENDBRANCH  25  26
ENDBRANCH   1  25
TORSDOF 19
ENDMDL
