MODEL 1
REMARK VINA RESULT:     -13.0      0.000      0.000
REMARK SMILES C[C@@H](Oc1ccc(/C=C2\C(=O)[NH+]=C(NCCCNC(=O)c3ccc(-c4c5nc(c(-c6cc(S(=O)(=O)[O-])ccc6F)c6ccc([nH]6)c(-c6cc(S(=O)(=O)[O-])ccc6F)c6nc(c(-c7cc(S(=O)(=O)[O-])ccc7F)c7ccc4[nH]7)C=C6)C=C5)cc3)N(c3ccc4c(c3)OCO4)C2=O)cc1)C(=O)[O-]
REMARK SMILES IDX 16 1 15 2 14 3 8 4 9 5 10 6 94 7 11 8 12 9 84 10 95 11 13 12
REMARK SMILES IDX 7 15 4 16 5 17 97 18 6 19 96 20 3 21 2 22 1 23 98 24 99 25
REMARK SMILES IDX 100 26 85 27 86 28 90 29 87 30 89 31 88 32 91 33 93 34 92 35
REMARK SMILES IDX 17 36 18 37 19 38 20 40 21 41 22 42 83 43 23 44 82 45 24 46
REMARK SMILES IDX 25 47 26 48 76 49 27 50 81 51 75 52 77 53 28 54 80 55 74 56
REMARK SMILES IDX 73 57 29 59 61 60 41 61 60 62 42 63 45 64 59 65 78 66 43 67
REMARK SMILES IDX 44 68 58 70 79 71 46 72 30 73 31 74 39 75 32 76 38 77 40 78
REMARK SMILES IDX 37 79 33 80 34 81 35 82 36 83 62 84 63 85 71 86 64 87 70 88
REMARK SMILES IDX 72 89 69 90 65 91 66 92 67 93 68 94 47 95 48 96 56 97 49 98
REMARK SMILES IDX 55 99 57 100 54 101 50 102 51 103 52 104 53 105
REMARK H PARENT 12 13 14 14 18 39 77 58 45 69
REMARK Flexibility Score: inf
ROOT
ATOM      1  C   UNL A   1      38.399  19.353  25.259  1.00  0.00     0.059 C 
ENDROOT
BRANCH   1   2
ATOM      2  C   UNL A   1      37.500  20.443  24.694  1.00  0.00     0.199 C 
BRANCH   2   3
ATOM      3  N   UNL A   1      36.102  20.079  24.820  1.00  0.00    -0.277 N 
ATOM      4  C   UNL A   1      32.377  23.773  25.360  1.00  0.00     0.031 C 
ATOM      5  C   UNL A   1      33.204  22.771  25.714  1.00  0.00     0.138 C 
ATOM      6  C   UNL A   1      34.530  22.901  26.338  1.00  0.00     0.321 C 
ATOM      7  C   UNL A   1      32.757  21.397  25.424  1.00  0.00     0.328 C 
ATOM      8  O   UNL A   1      34.762  23.716  27.215  1.00  0.00    -0.250 OA
ATOM      9  N   UNL A   1      35.469  22.053  25.823  1.00  0.00    -0.210 N 
ATOM     10  N   UNL A   1      33.802  20.491  25.277  1.00  0.00    -0.162 N 
ATOM     11  O   UNL A   1      31.562  21.131  25.291  1.00  0.00    -0.249 OA
ATOM     12  C   UNL A   1      35.131  20.900  25.338  1.00  0.00     0.366 C 
ATOM     13  H   UNL A   1      36.417  22.321  25.821  1.00  0.00     0.270 HD
ATOM     14  H   UNL A   1      35.831  19.184  24.515  1.00  0.00     0.260 HD
BRANCH   4  15
ATOM     15  C   UNL A   1      32.563  25.231  25.424  1.00  0.00    -0.024 A 
ATOM     16  C   UNL A   1      32.684  28.040  25.528  1.00  0.00     0.120 A 
ATOM     17  C   UNL A   1      33.559  27.333  24.708  1.00  0.00     0.047 A 
ATOM     18  C   UNL A   1      31.719  27.357  26.259  1.00  0.00     0.047 A 
ATOM     19  C   UNL A   1      33.489  25.937  24.646  1.00  0.00     0.012 A 
ATOM     20  C   UNL A   1      31.670  25.962  26.218  1.00  0.00     0.012 A 
BRANCH  16  21
ATOM     21  O   UNL A   1      32.711  29.404  25.467  1.00  0.00    -0.485 OA
BRANCH  21  22
ATOM     22  C   UNL A   1      32.397  30.052  26.707  1.00  0.00     0.216 C 
ATOM     23  C   UNL A   1      31.488  31.261  26.495  1.00  0.00     0.059 C 
BRANCH  22  24
ATOM     24  C   UNL A   1      33.693  30.559  27.329  1.00  0.00     0.082 C 
ATOM     25  O   UNL A   1      33.840  31.624  27.912  1.00  0.00    -0.546 OA
ATOM     26  O   UNL A   1      34.762  29.765  27.108  1.00  0.00    -0.546 OA
ENDBRANCH  22  24
ENDBRANCH  21  22
ENDBRANCH  16  21
ENDBRANCH   4  15
BRANCH  10  27
ATOM     27  C   UNL A   1      33.445  19.165  24.923  1.00  0.00     0.115 A 
ATOM     28  C   UNL A   1      33.791  18.664  23.649  1.00  0.00     0.048 A 
ATOM     29  C   UNL A   1      32.894  18.326  25.900  1.00  0.00     0.094 A 
ATOM     30  C   UNL A   1      33.644  17.301  23.367  1.00  0.00     0.054 A 
ATOM     31  C   UNL A   1      32.779  16.991  25.595  1.00  0.00     0.169 A 
ATOM     32  C   UNL A   1      33.161  16.489  24.373  1.00  0.00     0.166 A 
ATOM     33  O   UNL A   1      32.359  16.021  26.450  1.00  0.00    -0.453 OA
ATOM     34  O   UNL A   1      33.048  15.133  24.323  1.00  0.00    -0.454 OA
ATOM     35  C   UNL A   1      32.742  14.848  25.705  1.00  0.00     0.468 C 
ENDBRANCH  10  27
ENDBRANCH   2   3
ENDBRANCH   1   2
BRANCH   1  36
ATOM     36  C   UNL A   1      39.476  19.873  26.204  1.00  0.00     0.119 C 
BRANCH  36  37
ATOM     37  N   UNL A   1      40.711  19.101  26.141  1.00  0.00    -0.352 N 
ATOM     38  C   UNL A   1      42.019  19.519  26.157  1.00  0.00     0.251 C 
ATOM     39  H   UNL A   1      40.589  18.126  26.076  1.00  0.00     0.163 HD
ATOM     40  O   UNL A   1      42.910  18.710  25.912  1.00  0.00    -0.269 OA
BRANCH  38  41
ATOM     41  C   UNL A   1      42.350  20.933  26.441  1.00  0.00     0.039 A 
ATOM     42  C   UNL A   1      42.610  21.312  27.760  1.00  0.00     0.014 A 
ATOM     43  C   UNL A   1      42.398  21.884  25.419  1.00  0.00     0.014 A 
ATOM     44  C   UNL A   1      42.990  22.627  28.043  1.00  0.00     0.010 A 
ATOM     45  C   UNL A   1      42.856  23.171  25.690  1.00  0.00     0.010 A 
ATOM     46  C   UNL A   1      43.160  23.557  27.005  1.00  0.00    -0.014 A 
BRANCH  46  47
ATOM     47  C   UNL A   1      43.664  24.931  27.272  1.00  0.00     0.031 A 
ATOM     48  C   UNL A   1      42.747  25.977  27.847  1.00  0.00     0.074 A 
ATOM     49  C   UNL A   1      44.930  25.253  26.937  1.00  0.00     0.049 A 
ATOM     50  N   UNL A   1      42.975  27.246  28.070  1.00  0.00    -0.248 NA
ATOM     51  C   UNL A   1      41.384  25.543  28.188  1.00  0.00     0.031 C 
ATOM     52  C   UNL A   1      45.904  24.337  26.341  1.00  0.00     0.029 A 
ATOM     53  N   UNL A   1      45.613  26.440  27.040  1.00  0.00    -0.354 N 
ATOM     54  C   UNL A   1      41.783  27.765  28.566  1.00  0.00     0.074 A 
ATOM     55  C   UNL A   1      40.819  26.685  28.550  1.00  0.00     0.031 C 
ATOM     56  C   UNL A   1      47.064  24.987  26.156  1.00  0.00     0.029 A 
ATOM     57  C   UNL A   1      46.904  26.378  26.567  1.00  0.00     0.049 A 
ATOM     58  H   UNL A   1      45.217  27.258  27.417  1.00  0.00     0.167 HD
ATOM     59  C   UNL A   1      41.525  29.020  29.015  1.00  0.00     0.034 A 
ATOM     60  C   UNL A   1      47.847  27.335  26.459  1.00  0.00     0.034 A 
ATOM     61  C   UNL A   1      42.500  30.083  29.029  1.00  0.00     0.049 A 
ATOM     62  C   UNL A   1      47.524  28.732  26.927  1.00  0.00     0.074 A 
ATOM     63  C   UNL A   1      42.359  31.375  29.506  1.00  0.00     0.029 A 
ATOM     64  N   UNL A   1      43.796  29.984  28.537  1.00  0.00    -0.354 N 
ATOM     65  N   UNL A   1      46.406  29.195  27.436  1.00  0.00    -0.248 NA
ATOM     66  C   UNL A   1      48.594  29.732  26.816  1.00  0.00     0.031 C 
ATOM     67  C   UNL A   1      43.538  32.076  29.233  1.00  0.00     0.029 A 
ATOM     68  C   UNL A   1      44.451  31.200  28.668  1.00  0.00     0.049 A 
ATOM     69  H   UNL A   1      44.193  29.169  28.151  1.00  0.00     0.167 HD
ATOM     70  C   UNL A   1      46.653  30.531  27.741  1.00  0.00     0.074 A 
ATOM     71  C   UNL A   1      48.028  30.795  27.369  1.00  0.00     0.031 C 
ATOM     72  C   UNL A   1      45.820  31.455  28.287  1.00  0.00     0.034 A 
BRANCH  59  73
ATOM     73  C   UNL A   1      40.122  29.312  29.497  1.00  0.00     0.023 A 
ATOM     74  C   UNL A   1      39.818  29.418  30.866  1.00  0.00     0.031 A 
ATOM     75  C   UNL A   1      39.070  29.468  28.577  1.00  0.00     0.131 A 
ATOM     76  C   UNL A   1      38.487  29.594  31.277  1.00  0.00     0.055 A 
ATOM     77  C   UNL A   1      37.762  29.731  28.991  1.00  0.00     0.041 A 
ATOM     78  F   UNL A   1      39.291  29.357  27.258  1.00  0.00    -0.206 F 
ATOM     79  C   UNL A   1      37.461  29.779  30.349  1.00  0.00     0.022 A 
BRANCH  76  80
ATOM     80  S   UNL A   1      38.098  29.423  33.040  1.00  0.00     0.124 S 
ATOM     81  O   UNL A   1      37.344  30.649  33.295  1.00  0.00    -0.237 OA
ATOM     82  O   UNL A   1      37.332  28.183  33.076  1.00  0.00    -0.237 OA
ATOM     83  O   UNL A   1      39.412  29.365  33.677  1.00  0.00    -0.744 OA
ENDBRANCH  76  80
ENDBRANCH  59  73
BRANCH  60  84
ATOM     84  C   UNL A   1      49.183  27.019  25.872  1.00  0.00     0.023 A 
ATOM     85  C   UNL A   1      50.274  26.693  26.693  1.00  0.00     0.031 A 
ATOM     86  C   UNL A   1      49.399  27.080  24.485  1.00  0.00     0.131 A 
ATOM     87  C   UNL A   1      51.542  26.492  26.126  1.00  0.00     0.055 A 
ATOM     88  C   UNL A   1      50.649  26.821  23.919  1.00  0.00     0.041 A 
ATOM     89  F   UNL A   1      48.390  27.385  23.653  1.00  0.00    -0.206 F 
ATOM     90  C   UNL A   1      51.733  26.539  24.743  1.00  0.00     0.022 A 
BRANCH  87  91
ATOM     91  S   UNL A   1      52.961  26.265  27.232  1.00  0.00     0.124 S 
ATOM     92  O   UNL A   1      53.653  27.541  27.093  1.00  0.00    -0.237 OA
ATOM     93  O   UNL A   1      52.309  26.024  28.515  1.00  0.00    -0.237 OA
ATOM     94  O   UNL A   1      53.655  25.112  26.662  1.00  0.00    -0.744 OA
ENDBRANCH  87  91
ENDBRANCH  60  84
BRANCH  72  95
ATOM     95  C   UNL A   1      46.397  32.822  28.568  1.00  0.00     0.023 A 
ATOM     96  C   UNL A   1      46.485  33.814  27.576  1.00  0.00     0.031 A 
ATOM     97  C   UNL A   1      46.870  33.133  29.857  1.00  0.00     0.131 A 
ATOM     98  C   UNL A   1      47.083  35.048  27.873  1.00  0.00     0.055 A 
ATOM     99  C   UNL A   1      47.404  34.385  30.163  1.00  0.00     0.041 A 
ATOM    100  F   UNL A   1      46.815  32.224  30.843  1.00  0.00    -0.206 F 
ATOM    101  C   UNL A   1      47.525  35.347  29.164  1.00  0.00     0.022 A 
BRANCH  98 102
ATOM    102  S   UNL A   1      47.364  36.228  26.524  1.00  0.00     0.124 S 
ATOM    103  O   UNL A   1      46.017  36.733  26.277  1.00  0.00    -0.237 OA
ATOM    104  O   UNL A   1      48.298  37.173  27.125  1.00  0.00    -0.237 OA
ATOM    105  O   UNL A   1      47.922  35.402  25.455  1.00  0.00    -0.744 OA
ENDBRANCH  98 102
ENDBRANCH  72  95
ENDBRANCH  46  47
ENDBRANCH  38  41
ENDBRANCH  36  37
ENDBRANCH   1  36
TORSDOF 17
ENDMDL
MODEL 2
REMARK VINA RESULT:     -12.8      1.868      2.366
REMARK SMILES C[C@@H](Oc1ccc(/C=C2\C(=O)[NH+]=C(NCCCNC(=O)c3ccc(-c4c5nc(c(-c6cc(S(=O)(=O)[O-])ccc6F)c6ccc([nH]6)c(-c6cc(S(=O)(=O)[O-])ccc6F)c6nc(c(-c7cc(S(=O)(=O)[O-])ccc7F)c7ccc4[nH]7)C=C6)C=C5)cc3)N(c3ccc4c(c3)OCO4)C2=O)cc1)C(=O)[O-]
REMARK SMILES IDX 16 1 15 2 14 3 8 4 9 5 10 6 94 7 11 8 12 9 84 10 95 11 13 12
REMARK SMILES IDX 7 15 4 16 5 17 97 18 6 19 96 20 3 21 2 22 1 23 98 24 99 25
REMARK SMILES IDX 100 26 85 27 86 28 90 29 87 30 89 31 88 32 91 33 93 34 92 35
REMARK SMILES IDX 17 36 18 37 19 38 20 40 21 41 22 42 83 43 23 44 82 45 24 46
REMARK SMILES IDX 25 47 26 48 76 49 27 50 81 51 75 52 77 53 28 54 80 55 74 56
REMARK SMILES IDX 73 57 29 59 61 60 41 61 60 62 42 63 45 64 59 65 78 66 43 67
REMARK SMILES IDX 44 68 58 70 79 71 46 72 30 73 31 74 39 75 32 76 38 77 40 78
REMARK SMILES IDX 37 79 33 80 34 81 35 82 36 83 62 84 63 85 71 86 64 87 70 88
REMARK SMILES IDX 72 89 69 90 65 91 66 92 67 93 68 94 47 95 48 96 56 97 49 98
REMARK SMILES IDX 55 99 57 100 54 101 50 102 51 103 52 104 53 105
REMARK H PARENT 12 13 14 14 18 39 77 58 45 69
REMARK Flexibility Score: inf
ROOT
ATOM      1  C   UNL A   1      38.341  20.002  25.007  1.00  0.00     0.059 C 
ENDROOT
BRANCH   1   2
ATOM      2  C   UNL A   1      37.191  20.995  25.063  1.00  0.00     0.199 C 
BRANCH   2   3
ATOM      3  N   UNL A   1      35.913  20.309  25.047  1.00  0.00    -0.277 N 
ATOM      4  C   UNL A   1      31.412  22.975  24.372  1.00  0.00     0.031 C 
ATOM      5  C   UNL A   1      32.365  22.274  25.015  1.00  0.00     0.138 C 
ATOM      6  C   UNL A   1      33.488  22.819  25.793  1.00  0.00     0.321 C 
ATOM      7  C   UNL A   1      32.303  20.804  24.912  1.00  0.00     0.328 C 
ATOM      8  O   UNL A   1      33.363  23.779  26.536  1.00  0.00    -0.250 OA
ATOM      9  N   UNL A   1      34.674  22.176  25.580  1.00  0.00    -0.210 N 
ATOM     10  N   UNL A   1      33.536  20.183  25.083  1.00  0.00    -0.162 N 
ATOM     11  O   UNL A   1      31.245  20.229  24.656  1.00  0.00    -0.249 OA
ATOM     12  C   UNL A   1      34.702  20.919  25.263  1.00  0.00     0.366 C 
ATOM     13  H   UNL A   1      35.519  22.673  25.668  1.00  0.00     0.270 HD
ATOM     14  H   UNL A   1      35.913  19.341  24.869  1.00  0.00     0.260 HD
BRANCH   4  15
ATOM     15  C   UNL A   1      31.248  24.427  24.202  1.00  0.00    -0.024 A 
ATOM     16  C   UNL A   1      30.710  27.177  23.952  1.00  0.00     0.120 A 
ATOM     17  C   UNL A   1      31.374  26.500  22.934  1.00  0.00     0.047 A 
ATOM     18  C   UNL A   1      30.271  26.481  25.073  1.00  0.00     0.047 A 
ATOM     19  C   UNL A   1      31.629  25.129  23.053  1.00  0.00     0.012 A 
ATOM     20  C   UNL A   1      30.551  25.119  25.203  1.00  0.00     0.012 A 
BRANCH  16  21
ATOM     21  O   UNL A   1      30.380  28.485  23.742  1.00  0.00    -0.485 OA
BRANCH  21  22
ATOM     22  C   UNL A   1      29.668  28.721  22.519  1.00  0.00     0.216 C 
ATOM     23  C   UNL A   1      30.115  30.018  21.849  1.00  0.00     0.059 C 
BRANCH  22  24
ATOM     24  C   UNL A   1      28.186  28.864  22.844  1.00  0.00     0.082 C 
ATOM     25  O   UNL A   1      27.503  28.048  23.448  1.00  0.00    -0.546 OA
ATOM     26  O   UNL A   1      27.605  29.963  22.318  1.00  0.00    -0.546 OA
ENDBRANCH  22  24
ENDBRANCH  21  22
ENDBRANCH  16  21
ENDBRANCH   4  15
BRANCH  10  27
ATOM     27  C   UNL A   1      33.561  18.773  24.922  1.00  0.00     0.115 A 
ATOM     28  C   UNL A   1      34.678  18.159  24.317  1.00  0.00     0.048 A 
ATOM     29  C   UNL A   1      32.546  18.005  25.506  1.00  0.00     0.094 A 
ATOM     30  C   UNL A   1      34.817  16.766  24.351  1.00  0.00     0.054 A 
ATOM     31  C   UNL A   1      32.722  16.643  25.535  1.00  0.00     0.169 A 
ATOM     32  C   UNL A   1      33.834  16.041  24.992  1.00  0.00     0.166 A 
ATOM     33  O   UNL A   1      31.892  15.754  26.142  1.00  0.00    -0.453 OA
ATOM     34  O   UNL A   1      33.845  14.699  25.216  1.00  0.00    -0.454 OA
ATOM     35  C   UNL A   1      32.724  14.577  26.118  1.00  0.00     0.468 C 
ENDBRANCH  10  27
ENDBRANCH   2   3
ENDBRANCH   1   2
BRANCH   1  36
ATOM     36  C   UNL A   1      39.503  20.353  25.931  1.00  0.00     0.119 C 
BRANCH  36  37
ATOM     37  N   UNL A   1      40.520  19.311  25.989  1.00  0.00    -0.352 N 
ATOM     38  C   UNL A   1      41.883  19.410  26.127  1.00  0.00     0.251 C 
ATOM     39  H   UNL A   1      40.177  18.391  25.917  1.00  0.00     0.163 HD
ATOM     40  O   UNL A   1      42.575  18.408  25.971  1.00  0.00    -0.269 OA
BRANCH  38  41
ATOM     41  C   UNL A   1      42.512  20.714  26.434  1.00  0.00     0.039 A 
ATOM     42  C   UNL A   1      42.967  21.508  25.378  1.00  0.00     0.014 A 
ATOM     43  C   UNL A   1      42.665  21.151  27.752  1.00  0.00     0.014 A 
ATOM     44  C   UNL A   1      43.505  22.771  25.641  1.00  0.00     0.010 A 
ATOM     45  C   UNL A   1      43.123  22.441  28.006  1.00  0.00     0.010 A 
ATOM     46  C   UNL A   1      43.546  23.267  26.954  1.00  0.00    -0.014 A 
BRANCH  46  47
ATOM     47  C   UNL A   1      44.017  24.649  27.243  1.00  0.00     0.031 A 
ATOM     48  C   UNL A   1      43.058  25.681  27.774  1.00  0.00     0.074 A 
ATOM     49  C   UNL A   1      45.292  24.990  26.967  1.00  0.00     0.049 A 
ATOM     50  N   UNL A   1      43.256  26.953  28.006  1.00  0.00    -0.248 NA
ATOM     51  C   UNL A   1      41.687  25.226  28.051  1.00  0.00     0.031 C 
ATOM     52  C   UNL A   1      46.306  24.088  26.417  1.00  0.00     0.029 A 
ATOM     53  N   UNL A   1      45.951  26.187  27.100  1.00  0.00    -0.354 N 
ATOM     54  C   UNL A   1      42.035  27.454  28.445  1.00  0.00     0.074 A 
ATOM     55  C   UNL A   1      41.089  26.359  28.385  1.00  0.00     0.031 C 
ATOM     56  C   UNL A   1      47.464  24.756  26.286  1.00  0.00     0.029 A 
ATOM     57  C   UNL A   1      47.264  26.144  26.687  1.00  0.00     0.049 A 
ATOM     58  H   UNL A   1      45.526  26.999  27.457  1.00  0.00     0.167 HD
ATOM     59  C   UNL A   1      41.737  28.705  28.880  1.00  0.00     0.034 A 
ATOM     60  C   UNL A   1      48.197  27.116  26.622  1.00  0.00     0.034 A 
ATOM     61  C   UNL A   1      42.695  29.783  28.939  1.00  0.00     0.049 A 
ATOM     62  C   UNL A   1      47.831  28.507  27.074  1.00  0.00     0.074 A 
ATOM     63  C   UNL A   1      42.512  31.072  29.408  1.00  0.00     0.029 A 
ATOM     64  N   UNL A   1      44.014  29.703  28.508  1.00  0.00    -0.354 N 
ATOM     65  N   UNL A   1      46.683  28.954  27.530  1.00  0.00    -0.248 NA
ATOM     66  C   UNL A   1      48.889  29.523  27.012  1.00  0.00     0.031 C 
ATOM     67  C   UNL A   1      43.692  31.791  29.189  1.00  0.00     0.029 A 
ATOM     68  C   UNL A   1      44.643  30.929  28.668  1.00  0.00     0.049 A 
ATOM     69  H   UNL A   1      44.440  28.895  28.142  1.00  0.00     0.167 HD
ATOM     70  C   UNL A   1      46.896  30.293  27.845  1.00  0.00     0.074 A 
ATOM     71  C   UNL A   1      48.282  30.578  27.536  1.00  0.00     0.031 C 
ATOM     72  C   UNL A   1      46.025  31.204  28.351  1.00  0.00     0.034 A 
BRANCH  59  73
ATOM     73  C   UNL A   1      40.310  28.976  29.297  1.00  0.00     0.023 A 
ATOM     74  C   UNL A   1      39.913  28.938  30.645  1.00  0.00     0.031 A 
ATOM     75  C   UNL A   1      39.326  29.256  28.331  1.00  0.00     0.131 A 
ATOM     76  C   UNL A   1      38.560  29.099  30.984  1.00  0.00     0.055 A 
ATOM     77  C   UNL A   1      37.997  29.504  28.683  1.00  0.00     0.041 A 
ATOM     78  F   UNL A   1      39.637  29.285  27.026  1.00  0.00    -0.206 F 
ATOM     79  C   UNL A   1      37.604  29.409  30.015  1.00  0.00     0.022 A 
BRANCH  76  80
ATOM     80  S   UNL A   1      38.046  28.746  32.686  1.00  0.00     0.124 S 
ATOM     81  O   UNL A   1      39.028  29.510  33.455  1.00  0.00    -0.237 OA
ATOM     82  O   UNL A   1      36.679  29.251  32.715  1.00  0.00    -0.237 OA
ATOM     83  O   UNL A   1      38.180  27.294  32.790  1.00  0.00    -0.744 OA
ENDBRANCH  76  80
ENDBRANCH  59  73
BRANCH  60  84
ATOM     84  C   UNL A   1      49.563  26.819  26.099  1.00  0.00     0.023 A 
ATOM     85  C   UNL A   1      49.945  27.219  24.809  1.00  0.00     0.031 A 
ATOM     86  C   UNL A   1      50.491  26.093  26.865  1.00  0.00     0.131 A 
ATOM     87  C   UNL A   1      51.201  26.846  24.304  1.00  0.00     0.055 A 
ATOM     88  C   UNL A   1      51.761  25.776  26.381  1.00  0.00     0.041 A 
ATOM     89  F   UNL A   1      50.179  25.688  28.106  1.00  0.00    -0.206 F 
ATOM     90  C   UNL A   1      52.116  26.141  25.086  1.00  0.00     0.022 A 
BRANCH  87  91
ATOM     91  S   UNL A   1      51.581  27.214  22.569  1.00  0.00     0.124 S 
ATOM     92  O   UNL A   1      50.366  26.768  21.898  1.00  0.00    -0.237 OA
ATOM     93  O   UNL A   1      51.802  28.656  22.606  1.00  0.00    -0.237 OA
ATOM     94  O   UNL A   1      52.773  26.410  22.305  1.00  0.00    -0.744 OA
ENDBRANCH  87  91
ENDBRANCH  60  84
BRANCH  72  95
ATOM     95  C   UNL A   1      46.567  32.580  28.657  1.00  0.00     0.023 A 
ATOM     96  C   UNL A   1      46.584  33.607  27.697  1.00  0.00     0.031 A 
ATOM     97  C   UNL A   1      47.078  32.865  29.937  1.00  0.00     0.131 A 
ATOM     98  C   UNL A   1      47.153  34.850  28.013  1.00  0.00     0.055 A 
ATOM     99  C   UNL A   1      47.582  34.123  30.266  1.00  0.00     0.041 A 
ATOM    100  F   UNL A   1      47.091  31.922  30.893  1.00  0.00    -0.206 F 
ATOM    101  C   UNL A   1      47.634  35.121  29.296  1.00  0.00     0.022 A 
BRANCH  98 102
ATOM    102  S   UNL A   1      47.343  36.083  26.696  1.00  0.00     0.124 S 
ATOM    103  O   UNL A   1      48.754  36.438  26.814  1.00  0.00    -0.237 OA
ATOM    104  O   UNL A   1      46.974  35.327  25.505  1.00  0.00    -0.237 OA
ATOM    105  O   UNL A   1      46.405  37.138  27.074  1.00  0.00    -0.744 OA
ENDBRANCH  98 102
ENDBRANCH  72  95
ENDBRANCH  46  47
ENDBRANCH  38  41
ENDBRANCH  36  37
ENDBRANCH   1  36
TORSDOF 17
ENDMDL
MODEL 3
REMARK VINA RESULT:     -12.8      1.327      1.729
REMARK SMILES C[C@@H](Oc1ccc(/C=C2\C(=O)[NH+]=C(NCCCNC(=O)c3ccc(-c4c5nc(c(-c6cc(S(=O)(=O)[O-])ccc6F)c6ccc([nH]6)c(-c6cc(S(=O)(=O)[O-])ccc6F)c6nc(c(-c7cc(S(=O)(=O)[O-])ccc7F)c7ccc4[nH]7)C=C6)C=C5)cc3)N(c3ccc4c(c3)OCO4)C2=O)cc1)C(=O)[O-]
REMARK SMILES IDX 16 1 15 2 14 3 8 4 9 5 10 6 94 7 11 8 12 9 84 10 95 11 13 12
REMARK SMILES IDX 7 15 4 16 5 17 97 18 6 19 96 20 3 21 2 22 1 23 98 24 99 25
REMARK SMILES IDX 100 26 85 27 86 28 90 29 87 30 89 31 88 32 91 33 93 34 92 35
REMARK SMILES IDX 17 36 18 37 19 38 20 40 21 41 22 42 83 43 23 44 82 45 24 46
REMARK SMILES IDX 25 47 26 48 76 49 27 50 81 51 75 52 77 53 28 54 80 55 74 56
REMARK SMILES IDX 73 57 29 59 61 60 41 61 60 62 42 63 45 64 59 65 78 66 43 67
REMARK SMILES IDX 44 68 58 70 79 71 46 72 30 73 31 74 39 75 32 76 38 77 40 78
REMARK SMILES IDX 37 79 33 80 34 81 35 82 36 83 62 84 63 85 71 86 64 87 70 88
REMARK SMILES IDX 72 89 69 90 65 91 66 92 67 93 68 94 47 95 48 96 56 97 49 98
REMARK SMILES IDX 55 99 57 100 54 101 50 102 51 103 52 104 53 105
REMARK H PARENT 12 13 14 14 18 39 77 58 45 69
REMARK Flexibility Score: inf
ROOT
ATOM      1  C   UNL A   1      38.249  19.726  25.246  1.00  0.00     0.059 C 
ENDROOT
BRANCH   1   2
ATOM      2  C   UNL A   1      37.243  20.839  24.994  1.00  0.00     0.199 C 
BRANCH   2   3
ATOM      3  N   UNL A   1      35.887  20.327  25.019  1.00  0.00    -0.277 N 
ATOM      4  C   UNL A   1      31.753  23.600  25.147  1.00  0.00     0.031 C 
ATOM      5  C   UNL A   1      32.651  22.703  25.596  1.00  0.00     0.138 C 
ATOM      6  C   UNL A   1      33.899  22.991  26.320  1.00  0.00     0.321 C 
ATOM      7  C   UNL A   1      32.380  21.282  25.313  1.00  0.00     0.328 C 
ATOM      8  O   UNL A   1      33.969  23.845  27.188  1.00  0.00    -0.250 OA
ATOM      9  N   UNL A   1      34.964  22.240  25.908  1.00  0.00    -0.210 N 
ATOM     10  N   UNL A   1      33.526  20.494  25.278  1.00  0.00    -0.162 N 
ATOM     11  O   UNL A   1      31.236  20.884  25.093  1.00  0.00    -0.249 OA
ATOM     12  C   UNL A   1      34.793  21.047  25.432  1.00  0.00     0.366 C 
ATOM     13  H   UNL A   1      35.874  22.611  25.973  1.00  0.00     0.270 HD
ATOM     14  H   UNL A   1      35.740  19.401  24.720  1.00  0.00     0.260 HD
BRANCH   4  15
ATOM     15  C   UNL A   1      31.776  25.071  25.181  1.00  0.00    -0.024 A 
ATOM     16  C   UNL A   1      32.056  27.870  25.235  1.00  0.00     0.120 A 
ATOM     17  C   UNL A   1      31.185  27.238  26.117  1.00  0.00     0.047 A 
ATOM     18  C   UNL A   1      32.822  27.110  24.359  1.00  0.00     0.047 A 
ATOM     19  C   UNL A   1      31.057  25.845  26.099  1.00  0.00     0.012 A 
ATOM     20  C   UNL A   1      32.672  25.723  24.322  1.00  0.00     0.012 A 
BRANCH  16  21
ATOM     21  O   UNL A   1      32.236  29.217  25.368  1.00  0.00    -0.485 OA
BRANCH  21  22
ATOM     22  C   UNL A   1      33.379  29.581  26.154  1.00  0.00     0.216 C 
ATOM     23  C   UNL A   1      33.701  28.521  27.205  1.00  0.00     0.059 C 
BRANCH  22  24
ATOM     24  C   UNL A   1      33.062  30.876  26.894  1.00  0.00     0.082 C 
ATOM     25  O   UNL A   1      33.817  31.473  27.648  1.00  0.00    -0.546 OA
ATOM     26  O   UNL A   1      31.792  31.307  26.739  1.00  0.00    -0.546 OA
ENDBRANCH  22  24
ENDBRANCH  21  22
ENDBRANCH  16  21
ENDBRANCH   4  15
BRANCH  10  27
ATOM     27  C   UNL A   1      33.344  19.129  24.936  1.00  0.00     0.115 A 
ATOM     28  C   UNL A   1      33.955  18.612  23.774  1.00  0.00     0.048 A 
ATOM     29  C   UNL A   1      32.690  18.284  25.842  1.00  0.00     0.094 A 
ATOM     30  C   UNL A   1      33.970  17.231  23.543  1.00  0.00     0.054 A 
ATOM     31  C   UNL A   1      32.738  16.933  25.593  1.00  0.00     0.169 A 
ATOM     32  C   UNL A   1      33.376  16.419  24.487  1.00  0.00     0.166 A 
ATOM     33  O   UNL A   1      32.245  15.964  26.409  1.00  0.00    -0.453 OA
ATOM     34  O   UNL A   1      33.379  15.058  24.490  1.00  0.00    -0.454 OA
ATOM     35  C   UNL A   1      32.849  14.800  25.808  1.00  0.00     0.468 C 
ENDBRANCH  10  27
ENDBRANCH   2   3
ENDBRANCH   1   2
BRANCH   1  36
ATOM     36  C   UNL A   1      39.519  20.192  25.951  1.00  0.00     0.119 C 
BRANCH  36  37
ATOM     37  N   UNL A   1      40.556  19.169  25.992  1.00  0.00    -0.352 N 
ATOM     38  C   UNL A   1      41.919  19.294  26.109  1.00  0.00     0.251 C 
ATOM     39  H   UNL A   1      40.230  18.243  25.923  1.00  0.00     0.163 HD
ATOM     40  O   UNL A   1      42.627  18.305  25.941  1.00  0.00    -0.269 OA
BRANCH  38  41
ATOM     41  C   UNL A   1      42.528  20.608  26.408  1.00  0.00     0.039 A 
ATOM     42  C   UNL A   1      43.019  21.380  25.352  1.00  0.00     0.014 A 
ATOM     43  C   UNL A   1      42.627  21.078  27.720  1.00  0.00     0.014 A 
ATOM     44  C   UNL A   1      43.539  22.653  25.604  1.00  0.00     0.010 A 
ATOM     45  C   UNL A   1      43.068  22.377  27.960  1.00  0.00     0.010 A 
ATOM     46  C   UNL A   1      43.527  23.181  26.905  1.00  0.00    -0.014 A 
BRANCH  46  47
ATOM     47  C   UNL A   1      43.978  24.572  27.179  1.00  0.00     0.031 A 
ATOM     48  C   UNL A   1      43.009  25.591  27.716  1.00  0.00     0.074 A 
ATOM     49  C   UNL A   1      45.243  24.933  26.882  1.00  0.00     0.049 A 
ATOM     50  N   UNL A   1      43.189  26.868  27.937  1.00  0.00    -0.248 NA
ATOM     51  C   UNL A   1      41.651  25.115  28.017  1.00  0.00     0.031 C 
ATOM     52  C   UNL A   1      46.264  24.045  26.323  1.00  0.00     0.029 A 
ATOM     53  N   UNL A   1      45.883  26.141  26.997  1.00  0.00    -0.354 N 
ATOM     54  C   UNL A   1      41.966  27.351  28.391  1.00  0.00     0.074 A 
ATOM     55  C   UNL A   1      41.039  26.240  28.352  1.00  0.00     0.031 C 
ATOM     56  C   UNL A   1      47.409  24.731  26.171  1.00  0.00     0.029 A 
ATOM     57  C   UNL A   1      47.190  26.119  26.566  1.00  0.00     0.049 A 
ATOM     58  H   UNL A   1      45.450  26.949  27.356  1.00  0.00     0.167 HD
ATOM     59  C   UNL A   1      41.653  28.599  28.823  1.00  0.00     0.034 A 
ATOM     60  C   UNL A   1      48.106  27.105  26.481  1.00  0.00     0.034 A 
ATOM     61  C   UNL A   1      42.593  29.694  28.860  1.00  0.00     0.049 A 
ATOM     62  C   UNL A   1      47.723  28.493  26.929  1.00  0.00     0.074 A 
ATOM     63  C   UNL A   1      42.395  30.984  29.324  1.00  0.00     0.029 A 
ATOM     64  N   UNL A   1      43.907  29.634  28.410  1.00  0.00    -0.354 N 
ATOM     65  N   UNL A   1      46.574  28.923  27.399  1.00  0.00    -0.248 NA
ATOM     66  C   UNL A   1      48.763  29.527  26.845  1.00  0.00     0.031 C 
ATOM     67  C   UNL A   1      43.559  31.721  29.083  1.00  0.00     0.029 A 
ATOM     68  C   UNL A   1      44.517  30.872  28.554  1.00  0.00     0.049 A 
ATOM     69  H   UNL A   1      44.341  28.830  28.043  1.00  0.00     0.167 HD
ATOM     70  C   UNL A   1      46.769  30.268  27.702  1.00  0.00     0.074 A 
ATOM     71  C   UNL A   1      48.145  30.574  27.372  1.00  0.00     0.031 C 
ATOM     72  C   UNL A   1      45.889  31.168  28.215  1.00  0.00     0.034 A 
BRANCH  59  73
ATOM     73  C   UNL A   1      40.227  28.849  29.258  1.00  0.00     0.023 A 
ATOM     74  C   UNL A   1      39.859  28.855  30.615  1.00  0.00     0.031 A 
ATOM     75  C   UNL A   1      39.218  29.065  28.303  1.00  0.00     0.131 A 
ATOM     76  C   UNL A   1      38.509  28.994  30.975  1.00  0.00     0.055 A 
ATOM     77  C   UNL A   1      37.890  29.291  28.672  1.00  0.00     0.041 A 
ATOM     78  F   UNL A   1      39.501  29.050  26.991  1.00  0.00    -0.206 F 
ATOM     79  C   UNL A   1      37.526  29.239  30.015  1.00  0.00     0.022 A 
BRANCH  76  80
ATOM     80  S   UNL A   1      38.039  28.695  32.701  1.00  0.00     0.124 S 
ATOM     81  O   UNL A   1      38.120  27.237  32.780  1.00  0.00    -0.237 OA
ATOM     82  O   UNL A   1      39.059  29.431  33.438  1.00  0.00    -0.237 OA
ATOM     83  O   UNL A   1      36.687  29.241  32.788  1.00  0.00    -0.744 OA
ENDBRANCH  76  80
ENDBRANCH  59  73
BRANCH  60  84
ATOM     84  C   UNL A   1      49.469  26.828  25.940  1.00  0.00     0.023 A 
ATOM     85  C   UNL A   1      49.858  27.311  24.681  1.00  0.00     0.031 A 
ATOM     86  C   UNL A   1      50.387  26.039  26.655  1.00  0.00     0.131 A 
ATOM     87  C   UNL A   1      51.110  26.959  24.153  1.00  0.00     0.055 A 
ATOM     88  C   UNL A   1      51.654  25.740  26.151  1.00  0.00     0.041 A 
ATOM     89  F   UNL A   1      50.067  25.553  27.865  1.00  0.00    -0.206 F 
ATOM     90  C   UNL A   1      52.016  26.189  24.885  1.00  0.00     0.022 A 
BRANCH  87  91
ATOM     91  S   UNL A   1      51.499  27.440  22.447  1.00  0.00     0.124 S 
ATOM     92  O   UNL A   1      50.558  26.625  21.688  1.00  0.00    -0.237 OA
ATOM     93  O   UNL A   1      51.233  28.875  22.470  1.00  0.00    -0.237 OA
ATOM     94  O   UNL A   1      52.905  27.071  22.302  1.00  0.00    -0.744 OA
ENDBRANCH  87  91
ENDBRANCH  60  84
BRANCH  72  95
ATOM     95  C   UNL A   1      46.412  32.555  28.504  1.00  0.00     0.023 A 
ATOM     96  C   UNL A   1      46.600  33.509  27.489  1.00  0.00     0.031 A 
ATOM     97  C   UNL A   1      46.732  32.924  29.824  1.00  0.00     0.131 A 
ATOM     98  C   UNL A   1      47.144  34.765  27.802  1.00  0.00     0.055 A 
ATOM     99  C   UNL A   1      47.210  34.196  30.138  1.00  0.00     0.041 A 
ATOM    100  F   UNL A   1      46.576  32.053  30.834  1.00  0.00    -0.206 F 
ATOM    101  C   UNL A   1      47.433  35.121  29.121  1.00  0.00     0.022 A 
BRANCH  98 102
ATOM    102  S   UNL A   1      47.562  35.897  26.447  1.00  0.00     0.124 S 
ATOM    103  O   UNL A   1      46.446  36.837  26.483  1.00  0.00    -0.237 OA
ATOM    104  O   UNL A   1      48.854  36.425  26.868  1.00  0.00    -0.237 OA
ATOM    105  O   UNL A   1      47.602  35.027  25.273  1.00  0.00    -0.744 OA
ENDBRANCH  98 102
ENDBRANCH  72  95
ENDBRANCH  46  47
ENDBRANCH  38  41
ENDBRANCH  36  37
ENDBRANCH   1  36
TORSDOF 17
ENDMDL
