MODEL 1
REMARK VINA RESULT:     -13.1      0.000      0.000
REMARK SMILES Nc1cc(C(=O)NCCCNC(=O)c2ccc(-c3c4nc(c(-c5cc(S(=O)(=O)[O-])ccc5F)c5ccc([nH]5)c(-c5cc(S(=O)(=O)[O-])ccc5F)c5nc(c(-c6cc(S(=O)(=O)[O-])ccc6F)c6ccc3[nH]6)C=C5)C=C4)cc2)ccc1N1CC2(CCOCC2)C1
REMARK SMILES IDX 10 1 9 2 8 3 7 4 5 5 6 6 4 8 2 9 3 10 79 11 78 12 77 13 1 14
REMARK SMILES IDX 80 17 81 18 88 19 82 20 83 21 87 22 84 23 86 24 85 25 11 26
REMARK SMILES IDX 12 27 13 29 14 30 15 31 76 32 16 33 75 34 17 35 18 36 19 37
REMARK SMILES IDX 69 38 20 39 74 40 68 41 70 42 21 43 73 44 67 45 66 46 22 48
REMARK SMILES IDX 54 49 34 50 53 51 35 52 38 53 52 54 71 55 36 56 37 57 51 59
REMARK SMILES IDX 72 60 39 61 23 62 24 63 32 64 25 65 31 66 33 67 30 68 26 69
REMARK SMILES IDX 27 70 28 71 29 72 55 73 56 74 64 75 57 76 63 77 65 78 62 79
REMARK SMILES IDX 58 80 59 81 60 82 61 83 40 84 41 85 49 86 42 87 48 88 50 89
REMARK SMILES IDX 47 90 43 91 44 92 45 93 46 94
REMARK H PARENT 7 7 1 15 1 16 11 28 70 47 38 58
REMARK Flexibility Score: inf
ROOT
ATOM      1  C   UNL A   1      32.897  29.338  25.362  1.00  0.00     0.118 C 
ENDROOT
BRANCH   1   2
ATOM      2  C   UNL A   1      31.715  28.387  25.179  1.00  0.00     0.042 C 
BRANCH   2   3
ATOM      3  C   UNL A   1      32.141  26.966  24.811  1.00  0.00     0.118 C 
BRANCH   3   4
ATOM      4  N   UNL A   1      32.752  26.933  23.498  1.00  0.00    -0.352 N 
ATOM      5  C   UNL A   1      33.341  25.945  22.758  1.00  0.00     0.251 C 
ATOM      6  O   UNL A   1      33.773  26.274  21.652  1.00  0.00    -0.269 OA
ATOM      7  H   UNL A   1      32.739  27.805  23.042  1.00  0.00     0.163 HD
BRANCH   5   8
ATOM      8  C   UNL A   1      33.443  24.515  23.176  1.00  0.00     0.041 A 
ATOM      9  C   UNL A   1      32.652  22.242  22.716  1.00  0.00     0.056 A 
ATOM     10  C   UNL A   1      32.675  23.610  22.426  1.00  0.00     0.041 A 
ATOM     11  C   UNL A   1      33.358  21.760  23.839  1.00  0.00     0.060 A 
ATOM     12  C   UNL A   1      34.144  22.653  24.574  1.00  0.00     0.029 A 
ATOM     13  C   UNL A   1      34.220  24.008  24.219  1.00  0.00     0.016 A 
BRANCH   9  14
ATOM     14  N   UNL A   1      31.774  21.425  22.000  1.00  0.00    -0.397 N 
ATOM     15  H   UNL A   1      31.771  20.453  22.150  1.00  0.00     0.156 HD
ATOM     16  H   UNL A   1      31.156  21.824  21.345  1.00  0.00     0.156 HD
ENDBRANCH   9  14
BRANCH  11  17
ATOM     17  N   UNL A   1      33.239  20.419  24.223  1.00  0.00    -0.369 N 
ATOM     18  C   UNL A   1      34.227  19.476  24.629  1.00  0.00     0.125 C 
ATOM     19  C   UNL A   1      32.154  19.670  24.764  1.00  0.00     0.125 C 
ATOM     20  C   UNL A   1      33.078  18.430  24.605  1.00  0.00     0.010 C 
ATOM     21  C   UNL A   1      33.052  17.407  25.736  1.00  0.00     0.039 C 
ATOM     22  C   UNL A   1      32.913  17.713  23.250  1.00  0.00     0.039 C 
ATOM     23  C   UNL A   1      34.125  16.355  25.468  1.00  0.00     0.161 C 
ATOM     24  C   UNL A   1      34.002  16.658  23.121  1.00  0.00     0.161 C 
ATOM     25  O   UNL A   1      33.914  15.725  24.201  1.00  0.00    -0.381 OA
ENDBRANCH  11  17
ENDBRANCH   5   8
ENDBRANCH   3   4
ENDBRANCH   2   3
ENDBRANCH   1   2
BRANCH   1  26
ATOM     26  N   UNL A   1      32.462  30.658  25.800  1.00  0.00    -0.352 N 
ATOM     27  C   UNL A   1      32.858  31.406  26.880  1.00  0.00     0.251 C 
ATOM     28  H   UNL A   1      31.775  31.078  25.233  1.00  0.00     0.163 HD
ATOM     29  O   UNL A   1      32.171  32.364  27.223  1.00  0.00    -0.269 OA
BRANCH  27  30
ATOM     30  C   UNL A   1      34.090  31.067  27.626  1.00  0.00     0.039 A 
ATOM     31  C   UNL A   1      34.962  32.098  27.990  1.00  0.00     0.014 A 
ATOM     32  C   UNL A   1      34.420  29.740  27.912  1.00  0.00     0.014 A 
ATOM     33  C   UNL A   1      36.138  31.801  28.686  1.00  0.00     0.010 A 
ATOM     34  C   UNL A   1      35.559  29.453  28.664  1.00  0.00     0.010 A 
ATOM     35  C   UNL A   1      36.432  30.479  29.052  1.00  0.00    -0.014 A 
BRANCH  35  36
ATOM     36  C   UNL A   1      37.653  30.148  29.835  1.00  0.00     0.031 A 
ATOM     37  C   UNL A   1      38.696  29.232  29.253  1.00  0.00     0.074 A 
ATOM     38  C   UNL A   1      37.790  30.625  31.087  1.00  0.00     0.049 A 
ATOM     39  N   UNL A   1      39.779  28.753  29.807  1.00  0.00    -0.248 NA
ATOM     40  C   UNL A   1      38.473  28.773  27.874  1.00  0.00     0.031 C 
ATOM     41  C   UNL A   1      36.829  31.496  31.768  1.00  0.00     0.029 A 
ATOM     42  N   UNL A   1      38.781  30.437  32.016  1.00  0.00    -0.354 N 
ATOM     43  C   UNL A   1      40.360  27.924  28.852  1.00  0.00     0.074 A 
ATOM     44  C   UNL A   1      39.475  27.924  27.706  1.00  0.00     0.031 C 
ATOM     45  C   UNL A   1      37.289  31.783  32.996  1.00  0.00     0.029 A 
ATOM     46  C   UNL A   1      38.550  31.081  33.210  1.00  0.00     0.049 A 
ATOM     47  H   UNL A   1      39.584  29.892  31.844  1.00  0.00     0.167 HD
ATOM     48  C   UNL A   1      41.533  27.245  28.918  1.00  0.00     0.034 A 
ATOM     49  C   UNL A   1      39.266  31.091  34.352  1.00  0.00     0.034 A 
ATOM     50  C   UNL A   1      42.408  27.267  30.066  1.00  0.00     0.049 A 
ATOM     51  C   UNL A   1      40.552  30.308  34.411  1.00  0.00     0.074 A 
ATOM     52  C   UNL A   1      43.640  26.656  30.223  1.00  0.00     0.029 A 
ATOM     53  N   UNL A   1      42.142  27.932  31.256  1.00  0.00    -0.354 N 
ATOM     54  N   UNL A   1      41.107  29.560  33.485  1.00  0.00    -0.248 NA
ATOM     55  C   UNL A   1      41.313  30.379  35.664  1.00  0.00     0.031 C 
ATOM     56  C   UNL A   1      44.087  26.897  31.527  1.00  0.00     0.029 A 
ATOM     57  C   UNL A   1      43.172  27.722  32.161  1.00  0.00     0.049 A 
ATOM     58  H   UNL A   1      41.338  28.473  31.432  1.00  0.00     0.167 HD
ATOM     59  C   UNL A   1      42.299  29.098  34.036  1.00  0.00     0.074 A 
ATOM     60  C   UNL A   1      42.386  29.663  35.367  1.00  0.00     0.031 C 
ATOM     61  C   UNL A   1      43.239  28.285  33.490  1.00  0.00     0.034 A 
BRANCH  48  62
ATOM     62  C   UNL A   1      41.916  26.403  27.722  1.00  0.00     0.023 A 
ATOM     63  C   UNL A   1      41.538  25.052  27.618  1.00  0.00     0.031 A 
ATOM     64  C   UNL A   1      42.691  26.948  26.684  1.00  0.00     0.131 A 
ATOM     65  C   UNL A   1      42.002  24.274  26.547  1.00  0.00     0.055 A 
ATOM     66  C   UNL A   1      43.080  26.190  25.577  1.00  0.00     0.041 A 
ATOM     67  F   UNL A   1      43.100  28.226  26.733  1.00  0.00    -0.206 F 
ATOM     68  C   UNL A   1      42.750  24.839  25.512  1.00  0.00     0.022 A 
BRANCH  65  69
ATOM     69  S   UNL A   1      41.740  22.480  26.604  1.00  0.00     0.124 S 
ATOM     70  O   UNL A   1      42.401  22.046  25.375  1.00  0.00    -0.237 OA
ATOM     71  O   UNL A   1      42.398  22.104  27.850  1.00  0.00    -0.237 OA
ATOM     72  O   UNL A   1      40.285  22.346  26.600  1.00  0.00    -0.744 OA
ENDBRANCH  65  69
ENDBRANCH  48  62
BRANCH  49  73
ATOM     73  C   UNL A   1      38.786  31.859  35.536  1.00  0.00     0.023 A 
ATOM     74  C   UNL A   1      38.216  31.205  36.639  1.00  0.00     0.031 A 
ATOM     75  C   UNL A   1      38.854  33.264  35.567  1.00  0.00     0.131 A 
ATOM     76  C   UNL A   1      37.696  31.953  37.706  1.00  0.00     0.055 A 
ATOM     77  C   UNL A   1      38.383  34.002  36.654  1.00  0.00     0.041 A 
ATOM     78  F   UNL A   1      39.395  33.941  34.541  1.00  0.00    -0.206 F 
ATOM     79  C   UNL A   1      37.786  33.347  37.726  1.00  0.00     0.022 A 
BRANCH  76  80
ATOM     80  S   UNL A   1      36.820  31.080  39.033  1.00  0.00     0.124 S 
ATOM     81  O   UNL A   1      37.761  31.204  40.140  1.00  0.00    -0.237 OA
ATOM     82  O   UNL A   1      35.590  31.856  39.145  1.00  0.00    -0.237 OA
ATOM     83  O   UNL A   1      36.657  29.729  38.502  1.00  0.00    -0.744 OA
ENDBRANCH  76  80
ENDBRANCH  49  73
BRANCH  61  84
ATOM     84  C   UNL A   1      44.464  28.000  34.324  1.00  0.00     0.023 A 
ATOM     85  C   UNL A   1      44.513  26.925  35.226  1.00  0.00     0.031 A 
ATOM     86  C   UNL A   1      45.594  28.831  34.222  1.00  0.00     0.131 A 
ATOM     87  C   UNL A   1      45.647  26.740  36.032  1.00  0.00     0.055 A 
ATOM     88  C   UNL A   1      46.742  28.606  34.981  1.00  0.00     0.041 A 
ATOM     89  F   UNL A   1      45.602  29.875  33.377  1.00  0.00    -0.206 F 
ATOM     90  C   UNL A   1      46.768  27.563  35.903  1.00  0.00     0.022 A 
BRANCH  87  91
ATOM     91  S   UNL A   1      45.603  25.462  37.318  1.00  0.00     0.124 S 
ATOM     92  O   UNL A   1      46.269  26.129  38.432  1.00  0.00    -0.237 OA
ATOM     93  O   UNL A   1      44.170  25.230  37.480  1.00  0.00    -0.237 OA
ATOM     94  O   UNL A   1      46.346  24.352  36.726  1.00  0.00    -0.744 OA
ENDBRANCH  87  91
ENDBRANCH  61  84
ENDBRANCH  35  36
ENDBRANCH  27  30
ENDBRANCH   1  26
TORSDOF 15
ENDMDL
MODEL 2
REMARK VINA RESULT:     -13.0      2.820      8.026
REMARK SMILES Nc1cc(C(=O)NCCCNC(=O)c2ccc(-c3c4nc(c(-c5cc(S(=O)(=O)[O-])ccc5F)c5ccc([nH]5)c(-c5cc(S(=O)(=O)[O-])ccc5F)c5nc(c(-c6cc(S(=O)(=O)[O-])ccc6F)c6ccc3[nH]6)C=C5)C=C4)cc2)ccc1N1CC2(CCOCC2)C1
REMARK SMILES IDX 10 1 9 2 8 3 7 4 5 5 6 6 4 8 2 9 3 10 79 11 78 12 77 13 1 14
REMARK SMILES IDX 80 17 81 18 88 19 82 20 83 21 87 22 84 23 86 24 85 25 11 26
REMARK SMILES IDX 12 27 13 29 14 30 15 31 76 32 16 33 75 34 17 35 18 36 19 37
REMARK SMILES IDX 69 38 20 39 74 40 68 41 70 42 21 43 73 44 67 45 66 46 22 48
REMARK SMILES IDX 54 49 34 50 53 51 35 52 38 53 52 54 71 55 36 56 37 57 51 59
REMARK SMILES IDX 72 60 39 61 23 62 24 63 32 64 25 65 31 66 33 67 30 68 26 69
REMARK SMILES IDX 27 70 28 71 29 72 55 73 56 74 64 75 57 76 63 77 65 78 62 79
REMARK SMILES IDX 58 80 59 81 60 82 61 83 40 84 41 85 49 86 42 87 48 88 50 89
REMARK SMILES IDX 47 90 43 91 44 92 45 93 46 94
REMARK H PARENT 7 7 1 15 1 16 11 28 70 47 38 58
REMARK Flexibility Score: inf
ROOT
ATOM      1  C   UNL A   1      33.494  28.542  27.156  1.00  0.00     0.118 C 
ENDROOT
BRANCH   1   2
ATOM      2  C   UNL A   1      34.017  28.020  25.818  1.00  0.00     0.042 C 
BRANCH   2   3
ATOM      3  C   UNL A   1      33.009  27.136  25.084  1.00  0.00     0.118 C 
BRANCH   3   4
ATOM      4  N   UNL A   1      33.318  27.065  23.670  1.00  0.00    -0.352 N 
ATOM      5  C   UNL A   1      33.634  26.036  22.826  1.00  0.00     0.251 C 
ATOM      6  O   UNL A   1      33.850  26.339  21.651  1.00  0.00    -0.269 OA
ATOM      7  H   UNL A   1      33.296  27.942  23.223  1.00  0.00     0.163 HD
BRANCH   5   8
ATOM      8  C   UNL A   1      33.678  24.596  23.220  1.00  0.00     0.041 A 
ATOM      9  C   UNL A   1      32.771  22.370  22.745  1.00  0.00     0.056 A 
ATOM     10  C   UNL A   1      32.851  23.740  22.475  1.00  0.00     0.041 A 
ATOM     11  C   UNL A   1      33.480  21.838  23.842  1.00  0.00     0.060 A 
ATOM     12  C   UNL A   1      34.324  22.681  24.571  1.00  0.00     0.029 A 
ATOM     13  C   UNL A   1      34.455  24.037  24.236  1.00  0.00     0.016 A 
BRANCH   9  14
ATOM     14  N   UNL A   1      31.838  21.607  22.038  1.00  0.00    -0.397 N 
ATOM     15  H   UNL A   1      31.587  21.861  21.121  1.00  0.00     0.156 HD
ATOM     16  H   UNL A   1      31.433  20.814  22.458  1.00  0.00     0.156 HD
ENDBRANCH   9  14
BRANCH  11  17
ATOM     17  N   UNL A   1      33.307  20.498  24.209  1.00  0.00    -0.369 N 
ATOM     18  C   UNL A   1      34.254  19.517  24.626  1.00  0.00     0.125 C 
ATOM     19  C   UNL A   1      32.186  19.781  24.718  1.00  0.00     0.125 C 
ATOM     20  C   UNL A   1      33.071  18.511  24.565  1.00  0.00     0.010 C 
ATOM     21  C   UNL A   1      32.985  17.479  25.683  1.00  0.00     0.039 C 
ATOM     22  C   UNL A   1      32.911  17.815  23.199  1.00  0.00     0.039 C 
ATOM     23  C   UNL A   1      34.028  16.393  25.428  1.00  0.00     0.161 C 
ATOM     24  C   UNL A   1      33.967  16.724  23.082  1.00  0.00     0.161 C 
ATOM     25  O   UNL A   1      33.824  15.784  24.149  1.00  0.00    -0.381 OA
ENDBRANCH  11  17
ENDBRANCH   5   8
ENDBRANCH   3   4
ENDBRANCH   2   3
ENDBRANCH   1   2
BRANCH   1  26
ATOM     26  N   UNL A   1      33.518  29.998  27.211  1.00  0.00    -0.352 N 
ATOM     27  C   UNL A   1      34.405  30.844  27.828  1.00  0.00     0.251 C 
ATOM     28  H   UNL A   1      32.783  30.444  26.733  1.00  0.00     0.163 HD
ATOM     29  O   UNL A   1      34.092  32.020  27.987  1.00  0.00    -0.269 OA
BRANCH  27  30
ATOM     30  C   UNL A   1      35.719  30.352  28.300  1.00  0.00     0.039 A 
ATOM     31  C   UNL A   1      35.794  29.725  29.548  1.00  0.00     0.014 A 
ATOM     32  C   UNL A   1      36.880  30.559  27.551  1.00  0.00     0.014 A 
ATOM     33  C   UNL A   1      37.026  29.261  30.020  1.00  0.00     0.010 A 
ATOM     34  C   UNL A   1      38.095  30.036  27.993  1.00  0.00     0.010 A 
ATOM     35  C   UNL A   1      38.181  29.388  29.234  1.00  0.00    -0.014 A 
BRANCH  35  36
ATOM     36  C   UNL A   1      39.491  28.858  29.696  1.00  0.00     0.031 A 
ATOM     37  C   UNL A   1      40.246  29.563  30.792  1.00  0.00     0.074 A 
ATOM     38  C   UNL A   1      40.025  27.780  29.089  1.00  0.00     0.049 A 
ATOM     39  N   UNL A   1      41.437  29.314  31.270  1.00  0.00    -0.248 NA
ATOM     40  C   UNL A   1      39.581  30.721  31.408  1.00  0.00     0.031 C 
ATOM     41  C   UNL A   1      39.400  27.033  27.995  1.00  0.00     0.029 A 
ATOM     42  N   UNL A   1      41.215  27.132  29.295  1.00  0.00    -0.354 N 
ATOM     43  C   UNL A   1      41.672  30.290  32.233  1.00  0.00     0.074 A 
ATOM     44  C   UNL A   1      40.522  31.168  32.226  1.00  0.00     0.031 C 
ATOM     45  C   UNL A   1      40.203  26.017  27.642  1.00  0.00     0.029 A 
ATOM     46  C   UNL A   1      41.419  26.066  28.447  1.00  0.00     0.049 A 
ATOM     47  H   UNL A   1      41.865  27.403  29.984  1.00  0.00     0.167 HD
ATOM     48  C   UNL A   1      42.740  30.427  33.060  1.00  0.00     0.034 A 
ATOM     49  C   UNL A   1      42.472  25.235  28.322  1.00  0.00     0.034 A 
ATOM     50  C   UNL A   1      43.873  29.533  33.060  1.00  0.00     0.049 A 
ATOM     51  C   UNL A   1      43.658  25.423  29.234  1.00  0.00     0.074 A 
ATOM     52  C   UNL A   1      44.985  29.549  33.884  1.00  0.00     0.029 A 
ATOM     53  N   UNL A   1      44.043  28.464  32.188  1.00  0.00    -0.354 N 
ATOM     54  N   UNL A   1      43.848  26.328  30.167  1.00  0.00    -0.248 NA
ATOM     55  C   UNL A   1      44.765  24.471  29.084  1.00  0.00     0.031 C 
ATOM     56  C   UNL A   1      45.855  28.534  33.470  1.00  0.00     0.029 A 
ATOM     57  C   UNL A   1      45.253  27.833  32.436  1.00  0.00     0.049 A 
ATOM     58  H   UNL A   1      43.399  28.195  31.495  1.00  0.00     0.167 HD
ATOM     59  C   UNL A   1      45.084  26.032  30.735  1.00  0.00     0.074 A 
ATOM     60  C   UNL A   1      45.585  24.859  30.049  1.00  0.00     0.031 C 
ATOM     61  C   UNL A   1      45.743  26.669  31.735  1.00  0.00     0.034 A 
BRANCH  48  62
ATOM     62  C   UNL A   1      42.735  31.602  34.011  1.00  0.00     0.023 A 
ATOM     63  C   UNL A   1      42.235  31.490  35.321  1.00  0.00     0.031 A 
ATOM     64  C   UNL A   1      43.210  32.858  33.596  1.00  0.00     0.131 A 
ATOM     65  C   UNL A   1      42.147  32.628  36.138  1.00  0.00     0.055 A 
ATOM     66  C   UNL A   1      43.198  33.969  34.443  1.00  0.00     0.041 A 
ATOM     67  F   UNL A   1      43.682  33.034  32.352  1.00  0.00    -0.206 F 
ATOM     68  C   UNL A   1      42.648  33.861  35.718  1.00  0.00     0.022 A 
BRANCH  65  69
ATOM     69  S   UNL A   1      41.233  32.502  37.700  1.00  0.00     0.124 S 
ATOM     70  O   UNL A   1      41.199  33.896  38.134  1.00  0.00    -0.237 OA
ATOM     71  O   UNL A   1      39.959  31.934  37.274  1.00  0.00    -0.237 OA
ATOM     72  O   UNL A   1      42.067  31.623  38.516  1.00  0.00    -0.744 OA
ENDBRANCH  65  69
ENDBRANCH  48  62
BRANCH  49  73
ATOM     73  C   UNL A   1      42.463  24.155  27.295  1.00  0.00     0.023 A 
ATOM     74  C   UNL A   1      41.843  22.922  27.549  1.00  0.00     0.031 A 
ATOM     75  C   UNL A   1      43.109  24.325  26.057  1.00  0.00     0.131 A 
ATOM     76  C   UNL A   1      41.919  21.891  26.600  1.00  0.00     0.055 A 
ATOM     77  C   UNL A   1      43.137  23.315  25.095  1.00  0.00     0.041 A 
ATOM     78  F   UNL A   1      43.713  25.487  25.759  1.00  0.00    -0.206 F 
ATOM     79  C   UNL A   1      42.551  22.083  25.369  1.00  0.00     0.022 A 
BRANCH  76  80
ATOM     80  S   UNL A   1      41.249  20.262  27.033  1.00  0.00     0.124 S 
ATOM     81  O   UNL A   1      40.153  20.130  26.081  1.00  0.00    -0.237 OA
ATOM     82  O   UNL A   1      42.401  19.393  26.810  1.00  0.00    -0.237 OA
ATOM     83  O   UNL A   1      40.849  20.418  28.429  1.00  0.00    -0.744 OA
ENDBRANCH  76  80
ENDBRANCH  49  73
BRANCH  61  84
ATOM     84  C   UNL A   1      47.058  26.074  32.174  1.00  0.00     0.023 A 
ATOM     85  C   UNL A   1      48.254  26.326  31.481  1.00  0.00     0.031 A 
ATOM     86  C   UNL A   1      47.110  25.229  33.297  1.00  0.00     0.131 A 
ATOM     87  C   UNL A   1      49.441  25.695  31.883  1.00  0.00     0.055 A 
ATOM     88  C   UNL A   1      48.304  24.652  33.729  1.00  0.00     0.041 A 
ATOM     89  F   UNL A   1      45.997  24.952  33.996  1.00  0.00    -0.206 F 
ATOM     90  C   UNL A   1      49.478  24.874  33.013  1.00  0.00     0.022 A 
BRANCH  87  91
ATOM     91  S   UNL A   1      50.923  25.889  30.855  1.00  0.00     0.124 S 
ATOM     92  O   UNL A   1      51.941  25.221  31.659  1.00  0.00    -0.237 OA
ATOM     93  O   UNL A   1      50.539  25.209  29.621  1.00  0.00    -0.237 OA
ATOM     94  O   UNL A   1      51.075  27.338  30.741  1.00  0.00    -0.744 OA
ENDBRANCH  87  91
ENDBRANCH  61  84
ENDBRANCH  35  36
ENDBRANCH  27  30
ENDBRANCH   1  26
TORSDOF 15
ENDMDL
MODEL 3
REMARK VINA RESULT:     -13.0      2.119      7.748
REMARK SMILES Nc1cc(C(=O)NCCCNC(=O)c2ccc(-c3c4nc(c(-c5cc(S(=O)(=O)[O-])ccc5F)c5ccc([nH]5)c(-c5cc(S(=O)(=O)[O-])ccc5F)c5nc(c(-c6cc(S(=O)(=O)[O-])ccc6F)c6ccc3[nH]6)C=C5)C=C4)cc2)ccc1N1CC2(CCOCC2)C1
REMARK SMILES IDX 10 1 9 2 8 3 7 4 5 5 6 6 4 8 2 9 3 10 79 11 78 12 77 13 1 14
REMARK SMILES IDX 80 17 81 18 88 19 82 20 83 21 87 22 84 23 86 24 85 25 11 26
REMARK SMILES IDX 12 27 13 29 14 30 15 31 76 32 16 33 75 34 17 35 18 36 19 37
REMARK SMILES IDX 69 38 20 39 74 40 68 41 70 42 21 43 73 44 67 45 66 46 22 48
REMARK SMILES IDX 54 49 34 50 53 51 35 52 38 53 52 54 71 55 36 56 37 57 51 59
REMARK SMILES IDX 72 60 39 61 23 62 24 63 32 64 25 65 31 66 33 67 30 68 26 69
REMARK SMILES IDX 27 70 28 71 29 72 55 73 56 74 64 75 57 76 63 77 65 78 62 79
REMARK SMILES IDX 58 80 59 81 60 82 61 83 40 84 41 85 49 86 42 87 48 88 50 89
REMARK SMILES IDX 47 90 43 91 44 92 45 93 46 94
REMARK H PARENT 7 7 1 15 1 16 11 28 70 47 38 58
REMARK Flexibility Score: inf
ROOT
ATOM      1  C   UNL A   1      33.405  28.796  27.055  1.00  0.00     0.118 C 
ENDROOT
BRANCH   1   2
ATOM      2  C   UNL A   1      33.994  28.282  25.741  1.00  0.00     0.042 C 
BRANCH   2   3
ATOM      3  C   UNL A   1      33.152  27.180  25.098  1.00  0.00     0.118 C 
BRANCH   3   4
ATOM      4  N   UNL A   1      33.410  27.097  23.675  1.00  0.00    -0.352 N 
ATOM      5  C   UNL A   1      33.676  26.058  22.826  1.00  0.00     0.251 C 
ATOM      6  O   UNL A   1      33.856  26.353  21.642  1.00  0.00    -0.269 OA
ATOM      7  H   UNL A   1      33.388  27.972  23.225  1.00  0.00     0.163 HD
BRANCH   5   8
ATOM      8  C   UNL A   1      33.708  24.620  23.224  1.00  0.00     0.041 A 
ATOM      9  C   UNL A   1      32.814  22.393  22.728  1.00  0.00     0.056 A 
ATOM     10  C   UNL A   1      32.903  23.762  22.457  1.00  0.00     0.041 A 
ATOM     11  C   UNL A   1      33.490  21.863  23.848  1.00  0.00     0.060 A 
ATOM     12  C   UNL A   1      34.312  22.708  24.599  1.00  0.00     0.029 A 
ATOM     13  C   UNL A   1      34.453  24.063  24.264  1.00  0.00     0.016 A 
BRANCH   9  14
ATOM     14  N   UNL A   1      31.903  21.628  21.996  1.00  0.00    -0.397 N 
ATOM     15  H   UNL A   1      31.113  21.244  22.439  1.00  0.00     0.156 HD
ATOM     16  H   UNL A   1      32.051  21.475  21.034  1.00  0.00     0.156 HD
ENDBRANCH   9  14
BRANCH  11  17
ATOM     17  N   UNL A   1      33.306  20.524  24.212  1.00  0.00    -0.369 N 
ATOM     18  C   UNL A   1      34.243  19.537  24.632  1.00  0.00     0.125 C 
ATOM     19  C   UNL A   1      32.177  19.815  24.717  1.00  0.00     0.125 C 
ATOM     20  C   UNL A   1      33.053  18.539  24.566  1.00  0.00     0.010 C 
ATOM     21  C   UNL A   1      32.955  17.506  25.683  1.00  0.00     0.039 C 
ATOM     22  C   UNL A   1      32.894  17.845  23.199  1.00  0.00     0.039 C 
ATOM     23  C   UNL A   1      33.991  16.414  25.431  1.00  0.00     0.161 C 
ATOM     24  C   UNL A   1      33.942  16.747  23.085  1.00  0.00     0.161 C 
ATOM     25  O   UNL A   1      33.787  15.807  24.151  1.00  0.00    -0.381 OA
ENDBRANCH  11  17
ENDBRANCH   5   8
ENDBRANCH   3   4
ENDBRANCH   2   3
ENDBRANCH   1   2
BRANCH   1  26
ATOM     26  N   UNL A   1      33.445  30.251  27.128  1.00  0.00    -0.352 N 
ATOM     27  C   UNL A   1      34.321  31.079  27.784  1.00  0.00     0.251 C 
ATOM     28  H   UNL A   1      32.732  30.711  26.630  1.00  0.00     0.163 HD
ATOM     29  O   UNL A   1      34.016  32.257  27.947  1.00  0.00    -0.269 OA
BRANCH  27  30
ATOM     30  C   UNL A   1      35.612  30.566  28.294  1.00  0.00     0.039 A 
ATOM     31  C   UNL A   1      35.622  29.832  29.484  1.00  0.00     0.014 A 
ATOM     32  C   UNL A   1      36.814  30.854  27.642  1.00  0.00     0.014 A 
ATOM     33  C   UNL A   1      36.830  29.345  29.991  1.00  0.00     0.010 A 
ATOM     34  C   UNL A   1      38.008  30.311  28.112  1.00  0.00     0.010 A 
ATOM     35  C   UNL A   1      38.030  29.558  29.295  1.00  0.00    -0.014 A 
BRANCH  35  36
ATOM     36  C   UNL A   1      39.319  29.007  29.791  1.00  0.00     0.031 A 
ATOM     37  C   UNL A   1      40.030  29.671  30.940  1.00  0.00     0.074 A 
ATOM     38  C   UNL A   1      39.874  27.948  29.170  1.00  0.00     0.049 A 
ATOM     39  N   UNL A   1      41.201  29.401  31.457  1.00  0.00    -0.248 NA
ATOM     40  C   UNL A   1      39.344  30.810  31.568  1.00  0.00     0.031 C 
ATOM     41  C   UNL A   1      39.292  27.241  28.027  1.00  0.00     0.029 A 
ATOM     42  N   UNL A   1      41.053  27.288  29.402  1.00  0.00    -0.354 N 
ATOM     43  C   UNL A   1      41.399  30.343  32.462  1.00  0.00     0.074 A 
ATOM     44  C   UNL A   1      40.252  31.226  32.438  1.00  0.00     0.031 C 
ATOM     45  C   UNL A   1      40.106  26.234  27.672  1.00  0.00     0.029 A 
ATOM     46  C   UNL A   1      41.288  26.251  28.527  1.00  0.00     0.049 A 
ATOM     47  H   UNL A   1      41.675  27.533  30.126  1.00  0.00     0.167 HD
ATOM     48  C   UNL A   1      42.432  30.448  33.335  1.00  0.00     0.034 A 
ATOM     49  C   UNL A   1      42.343  25.420  28.417  1.00  0.00     0.034 A 
ATOM     50  C   UNL A   1      43.563  29.550  33.350  1.00  0.00     0.049 A 
ATOM     51  C   UNL A   1      43.492  25.573  29.382  1.00  0.00     0.074 A 
ATOM     52  C   UNL A   1      44.640  29.534  34.219  1.00  0.00     0.029 A 
ATOM     53  N   UNL A   1      43.764  28.511  32.450  1.00  0.00    -0.354 N 
ATOM     54  N   UNL A   1      43.646  26.445  30.352  1.00  0.00    -0.248 NA
ATOM     55  C   UNL A   1      44.601  24.622  29.244  1.00  0.00     0.031 C 
ATOM     56  C   UNL A   1      45.523  28.530  33.806  1.00  0.00     0.029 A 
ATOM     57  C   UNL A   1      44.962  27.867  32.726  1.00  0.00     0.049 A 
ATOM     58  H   UNL A   1      43.148  28.267  31.723  1.00  0.00     0.167 HD
ATOM     59  C   UNL A   1      44.858  26.125  30.959  1.00  0.00     0.074 A 
ATOM     60  C   UNL A   1      45.382  24.974  30.254  1.00  0.00     0.031 C 
ATOM     61  C   UNL A   1      45.477  26.726  32.006  1.00  0.00     0.034 A 
BRANCH  48  62
ATOM     62  C   UNL A   1      42.392  31.590  34.324  1.00  0.00     0.023 A 
ATOM     63  C   UNL A   1      41.570  31.551  35.465  1.00  0.00     0.031 A 
ATOM     64  C   UNL A   1      43.164  32.746  34.112  1.00  0.00     0.131 A 
ATOM     65  C   UNL A   1      41.477  32.673  36.303  1.00  0.00     0.055 A 
ATOM     66  C   UNL A   1      43.131  33.827  34.996  1.00  0.00     0.041 A 
ATOM     67  F   UNL A   1      43.954  32.853  33.033  1.00  0.00    -0.206 F 
ATOM     68  C   UNL A   1      42.271  33.802  36.091  1.00  0.00     0.022 A 
BRANCH  65  69
ATOM     69  S   UNL A   1      40.195  32.692  37.585  1.00  0.00     0.124 S 
ATOM     70  O   UNL A   1      39.282  31.658  37.104  1.00  0.00    -0.237 OA
ATOM     71  O   UNL A   1      40.949  32.368  38.790  1.00  0.00    -0.237 OA
ATOM     72  O   UNL A   1      39.669  34.054  37.525  1.00  0.00    -0.744 OA
ENDBRANCH  65  69
ENDBRANCH  48  62
BRANCH  49  73
ATOM     73  C   UNL A   1      42.374  24.376  27.354  1.00  0.00     0.023 A 
ATOM     74  C   UNL A   1      41.688  23.162  27.515  1.00  0.00     0.031 A 
ATOM     75  C   UNL A   1      43.120  24.560  26.176  1.00  0.00     0.131 A 
ATOM     76  C   UNL A   1      41.799  22.160  26.539  1.00  0.00     0.055 A 
ATOM     77  C   UNL A   1      43.184  23.581  25.183  1.00  0.00     0.041 A 
ATOM     78  F   UNL A   1      43.789  25.705  25.967  1.00  0.00    -0.206 F 
ATOM     79  C   UNL A   1      42.532  22.366  25.368  1.00  0.00     0.022 A 
BRANCH  76  80
ATOM     80  S   UNL A   1      41.035  20.546  26.861  1.00  0.00     0.124 S 
ATOM     81  O   UNL A   1      40.810  20.606  28.300  1.00  0.00    -0.237 OA
ATOM     82  O   UNL A   1      39.843  20.604  26.021  1.00  0.00    -0.237 OA
ATOM     83  O   UNL A   1      42.056  19.595  26.427  1.00  0.00    -0.744 OA
ENDBRANCH  76  80
ENDBRANCH  49  73
BRANCH  61  84
ATOM     84  C   UNL A   1      46.772  26.110  32.477  1.00  0.00     0.023 A 
ATOM     85  C   UNL A   1      46.802  25.108  33.462  1.00  0.00     0.031 A 
ATOM     86  C   UNL A   1      47.996  26.547  31.940  1.00  0.00     0.131 A 
ATOM     87  C   UNL A   1      48.033  24.615  33.919  1.00  0.00     0.055 A 
ATOM     88  C   UNL A   1      49.215  26.010  32.355  1.00  0.00     0.041 A 
ATOM     89  F   UNL A   1      48.027  27.504  30.998  1.00  0.00    -0.206 F 
ATOM     90  C   UNL A   1      49.239  25.046  33.360  1.00  0.00     0.022 A 
BRANCH  87  91
ATOM     91  S   UNL A   1      48.044  23.465  35.322  1.00  0.00     0.124 S 
ATOM     92  O   UNL A   1      48.501  24.320  36.413  1.00  0.00    -0.237 OA
ATOM     93  O   UNL A   1      46.649  23.039  35.388  1.00  0.00    -0.237 OA
ATOM     94  O   UNL A   1      48.988  22.428  34.909  1.00  0.00    -0.744 OA
ENDBRANCH  87  91
ENDBRANCH  61  84
ENDBRANCH  35  36
ENDBRANCH  27  30
ENDBRANCH   1  26
TORSDOF 15
ENDMDL
