MODEL 1
REMARK VINA RESULT:     -11.5      0.000      0.000
REMARK SMILES CCCN1C(=O)C[C@H](C(=O)NCCCNC(=O)c2ccc(-c3c4nc(c(-c5cc(S(=O)(=O)[O-])ccc5F)c5ccc([nH]5)c(-c5cc(S(=O)(=O)[O-])ccc5F)c5nc(c(-c6cc(S(=O)(=O)[O-])ccc6F)c6ccc3[nH]6)C=C5)C=C4)cc2)[C@@H]1c1cncn1C1CC1
REMARK SMILES IDX 13 1 12 2 11 3 9 4 10 5 8 7 4 8 5 9 81 10 6 11 7 12 3 13
REMARK SMILES IDX 2 14 1 15 82 16 83 17 86 18 84 19 85 20 87 21 88 22 89 23
REMARK SMILES IDX 14 24 15 25 16 26 17 28 18 29 19 30 80 31 20 32 79 33 21 34
REMARK SMILES IDX 22 35 23 36 73 37 24 38 78 39 72 40 74 41 25 42 77 43 71 44
REMARK SMILES IDX 70 45 26 47 58 48 38 49 57 50 39 51 42 52 56 53 75 54 40 55
REMARK SMILES IDX 41 56 55 58 76 59 43 60 27 61 28 62 36 63 29 64 35 65 37 66
REMARK SMILES IDX 34 67 30 68 31 69 32 70 33 71 59 72 60 73 68 74 61 75 67 76
REMARK SMILES IDX 69 77 66 78 62 79 63 80 64 81 65 82 44 83 45 84 53 85 46 86
REMARK SMILES IDX 52 87 54 88 51 89 47 90 48 91 49 92 50 93
REMARK H PARENT 11 6 15 27 74 46 42 57
REMARK Flexibility Score: inf
ROOT
ATOM      1  C   UNL A   1      31.764  29.076  27.145  1.00  0.00     0.042 C 
ENDROOT
BRANCH   1   2
ATOM      2  C   UNL A   1      32.055  27.611  27.352  1.00  0.00     0.117 C 
BRANCH   2   3
ATOM      3  N   UNL A   1      31.218  26.708  26.608  1.00  0.00    -0.356 N 
ATOM      4  C   UNL A   1      31.436  25.392  26.362  1.00  0.00     0.226 C 
ATOM      5  O   UNL A   1      30.472  24.723  25.976  1.00  0.00    -0.275 OA
ATOM      6  H   UNL A   1      30.391  27.089  26.235  1.00  0.00     0.163 HD
BRANCH   4   7
ATOM      7  C   UNL A   1      32.794  24.730  26.514  1.00  0.00     0.116 C 
ATOM      8  N   UNL A   1      34.835  23.914  25.732  1.00  0.00    -0.333 N 
ATOM      9  C   UNL A   1      34.264  22.886  26.480  1.00  0.00     0.224 C 
ATOM     10  C   UNL A   1      33.912  24.987  25.500  1.00  0.00     0.146 C 
ATOM     11  O   UNL A   1      34.810  21.854  26.822  1.00  0.00    -0.275 OA
ATOM     12  C   UNL A   1      32.821  23.231  26.770  1.00  0.00     0.116 C 
BRANCH   8  13
ATOM     13  C   UNL A   1      36.226  23.929  25.282  1.00  0.00     0.120 C 
BRANCH  13  14
ATOM     14  C   UNL A   1      36.517  23.156  23.999  1.00  0.00     0.018 C 
ATOM     15  C   UNL A   1      37.117  21.786  24.254  1.00  0.00     0.006 C 
ENDBRANCH  13  14
ENDBRANCH   8  13
BRANCH  10  16
ATOM     16  C   UNL A   1      33.593  25.263  24.068  1.00  0.00     0.061 A 
ATOM     17  C   UNL A   1      33.643  26.564  23.558  1.00  0.00     0.136 A 
ATOM     18  N   UNL A   1      33.283  24.495  22.946  1.00  0.00    -0.330 N 
ATOM     19  N   UNL A   1      33.376  26.620  22.231  1.00  0.00    -0.245 NA
ATOM     20  C   UNL A   1      33.175  25.376  21.886  1.00  0.00     0.199 A 
BRANCH  18  21
ATOM     21  C   UNL A   1      33.007  23.092  22.643  1.00  0.00     0.088 C 
ATOM     22  C   UNL A   1      33.065  21.835  23.466  1.00  0.00     0.027 C 
ATOM     23  C   UNL A   1      31.738  22.372  23.064  1.00  0.00     0.027 C 
ENDBRANCH  18  21
ENDBRANCH  10  16
ENDBRANCH   4   7
ENDBRANCH   2   3
ENDBRANCH   1   2
BRANCH   1  24
ATOM     24  C   UNL A   1      32.942  29.823  26.554  1.00  0.00     0.118 C 
BRANCH  24  25
ATOM     25  N   UNL A   1      32.907  31.256  26.829  1.00  0.00    -0.352 N 
ATOM     26  C   UNL A   1      33.766  32.041  27.561  1.00  0.00     0.251 C 
ATOM     27  H   UNL A   1      32.147  31.738  26.428  1.00  0.00     0.163 HD
ATOM     28  O   UNL A   1      33.452  33.198  27.826  1.00  0.00    -0.269 OA
BRANCH  26  29
ATOM     29  C   UNL A   1      35.040  31.479  28.053  1.00  0.00     0.039 A 
ATOM     30  C   UNL A   1      36.167  32.301  28.120  1.00  0.00     0.014 A 
ATOM     31  C   UNL A   1      35.121  30.150  28.468  1.00  0.00     0.014 A 
ATOM     32  C   UNL A   1      37.347  31.801  28.671  1.00  0.00     0.010 A 
ATOM     33  C   UNL A   1      36.243  29.704  29.149  1.00  0.00     0.010 A 
ATOM     34  C   UNL A   1      37.382  30.513  29.230  1.00  0.00    -0.014 A 
BRANCH  34  35
ATOM     35  C   UNL A   1      38.616  29.972  29.852  1.00  0.00     0.031 A 
ATOM     36  C   UNL A   1      39.024  30.437  31.227  1.00  0.00     0.074 A 
ATOM     37  C   UNL A   1      39.383  29.100  29.167  1.00  0.00     0.049 A 
ATOM     38  N   UNL A   1      40.081  30.120  31.928  1.00  0.00    -0.248 NA
ATOM     39  C   UNL A   1      38.148  31.421  31.884  1.00  0.00     0.031 C 
ATOM     40  C   UNL A   1      39.116  28.624  27.807  1.00  0.00     0.029 A 
ATOM     41  N   UNL A   1      40.539  28.454  29.520  1.00  0.00    -0.354 N 
ATOM     42  C   UNL A   1      39.998  30.869  33.096  1.00  0.00     0.074 A 
ATOM     43  C   UNL A   1      38.844  31.727  32.967  1.00  0.00     0.031 C 
ATOM     44  C   UNL A   1      40.049  27.721  27.466  1.00  0.00     0.029 A 
ATOM     45  C   UNL A   1      41.010  27.593  28.555  1.00  0.00     0.049 A 
ATOM     46  H   UNL A   1      40.991  28.592  30.384  1.00  0.00     0.167 HD
ATOM     47  C   UNL A   1      40.789  30.818  34.196  1.00  0.00     0.034 A 
ATOM     48  C   UNL A   1      42.095  26.794  28.552  1.00  0.00     0.034 A 
ATOM     49  C   UNL A   1      41.925  29.940  34.314  1.00  0.00     0.049 A 
ATOM     50  C   UNL A   1      42.975  26.775  29.777  1.00  0.00     0.074 A 
ATOM     51  C   UNL A   1      42.769  29.764  35.395  1.00  0.00     0.029 A 
ATOM     52  N   UNL A   1      42.378  29.091  33.312  1.00  0.00    -0.354 N 
ATOM     53  N   UNL A   1      42.848  27.447  30.900  1.00  0.00    -0.248 NA
ATOM     54  C   UNL A   1      44.138  25.881  29.739  1.00  0.00     0.031 C 
ATOM     55  C   UNL A   1      43.776  28.868  35.021  1.00  0.00     0.029 A 
ATOM     56  C   UNL A   1      43.511  28.415  33.738  1.00  0.00     0.049 A 
ATOM     57  H   UNL A   1      41.957  28.985  32.428  1.00  0.00     0.167 HD
ATOM     58  C   UNL A   1      43.899  27.029  31.712  1.00  0.00     0.074 A 
ATOM     59  C   UNL A   1      44.631  26.031  30.959  1.00  0.00     0.031 C 
ATOM     60  C   UNL A   1      44.232  27.432  32.965  1.00  0.00     0.034 A 
BRANCH  47  61
ATOM     61  C   UNL A   1      40.452  31.746  35.340  1.00  0.00     0.023 A 
ATOM     62  C   UNL A   1      39.458  31.424  36.282  1.00  0.00     0.031 A 
ATOM     63  C   UNL A   1      41.108  32.981  35.474  1.00  0.00     0.131 A 
ATOM     64  C   UNL A   1      39.094  32.357  37.264  1.00  0.00     0.055 A 
ATOM     65  C   UNL A   1      40.803  33.868  36.511  1.00  0.00     0.041 A 
ATOM     66  F   UNL A   1      42.047  33.358  34.593  1.00  0.00    -0.206 F 
ATOM     67  C   UNL A   1      39.779  33.565  37.403  1.00  0.00     0.022 A 
BRANCH  64  68
ATOM     68  S   UNL A   1      37.609  32.033  38.255  1.00  0.00     0.124 S 
ATOM     69  O   UNL A   1      36.696  33.060  37.760  1.00  0.00    -0.237 OA
ATOM     70  O   UNL A   1      37.283  30.658  37.895  1.00  0.00    -0.237 OA
ATOM     71  O   UNL A   1      38.066  32.227  39.630  1.00  0.00    -0.744 OA
ENDBRANCH  64  68
ENDBRANCH  47  61
BRANCH  48  72
ATOM     72  C   UNL A   1      42.415  25.946  27.368  1.00  0.00     0.023 A 
ATOM     73  C   UNL A   1      41.962  24.620  27.284  1.00  0.00     0.031 A 
ATOM     74  C   UNL A   1      43.229  26.428  26.326  1.00  0.00     0.131 A 
ATOM     75  C   UNL A   1      42.372  23.804  26.218  1.00  0.00     0.055 A 
ATOM     76  C   UNL A   1      43.582  25.631  25.235  1.00  0.00     0.041 A 
ATOM     77  F   UNL A   1      43.689  27.689  26.351  1.00  0.00    -0.206 F 
ATOM     78  C   UNL A   1      43.167  24.305  25.186  1.00  0.00     0.022 A 
BRANCH  75  79
ATOM     79  S   UNL A   1      41.942  22.042  26.260  1.00  0.00     0.124 S 
ATOM     80  O   UNL A   1      42.305  21.680  27.626  1.00  0.00    -0.237 OA
ATOM     81  O   UNL A   1      40.514  22.071  25.962  1.00  0.00    -0.237 OA
ATOM     82  O   UNL A   1      42.784  21.461  25.216  1.00  0.00    -0.744 OA
ENDBRANCH  75  79
ENDBRANCH  48  72
BRANCH  60  83
ATOM     83  C   UNL A   1      45.421  26.757  33.606  1.00  0.00     0.023 A 
ATOM     84  C   UNL A   1      45.294  25.540  34.299  1.00  0.00     0.031 A 
ATOM     85  C   UNL A   1      46.694  27.349  33.540  1.00  0.00     0.131 A 
ATOM     86  C   UNL A   1      46.403  24.992  34.957  1.00  0.00     0.055 A 
ATOM     87  C   UNL A   1      47.811  26.759  34.132  1.00  0.00     0.041 A 
ATOM     88  F   UNL A   1      46.876  28.512  32.893  1.00  0.00    -0.206 F 
ATOM     89  C   UNL A   1      47.665  25.582  34.861  1.00  0.00     0.022 A 
BRANCH  86  90
ATOM     90  S   UNL A   1      46.149  23.558  36.038  1.00  0.00     0.124 S 
ATOM     91  O   UNL A   1      47.072  23.839  37.133  1.00  0.00    -0.237 OA
ATOM     92  O   UNL A   1      44.729  23.659  36.361  1.00  0.00    -0.237 OA
ATOM     93  O   UNL A   1      46.515  22.424  35.194  1.00  0.00    -0.744 OA
ENDBRANCH  86  90
ENDBRANCH  60  83
ENDBRANCH  34  35
ENDBRANCH  26  29
ENDBRANCH  24  25
ENDBRANCH   1  24
TORSDOF 17
ENDMDL
MODEL 2
REMARK VINA RESULT:     -11.4      1.686      2.050
REMARK SMILES CCCN1C(=O)C[C@H](C(=O)NCCCNC(=O)c2ccc(-c3c4nc(c(-c5cc(S(=O)(=O)[O-])ccc5F)c5ccc([nH]5)c(-c5cc(S(=O)(=O)[O-])ccc5F)c5nc(c(-c6cc(S(=O)(=O)[O-])ccc6F)c6ccc3[nH]6)C=C5)C=C4)cc2)[C@@H]1c1cncn1C1CC1
REMARK SMILES IDX 13 1 12 2 11 3 9 4 10 5 8 7 4 8 5 9 81 10 6 11 7 12 3 13
REMARK SMILES IDX 2 14 1 15 82 16 83 17 86 18 84 19 85 20 87 21 88 22 89 23
REMARK SMILES IDX 14 24 15 25 16 26 17 28 18 29 19 30 80 31 20 32 79 33 21 34
REMARK SMILES IDX 22 35 23 36 73 37 24 38 78 39 72 40 74 41 25 42 77 43 71 44
REMARK SMILES IDX 70 45 26 47 58 48 38 49 57 50 39 51 42 52 56 53 75 54 40 55
REMARK SMILES IDX 41 56 55 58 76 59 43 60 27 61 28 62 36 63 29 64 35 65 37 66
REMARK SMILES IDX 34 67 30 68 31 69 32 70 33 71 59 72 60 73 68 74 61 75 67 76
REMARK SMILES IDX 69 77 66 78 62 79 63 80 64 81 65 82 44 83 45 84 53 85 46 86
REMARK SMILES IDX 52 87 54 88 51 89 47 90 48 91 49 92 50 93
REMARK H PARENT 11 6 15 27 74 46 42 57
REMARK Flexibility Score: inf
ROOT
ATOM      1  C   UNL A   1      31.653  29.984  25.328  1.00  0.00     0.042 C 
ENDROOT
BRANCH   1   2
ATOM      2  C   UNL A   1      32.011  28.540  25.085  1.00  0.00     0.117 C 
BRANCH   2   3
ATOM      3  N   UNL A   1      30.948  27.725  24.560  1.00  0.00    -0.356 N 
ATOM      4  C   UNL A   1      30.581  26.483  24.963  1.00  0.00     0.226 C 
ATOM      5  O   UNL A   1      29.470  26.078  24.607  1.00  0.00    -0.275 OA
ATOM      6  H   UNL A   1      30.426  28.114  23.822  1.00  0.00     0.163 HD
BRANCH   4   7
ATOM      7  C   UNL A   1      31.474  25.581  25.798  1.00  0.00     0.116 C 
ATOM      8  N   UNL A   1      33.097  23.934  26.109  1.00  0.00    -0.333 N 
ATOM      9  C   UNL A   1      32.008  23.564  26.896  1.00  0.00     0.224 C 
ATOM     10  C   UNL A   1      32.777  25.017  25.225  1.00  0.00     0.146 C 
ATOM     11  O   UNL A   1      31.989  22.676  27.728  1.00  0.00    -0.275 OA
ATOM     12  C   UNL A   1      30.817  24.417  26.523  1.00  0.00     0.116 C 
BRANCH   8  13
ATOM     13  C   UNL A   1      34.425  23.331  26.206  1.00  0.00     0.120 C 
BRANCH  13  14
ATOM     14  C   UNL A   1      35.588  24.211  25.757  1.00  0.00     0.018 C 
ATOM     15  C   UNL A   1      36.326  23.653  24.555  1.00  0.00     0.006 C 
ENDBRANCH  13  14
ENDBRANCH   8  13
BRANCH  10  16
ATOM     16  C   UNL A   1      32.902  24.718  23.767  1.00  0.00     0.061 A 
ATOM     17  C   UNL A   1      33.533  25.614  22.900  1.00  0.00     0.136 A 
ATOM     18  N   UNL A   1      32.586  23.643  22.937  1.00  0.00    -0.330 N 
ATOM     19  N   UNL A   1      33.602  25.157  21.627  1.00  0.00    -0.245 NA
ATOM     20  C   UNL A   1      33.040  23.978  21.675  1.00  0.00     0.199 A 
BRANCH  18  21
ATOM     21  C   UNL A   1      31.890  22.363  23.048  1.00  0.00     0.088 C 
ATOM     22  C   UNL A   1      32.080  21.032  22.376  1.00  0.00     0.027 C 
ATOM     23  C   UNL A   1      32.437  21.170  23.813  1.00  0.00     0.027 C 
ENDBRANCH  18  21
ENDBRANCH  10  16
ENDBRANCH   4   7
ENDBRANCH   2   3
ENDBRANCH   1   2
BRANCH   1  24
ATOM     24  C   UNL A   1      32.083  30.464  26.699  1.00  0.00     0.118 C 
BRANCH  24  25
ATOM     25  N   UNL A   1      32.089  31.919  26.820  1.00  0.00    -0.352 N 
ATOM     26  C   UNL A   1      32.976  32.753  27.458  1.00  0.00     0.251 C 
ATOM     27  H   UNL A   1      31.339  32.376  26.375  1.00  0.00     0.163 HD
ATOM     28  O   UNL A   1      32.695  33.940  27.600  1.00  0.00    -0.269 OA
BRANCH  26  29
ATOM     29  C   UNL A   1      34.239  32.212  27.998  1.00  0.00     0.039 A 
ATOM     30  C   UNL A   1      35.322  33.073  28.193  1.00  0.00     0.014 A 
ATOM     31  C   UNL A   1      34.351  30.863  28.334  1.00  0.00     0.014 A 
ATOM     32  C   UNL A   1      36.485  32.585  28.790  1.00  0.00     0.010 A 
ATOM     33  C   UNL A   1      35.446  30.419  29.060  1.00  0.00     0.010 A 
ATOM     34  C   UNL A   1      36.540  31.265  29.268  1.00  0.00    -0.014 A 
BRANCH  34  35
ATOM     35  C   UNL A   1      37.754  30.735  29.937  1.00  0.00     0.031 A 
ATOM     36  C   UNL A   1      38.060  31.139  31.357  1.00  0.00     0.074 A 
ATOM     37  C   UNL A   1      38.594  29.929  29.257  1.00  0.00     0.049 A 
ATOM     38  N   UNL A   1      39.084  30.821  32.106  1.00  0.00    -0.248 NA
ATOM     39  C   UNL A   1      37.110  32.055  32.009  1.00  0.00     0.031 C 
ATOM     40  C   UNL A   1      38.428  29.518  27.861  1.00  0.00     0.029 A 
ATOM     41  N   UNL A   1      39.750  29.305  29.648  1.00  0.00    -0.354 N 
ATOM     42  C   UNL A   1      38.903  31.503  33.304  1.00  0.00     0.074 A 
ATOM     43  C   UNL A   1      37.726  32.325  33.147  1.00  0.00     0.031 C 
ATOM     44  C   UNL A   1      39.413  28.668  27.531  1.00  0.00     0.029 A 
ATOM     45  C   UNL A   1      40.311  28.515  28.670  1.00  0.00     0.049 A 
ATOM     46  H   UNL A   1      40.143  29.412  30.544  1.00  0.00     0.167 HD
ATOM     47  C   UNL A   1      39.627  31.420  34.446  1.00  0.00     0.034 A 
ATOM     48  C   UNL A   1      41.424  27.755  28.694  1.00  0.00     0.034 A 
ATOM     49  C   UNL A   1      40.786  30.576  34.589  1.00  0.00     0.049 A 
ATOM     50  C   UNL A   1      42.229  27.701  29.968  1.00  0.00     0.074 A 
ATOM     51  C   UNL A   1      41.569  30.372  35.710  1.00  0.00     0.029 A 
ATOM     52  N   UNL A   1      41.331  29.799  33.575  1.00  0.00    -0.354 N 
ATOM     53  N   UNL A   1      42.008  28.306  31.114  1.00  0.00    -0.248 NA
ATOM     54  C   UNL A   1      43.425  26.851  29.957  1.00  0.00     0.031 C 
ATOM     55  C   UNL A   1      42.630  29.532  35.354  1.00  0.00     0.029 A 
ATOM     56  C   UNL A   1      42.461  29.141  34.035  1.00  0.00     0.049 A 
ATOM     57  H   UNL A   1      40.968  29.726  32.662  1.00  0.00     0.167 HD
ATOM     58  C   UNL A   1      43.024  27.882  31.968  1.00  0.00     0.074 A 
ATOM     59  C   UNL A   1      43.837  26.952  31.211  1.00  0.00     0.031 C 
ATOM     60  C   UNL A   1      43.265  28.227  33.258  1.00  0.00     0.034 A 
BRANCH  47  61
ATOM     61  C   UNL A   1      39.186  32.272  35.614  1.00  0.00     0.023 A 
ATOM     62  C   UNL A   1      39.596  33.611  35.746  1.00  0.00     0.031 A 
ATOM     63  C   UNL A   1      38.372  31.732  36.624  1.00  0.00     0.131 A 
ATOM     64  C   UNL A   1      39.261  34.337  36.898  1.00  0.00     0.055 A 
ATOM     65  C   UNL A   1      37.965  32.491  37.725  1.00  0.00     0.041 A 
ATOM     66  F   UNL A   1      37.968  30.454  36.569  1.00  0.00    -0.206 F 
ATOM     67  C   UNL A   1      38.423  33.796  37.876  1.00  0.00     0.022 A 
BRANCH  64  68
ATOM     68  S   UNL A   1      40.062  35.941  37.173  1.00  0.00     0.124 S 
ATOM     69  O   UNL A   1      39.311  36.453  38.317  1.00  0.00    -0.237 OA
ATOM     70  O   UNL A   1      41.446  35.562  37.433  1.00  0.00    -0.237 OA
ATOM     71  O   UNL A   1      39.836  36.656  35.918  1.00  0.00    -0.744 OA
ENDBRANCH  64  68
ENDBRANCH  47  61
BRANCH  48  72
ATOM     72  C   UNL A   1      41.848  26.985  27.489  1.00  0.00     0.023 A 
ATOM     73  C   UNL A   1      41.610  25.604  27.393  1.00  0.00     0.031 A 
ATOM     74  C   UNL A   1      42.549  27.604  26.438  1.00  0.00     0.131 A 
ATOM     75  C   UNL A   1      42.120  24.878  26.306  1.00  0.00     0.055 A 
ATOM     76  C   UNL A   1      42.999  26.888  25.327  1.00  0.00     0.041 A 
ATOM     77  F   UNL A   1      42.802  28.922  26.473  1.00  0.00    -0.206 F 
ATOM     78  C   UNL A   1      42.800  25.513  25.266  1.00  0.00     0.022 A 
BRANCH  75  79
ATOM     79  S   UNL A   1      41.978  23.069  26.329  1.00  0.00     0.124 S 
ATOM     80  O   UNL A   1      42.607  22.706  25.064  1.00  0.00    -0.237 OA
ATOM     81  O   UNL A   1      42.719  22.723  27.537  1.00  0.00    -0.237 OA
ATOM     82  O   UNL A   1      40.536  22.843  26.397  1.00  0.00    -0.744 OA
ENDBRANCH  75  79
ENDBRANCH  48  72
BRANCH  60  83
ATOM     83  C   UNL A   1      44.437  27.560  33.936  1.00  0.00     0.023 A 
ATOM     84  C   UNL A   1      44.310  26.313  34.572  1.00  0.00     0.031 A 
ATOM     85  C   UNL A   1      45.694  28.191  33.964  1.00  0.00     0.131 A 
ATOM     86  C   UNL A   1      45.399  25.770  35.268  1.00  0.00     0.055 A 
ATOM     87  C   UNL A   1      46.794  27.608  34.593  1.00  0.00     0.041 A 
ATOM     88  F   UNL A   1      45.874  29.384  33.375  1.00  0.00    -0.206 F 
ATOM     89  C   UNL A   1      46.646  26.398  35.264  1.00  0.00     0.022 A 
BRANCH  86  90
ATOM     90  S   UNL A   1      45.132  24.286  36.275  1.00  0.00     0.124 S 
ATOM     91  O   UNL A   1      44.786  24.860  37.572  1.00  0.00    -0.237 OA
ATOM     92  O   UNL A   1      44.045  23.618  35.565  1.00  0.00    -0.237 OA
ATOM     93  O   UNL A   1      46.420  23.600  36.224  1.00  0.00    -0.744 OA
ENDBRANCH  86  90
ENDBRANCH  60  83
ENDBRANCH  34  35
ENDBRANCH  26  29
ENDBRANCH  24  25
ENDBRANCH   1  24
TORSDOF 17
ENDMDL
MODEL 3
REMARK VINA RESULT:     -11.3      2.886      8.535
REMARK SMILES CCCN1C(=O)C[C@H](C(=O)NCCCNC(=O)c2ccc(-c3c4nc(c(-c5cc(S(=O)(=O)[O-])ccc5F)c5ccc([nH]5)c(-c5cc(S(=O)(=O)[O-])ccc5F)c5nc(c(-c6cc(S(=O)(=O)[O-])ccc6F)c6ccc3[nH]6)C=C5)C=C4)cc2)[C@@H]1c1cncn1C1CC1
REMARK SMILES IDX 13 1 12 2 11 3 9 4 10 5 8 7 4 8 5 9 81 10 6 11 7 12 3 13
REMARK SMILES IDX 2 14 1 15 82 16 83 17 86 18 84 19 85 20 87 21 88 22 89 23
REMARK SMILES IDX 14 24 15 25 16 26 17 28 18 29 19 30 80 31 20 32 79 33 21 34
REMARK SMILES IDX 22 35 23 36 73 37 24 38 78 39 72 40 74 41 25 42 77 43 71 44
REMARK SMILES IDX 70 45 26 47 58 48 38 49 57 50 39 51 42 52 56 53 75 54 40 55
REMARK SMILES IDX 41 56 55 58 76 59 43 60 27 61 28 62 36 63 29 64 35 65 37 66
REMARK SMILES IDX 34 67 30 68 31 69 32 70 33 71 59 72 60 73 68 74 61 75 67 76
REMARK SMILES IDX 69 77 66 78 62 79 63 80 64 81 65 82 44 83 45 84 53 85 46 86
REMARK SMILES IDX 52 87 54 88 51 89 47 90 48 91 49 92 50 93
REMARK H PARENT 11 6 15 27 74 46 42 57
REMARK Flexibility Score: inf
ROOT
ATOM      1  C   UNL A   1      31.745  32.045  26.899  1.00  0.00     0.042 C 
ENDROOT
BRANCH   1   2
ATOM      2  C   UNL A   1      32.079  30.694  26.320  1.00  0.00     0.117 C 
BRANCH   2   3
ATOM      3  N   UNL A   1      31.430  29.578  26.953  1.00  0.00    -0.356 N 
ATOM      4  C   UNL A   1      31.755  28.265  26.851  1.00  0.00     0.226 C 
ATOM      5  O   UNL A   1      31.282  27.498  27.696  1.00  0.00    -0.275 OA
ATOM      6  H   UNL A   1      30.659  29.792  27.527  1.00  0.00     0.163 HD
BRANCH   4   7
ATOM      7  C   UNL A   1      32.639  27.709  25.748  1.00  0.00     0.116 C 
ATOM      8  N   UNL A   1      33.042  26.744  23.663  1.00  0.00    -0.333 N 
ATOM      9  C   UNL A   1      33.738  25.973  24.592  1.00  0.00     0.224 C 
ATOM     10  C   UNL A   1      32.156  27.678  24.296  1.00  0.00     0.146 C 
ATOM     11  O   UNL A   1      34.550  25.102  24.341  1.00  0.00    -0.275 OA
ATOM     12  C   UNL A   1      33.290  26.356  25.984  1.00  0.00     0.116 C 
BRANCH   8  13
ATOM     13  C   UNL A   1      33.230  26.656  22.215  1.00  0.00     0.120 C 
BRANCH  13  14
ATOM     14  C   UNL A   1      32.731  25.372  21.559  1.00  0.00     0.018 C 
ATOM     15  C   UNL A   1      32.541  25.507  20.059  1.00  0.00     0.006 C 
ENDBRANCH  13  14
ENDBRANCH   8  13
BRANCH  10  16
ATOM     16  C   UNL A   1      30.708  27.508  23.977  1.00  0.00     0.061 A 
ATOM     17  C   UNL A   1      30.047  26.307  24.250  1.00  0.00     0.136 A 
ATOM     18  N   UNL A   1      29.690  28.324  23.483  1.00  0.00    -0.330 N 
ATOM     19  N   UNL A   1      28.727  26.350  23.945  1.00  0.00    -0.245 NA
ATOM     20  C   UNL A   1      28.536  27.563  23.500  1.00  0.00     0.199 A 
BRANCH  18  21
ATOM     21  C   UNL A   1      29.560  29.673  22.937  1.00  0.00     0.088 C 
ATOM     22  C   UNL A   1      28.383  30.585  22.728  1.00  0.00     0.027 C 
ATOM     23  C   UNL A   1      29.369  30.915  23.791  1.00  0.00     0.027 C 
ENDBRANCH  18  21
ENDBRANCH  10  16
ENDBRANCH   4   7
ENDBRANCH   2   3
ENDBRANCH   1   2
BRANCH   1  24
ATOM     24  C   UNL A   1      32.981  32.830  27.291  1.00  0.00     0.118 C 
BRANCH  24  25
ATOM     25  N   UNL A   1      32.682  34.197  27.708  1.00  0.00    -0.352 N 
ATOM     26  C   UNL A   1      33.173  34.931  28.760  1.00  0.00     0.251 C 
ATOM     27  H   UNL A   1      32.024  34.668  27.146  1.00  0.00     0.163 HD
ATOM     28  O   UNL A   1      32.649  36.004  29.047  1.00  0.00    -0.269 OA
BRANCH  26  29
ATOM     29  C   UNL A   1      34.300  34.410  29.561  1.00  0.00     0.039 A 
ATOM     30  C   UNL A   1      34.035  33.745  30.760  1.00  0.00     0.014 A 
ATOM     31  C   UNL A   1      35.615  34.557  29.121  1.00  0.00     0.014 A 
ATOM     32  C   UNL A   1      35.089  33.171  31.472  1.00  0.00     0.010 A 
ATOM     33  C   UNL A   1      36.637  33.861  29.747  1.00  0.00     0.010 A 
ATOM     34  C   UNL A   1      36.393  33.186  30.948  1.00  0.00    -0.014 A 
BRANCH  34  35
ATOM     35  C   UNL A   1      37.523  32.552  31.670  1.00  0.00     0.031 A 
ATOM     36  C   UNL A   1      38.264  31.403  31.034  1.00  0.00     0.074 A 
ATOM     37  C   UNL A   1      37.853  32.981  32.905  1.00  0.00     0.049 A 
ATOM     38  N   UNL A   1      39.250  30.688  31.512  1.00  0.00    -0.248 NA
ATOM     39  C   UNL A   1      37.809  30.973  29.702  1.00  0.00     0.031 C 
ATOM     40  C   UNL A   1      37.170  34.047  33.641  1.00  0.00     0.029 A 
ATOM     41  N   UNL A   1      38.850  32.581  33.757  1.00  0.00    -0.354 N 
ATOM     42  C   UNL A   1      39.522  29.727  30.545  1.00  0.00     0.074 A 
ATOM     43  C   UNL A   1      38.537  29.887  29.501  1.00  0.00     0.031 C 
ATOM     44  C   UNL A   1      37.802  34.252  34.808  1.00  0.00     0.029 A 
ATOM     45  C   UNL A   1      38.899  33.300  34.929  1.00  0.00     0.049 A 
ATOM     46  H   UNL A   1      39.473  31.847  33.549  1.00  0.00     0.167 HD
ATOM     47  C   UNL A   1      40.527  28.819  30.509  1.00  0.00     0.034 A 
ATOM     48  C   UNL A   1      39.735  33.198  35.981  1.00  0.00     0.034 A 
ATOM     49  C   UNL A   1      41.513  28.688  31.552  1.00  0.00     0.049 A 
ATOM     50  C   UNL A   1      40.829  32.161  35.931  1.00  0.00     0.074 A 
ATOM     51  C   UNL A   1      42.605  27.841  31.603  1.00  0.00     0.029 A 
ATOM     52  N   UNL A   1      41.525  29.426  32.729  1.00  0.00    -0.354 N 
ATOM     53  N   UNL A   1      41.110  31.299  34.979  1.00  0.00    -0.248 NA
ATOM     54  C   UNL A   1      41.727  32.092  37.089  1.00  0.00     0.031 C 
ATOM     55  C   UNL A   1      43.231  28.012  32.843  1.00  0.00     0.029 A 
ATOM     56  C   UNL A   1      42.585  29.028  33.529  1.00  0.00     0.049 A 
ATOM     57  H   UNL A   1      40.875  30.128  32.962  1.00  0.00     0.167 HD
ATOM     58  C   UNL A   1      42.238  30.608  35.416  1.00  0.00     0.074 A 
ATOM     59  C   UNL A   1      42.597  31.173  36.700  1.00  0.00     0.031 C 
ATOM     60  C   UNL A   1      42.917  29.598  34.813  1.00  0.00     0.034 A 
BRANCH  47  61
ATOM     61  C   UNL A   1      40.592  27.898  29.313  1.00  0.00     0.023 A 
ATOM     62  C   UNL A   1      41.522  28.100  28.276  1.00  0.00     0.031 A 
ATOM     63  C   UNL A   1      39.696  26.823  29.189  1.00  0.00     0.131 A 
ATOM     64  C   UNL A   1      41.480  27.295  27.129  1.00  0.00     0.055 A 
ATOM     65  C   UNL A   1      39.720  25.967  28.085  1.00  0.00     0.041 A 
ATOM     66  F   UNL A   1      38.769  26.592  30.132  1.00  0.00    -0.206 F 
ATOM     67  C   UNL A   1      40.605  26.210  27.038  1.00  0.00     0.022 A 
BRANCH  64  68
ATOM     68  S   UNL A   1      42.478  27.780  25.694  1.00  0.00     0.124 S 
ATOM     69  O   UNL A   1      41.851  29.043  25.313  1.00  0.00    -0.237 OA
ATOM     70  O   UNL A   1      43.818  27.877  26.261  1.00  0.00    -0.237 OA
ATOM     71  O   UNL A   1      42.277  26.683  24.750  1.00  0.00    -0.744 OA
ENDBRANCH  64  68
ENDBRANCH  47  61
BRANCH  48  72
ATOM     72  C   UNL A   1      39.583  34.092  37.166  1.00  0.00     0.023 A 
ATOM     73  C   UNL A   1      39.039  33.613  38.368  1.00  0.00     0.031 A 
ATOM     74  C   UNL A   1      39.925  35.455  37.098  1.00  0.00     0.131 A 
ATOM     75  C   UNL A   1      38.796  34.498  39.430  1.00  0.00     0.055 A 
ATOM     76  C   UNL A   1      39.741  36.318  38.180  1.00  0.00     0.041 A 
ATOM     77  F   UNL A   1      40.453  35.968  35.975  1.00  0.00    -0.206 F 
ATOM     78  C   UNL A   1      39.157  35.843  39.349  1.00  0.00     0.022 A 
BRANCH  75  79
ATOM     79  S   UNL A   1      37.896  33.884  40.881  1.00  0.00     0.124 S 
ATOM     80  O   UNL A   1      36.836  33.097  40.261  1.00  0.00    -0.237 OA
ATOM     81  O   UNL A   1      38.930  33.129  41.581  1.00  0.00    -0.237 OA
ATOM     82  O   UNL A   1      37.457  35.107  41.551  1.00  0.00    -0.744 OA
ENDBRANCH  75  79
ENDBRANCH  48  72
BRANCH  60  83
ATOM     83  C   UNL A   1      44.139  29.074  35.528  1.00  0.00     0.023 A 
ATOM     84  C   UNL A   1      44.054  28.026  36.461  1.00  0.00     0.031 A 
ATOM     85  C   UNL A   1      45.401  29.644  35.287  1.00  0.00     0.131 A 
ATOM     86  C   UNL A   1      45.197  27.629  37.170  1.00  0.00     0.055 A 
ATOM     87  C   UNL A   1      46.548  29.193  35.940  1.00  0.00     0.041 A 
ATOM     88  F   UNL A   1      45.541  30.650  34.408  1.00  0.00    -0.206 F 
ATOM     89  C   UNL A   1      46.446  28.190  36.901  1.00  0.00     0.022 A 
BRANCH  86  90
ATOM     90  S   UNL A   1      45.005  26.448  38.533  1.00  0.00     0.124 S 
ATOM     91  O   UNL A   1      45.799  27.071  39.587  1.00  0.00    -0.237 OA
ATOM     92  O   UNL A   1      43.560  26.445  38.742  1.00  0.00    -0.237 OA
ATOM     93  O   UNL A   1      45.556  25.208  37.992  1.00  0.00    -0.744 OA
ENDBRANCH  86  90
ENDBRANCH  60  83
ENDBRANCH  34  35
ENDBRANCH  26  29
ENDBRANCH  24  25
ENDBRANCH   1  24
TORSDOF 17
ENDMDL
