MODEL 1
REMARK VINA RESULT:     -10.3      0.000      0.000
REMARK SMILES C=C(C)C(=O)OCC[C@@H](C(C)=O)C(=O)NCCCNC(=O)c1ccc(-c2c3nc(c(-c4cc(S(=O)(=O)[O-])ccc4F)c4ccc([nH]4)c(-c4cc(S(=O)(=O)[O-])ccc4F)c4nc(c(-c5cc(S(=O)(=O)[O-])ccc5F)c5ccc2[nH]5)C=C4)C=C3)cc1
REMARK SMILES IDX 16 1 15 2 13 3 14 4 9 6 8 7 7 8 6 9 4 10 5 11 2 12 1 13 3 14
REMARK SMILES IDX 10 15 11 16 12 17 17 18 18 19 19 20 20 21 21 23 22 24 23 25
REMARK SMILES IDX 84 26 24 27 83 28 25 29 26 30 27 31 77 32 28 33 82 34 76 35
REMARK SMILES IDX 78 36 29 37 81 38 75 39 74 40 30 42 62 43 42 44 61 45 43 46
REMARK SMILES IDX 46 47 60 48 79 49 44 50 45 51 59 53 80 54 47 55 31 56 32 57
REMARK SMILES IDX 40 58 33 59 39 60 41 61 38 62 34 63 35 64 36 65 37 66 63 67
REMARK SMILES IDX 64 68 72 69 65 70 71 71 73 72 70 73 66 74 67 75 68 76 69 77
REMARK SMILES IDX 48 78 49 79 57 80 50 81 56 82 58 83 55 84 51 85 52 86 53 87
REMARK SMILES IDX 54 88
REMARK H PARENT 15 5 19 22 78 41 46 52
REMARK Flexibility Score: inf
ROOT
ATOM      1  C   UNL A   1      30.876  30.605  25.735  1.00  0.00     0.117 C 
ENDROOT
BRANCH   1   2
ATOM      2  N   UNL A   1      31.947  30.144  24.864  1.00  0.00    -0.355 N 
ATOM      3  C   UNL A   1      32.119  28.940  24.255  1.00  0.00     0.230 C 
ATOM      4  O   UNL A   1      33.107  28.785  23.536  1.00  0.00    -0.274 OA
ATOM      5  H   UNL A   1      32.655  30.805  24.688  1.00  0.00     0.163 HD
BRANCH   3   6
ATOM      6  C   UNL A   1      31.125  27.816  24.466  1.00  0.00     0.148 C 
BRANCH   6   7
ATOM      7  C   UNL A   1      29.903  28.062  23.558  1.00  0.00     0.063 C 
BRANCH   7   8
ATOM      8  C   UNL A   1      30.208  28.694  22.202  1.00  0.00     0.234 C 
BRANCH   8   9
ATOM      9  O   UNL A   1      29.993  30.111  22.229  1.00  0.00    -0.462 OA
BRANCH   9  10
ATOM     10  C   UNL A   1      28.767  30.542  21.852  1.00  0.00     0.333 C 
ATOM     11  O   UNL A   1      28.105  30.130  20.911  1.00  0.00    -0.247 OA
BRANCH  10  12
ATOM     12  C   UNL A   1      28.291  31.560  22.819  1.00  0.00     0.027 C 
ATOM     13  C   UNL A   1      27.469  31.146  23.796  1.00  0.00     0.020 C 
ATOM     14  C   UNL A   1      28.727  32.975  22.629  1.00  0.00     0.051 C 
ENDBRANCH  10  12
ENDBRANCH   9  10
ENDBRANCH   8   9
ENDBRANCH   7   8
ENDBRANCH   6   7
BRANCH   6  15
ATOM     15  C   UNL A   1      31.764  26.440  24.304  1.00  0.00     0.142 C 
ATOM     16  C   UNL A   1      31.213  25.515  23.244  1.00  0.00     0.088 C 
ATOM     17  O   UNL A   1      32.708  26.067  25.006  1.00  0.00    -0.299 OA
ENDBRANCH   6  15
ENDBRANCH   3   6
ENDBRANCH   1   2
BRANCH   1  18
ATOM     18  C   UNL A   1      31.023  32.072  26.085  1.00  0.00     0.042 C 
BRANCH  18  19
ATOM     19  C   UNL A   1      32.303  32.374  26.845  1.00  0.00     0.118 C 
BRANCH  19  20
ATOM     20  N   UNL A   1      32.347  33.749  27.328  1.00  0.00    -0.352 N 
ATOM     21  C   UNL A   1      33.160  34.310  28.281  1.00  0.00     0.251 C 
ATOM     22  H   UNL A   1      31.700  34.362  26.912  1.00  0.00     0.163 HD
ATOM     23  O   UNL A   1      32.895  35.421  28.731  1.00  0.00    -0.269 OA
BRANCH  21  24
ATOM     24  C   UNL A   1      34.335  33.557  28.764  1.00  0.00     0.039 A 
ATOM     25  C   UNL A   1      35.600  34.138  28.682  1.00  0.00     0.014 A 
ATOM     26  C   UNL A   1      34.174  32.286  29.321  1.00  0.00     0.014 A 
ATOM     27  C   UNL A   1      36.697  33.467  29.227  1.00  0.00     0.010 A 
ATOM     28  C   UNL A   1      35.245  31.671  29.955  1.00  0.00     0.010 A 
ATOM     29  C   UNL A   1      36.521  32.249  29.904  1.00  0.00    -0.014 A 
BRANCH  29  30
ATOM     30  C   UNL A   1      37.661  31.544  30.544  1.00  0.00     0.031 A 
ATOM     31  C   UNL A   1      38.039  31.877  31.962  1.00  0.00     0.074 A 
ATOM     32  C   UNL A   1      38.386  30.659  29.831  1.00  0.00     0.049 A 
ATOM     33  N   UNL A   1      39.052  31.448  32.671  1.00  0.00    -0.248 NA
ATOM     34  C   UNL A   1      37.183  32.845  32.666  1.00  0.00     0.031 C 
ATOM     35  C   UNL A   1      38.134  30.287  28.437  1.00  0.00     0.029 A 
ATOM     36  N   UNL A   1      39.484  29.914  30.178  1.00  0.00    -0.354 N 
ATOM     37  C   UNL A   1      38.957  32.099  33.896  1.00  0.00     0.074 A 
ATOM     38  C   UNL A   1      37.835  33.007  33.806  1.00  0.00     0.031 C 
ATOM     39  C   UNL A   1      39.030  29.359  28.060  1.00  0.00     0.029 A 
ATOM     40  C   UNL A   1      39.954  29.112  29.163  1.00  0.00     0.049 A 
ATOM     41  H   UNL A   1      39.898  29.949  31.070  1.00  0.00     0.167 HD
ATOM     42  C   UNL A   1      39.717  31.932  35.006  1.00  0.00     0.034 A 
ATOM     43  C   UNL A   1      41.015  28.282  29.123  1.00  0.00     0.034 A 
ATOM     44  C   UNL A   1      40.823  31.010  35.083  1.00  0.00     0.049 A 
ATOM     45  C   UNL A   1      41.870  28.144  30.360  1.00  0.00     0.074 A 
ATOM     46  C   UNL A   1      41.638  30.731  36.165  1.00  0.00     0.029 A 
ATOM     47  N   UNL A   1      41.271  30.217  34.033  1.00  0.00    -0.354 N 
ATOM     48  N   UNL A   1      41.742  28.738  31.525  1.00  0.00    -0.248 NA
ATOM     49  C   UNL A   1      43.007  27.218  30.280  1.00  0.00     0.031 C 
ATOM     50  C   UNL A   1      42.619  29.823  35.753  1.00  0.00     0.029 A 
ATOM     51  C   UNL A   1      42.367  29.470  34.436  1.00  0.00     0.049 A 
ATOM     52  H   UNL A   1      40.868  30.189  33.135  1.00  0.00     0.167 HD
ATOM     53  C   UNL A   1      42.758  28.223  32.326  1.00  0.00     0.074 A 
ATOM     54  C   UNL A   1      43.476  27.262  31.517  1.00  0.00     0.031 C 
ATOM     55  C   UNL A   1      43.070  28.515  33.614  1.00  0.00     0.034 A 
BRANCH  42  56
ATOM     56  C   UNL A   1      39.382  32.771  36.215  1.00  0.00     0.023 A 
ATOM     57  C   UNL A   1      39.970  34.030  36.423  1.00  0.00     0.031 A 
ATOM     58  C   UNL A   1      38.470  32.304  37.178  1.00  0.00     0.131 A 
ATOM     59  C   UNL A   1      39.693  34.748  37.595  1.00  0.00     0.055 A 
ATOM     60  C   UNL A   1      38.135  33.060  38.302  1.00  0.00     0.041 A 
ATOM     61  F   UNL A   1      37.895  31.097  37.046  1.00  0.00    -0.206 F 
ATOM     62  C   UNL A   1      38.758  34.285  38.524  1.00  0.00     0.022 A 
BRANCH  59  63
ATOM     63  S   UNL A   1      40.672  36.232  37.953  1.00  0.00     0.124 S 
ATOM     64  O   UNL A   1      39.634  37.182  38.345  1.00  0.00    -0.237 OA
ATOM     65  O   UNL A   1      41.557  35.777  39.020  1.00  0.00    -0.237 OA
ATOM     66  O   UNL A   1      41.328  36.525  36.681  1.00  0.00    -0.744 OA
ENDBRANCH  59  63
ENDBRANCH  42  56
BRANCH  43  67
ATOM     67  C   UNL A   1      41.348  27.521  27.882  1.00  0.00     0.023 A 
ATOM     68  C   UNL A   1      41.100  26.142  27.796  1.00  0.00     0.031 A 
ATOM     69  C   UNL A   1      41.987  28.144  26.795  1.00  0.00     0.131 A 
ATOM     70  C   UNL A   1      41.550  25.418  26.681  1.00  0.00     0.055 A 
ATOM     71  C   UNL A   1      42.373  27.430  25.658  1.00  0.00     0.041 A 
ATOM     72  F   UNL A   1      42.249  29.460  26.822  1.00  0.00    -0.206 F 
ATOM     73  C   UNL A   1      42.171  26.054  25.605  1.00  0.00     0.022 A 
BRANCH  70  74
ATOM     74  S   UNL A   1      41.424  23.608  26.717  1.00  0.00     0.124 S 
ATOM     75  O   UNL A   1      41.914  23.305  28.056  1.00  0.00    -0.237 OA
ATOM     76  O   UNL A   1      39.998  23.400  26.492  1.00  0.00    -0.237 OA
ATOM     77  O   UNL A   1      42.295  23.186  25.622  1.00  0.00    -0.744 OA
ENDBRANCH  70  74
ENDBRANCH  43  67
BRANCH  55  78
ATOM     78  C   UNL A   1      44.203  27.738  34.240  1.00  0.00     0.023 A 
ATOM     79  C   UNL A   1      43.988  26.519  34.904  1.00  0.00     0.031 A 
ATOM     80  C   UNL A   1      45.517  28.235  34.177  1.00  0.00     0.131 A 
ATOM     81  C   UNL A   1      45.060  25.867  35.531  1.00  0.00     0.055 A 
ATOM     82  C   UNL A   1      46.591  27.546  34.743  1.00  0.00     0.041 A 
ATOM     83  F   UNL A   1      45.781  29.395  33.556  1.00  0.00    -0.206 F 
ATOM     84  C   UNL A   1      46.362  26.363  35.439  1.00  0.00     0.022 A 
BRANCH  81  85
ATOM     85  S   UNL A   1      44.714  24.410  36.555  1.00  0.00     0.124 S 
ATOM     86  O   UNL A   1      43.770  23.672  35.723  1.00  0.00    -0.237 OA
ATOM     87  O   UNL A   1      46.036  23.811  36.702  1.00  0.00    -0.237 OA
ATOM     88  O   UNL A   1      44.151  24.977  37.779  1.00  0.00    -0.744 OA
ENDBRANCH  81  85
ENDBRANCH  55  78
ENDBRANCH  29  30
ENDBRANCH  21  24
ENDBRANCH  19  20
ENDBRANCH  18  19
ENDBRANCH   1  18
TORSDOF 19
ENDMDL
MODEL 2
REMARK VINA RESULT:     -10.3      2.155      8.089
REMARK SMILES C=C(C)C(=O)OCC[C@@H](C(C)=O)C(=O)NCCCNC(=O)c1ccc(-c2c3nc(c(-c4cc(S(=O)(=O)[O-])ccc4F)c4ccc([nH]4)c(-c4cc(S(=O)(=O)[O-])ccc4F)c4nc(c(-c5cc(S(=O)(=O)[O-])ccc5F)c5ccc2[nH]5)C=C4)C=C3)cc1
REMARK SMILES IDX 16 1 15 2 13 3 14 4 9 6 8 7 7 8 6 9 4 10 5 11 2 12 1 13 3 14
REMARK SMILES IDX 10 15 11 16 12 17 17 18 18 19 19 20 20 21 21 23 22 24 23 25
REMARK SMILES IDX 84 26 24 27 83 28 25 29 26 30 27 31 77 32 28 33 82 34 76 35
REMARK SMILES IDX 78 36 29 37 81 38 75 39 74 40 30 42 62 43 42 44 61 45 43 46
REMARK SMILES IDX 46 47 60 48 79 49 44 50 45 51 59 53 80 54 47 55 31 56 32 57
REMARK SMILES IDX 40 58 33 59 39 60 41 61 38 62 34 63 35 64 36 65 37 66 63 67
REMARK SMILES IDX 64 68 72 69 65 70 71 71 73 72 70 73 66 74 67 75 68 76 69 77
REMARK SMILES IDX 48 78 49 79 57 80 50 81 56 82 58 83 55 84 51 85 52 86 53 87
REMARK SMILES IDX 54 88
REMARK H PARENT 15 5 19 22 78 41 46 52
REMARK Flexibility Score: inf
ROOT
ATOM      1  C   UNL A   1      31.419  30.560  26.301  1.00  0.00     0.117 C 
ENDROOT
BRANCH   1   2
ATOM      2  N   UNL A   1      32.270  30.141  25.197  1.00  0.00    -0.355 N 
ATOM      3  C   UNL A   1      32.093  29.146  24.287  1.00  0.00     0.230 C 
ATOM      4  O   UNL A   1      32.951  28.989  23.418  1.00  0.00    -0.274 OA
ATOM      5  H   UNL A   1      33.103  30.658  25.093  1.00  0.00     0.163 HD
BRANCH   3   6
ATOM      6  C   UNL A   1      30.875  28.247  24.351  1.00  0.00     0.148 C 
BRANCH   6   7
ATOM      7  C   UNL A   1      30.133  28.329  23.002  1.00  0.00     0.063 C 
BRANCH   7   8
ATOM      8  C   UNL A   1      29.862  29.740  22.485  1.00  0.00     0.234 C 
BRANCH   8   9
ATOM      9  O   UNL A   1      29.386  30.594  23.533  1.00  0.00    -0.462 OA
BRANCH   9  10
ATOM     10  C   UNL A   1      28.193  31.199  23.323  1.00  0.00     0.333 C 
ATOM     11  O   UNL A   1      27.106  30.839  23.750  1.00  0.00    -0.247 OA
BRANCH  10  12
ATOM     12  C   UNL A   1      28.410  32.443  22.546  1.00  0.00     0.027 C 
ATOM     13  C   UNL A   1      29.013  33.465  23.173  1.00  0.00     0.020 C 
ATOM     14  C   UNL A   1      27.920  32.491  21.136  1.00  0.00     0.051 C 
ENDBRANCH  10  12
ENDBRANCH   9  10
ENDBRANCH   8   9
ENDBRANCH   7   8
ENDBRANCH   6   7
BRANCH   6  15
ATOM     15  C   UNL A   1      31.225  26.829  24.794  1.00  0.00     0.142 C 
ATOM     16  C   UNL A   1      30.823  26.394  26.184  1.00  0.00     0.088 C 
ATOM     17  O   UNL A   1      31.818  26.037  24.056  1.00  0.00    -0.299 OA
ENDBRANCH   6  15
ENDBRANCH   3   6
ENDBRANCH   1   2
BRANCH   1  18
ATOM     18  C   UNL A   1      31.441  32.063  26.493  1.00  0.00     0.042 C 
BRANCH  18  19
ATOM     19  C   UNL A   1      32.742  32.565  27.094  1.00  0.00     0.118 C 
BRANCH  19  20
ATOM     20  N   UNL A   1      32.619  33.915  27.629  1.00  0.00    -0.352 N 
ATOM     21  C   UNL A   1      33.274  34.495  28.687  1.00  0.00     0.251 C 
ATOM     22  H   UNL A   1      31.972  34.494  27.166  1.00  0.00     0.163 HD
ATOM     23  O   UNL A   1      32.871  35.560  29.145  1.00  0.00    -0.269 OA
BRANCH  21  24
ATOM     24  C   UNL A   1      34.447  33.816  29.271  1.00  0.00     0.039 A 
ATOM     25  C   UNL A   1      35.729  34.222  28.899  1.00  0.00     0.014 A 
ATOM     26  C   UNL A   1      34.273  32.793  30.207  1.00  0.00     0.014 A 
ATOM     27  C   UNL A   1      36.837  33.647  29.522  1.00  0.00     0.010 A 
ATOM     28  C   UNL A   1      35.370  32.300  30.901  1.00  0.00     0.010 A 
ATOM     29  C   UNL A   1      36.665  32.712  30.558  1.00  0.00    -0.014 A 
BRANCH  29  30
ATOM     30  C   UNL A   1      37.825  32.129  31.278  1.00  0.00     0.031 A 
ATOM     31  C   UNL A   1      38.608  31.011  30.643  1.00  0.00     0.074 A 
ATOM     32  C   UNL A   1      38.130  32.560  32.518  1.00  0.00     0.049 A 
ATOM     33  N   UNL A   1      39.591  30.303  31.139  1.00  0.00    -0.248 NA
ATOM     34  C   UNL A   1      38.212  30.614  29.282  1.00  0.00     0.031 C 
ATOM     35  C   UNL A   1      37.417  33.612  33.247  1.00  0.00     0.029 A 
ATOM     36  N   UNL A   1      39.115  32.167  33.387  1.00  0.00    -0.354 N 
ATOM     37  C   UNL A   1      39.921  29.377  30.156  1.00  0.00     0.074 A 
ATOM     38  C   UNL A   1      38.986  29.563  29.069  1.00  0.00     0.031 C 
ATOM     39  C   UNL A   1      38.010  33.803  34.438  1.00  0.00     0.029 A 
ATOM     40  C   UNL A   1      39.107  32.851  34.582  1.00  0.00     0.049 A 
ATOM     41  H   UNL A   1      39.767  31.460  33.178  1.00  0.00     0.167 HD
ATOM     42  C   UNL A   1      40.934  28.475  30.147  1.00  0.00     0.034 A 
ATOM     43  C   UNL A   1      39.888  32.717  35.673  1.00  0.00     0.034 A 
ATOM     44  C   UNL A   1      41.867  28.314  31.234  1.00  0.00     0.049 A 
ATOM     45  C   UNL A   1      40.982  31.677  35.653  1.00  0.00     0.074 A 
ATOM     46  C   UNL A   1      42.952  27.461  31.318  1.00  0.00     0.029 A 
ATOM     47  N   UNL A   1      41.826  29.024  32.428  1.00  0.00    -0.354 N 
ATOM     48  N   UNL A   1      41.308  30.836  34.697  1.00  0.00    -0.248 NA
ATOM     49  C   UNL A   1      41.821  31.574  36.855  1.00  0.00     0.031 C 
ATOM     50  C   UNL A   1      43.524  27.603  32.587  1.00  0.00     0.029 A 
ATOM     51  C   UNL A   1      42.849  28.606  33.265  1.00  0.00     0.049 A 
ATOM     52  H   UNL A   1      41.166  29.720  32.648  1.00  0.00     0.167 HD
ATOM     53  C   UNL A   1      42.415  30.136  35.171  1.00  0.00     0.074 A 
ATOM     54  C   UNL A   1      42.708  30.664  36.486  1.00  0.00     0.031 C 
ATOM     55  C   UNL A   1      43.127  29.146  34.574  1.00  0.00     0.034 A 
BRANCH  42  56
ATOM     56  C   UNL A   1      41.071  27.592  28.931  1.00  0.00     0.023 A 
ATOM     57  C   UNL A   1      42.082  27.802  27.978  1.00  0.00     0.031 A 
ATOM     58  C   UNL A   1      40.173  26.531  28.714  1.00  0.00     0.131 A 
ATOM     59  C   UNL A   1      42.132  27.011  26.821  1.00  0.00     0.055 A 
ATOM     60  C   UNL A   1      40.278  25.694  27.602  1.00  0.00     0.041 A 
ATOM     61  F   UNL A   1      39.171  26.296  29.577  1.00  0.00    -0.206 F 
ATOM     62  C   UNL A   1      41.254  25.940  26.640  1.00  0.00     0.022 A 
BRANCH  59  63
ATOM     63  S   UNL A   1      43.275  27.486  25.496  1.00  0.00     0.124 S 
ATOM     64  O   UNL A   1      42.370  28.125  24.544  1.00  0.00    -0.237 OA
ATOM     65  O   UNL A   1      44.207  28.371  26.184  1.00  0.00    -0.237 OA
ATOM     66  O   UNL A   1      43.835  26.210  25.054  1.00  0.00    -0.744 OA
ENDBRANCH  59  63
ENDBRANCH  42  56
BRANCH  43  67
ATOM     67  C   UNL A   1      39.673  33.569  36.880  1.00  0.00     0.023 A 
ATOM     68  C   UNL A   1      40.496  34.678  37.133  1.00  0.00     0.031 A 
ATOM     69  C   UNL A   1      38.693  33.245  37.835  1.00  0.00     0.131 A 
ATOM     70  C   UNL A   1      40.372  35.380  38.343  1.00  0.00     0.055 A 
ATOM     71  C   UNL A   1      38.529  33.989  39.006  1.00  0.00     0.041 A 
ATOM     72  F   UNL A   1      37.877  32.197  37.644  1.00  0.00    -0.206 F 
ATOM     73  C   UNL A   1      39.385  35.053  39.273  1.00  0.00     0.022 A 
BRANCH  70  74
ATOM     74  S   UNL A   1      41.608  36.650  38.735  1.00  0.00     0.124 S 
ATOM     75  O   UNL A   1      42.529  35.910  39.590  1.00  0.00    -0.237 OA
ATOM     76  O   UNL A   1      42.105  37.007  37.412  1.00  0.00    -0.237 OA
ATOM     77  O   UNL A   1      40.826  37.686  39.407  1.00  0.00    -0.744 OA
ENDBRANCH  70  74
ENDBRANCH  43  67
BRANCH  55  78
ATOM     78  C   UNL A   1      44.327  28.617  35.320  1.00  0.00     0.023 A 
ATOM     79  C   UNL A   1      45.558  29.295  35.320  1.00  0.00     0.031 A 
ATOM     80  C   UNL A   1      44.238  27.409  36.035  1.00  0.00     0.131 A 
ATOM     81  C   UNL A   1      46.666  28.731  35.969  1.00  0.00     0.055 A 
ATOM     82  C   UNL A   1      45.325  26.888  36.736  1.00  0.00     0.041 A 
ATOM     83  F   UNL A   1      43.087  26.719  36.069  1.00  0.00    -0.206 F 
ATOM     84  C   UNL A   1      46.552  27.542  36.692  1.00  0.00     0.022 A 
BRANCH  81  85
ATOM     85  S   UNL A   1      48.286  29.524  35.773  1.00  0.00     0.124 S 
ATOM     86  O   UNL A   1      49.199  28.421  36.054  1.00  0.00    -0.237 OA
ATOM     87  O   UNL A   1      48.245  29.978  34.386  1.00  0.00    -0.237 OA
ATOM     88  O   UNL A   1      48.271  30.588  36.773  1.00  0.00    -0.744 OA
ENDBRANCH  81  85
ENDBRANCH  55  78
ENDBRANCH  29  30
ENDBRANCH  21  24
ENDBRANCH  19  20
ENDBRANCH  18  19
ENDBRANCH   1  18
TORSDOF 19
ENDMDL
MODEL 3
REMARK VINA RESULT:     -10.2      1.937      3.368
REMARK SMILES C=C(C)C(=O)OCC[C@@H](C(C)=O)C(=O)NCCCNC(=O)c1ccc(-c2c3nc(c(-c4cc(S(=O)(=O)[O-])ccc4F)c4ccc([nH]4)c(-c4cc(S(=O)(=O)[O-])ccc4F)c4nc(c(-c5cc(S(=O)(=O)[O-])ccc5F)c5ccc2[nH]5)C=C4)C=C3)cc1
REMARK SMILES IDX 16 1 15 2 13 3 14 4 9 6 8 7 7 8 6 9 4 10 5 11 2 12 1 13 3 14
REMARK SMILES IDX 10 15 11 16 12 17 17 18 18 19 19 20 20 21 21 23 22 24 23 25
REMARK SMILES IDX 84 26 24 27 83 28 25 29 26 30 27 31 77 32 28 33 82 34 76 35
REMARK SMILES IDX 78 36 29 37 81 38 75 39 74 40 30 42 62 43 42 44 61 45 43 46
REMARK SMILES IDX 46 47 60 48 79 49 44 50 45 51 59 53 80 54 47 55 31 56 32 57
REMARK SMILES IDX 40 58 33 59 39 60 41 61 38 62 34 63 35 64 36 65 37 66 63 67
REMARK SMILES IDX 64 68 72 69 65 70 71 71 73 72 70 73 66 74 67 75 68 76 69 77
REMARK SMILES IDX 48 78 49 79 57 80 50 81 56 82 58 83 55 84 51 85 52 86 53 87
REMARK SMILES IDX 54 88
REMARK H PARENT 15 5 19 22 78 41 46 52
REMARK Flexibility Score: inf
ROOT
ATOM      1  C   UNL A   1      31.485  30.596  25.873  1.00  0.00     0.117 C 
ENDROOT
BRANCH   1   2
ATOM      2  N   UNL A   1      32.626  29.874  26.416  1.00  0.00    -0.355 N 
ATOM      3  C   UNL A   1      33.224  28.733  25.981  1.00  0.00     0.230 C 
ATOM      4  O   UNL A   1      34.204  28.315  26.600  1.00  0.00    -0.274 OA
ATOM      5  H   UNL A   1      33.027  30.274  27.222  1.00  0.00     0.163 HD
BRANCH   3   6
ATOM      6  C   UNL A   1      32.690  27.990  24.774  1.00  0.00     0.148 C 
BRANCH   6   7
ATOM      7  C   UNL A   1      33.813  27.096  24.211  1.00  0.00     0.063 C 
BRANCH   7   8
ATOM      8  C   UNL A   1      33.349  25.884  23.405  1.00  0.00     0.234 C 
BRANCH   8   9
ATOM      9  O   UNL A   1      33.743  24.659  24.037  1.00  0.00    -0.462 OA
BRANCH   9  10
ATOM     10  C   UNL A   1      34.441  23.785  23.274  1.00  0.00     0.333 C 
ATOM     11  O   UNL A   1      34.120  23.355  22.177  1.00  0.00    -0.247 OA
BRANCH  10  12
ATOM     12  C   UNL A   1      35.729  23.478  23.942  1.00  0.00     0.027 C 
ATOM     13  C   UNL A   1      36.645  22.798  23.235  1.00  0.00     0.020 C 
ATOM     14  C   UNL A   1      35.912  23.913  25.359  1.00  0.00     0.051 C 
ENDBRANCH  10  12
ENDBRANCH   9  10
ENDBRANCH   8   9
ENDBRANCH   7   8
ENDBRANCH   6   7
BRANCH   6  15
ATOM     15  C   UNL A   1      31.389  27.253  25.077  1.00  0.00     0.142 C 
ATOM     16  C   UNL A   1      31.362  26.301  26.251  1.00  0.00     0.088 C 
ATOM     17  O   UNL A   1      30.371  27.411  24.399  1.00  0.00    -0.299 OA
ENDBRANCH   6  15
ENDBRANCH   3   6
ENDBRANCH   1   2
BRANCH   1  18
ATOM     18  C   UNL A   1      31.328  31.965  26.503  1.00  0.00     0.042 C 
BRANCH  18  19
ATOM     19  C   UNL A   1      32.572  32.420  27.248  1.00  0.00     0.118 C 
BRANCH  19  20
ATOM     20  N   UNL A   1      32.548  33.848  27.541  1.00  0.00    -0.352 N 
ATOM     21  C   UNL A   1      33.250  34.553  28.487  1.00  0.00     0.251 C 
ATOM     22  H   UNL A   1      31.942  34.383  26.980  1.00  0.00     0.163 HD
ATOM     23  O   UNL A   1      32.926  35.707  28.752  1.00  0.00    -0.269 OA
BRANCH  21  24
ATOM     24  C   UNL A   1      34.375  33.903  29.187  1.00  0.00     0.039 A 
ATOM     25  C   UNL A   1      34.110  32.930  30.152  1.00  0.00     0.014 A 
ATOM     26  C   UNL A   1      35.692  34.241  28.867  1.00  0.00     0.014 A 
ATOM     27  C   UNL A   1      35.173  32.247  30.744  1.00  0.00     0.010 A 
ATOM     28  C   UNL A   1      36.740  33.487  29.376  1.00  0.00     0.010 A 
ATOM     29  C   UNL A   1      36.493  32.490  30.330  1.00  0.00    -0.014 A 
BRANCH  29  30
ATOM     30  C   UNL A   1      37.638  31.736  30.901  1.00  0.00     0.031 A 
ATOM     31  C   UNL A   1      38.107  32.041  32.299  1.00  0.00     0.074 A 
ATOM     32  C   UNL A   1      38.288  30.829  30.144  1.00  0.00     0.049 A 
ATOM     33  N   UNL A   1      39.139  31.567  32.947  1.00  0.00    -0.248 NA
ATOM     34  C   UNL A   1      37.329  33.036  33.055  1.00  0.00     0.031 C 
ATOM     35  C   UNL A   1      37.945  30.479  28.763  1.00  0.00     0.029 A 
ATOM     36  N   UNL A   1      39.373  30.039  30.424  1.00  0.00    -0.354 N 
ATOM     37  C   UNL A   1      39.138  32.211  34.180  1.00  0.00     0.074 A 
ATOM     38  C   UNL A   1      38.049  33.162  34.158  1.00  0.00     0.031 C 
ATOM     39  C   UNL A   1      38.781  29.521  28.331  1.00  0.00     0.029 A 
ATOM     40  C   UNL A   1      39.754  29.228  29.379  1.00  0.00     0.049 A 
ATOM     41  H   UNL A   1      39.837  30.050  31.292  1.00  0.00     0.167 HD
ATOM     42  C   UNL A   1      39.951  32.004  35.245  1.00  0.00     0.034 A 
ATOM     43  C   UNL A   1      40.779  28.358  29.275  1.00  0.00     0.034 A 
ATOM     44  C   UNL A   1      41.023  31.039  35.254  1.00  0.00     0.049 A 
ATOM     45  C   UNL A   1      41.694  28.176  30.462  1.00  0.00     0.074 A 
ATOM     46  C   UNL A   1      41.884  30.719  36.288  1.00  0.00     0.029 A 
ATOM     47  N   UNL A   1      41.380  30.239  34.176  1.00  0.00    -0.354 N 
ATOM     48  N   UNL A   1      41.653  28.764  31.636  1.00  0.00    -0.248 NA
ATOM     49  C   UNL A   1      42.788  27.207  30.313  1.00  0.00     0.031 C 
ATOM     50  C   UNL A   1      42.804  29.778  35.816  1.00  0.00     0.029 A 
ATOM     51  C   UNL A   1      42.466  29.446  34.513  1.00  0.00     0.049 A 
ATOM     52  H   UNL A   1      40.928  30.235  33.302  1.00  0.00     0.167 HD
ATOM     53  C   UNL A   1      42.691  28.203  32.376  1.00  0.00     0.074 A 
ATOM     54  C   UNL A   1      43.326  27.222  31.522  1.00  0.00     0.031 C 
ATOM     55  C   UNL A   1      43.085  28.471  33.647  1.00  0.00     0.034 A 
BRANCH  42  56
ATOM     56  C   UNL A   1      39.716  32.845  36.475  1.00  0.00     0.023 A 
ATOM     57  C   UNL A   1      38.897  32.399  37.527  1.00  0.00     0.031 A 
ATOM     58  C   UNL A   1      40.308  34.115  36.597  1.00  0.00     0.131 A 
ATOM     59  C   UNL A   1      38.638  33.238  38.620  1.00  0.00     0.055 A 
ATOM     60  C   UNL A   1      40.113  34.913  37.726  1.00  0.00     0.041 A 
ATOM     61  F   UNL A   1      41.080  34.606  35.614  1.00  0.00    -0.206 F 
ATOM     62  C   UNL A   1      39.263  34.482  38.740  1.00  0.00     0.022 A 
BRANCH  59  63
ATOM     63  S   UNL A   1      37.370  32.738  39.816  1.00  0.00     0.124 S 
ATOM     64  O   UNL A   1      36.189  32.628  38.962  1.00  0.00    -0.237 OA
ATOM     65  O   UNL A   1      37.903  31.483  40.334  1.00  0.00    -0.237 OA
ATOM     66  O   UNL A   1      37.342  33.846  40.769  1.00  0.00    -0.744 OA
ENDBRANCH  59  63
ENDBRANCH  42  56
BRANCH  43  67
ATOM     67  C   UNL A   1      41.012  27.595  28.013  1.00  0.00     0.023 A 
ATOM     68  C   UNL A   1      40.715  26.226  27.934  1.00  0.00     0.031 A 
ATOM     69  C   UNL A   1      41.606  28.205  26.893  1.00  0.00     0.131 A 
ATOM     70  C   UNL A   1      41.074  25.495  26.791  1.00  0.00     0.055 A 
ATOM     71  C   UNL A   1      41.899  27.487  25.732  1.00  0.00     0.041 A 
ATOM     72  F   UNL A   1      41.911  29.512  26.911  1.00  0.00    -0.206 F 
ATOM     73  C   UNL A   1      41.650  26.119  25.684  1.00  0.00     0.022 A 
BRANCH  70  74
ATOM     74  S   UNL A   1      40.892  23.690  26.825  1.00  0.00     0.124 S 
ATOM     75  O   UNL A   1      39.481  23.530  26.493  1.00  0.00    -0.237 OA
ATOM     76  O   UNL A   1      41.844  23.271  25.804  1.00  0.00    -0.237 OA
ATOM     77  O   UNL A   1      41.254  23.340  28.197  1.00  0.00    -0.744 OA
ENDBRANCH  70  74
ENDBRANCH  43  67
BRANCH  55  78
ATOM     78  C   UNL A   1      44.220  27.646  34.204  1.00  0.00     0.023 A 
ATOM     79  C   UNL A   1      43.993  26.434  34.879  1.00  0.00     0.031 A 
ATOM     80  C   UNL A   1      45.547  28.087  34.064  1.00  0.00     0.131 A 
ATOM     81  C   UNL A   1      45.072  25.736  35.440  1.00  0.00     0.055 A 
ATOM     82  C   UNL A   1      46.622  27.353  34.565  1.00  0.00     0.041 A 
ATOM     83  F   UNL A   1      45.823  29.238  33.429  1.00  0.00    -0.206 F 
ATOM     84  C   UNL A   1      46.386  26.178  35.272  1.00  0.00     0.022 A 
BRANCH  81  85
ATOM     85  S   UNL A   1      44.726  24.292  36.482  1.00  0.00     0.124 S 
ATOM     86  O   UNL A   1      44.081  24.901  37.641  1.00  0.00    -0.237 OA
ATOM     87  O   UNL A   1      43.862  23.488  35.623  1.00  0.00    -0.237 OA
ATOM     88  O   UNL A   1      46.049  23.725  36.734  1.00  0.00    -0.744 OA
ENDBRANCH  81  85
ENDBRANCH  55  78
ENDBRANCH  29  30
ENDBRANCH  21  24
ENDBRANCH  19  20
ENDBRANCH  18  19
ENDBRANCH   1  18
TORSDOF 19
ENDMDL
