MODEL 1
REMARK VINA RESULT:     -12.2      0.000      0.000
REMARK SMILES CC1(C)CCN(C(=O)N[C@](C)(C(=O)NCCCNC(=O)c2ccc(-c3c4nc(c(-c5cc(S(=O)(=O)[O-])ccc5F)c5ccc([nH]5)c(-c5cc(S(=O)(=O)[O-])ccc5F)c5nc(c(-c6cc(S(=O)(=O)[O-])ccc6F)c6ccc3[nH]6)C=C5)C=C4)cc2)c2ccccc2)C1
REMARK SMILES IDX 16 1 15 2 14 3 12 4 13 5 10 7 11 8 9 9 7 10 8 11 6 13 1 14
REMARK SMILES IDX 2 15 3 16 4 17 90 18 5 19 84 20 85 21 89 22 86 23 88 24
REMARK SMILES IDX 87 25 17 26 18 27 19 28 20 30 21 31 22 32 83 33 23 34 82 35
REMARK SMILES IDX 24 36 25 37 26 38 76 39 27 40 81 41 75 42 77 43 28 44 80 45
REMARK SMILES IDX 74 46 73 47 29 49 61 50 41 51 60 52 42 53 45 54 59 55 78 56
REMARK SMILES IDX 43 57 44 58 58 60 79 61 46 62 30 63 31 64 39 65 32 66 38 67
REMARK SMILES IDX 40 68 37 69 33 70 34 71 35 72 36 73 62 74 63 75 71 76 64 77
REMARK SMILES IDX 70 78 72 79 69 80 65 81 66 82 67 83 68 84 47 85 48 86 56 87
REMARK SMILES IDX 49 88 55 89 57 90 54 91 50 92 51 93 52 94 53 95
REMARK H PARENT 14 6 9 12 18 29 77 48 45 59
REMARK Flexibility Score: inf
ROOT
ATOM      1  C   UNL A   1      31.581  31.924  26.504  1.00  0.00     0.042 C 
ENDROOT
BRANCH   1   2
ATOM      2  C   UNL A   1      31.781  30.488  26.009  1.00  0.00     0.117 C 
BRANCH   2   3
ATOM      3  N   UNL A   1      31.628  29.532  27.087  1.00  0.00    -0.354 N 
ATOM      4  C   UNL A   1      31.692  28.174  27.162  1.00  0.00     0.250 C 
ATOM      5  O   UNL A   1      30.993  27.722  28.081  1.00  0.00    -0.272 OA
ATOM      6  H   UNL A   1      31.434  29.957  27.954  1.00  0.00     0.163 HD
BRANCH   4   7
ATOM      7  C   UNL A   1      32.544  27.240  26.180  1.00  0.00     0.143 C 
ATOM      8  C   UNL A   1      34.007  27.746  26.139  1.00  0.00     0.051 C 
BRANCH   7   9
ATOM      9  N   UNL A   1      32.639  25.871  26.782  1.00  0.00    -0.320 N 
ATOM     10  C   UNL A   1      32.196  24.647  26.445  1.00  0.00     0.318 C 
ATOM     11  O   UNL A   1      31.490  24.091  27.295  1.00  0.00    -0.249 OA
ATOM     12  H   UNL A   1      33.147  25.867  27.625  1.00  0.00     0.166 HD
BRANCH  10  13
ATOM     13  N   UNL A   1      32.646  23.964  25.354  1.00  0.00    -0.324 N 
ATOM     14  C   UNL A   1      33.070  23.357  21.842  1.00  0.00     0.013 C 
ATOM     15  C   UNL A   1      32.947  22.812  23.267  1.00  0.00    -0.016 C 
ATOM     16  C   UNL A   1      32.474  21.352  23.179  1.00  0.00     0.013 C 
ATOM     17  C   UNL A   1      34.280  22.851  24.040  1.00  0.00     0.030 C 
ATOM     18  C   UNL A   1      31.991  23.709  24.086  1.00  0.00     0.127 C 
ATOM     19  C   UNL A   1      34.077  23.850  25.166  1.00  0.00     0.122 C 
ENDBRANCH  10  13
ENDBRANCH   7   9
BRANCH   7  20
ATOM     20  C   UNL A   1      31.937  27.285  24.759  1.00  0.00    -0.013 A 
ATOM     21  C   UNL A   1      32.777  27.270  23.626  1.00  0.00     0.007 A 
ATOM     22  C   UNL A   1      30.547  27.356  24.519  1.00  0.00     0.007 A 
ATOM     23  C   UNL A   1      32.258  27.314  22.329  1.00  0.00     0.000 A 
ATOM     24  C   UNL A   1      30.029  27.440  23.223  1.00  0.00     0.000 A 
ATOM     25  C   UNL A   1      30.886  27.416  22.129  1.00  0.00     0.000 A 
ENDBRANCH   7  20
ENDBRANCH   4   7
ENDBRANCH   2   3
ENDBRANCH   1   2
BRANCH   1  26
ATOM     26  C   UNL A   1      32.780  32.507  27.255  1.00  0.00     0.118 C 
BRANCH  26  27
ATOM     27  N   UNL A   1      32.602  33.915  27.578  1.00  0.00    -0.352 N 
ATOM     28  C   UNL A   1      33.175  34.674  28.569  1.00  0.00     0.251 C 
ATOM     29  H   UNL A   1      31.972  34.398  26.996  1.00  0.00     0.163 HD
ATOM     30  O   UNL A   1      32.703  35.776  28.830  1.00  0.00    -0.269 OA
BRANCH  28  31
ATOM     31  C   UNL A   1      34.339  34.162  29.324  1.00  0.00     0.039 A 
ATOM     32  C   UNL A   1      34.118  33.437  30.499  1.00  0.00     0.014 A 
ATOM     33  C   UNL A   1      35.644  34.418  28.896  1.00  0.00     0.014 A 
ATOM     34  C   UNL A   1      35.204  32.912  31.203  1.00  0.00     0.010 A 
ATOM     35  C   UNL A   1      36.721  33.830  29.557  1.00  0.00     0.010 A 
ATOM     36  C   UNL A   1      36.512  33.069  30.717  1.00  0.00    -0.014 A 
BRANCH  36  37
ATOM     37  C   UNL A   1      37.673  32.444  31.406  1.00  0.00     0.031 A 
ATOM     38  C   UNL A   1      38.393  31.283  30.773  1.00  0.00     0.074 A 
ATOM     39  C   UNL A   1      38.045  32.889  32.624  1.00  0.00     0.049 A 
ATOM     40  N   UNL A   1      39.363  30.549  31.254  1.00  0.00    -0.248 NA
ATOM     41  C   UNL A   1      37.943  30.880  29.431  1.00  0.00     0.031 C 
ATOM     42  C   UNL A   1      37.410  33.993  33.349  1.00  0.00     0.029 A 
ATOM     43  N   UNL A   1      39.038  32.468  33.473  1.00  0.00    -0.354 N 
ATOM     44  C   UNL A   1      39.641  29.599  30.277  1.00  0.00     0.074 A 
ATOM     45  C   UNL A   1      38.689  29.808  29.207  1.00  0.00     0.031 C 
ATOM     46  C   UNL A   1      38.047  34.178  34.517  1.00  0.00     0.029 A 
ATOM     47  C   UNL A   1      39.095  33.172  34.655  1.00  0.00     0.049 A 
ATOM     48  H   UNL A   1      39.653  31.730  33.256  1.00  0.00     0.167 HD
ATOM     49  C   UNL A   1      40.615  28.655  30.263  1.00  0.00     0.034 A 
ATOM     50  C   UNL A   1      39.888  33.014  35.734  1.00  0.00     0.034 A 
ATOM     51  C   UNL A   1      41.560  28.462  31.336  1.00  0.00     0.049 A 
ATOM     52  C   UNL A   1      40.923  31.913  35.718  1.00  0.00     0.074 A 
ATOM     53  C   UNL A   1      42.604  27.557  31.411  1.00  0.00     0.029 A 
ATOM     54  N   UNL A   1      41.574  29.182  32.524  1.00  0.00    -0.354 N 
ATOM     55  N   UNL A   1      41.193  31.046  34.769  1.00  0.00    -0.248 NA
ATOM     56  C   UNL A   1      41.762  31.774  36.914  1.00  0.00     0.031 C 
ATOM     57  C   UNL A   1      43.202  27.680  32.669  1.00  0.00     0.029 A 
ATOM     58  C   UNL A   1      42.588  28.720  33.348  1.00  0.00     0.049 A 
ATOM     59  H   UNL A   1      40.954  29.914  32.748  1.00  0.00     0.167 HD
ATOM     60  C   UNL A   1      42.261  30.288  35.242  1.00  0.00     0.074 A 
ATOM     61  C   UNL A   1      42.594  30.811  36.549  1.00  0.00     0.031 C 
ATOM     62  C   UNL A   1      42.909  29.253  34.650  1.00  0.00     0.034 A 
BRANCH  49  63
ATOM     63  C   UNL A   1      40.699  27.754  29.056  1.00  0.00     0.023 A 
ATOM     64  C   UNL A   1      41.649  27.970  28.041  1.00  0.00     0.031 A 
ATOM     65  C   UNL A   1      39.825  26.661  28.916  1.00  0.00     0.131 A 
ATOM     66  C   UNL A   1      41.663  27.145  26.907  1.00  0.00     0.055 A 
ATOM     67  C   UNL A   1      39.896  25.796  27.822  1.00  0.00     0.041 A 
ATOM     68  F   UNL A   1      38.884  26.416  29.842  1.00  0.00    -0.206 F 
ATOM     69  C   UNL A   1      40.811  26.044  26.803  1.00  0.00     0.022 A 
BRANCH  66  70
ATOM     70  S   UNL A   1      42.725  27.609  25.513  1.00  0.00     0.124 S 
ATOM     71  O   UNL A   1      42.032  28.786  24.993  1.00  0.00    -0.237 OA
ATOM     72  O   UNL A   1      44.007  27.857  26.162  1.00  0.00    -0.237 OA
ATOM     73  O   UNL A   1      42.682  26.435  24.644  1.00  0.00    -0.744 OA
ENDBRANCH  66  70
ENDBRANCH  49  63
BRANCH  50  74
ATOM     74  C   UNL A   1      39.738  33.891  36.932  1.00  0.00     0.023 A 
ATOM     75  C   UNL A   1      40.632  34.949  37.166  1.00  0.00     0.031 A 
ATOM     76  C   UNL A   1      38.754  33.637  37.905  1.00  0.00     0.131 A 
ATOM     77  C   UNL A   1      40.572  35.664  38.373  1.00  0.00     0.055 A 
ATOM     78  C   UNL A   1      38.654  34.398  39.071  1.00  0.00     0.041 A 
ATOM     79  F   UNL A   1      37.873  32.639  37.737  1.00  0.00    -0.206 F 
ATOM     80  C   UNL A   1      39.580  35.407  39.320  1.00  0.00     0.022 A 
BRANCH  77  81
ATOM     81  S   UNL A   1      41.897  36.846  38.744  1.00  0.00     0.124 S 
ATOM     82  O   UNL A   1      42.439  37.107  37.415  1.00  0.00    -0.237 OA
ATOM     83  O   UNL A   1      41.161  37.941  39.364  1.00  0.00    -0.237 OA
ATOM     84  O   UNL A   1      42.776  36.099  39.641  1.00  0.00    -0.744 OA
ENDBRANCH  77  81
ENDBRANCH  50  74
BRANCH  62  85
ATOM     85  C   UNL A   1      44.083  28.660  35.392  1.00  0.00     0.023 A 
ATOM     86  C   UNL A   1      43.927  27.594  36.294  1.00  0.00     0.031 A 
ATOM     87  C   UNL A   1      45.377  29.173  35.193  1.00  0.00     0.131 A 
ATOM     88  C   UNL A   1      45.036  27.113  37.006  1.00  0.00     0.055 A 
ATOM     89  C   UNL A   1      46.487  28.646  35.853  1.00  0.00     0.041 A 
ATOM     90  F   UNL A   1      45.585  30.194  34.344  1.00  0.00    -0.206 F 
ATOM     91  C   UNL A   1      46.318  27.618  36.776  1.00  0.00     0.022 A 
BRANCH  88  92
ATOM     92  S   UNL A   1      44.768  25.875  38.304  1.00  0.00     0.124 S 
ATOM     93  O   UNL A   1      46.119  25.370  38.526  1.00  0.00    -0.237 OA
ATOM     94  O   UNL A   1      44.202  26.674  39.386  1.00  0.00    -0.237 OA
ATOM     95  O   UNL A   1      43.844  24.925  37.688  1.00  0.00    -0.744 OA
ENDBRANCH  88  92
ENDBRANCH  62  85
ENDBRANCH  36  37
ENDBRANCH  28  31
ENDBRANCH  26  27
ENDBRANCH   1  26
TORSDOF 16
ENDMDL
MODEL 2
REMARK VINA RESULT:     -12.0      1.701      2.272
REMARK SMILES CC1(C)CCN(C(=O)N[C@](C)(C(=O)NCCCNC(=O)c2ccc(-c3c4nc(c(-c5cc(S(=O)(=O)[O-])ccc5F)c5ccc([nH]5)c(-c5cc(S(=O)(=O)[O-])ccc5F)c5nc(c(-c6cc(S(=O)(=O)[O-])ccc6F)c6ccc3[nH]6)C=C5)C=C4)cc2)c2ccccc2)C1
REMARK SMILES IDX 16 1 15 2 14 3 12 4 13 5 10 7 11 8 9 9 7 10 8 11 6 13 1 14
REMARK SMILES IDX 2 15 3 16 4 17 90 18 5 19 84 20 85 21 89 22 86 23 88 24
REMARK SMILES IDX 87 25 17 26 18 27 19 28 20 30 21 31 22 32 83 33 23 34 82 35
REMARK SMILES IDX 24 36 25 37 26 38 76 39 27 40 81 41 75 42 77 43 28 44 80 45
REMARK SMILES IDX 74 46 73 47 29 49 61 50 41 51 60 52 42 53 45 54 59 55 78 56
REMARK SMILES IDX 43 57 44 58 58 60 79 61 46 62 30 63 31 64 39 65 32 66 38 67
REMARK SMILES IDX 40 68 37 69 33 70 34 71 35 72 36 73 62 74 63 75 71 76 64 77
REMARK SMILES IDX 70 78 72 79 69 80 65 81 66 82 67 83 68 84 47 85 48 86 56 87
REMARK SMILES IDX 49 88 55 89 57 90 54 91 50 92 51 93 52 94 53 95
REMARK H PARENT 14 6 9 12 18 29 77 48 45 59
REMARK Flexibility Score: inf
ROOT
ATOM      1  C   UNL A   1      31.515  31.670  26.502  1.00  0.00     0.042 C 
ENDROOT
BRANCH   1   2
ATOM      2  C   UNL A   1      31.679  30.181  26.183  1.00  0.00     0.117 C 
BRANCH   2   3
ATOM      3  N   UNL A   1      32.395  29.983  24.938  1.00  0.00    -0.354 N 
ATOM      4  C   UNL A   1      32.454  28.969  24.033  1.00  0.00     0.250 C 
ATOM      5  O   UNL A   1      33.537  28.939  23.431  1.00  0.00    -0.272 OA
ATOM      6  H   UNL A   1      32.963  30.750  24.695  1.00  0.00     0.163 HD
BRANCH   4   7
ATOM      7  C   UNL A   1      31.285  27.907  23.767  1.00  0.00     0.143 C 
ATOM      8  C   UNL A   1      31.808  26.803  22.816  1.00  0.00     0.051 C 
BRANCH   7   9
ATOM      9  N   UNL A   1      30.989  27.187  25.049  1.00  0.00    -0.320 N 
ATOM     10  C   UNL A   1      30.878  25.899  25.416  1.00  0.00     0.318 C 
ATOM     11  O   UNL A   1      29.798  25.592  25.935  1.00  0.00    -0.249 OA
ATOM     12  H   UNL A   1      30.841  27.805  25.799  1.00  0.00     0.166 HD
BRANCH  10  13
ATOM     13  N   UNL A   1      31.928  25.030  25.421  1.00  0.00    -0.324 N 
ATOM     14  C   UNL A   1      34.224  22.706  26.909  1.00  0.00     0.013 C 
ATOM     15  C   UNL A   1      33.929  23.769  25.848  1.00  0.00    -0.016 C 
ATOM     16  C   UNL A   1      35.268  24.373  25.395  1.00  0.00     0.013 C 
ATOM     17  C   UNL A   1      33.205  23.199  24.613  1.00  0.00     0.030 C 
ATOM     18  C   UNL A   1      32.955  24.822  26.424  1.00  0.00     0.127 C 
ATOM     19  C   UNL A   1      31.825  23.834  24.610  1.00  0.00     0.122 C 
ENDBRANCH  10  13
ENDBRANCH   7   9
BRANCH   7  20
ATOM     20  C   UNL A   1      30.071  28.616  23.124  1.00  0.00    -0.013 A 
ATOM     21  C   UNL A   1      30.264  29.707  22.251  1.00  0.00     0.007 A 
ATOM     22  C   UNL A   1      28.735  28.233  23.378  1.00  0.00     0.007 A 
ATOM     23  C   UNL A   1      29.187  30.370  21.658  1.00  0.00     0.000 A 
ATOM     24  C   UNL A   1      27.656  28.922  22.816  1.00  0.00     0.000 A 
ATOM     25  C   UNL A   1      27.883  29.988  21.955  1.00  0.00     0.000 A 
ENDBRANCH   7  20
ENDBRANCH   4   7
ENDBRANCH   2   3
ENDBRANCH   1   2
BRANCH   1  26
ATOM     26  C   UNL A   1      32.740  32.315  27.156  1.00  0.00     0.118 C 
BRANCH  26  27
ATOM     27  N   UNL A   1      32.520  33.716  27.485  1.00  0.00    -0.352 N 
ATOM     28  C   UNL A   1      33.067  34.486  28.482  1.00  0.00     0.251 C 
ATOM     29  H   UNL A   1      31.879  34.184  26.901  1.00  0.00     0.163 HD
ATOM     30  O   UNL A   1      32.562  35.573  28.746  1.00  0.00    -0.269 OA
BRANCH  28  31
ATOM     31  C   UNL A   1      34.240  34.003  29.240  1.00  0.00     0.039 A 
ATOM     32  C   UNL A   1      34.036  33.198  30.365  1.00  0.00     0.014 A 
ATOM     33  C   UNL A   1      35.537  34.365  28.866  1.00  0.00     0.014 A 
ATOM     34  C   UNL A   1      35.135  32.701  31.070  1.00  0.00     0.010 A 
ATOM     35  C   UNL A   1      36.632  33.807  29.524  1.00  0.00     0.010 A 
ATOM     36  C   UNL A   1      36.443  32.968  30.632  1.00  0.00    -0.014 A 
BRANCH  36  37
ATOM     37  C   UNL A   1      37.623  32.376  31.318  1.00  0.00     0.031 A 
ATOM     38  C   UNL A   1      38.348  31.209  30.703  1.00  0.00     0.074 A 
ATOM     39  C   UNL A   1      38.007  32.857  32.518  1.00  0.00     0.049 A 
ATOM     40  N   UNL A   1      39.337  30.502  31.186  1.00  0.00    -0.248 NA
ATOM     41  C   UNL A   1      37.884  30.766  29.379  1.00  0.00     0.031 C 
ATOM     42  C   UNL A   1      37.369  33.971  33.225  1.00  0.00     0.029 A 
ATOM     43  N   UNL A   1      39.019  32.472  33.361  1.00  0.00    -0.354 N 
ATOM     44  C   UNL A   1      39.613  29.530  30.230  1.00  0.00     0.074 A 
ATOM     45  C   UNL A   1      38.641  29.699  29.170  1.00  0.00     0.031 C 
ATOM     46  C   UNL A   1      38.021  34.194  34.377  1.00  0.00     0.029 A 
ATOM     47  C   UNL A   1      39.085  33.207  34.523  1.00  0.00     0.049 A 
ATOM     48  H   UNL A   1      39.641  31.737  33.153  1.00  0.00     0.167 HD
ATOM     49  C   UNL A   1      40.599  28.600  30.225  1.00  0.00     0.034 A 
ATOM     50  C   UNL A   1      39.897  33.087  35.594  1.00  0.00     0.034 A 
ATOM     51  C   UNL A   1      41.563  28.447  31.286  1.00  0.00     0.049 A 
ATOM     52  C   UNL A   1      40.947  32.001  35.589  1.00  0.00     0.074 A 
ATOM     53  C   UNL A   1      42.621  27.559  31.368  1.00  0.00     0.029 A 
ATOM     54  N   UNL A   1      41.586  29.198  32.455  1.00  0.00    -0.354 N 
ATOM     55  N   UNL A   1      41.214  31.113  34.658  1.00  0.00    -0.248 NA
ATOM     56  C   UNL A   1      41.807  31.903  36.775  1.00  0.00     0.031 C 
ATOM     57  C   UNL A   1      43.237  27.723  32.613  1.00  0.00     0.029 A 
ATOM     58  C   UNL A   1      42.620  28.770  33.274  1.00  0.00     0.049 A 
ATOM     59  H   UNL A   1      40.960  29.926  32.671  1.00  0.00     0.167 HD
ATOM     60  C   UNL A   1      42.300  30.382  35.133  1.00  0.00     0.074 A 
ATOM     61  C   UNL A   1      42.646  30.943  36.421  1.00  0.00     0.031 C 
ATOM     62  C   UNL A   1      42.953  29.341  34.557  1.00  0.00     0.034 A 
BRANCH  49  63
ATOM     63  C   UNL A   1      40.677  27.669  29.040  1.00  0.00     0.023 A 
ATOM     64  C   UNL A   1      41.591  27.886  27.993  1.00  0.00     0.031 A 
ATOM     65  C   UNL A   1      39.833  26.547  28.953  1.00  0.00     0.131 A 
ATOM     66  C   UNL A   1      41.599  27.032  26.880  1.00  0.00     0.055 A 
ATOM     67  C   UNL A   1      39.900  25.656  27.881  1.00  0.00     0.041 A 
ATOM     68  F   UNL A   1      38.926  26.300  29.912  1.00  0.00    -0.206 F 
ATOM     69  C   UNL A   1      40.779  25.903  26.830  1.00  0.00     0.022 A 
BRANCH  66  70
ATOM     70  S   UNL A   1      42.607  27.489  25.445  1.00  0.00     0.124 S 
ATOM     71  O   UNL A   1      42.516  26.284  24.624  1.00  0.00    -0.237 OA
ATOM     72  O   UNL A   1      41.913  28.665  24.933  1.00  0.00    -0.237 OA
ATOM     73  O   UNL A   1      43.926  27.744  26.021  1.00  0.00    -0.744 OA
ENDBRANCH  66  70
ENDBRANCH  49  63
BRANCH  50  74
ATOM     74  C   UNL A   1      39.754  33.993  36.771  1.00  0.00     0.023 A 
ATOM     75  C   UNL A   1      39.232  33.518  37.985  1.00  0.00     0.031 A 
ATOM     76  C   UNL A   1      40.055  35.364  36.680  1.00  0.00     0.131 A 
ATOM     77  C   UNL A   1      38.958  34.414  39.030  1.00  0.00     0.055 A 
ATOM     78  C   UNL A   1      39.848  36.239  37.747  1.00  0.00     0.041 A 
ATOM     79  F   UNL A   1      40.556  35.876  35.544  1.00  0.00    -0.206 F 
ATOM     80  C   UNL A   1      39.278  35.769  38.926  1.00  0.00     0.022 A 
BRANCH  77  81
ATOM     81  S   UNL A   1      38.052  33.804  40.478  1.00  0.00     0.124 S 
ATOM     82  O   UNL A   1      36.920  33.128  39.854  1.00  0.00    -0.237 OA
ATOM     83  O   UNL A   1      39.043  32.943  41.114  1.00  0.00    -0.237 OA
ATOM     84  O   UNL A   1      37.723  35.024  41.212  1.00  0.00    -0.744 OA
ENDBRANCH  77  81
ENDBRANCH  50  74
BRANCH  62  85
ATOM     85  C   UNL A   1      44.147  28.783  35.296  1.00  0.00     0.023 A 
ATOM     86  C   UNL A   1      44.011  27.794  36.284  1.00  0.00     0.031 A 
ATOM     87  C   UNL A   1      45.440  29.253  35.003  1.00  0.00     0.131 A 
ATOM     88  C   UNL A   1      45.140  27.347  36.986  1.00  0.00     0.055 A 
ATOM     89  C   UNL A   1      46.567  28.756  35.657  1.00  0.00     0.041 A 
ATOM     90  F   UNL A   1      45.630  30.199  34.070  1.00  0.00    -0.206 F 
ATOM     91  C   UNL A   1      46.420  27.806  36.664  1.00  0.00     0.022 A 
BRANCH  88  92
ATOM     92  S   UNL A   1      44.905  26.220  38.387  1.00  0.00     0.124 S 
ATOM     93  O   UNL A   1      43.469  26.324  38.622  1.00  0.00    -0.237 OA
ATOM     94  O   UNL A   1      45.372  24.948  37.848  1.00  0.00    -0.237 OA
ATOM     95  O   UNL A   1      45.747  26.795  39.435  1.00  0.00    -0.744 OA
ENDBRANCH  88  92
ENDBRANCH  62  85
ENDBRANCH  36  37
ENDBRANCH  28  31
ENDBRANCH  26  27
ENDBRANCH   1  26
TORSDOF 16
ENDMDL
MODEL 3
REMARK VINA RESULT:     -11.9      3.438      8.746
REMARK SMILES CC1(C)CCN(C(=O)N[C@](C)(C(=O)NCCCNC(=O)c2ccc(-c3c4nc(c(-c5cc(S(=O)(=O)[O-])ccc5F)c5ccc([nH]5)c(-c5cc(S(=O)(=O)[O-])ccc5F)c5nc(c(-c6cc(S(=O)(=O)[O-])ccc6F)c6ccc3[nH]6)C=C5)C=C4)cc2)c2ccccc2)C1
REMARK SMILES IDX 16 1 15 2 14 3 12 4 13 5 10 7 11 8 9 9 7 10 8 11 6 13 1 14
REMARK SMILES IDX 2 15 3 16 4 17 90 18 5 19 84 20 85 21 89 22 86 23 88 24
REMARK SMILES IDX 87 25 17 26 18 27 19 28 20 30 21 31 22 32 83 33 23 34 82 35
REMARK SMILES IDX 24 36 25 37 26 38 76 39 27 40 81 41 75 42 77 43 28 44 80 45
REMARK SMILES IDX 74 46 73 47 29 49 61 50 41 51 60 52 42 53 45 54 59 55 78 56
REMARK SMILES IDX 43 57 44 58 58 60 79 61 46 62 30 63 31 64 39 65 32 66 38 67
REMARK SMILES IDX 40 68 37 69 33 70 34 71 35 72 36 73 62 74 63 75 71 76 64 77
REMARK SMILES IDX 70 78 72 79 69 80 65 81 66 82 67 83 68 84 47 85 48 86 56 87
REMARK SMILES IDX 49 88 55 89 57 90 54 91 50 92 51 93 52 94 53 95
REMARK H PARENT 14 6 9 12 18 29 77 48 45 59
REMARK Flexibility Score: inf
ROOT
ATOM      1  C   UNL A   1      32.735  28.470  27.159  1.00  0.00     0.042 C 
ENDROOT
BRANCH   1   2
ATOM      2  C   UNL A   1      31.468  28.232  26.331  1.00  0.00     0.117 C 
BRANCH   2   3
ATOM      3  N   UNL A   1      31.439  26.890  25.785  1.00  0.00    -0.354 N 
ATOM      4  C   UNL A   1      31.192  26.378  24.548  1.00  0.00     0.250 C 
ATOM      5  O   UNL A   1      30.736  25.227  24.600  1.00  0.00    -0.272 OA
ATOM      6  H   UNL A   1      31.643  26.197  26.455  1.00  0.00     0.163 HD
BRANCH   4   7
ATOM      7  C   UNL A   1      31.431  27.154  23.169  1.00  0.00     0.143 C 
ATOM      8  C   UNL A   1      32.727  27.995  23.276  1.00  0.00     0.051 C 
BRANCH   7   9
ATOM      9  N   UNL A   1      31.725  26.149  22.096  1.00  0.00    -0.320 N 
ATOM     10  C   UNL A   1      32.818  25.479  21.690  1.00  0.00     0.318 C 
ATOM     11  O   UNL A   1      33.120  25.637  20.501  1.00  0.00    -0.249 OA
ATOM     12  H   UNL A   1      30.930  25.928  21.562  1.00  0.00     0.166 HD
BRANCH  10  13
ATOM     13  N   UNL A   1      33.437  24.531  22.449  1.00  0.00    -0.324 N 
ATOM     14  C   UNL A   1      34.859  23.189  25.459  1.00  0.00     0.013 C 
ATOM     15  C   UNL A   1      34.835  23.255  23.931  1.00  0.00    -0.016 C 
ATOM     16  C   UNL A   1      36.214  22.815  23.414  1.00  0.00     0.013 C 
ATOM     17  C   UNL A   1      33.762  22.341  23.307  1.00  0.00     0.030 C 
ATOM     18  C   UNL A   1      34.447  24.682  23.478  1.00  0.00     0.127 C 
ATOM     19  C   UNL A   1      32.753  23.271  22.654  1.00  0.00     0.122 C 
ENDBRANCH  10  13
ENDBRANCH   7   9
BRANCH   7  20
ATOM     20  C   UNL A   1      30.230  28.084  22.877  1.00  0.00    -0.013 A 
ATOM     21  C   UNL A   1      30.424  29.304  22.196  1.00  0.00     0.007 A 
ATOM     22  C   UNL A   1      28.910  27.781  23.277  1.00  0.00     0.007 A 
ATOM     23  C   UNL A   1      29.359  30.166  21.922  1.00  0.00     0.000 A 
ATOM     24  C   UNL A   1      27.851  28.662  23.038  1.00  0.00     0.000 A 
ATOM     25  C   UNL A   1      28.077  29.853  22.359  1.00  0.00     0.000 A 
ENDBRANCH   7  20
ENDBRANCH   4   7
ENDBRANCH   2   3
ENDBRANCH   1   2
BRANCH   1  26
ATOM     26  C   UNL A   1      33.718  29.468  26.540  1.00  0.00     0.118 C 
BRANCH  26  27
ATOM     27  N   UNL A   1      33.657  30.774  27.176  1.00  0.00    -0.352 N 
ATOM     28  C   UNL A   1      34.445  31.314  28.164  1.00  0.00     0.251 C 
ATOM     29  H   UNL A   1      32.940  31.364  26.849  1.00  0.00     0.163 HD
ATOM     30  O   UNL A   1      34.075  32.332  28.739  1.00  0.00    -0.269 OA
BRANCH  28  31
ATOM     31  C   UNL A   1      35.719  30.664  28.541  1.00  0.00     0.039 A 
ATOM     32  C   UNL A   1      36.862  30.921  27.779  1.00  0.00     0.014 A 
ATOM     33  C   UNL A   1      35.784  29.782  29.623  1.00  0.00     0.014 A 
ATOM     34  C   UNL A   1      38.082  30.347  28.144  1.00  0.00     0.010 A 
ATOM     35  C   UNL A   1      37.015  29.271  30.031  1.00  0.00     0.010 A 
ATOM     36  C   UNL A   1      38.178  29.549  29.297  1.00  0.00    -0.014 A 
BRANCH  36  37
ATOM     37  C   UNL A   1      39.484  29.001  29.751  1.00  0.00     0.031 A 
ATOM     38  C   UNL A   1      40.248  29.682  30.855  1.00  0.00     0.074 A 
ATOM     39  C   UNL A   1      40.004  27.921  29.133  1.00  0.00     0.049 A 
ATOM     40  N   UNL A   1      41.437  29.412  31.327  1.00  0.00    -0.248 NA
ATOM     41  C   UNL A   1      39.596  30.835  31.495  1.00  0.00     0.031 C 
ATOM     42  C   UNL A   1      39.368  27.188  28.035  1.00  0.00     0.029 A 
ATOM     43  N   UNL A   1      41.187  27.253  29.330  1.00  0.00    -0.354 N 
ATOM     44  C   UNL A   1      41.678  30.358  32.317  1.00  0.00     0.074 A 
ATOM     45  C   UNL A   1      40.538  31.250  32.329  1.00  0.00     0.031 C 
ATOM     46  C   UNL A   1      40.153  26.159  27.677  1.00  0.00     0.029 A 
ATOM     47  C   UNL A   1      41.375  26.190  28.474  1.00  0.00     0.049 A 
ATOM     48  H   UNL A   1      41.842  27.511  30.019  1.00  0.00     0.167 HD
ATOM     49  C   UNL A   1      42.739  30.459  33.156  1.00  0.00     0.034 A 
ATOM     50  C   UNL A   1      42.420  25.348  28.336  1.00  0.00     0.034 A 
ATOM     51  C   UNL A   1      43.865  29.559  33.135  1.00  0.00     0.049 A 
ATOM     52  C   UNL A   1      43.616  25.523  29.240  1.00  0.00     0.074 A 
ATOM     53  C   UNL A   1      44.977  29.552  33.959  1.00  0.00     0.029 A 
ATOM     54  N   UNL A   1      44.028  28.506  32.243  1.00  0.00    -0.354 N 
ATOM     55  N   UNL A   1      43.810  26.405  30.195  1.00  0.00    -0.248 NA
ATOM     56  C   UNL A   1      44.733  24.588  29.053  1.00  0.00     0.031 C 
ATOM     57  C   UNL A   1      45.843  28.545  33.520  1.00  0.00     0.029 A 
ATOM     58  C   UNL A   1      45.235  27.866  32.478  1.00  0.00     0.049 A 
ATOM     59  H   UNL A   1      43.381  28.252  31.546  1.00  0.00     0.167 HD
ATOM     60  C   UNL A   1      45.052  26.100  30.746  1.00  0.00     0.074 A 
ATOM     61  C   UNL A   1      45.551  24.946  30.030  1.00  0.00     0.031 C 
ATOM     62  C   UNL A   1      45.720  26.715  31.754  1.00  0.00     0.034 A 
BRANCH  49  63
ATOM     63  C   UNL A   1      42.735  31.588  34.156  1.00  0.00     0.023 A 
ATOM     64  C   UNL A   1      41.982  31.519  35.341  1.00  0.00     0.031 A 
ATOM     65  C   UNL A   1      43.497  32.749  33.929  1.00  0.00     0.131 A 
ATOM     66  C   UNL A   1      41.958  32.610  36.222  1.00  0.00     0.055 A 
ATOM     67  C   UNL A   1      43.532  33.799  34.848  1.00  0.00     0.041 A 
ATOM     68  F   UNL A   1      44.221  32.882  32.806  1.00  0.00    -0.206 F 
ATOM     69  C   UNL A   1      42.750  33.738  35.998  1.00  0.00     0.022 A 
BRANCH  66  70
ATOM     70  S   UNL A   1      40.782  32.583  37.602  1.00  0.00     0.124 S 
ATOM     71  O   UNL A   1      40.405  33.992  37.696  1.00  0.00    -0.237 OA
ATOM     72  O   UNL A   1      39.748  31.676  37.118  1.00  0.00    -0.237 OA
ATOM     73  O   UNL A   1      41.578  32.082  38.721  1.00  0.00    -0.744 OA
ENDBRANCH  66  70
ENDBRANCH  49  63
BRANCH  50  74
ATOM     74  C   UNL A   1      42.409  24.276  27.297  1.00  0.00     0.023 A 
ATOM     75  C   UNL A   1      41.771  23.048  27.536  1.00  0.00     0.031 A 
ATOM     76  C   UNL A   1      43.105  24.427  26.084  1.00  0.00     0.131 A 
ATOM     77  C   UNL A   1      41.903  21.997  26.615  1.00  0.00     0.055 A 
ATOM     78  C   UNL A   1      43.173  23.403  25.139  1.00  0.00     0.041 A 
ATOM     79  F   UNL A   1      43.735  25.578  25.800  1.00  0.00    -0.206 F 
ATOM     80  C   UNL A   1      42.586  22.171  25.410  1.00  0.00     0.022 A 
BRANCH  77  81
ATOM     81  S   UNL A   1      41.283  20.357  27.079  1.00  0.00     0.124 S 
ATOM     82  O   UNL A   1      40.332  20.088  26.006  1.00  0.00    -0.237 OA
ATOM     83  O   UNL A   1      42.503  19.559  27.071  1.00  0.00    -0.237 OA
ATOM     84  O   UNL A   1      40.691  20.579  28.397  1.00  0.00    -0.744 OA
ENDBRANCH  77  81
ENDBRANCH  50  74
BRANCH  62  85
ATOM     85  C   UNL A   1      47.038  26.113  32.176  1.00  0.00     0.023 A 
ATOM     86  C   UNL A   1      47.131  25.207  33.247  1.00  0.00     0.031 A 
ATOM     87  C   UNL A   1      48.220  26.454  31.495  1.00  0.00     0.131 A 
ATOM     88  C   UNL A   1      48.384  24.718  33.642  1.00  0.00     0.055 A 
ATOM     89  C   UNL A   1      49.456  25.911  31.850  1.00  0.00     0.041 A 
ATOM     90  F   UNL A   1      48.192  27.316  30.465  1.00  0.00    -0.206 F 
ATOM     91  C   UNL A   1      49.545  25.048  32.938  1.00  0.00     0.022 A 
BRANCH  88  92
ATOM     92  S   UNL A   1      48.492  23.712  35.148  1.00  0.00     0.124 S 
ATOM     93  O   UNL A   1      47.162  23.885  35.723  1.00  0.00    -0.237 OA
ATOM     94  O   UNL A   1      48.788  22.385  34.618  1.00  0.00    -0.237 OA
ATOM     95  O   UNL A   1      49.579  24.335  35.900  1.00  0.00    -0.744 OA
ENDBRANCH  88  92
ENDBRANCH  62  85
ENDBRANCH  36  37
ENDBRANCH  28  31
ENDBRANCH  26  27
ENDBRANCH   1  26
TORSDOF 16
ENDMDL
