MODEL 1
REMARK VINA RESULT:     -11.2      0.000      0.000
REMARK SMILES CCCC(=O)/C(=C/NC(N)=O)C(=O)NCCCNC(=O)c1ccc(-c2c3nc(c(-c4cc(S(=O)(=O)[O-])ccc4F)c4ccc([nH]4)c(-c4cc(S(=O)(=O)[O-])ccc4F)c4nc(c(-c5cc(S(=O)(=O)[O-])ccc5F)c5ccc2[nH]5)C=C4)C=C3)cc1
REMARK SMILES IDX 16 1 15 2 14 3 12 4 13 5 6 7 7 8 4 9 5 10 3 11 2 12 1 13
REMARK SMILES IDX 8 14 9 15 10 17 11 18 17 21 18 22 19 23 20 25 21 26 22 27
REMARK SMILES IDX 83 28 23 29 82 30 24 31 25 32 26 33 76 34 27 35 81 36 75 37
REMARK SMILES IDX 77 38 28 39 80 40 74 41 73 42 29 44 61 45 41 46 60 47 42 48
REMARK SMILES IDX 45 49 59 50 78 51 43 52 44 53 58 55 79 56 46 57 30 58 31 59
REMARK SMILES IDX 39 60 32 61 38 62 40 63 37 64 33 65 34 66 35 67 36 68 62 69
REMARK SMILES IDX 63 70 71 71 64 72 70 73 72 74 69 75 65 76 66 77 67 78 68 79
REMARK SMILES IDX 47 80 48 81 56 82 49 83 55 84 57 85 54 86 50 87 51 88 52 89
REMARK SMILES IDX 53 90
REMARK H PARENT 14 6 8 16 10 19 10 20 18 24 77 43 45 54
REMARK Flexibility Score: inf
ROOT
ATOM      1  C   UNL A   1      36.320  22.840  23.790  1.00  0.00     0.042 C 
ENDROOT
BRANCH   1   2
ATOM      2  C   UNL A   1      35.067  23.641  23.491  1.00  0.00     0.118 C 
BRANCH   2   3
ATOM      3  N   UNL A   1      33.840  22.876  23.348  1.00  0.00    -0.352 N 
ATOM      4  C   UNL A   1      32.529  23.271  23.409  1.00  0.00     0.256 C 
ATOM      5  O   UNL A   1      31.674  22.466  23.036  1.00  0.00    -0.269 OA
ATOM      6  H   UNL A   1      33.973  21.916  23.181  1.00  0.00     0.163 HD
BRANCH   4   7
ATOM      7  C   UNL A   1      32.128  24.616  23.926  1.00  0.00     0.098 C 
ATOM      8  C   UNL A   1      31.661  25.615  23.156  1.00  0.00     0.105 C 
BRANCH   7   9
ATOM      9  C   UNL A   1      32.292  24.859  25.412  1.00  0.00     0.169 C 
ATOM     10  O   UNL A   1      31.837  24.055  26.229  1.00  0.00    -0.294 OA
BRANCH   9  11
ATOM     11  C   UNL A   1      33.079  26.056  25.941  1.00  0.00     0.081 C 
BRANCH  11  12
ATOM     12  C   UNL A   1      32.171  27.160  26.481  1.00  0.00     0.005 C 
ATOM     13  C   UNL A   1      32.879  28.201  27.335  1.00  0.00     0.004 C 
ENDBRANCH  11  12
ENDBRANCH   9  11
ENDBRANCH   7   9
BRANCH   8  14
ATOM     14  N   UNL A   1      31.502  25.616  21.791  1.00  0.00    -0.314 N 
ATOM     15  C   UNL A   1      32.566  25.869  20.955  1.00  0.00     0.316 C 
ATOM     16  H   UNL A   1      30.614  25.435  21.405  1.00  0.00     0.171 HD
ATOM     17  N   UNL A   1      32.387  25.381  19.701  1.00  0.00    -0.351 N 
ATOM     18  O   UNL A   1      33.627  26.362  21.293  1.00  0.00    -0.249 OA
ATOM     19  H   UNL A   1      31.523  24.986  19.445  1.00  0.00     0.161 HD
ATOM     20  H   UNL A   1      33.121  25.424  19.046  1.00  0.00     0.161 HD
ENDBRANCH   8  14
ENDBRANCH   4   7
ENDBRANCH   2   3
ENDBRANCH   1   2
BRANCH   1  21
ATOM     21  C   UNL A   1      36.367  22.207  25.176  1.00  0.00     0.118 C 
BRANCH  21  22
ATOM     22  N   UNL A   1      37.343  21.128  25.316  1.00  0.00    -0.352 N 
ATOM     23  C   UNL A   1      38.635  21.097  25.795  1.00  0.00     0.251 C 
ATOM     24  H   UNL A   1      37.014  20.252  25.008  1.00  0.00     0.163 HD
ATOM     25  O   UNL A   1      39.282  20.059  25.664  1.00  0.00    -0.269 OA
BRANCH  23  26
ATOM     26  C   UNL A   1      39.268  22.292  26.404  1.00  0.00     0.039 A 
ATOM     27  C   UNL A   1      40.363  22.131  27.261  1.00  0.00     0.014 A 
ATOM     28  C   UNL A   1      38.791  23.574  26.149  1.00  0.00     0.014 A 
ATOM     29  C   UNL A   1      41.046  23.255  27.747  1.00  0.00     0.010 A 
ATOM     30  C   UNL A   1      39.543  24.683  26.519  1.00  0.00     0.010 A 
ATOM     31  C   UNL A   1      40.684  24.542  27.323  1.00  0.00    -0.014 A 
BRANCH  31  32
ATOM     32  C   UNL A   1      41.439  25.768  27.712  1.00  0.00     0.031 A 
ATOM     33  C   UNL A   1      40.745  26.841  28.514  1.00  0.00     0.074 A 
ATOM     34  C   UNL A   1      42.694  25.972  27.259  1.00  0.00     0.049 A 
ATOM     35  N   UNL A   1      41.114  28.073  28.750  1.00  0.00    -0.248 NA
ATOM     36  C   UNL A   1      39.431  26.490  29.077  1.00  0.00     0.031 C 
ATOM     37  C   UNL A   1      43.473  25.031  26.452  1.00  0.00     0.029 A 
ATOM     38  N   UNL A   1      43.531  27.054  27.397  1.00  0.00    -0.354 N 
ATOM     39  C   UNL A   1      40.065  28.652  29.460  1.00  0.00     0.074 A 
ATOM     40  C   UNL A   1      39.018  27.657  29.546  1.00  0.00     0.031 C 
ATOM     41  C   UNL A   1      44.677  25.564  26.189  1.00  0.00     0.029 A 
ATOM     42  C   UNL A   1      44.739  26.909  26.749  1.00  0.00     0.049 A 
ATOM     43  H   UNL A   1      43.291  27.858  27.911  1.00  0.00     0.167 HD
ATOM     44  C   UNL A   1      39.993  29.885  30.021  1.00  0.00     0.034 A 
ATOM     45  C   UNL A   1      45.767  27.770  26.605  1.00  0.00     0.034 A 
ATOM     46  C   UNL A   1      41.062  30.851  29.967  1.00  0.00     0.049 A 
ATOM     47  C   UNL A   1      45.658  29.143  27.226  1.00  0.00     0.074 A 
ATOM     48  C   UNL A   1      41.107  32.120  30.517  1.00  0.00     0.029 A 
ATOM     49  N   UNL A   1      42.283  30.646  29.341  1.00  0.00    -0.354 N 
ATOM     50  N   UNL A   1      44.659  29.670  27.897  1.00  0.00    -0.248 NA
ATOM     51  C   UNL A   1      46.817  30.035  27.079  1.00  0.00     0.031 C 
ATOM     52  C   UNL A   1      42.338  32.697  30.189  1.00  0.00     0.029 A 
ATOM     53  C   UNL A   1      43.086  31.763  29.490  1.00  0.00     0.049 A 
ATOM     54  H   UNL A   1      42.540  29.825  28.861  1.00  0.00     0.167 HD
ATOM     55  C   UNL A   1      45.094  30.932  28.293  1.00  0.00     0.074 A 
ATOM     56  C   UNL A   1      46.443  31.086  27.792  1.00  0.00     0.031 C 
ATOM     57  C   UNL A   1      44.440  31.882  29.007  1.00  0.00     0.034 A 
BRANCH  44  58
ATOM     58  C   UNL A   1      38.718  30.245  30.743  1.00  0.00     0.023 A 
ATOM     59  C   UNL A   1      37.671  30.912  30.084  1.00  0.00     0.031 A 
ATOM     60  C   UNL A   1      38.551  29.945  32.105  1.00  0.00     0.131 A 
ATOM     61  C   UNL A   1      36.542  31.329  30.804  1.00  0.00     0.055 A 
ATOM     62  C   UNL A   1      37.387  30.286  32.797  1.00  0.00     0.041 A 
ATOM     63  F   UNL A   1      39.524  29.326  32.793  1.00  0.00    -0.206 F 
ATOM     64  C   UNL A   1      36.379  30.996  32.150  1.00  0.00     0.022 A 
BRANCH  61  65
ATOM     65  S   UNL A   1      35.360  32.434  29.987  1.00  0.00     0.124 S 
ATOM     66  O   UNL A   1      36.201  33.590  29.685  1.00  0.00    -0.237 OA
ATOM     67  O   UNL A   1      34.927  31.644  28.840  1.00  0.00    -0.237 OA
ATOM     68  O   UNL A   1      34.341  32.662  31.009  1.00  0.00    -0.744 OA
ENDBRANCH  61  65
ENDBRANCH  44  58
BRANCH  45  69
ATOM     69  C   UNL A   1      46.990  27.388  25.839  1.00  0.00     0.023 A 
ATOM     70  C   UNL A   1      47.172  27.824  24.516  1.00  0.00     0.031 A 
ATOM     71  C   UNL A   1      47.953  26.519  26.381  1.00  0.00     0.131 A 
ATOM     72  C   UNL A   1      48.243  27.330  23.755  1.00  0.00     0.055 A 
ATOM     73  C   UNL A   1      49.056  26.083  25.640  1.00  0.00     0.041 A 
ATOM     74  F   UNL A   1      47.837  26.075  27.642  1.00  0.00    -0.206 F 
ATOM     75  C   UNL A   1      49.193  26.473  24.311  1.00  0.00     0.022 A 
BRANCH  72  76
ATOM     76  S   UNL A   1      48.296  27.721  21.984  1.00  0.00     0.124 S 
ATOM     77  O   UNL A   1      49.454  28.606  21.911  1.00  0.00    -0.237 OA
ATOM     78  O   UNL A   1      48.460  26.399  21.388  1.00  0.00    -0.237 OA
ATOM     79  O   UNL A   1      47.005  28.359  21.739  1.00  0.00    -0.744 OA
ENDBRANCH  72  76
ENDBRANCH  45  69
BRANCH  57  80
ATOM     80  C   UNL A   1      45.209  33.128  29.366  1.00  0.00     0.023 A 
ATOM     81  C   UNL A   1      45.184  34.277  28.557  1.00  0.00     0.031 A 
ATOM     82  C   UNL A   1      45.972  33.162  30.546  1.00  0.00     0.131 A 
ATOM     83  C   UNL A   1      45.949  35.396  28.915  1.00  0.00     0.055 A 
ATOM     84  C   UNL A   1      46.688  34.298  30.924  1.00  0.00     0.041 A 
ATOM     85  F   UNL A   1      46.029  32.091  31.354  1.00  0.00    -0.206 F 
ATOM     86  C   UNL A   1      46.686  35.421  30.101  1.00  0.00     0.022 A 
BRANCH  83  87
ATOM     87  S   UNL A   1      46.021  36.803  27.773  1.00  0.00     0.124 S 
ATOM     88  O   UNL A   1      47.127  36.428  26.897  1.00  0.00    -0.237 OA
ATOM     89  O   UNL A   1      44.694  36.781  27.166  1.00  0.00    -0.237 OA
ATOM     90  O   UNL A   1      46.282  37.943  28.648  1.00  0.00    -0.744 OA
ENDBRANCH  83  87
ENDBRANCH  57  80
ENDBRANCH  31  32
ENDBRANCH  23  26
ENDBRANCH  21  22
ENDBRANCH   1  21
TORSDOF 17
ENDMDL
MODEL 2
REMARK VINA RESULT:     -11.2      4.228     10.099
REMARK SMILES CCCC(=O)/C(=C/NC(N)=O)C(=O)NCCCNC(=O)c1ccc(-c2c3nc(c(-c4cc(S(=O)(=O)[O-])ccc4F)c4ccc([nH]4)c(-c4cc(S(=O)(=O)[O-])ccc4F)c4nc(c(-c5cc(S(=O)(=O)[O-])ccc5F)c5ccc2[nH]5)C=C4)C=C3)cc1
REMARK SMILES IDX 16 1 15 2 14 3 12 4 13 5 6 7 7 8 4 9 5 10 3 11 2 12 1 13
REMARK SMILES IDX 8 14 9 15 10 17 11 18 17 21 18 22 19 23 20 25 21 26 22 27
REMARK SMILES IDX 83 28 23 29 82 30 24 31 25 32 26 33 76 34 27 35 81 36 75 37
REMARK SMILES IDX 77 38 28 39 80 40 74 41 73 42 29 44 61 45 41 46 60 47 42 48
REMARK SMILES IDX 45 49 59 50 78 51 43 52 44 53 58 55 79 56 46 57 30 58 31 59
REMARK SMILES IDX 39 60 32 61 38 62 40 63 37 64 33 65 34 66 35 67 36 68 62 69
REMARK SMILES IDX 63 70 71 71 64 72 70 73 72 74 69 75 65 76 66 77 67 78 68 79
REMARK SMILES IDX 47 80 48 81 56 82 49 83 55 84 57 85 54 86 50 87 51 88 52 89
REMARK SMILES IDX 53 90
REMARK H PARENT 14 6 8 16 10 19 10 20 18 24 77 43 45 54
REMARK Flexibility Score: inf
ROOT
ATOM      1  C   UNL A   1      42.300  21.583  26.803  1.00  0.00     0.042 C 
ENDROOT
BRANCH   1   2
ATOM      2  C   UNL A   1      42.512  22.929  26.134  1.00  0.00     0.118 C 
BRANCH   2   3
ATOM      3  N   UNL A   1      42.917  22.891  24.739  1.00  0.00    -0.352 N 
ATOM      4  C   UNL A   1      44.143  22.666  24.170  1.00  0.00     0.256 C 
ATOM      5  O   UNL A   1      44.179  22.469  22.955  1.00  0.00    -0.269 OA
ATOM      6  H   UNL A   1      42.190  23.057  24.097  1.00  0.00     0.163 HD
BRANCH   4   7
ATOM      7  C   UNL A   1      45.404  22.674  24.975  1.00  0.00     0.098 C 
ATOM      8  C   UNL A   1      45.955  21.580  25.530  1.00  0.00     0.105 C 
BRANCH   7   9
ATOM      9  C   UNL A   1      46.076  24.014  25.188  1.00  0.00     0.169 C 
ATOM     10  O   UNL A   1      45.706  25.005  24.553  1.00  0.00    -0.294 OA
BRANCH   9  11
ATOM     11  C   UNL A   1      47.170  24.198  26.236  1.00  0.00     0.081 C 
BRANCH  11  12
ATOM     12  C   UNL A   1      46.657  24.881  27.504  1.00  0.00     0.005 C 
ATOM     13  C   UNL A   1      45.534  24.140  28.213  1.00  0.00     0.004 C 
ENDBRANCH  11  12
ENDBRANCH   9  11
ENDBRANCH   7   9
BRANCH   8  14
ATOM     14  N   UNL A   1      45.470  20.295  25.508  1.00  0.00    -0.314 N 
ATOM     15  C   UNL A   1      46.321  19.218  25.397  1.00  0.00     0.316 C 
ATOM     16  H   UNL A   1      44.499  20.141  25.573  1.00  0.00     0.171 HD
ATOM     17  N   UNL A   1      45.782  18.061  25.858  1.00  0.00    -0.351 N 
ATOM     18  O   UNL A   1      47.487  19.275  25.047  1.00  0.00    -0.249 OA
ATOM     19  H   UNL A   1      44.839  18.034  26.137  1.00  0.00     0.161 HD
ATOM     20  H   UNL A   1      46.334  17.247  25.913  1.00  0.00     0.161 HD
ENDBRANCH   8  14
ENDBRANCH   4   7
ENDBRANCH   2   3
ENDBRANCH   1   2
BRANCH   1  21
ATOM     21  C   UNL A   1      40.967  21.424  27.526  1.00  0.00     0.118 C 
BRANCH  21  22
ATOM     22  N   UNL A   1      39.795  21.480  26.654  1.00  0.00    -0.352 N 
ATOM     23  C   UNL A   1      38.932  22.500  26.317  1.00  0.00     0.251 C 
ATOM     24  H   UNL A   1      39.580  20.620  26.224  1.00  0.00     0.163 HD
ATOM     25  O   UNL A   1      37.931  22.225  25.658  1.00  0.00    -0.269 OA
BRANCH  23  26
ATOM     26  C   UNL A   1      39.156  23.892  26.779  1.00  0.00     0.039 A 
ATOM     27  C   UNL A   1      38.856  24.235  28.103  1.00  0.00     0.014 A 
ATOM     28  C   UNL A   1      39.650  24.870  25.922  1.00  0.00     0.014 A 
ATOM     29  C   UNL A   1      39.175  25.512  28.587  1.00  0.00     0.010 A 
ATOM     30  C   UNL A   1      40.087  26.086  26.432  1.00  0.00     0.010 A 
ATOM     31  C   UNL A   1      39.860  26.427  27.773  1.00  0.00    -0.014 A 
BRANCH  31  32
ATOM     32  C   UNL A   1      40.327  27.756  28.261  1.00  0.00     0.031 A 
ATOM     33  C   UNL A   1      41.806  28.005  28.429  1.00  0.00     0.074 A 
ATOM     34  C   UNL A   1      39.439  28.692  28.657  1.00  0.00     0.049 A 
ATOM     35  N   UNL A   1      42.422  28.972  29.058  1.00  0.00    -0.248 NA
ATOM     36  C   UNL A   1      42.709  26.993  27.856  1.00  0.00     0.031 C 
ATOM     37  C   UNL A   1      37.981  28.573  28.577  1.00  0.00     0.029 A 
ATOM     38  N   UNL A   1      39.634  29.927  29.230  1.00  0.00    -0.354 N 
ATOM     39  C   UNL A   1      43.779  28.669  28.984  1.00  0.00     0.074 A 
ATOM     40  C   UNL A   1      43.885  27.389  28.317  1.00  0.00     0.031 C 
ATOM     41  C   UNL A   1      37.418  29.693  29.056  1.00  0.00     0.029 A 
ATOM     42  C   UNL A   1      38.464  30.587  29.539  1.00  0.00     0.049 A 
ATOM     43  H   UNL A   1      40.526  30.305  29.403  1.00  0.00     0.167 HD
ATOM     44  C   UNL A   1      44.841  29.403  29.399  1.00  0.00     0.034 A 
ATOM     45  C   UNL A   1      38.260  31.766  30.161  1.00  0.00     0.034 A 
ATOM     46  C   UNL A   1      44.723  30.697  30.022  1.00  0.00     0.049 A 
ATOM     47  C   UNL A   1      39.458  32.560  30.628  1.00  0.00     0.074 A 
ATOM     48  C   UNL A   1      45.730  31.538  30.463  1.00  0.00     0.029 A 
ATOM     49  N   UNL A   1      43.523  31.348  30.274  1.00  0.00    -0.354 N 
ATOM     50  N   UNL A   1      40.734  32.256  30.545  1.00  0.00    -0.248 NA
ATOM     51  C   UNL A   1      39.191  33.857  31.264  1.00  0.00     0.031 C 
ATOM     52  C   UNL A   1      45.138  32.678  31.018  1.00  0.00     0.029 A 
ATOM     53  C   UNL A   1      43.765  32.576  30.864  1.00  0.00     0.049 A 
ATOM     54  H   UNL A   1      42.631  30.988  30.063  1.00  0.00     0.167 HD
ATOM     55  C   UNL A   1      41.417  33.350  31.072  1.00  0.00     0.074 A 
ATOM     56  C   UNL A   1      40.416  34.319  31.464  1.00  0.00     0.031 C 
ATOM     57  C   UNL A   1      42.752  33.539  31.219  1.00  0.00     0.034 A 
BRANCH  44  58
ATOM     58  C   UNL A   1      46.215  28.818  29.184  1.00  0.00     0.023 A 
ATOM     59  C   UNL A   1      46.872  28.938  27.947  1.00  0.00     0.031 A 
ATOM     60  C   UNL A   1      46.868  28.114  30.209  1.00  0.00     0.131 A 
ATOM     61  C   UNL A   1      48.101  28.295  27.741  1.00  0.00     0.055 A 
ATOM     62  C   UNL A   1      48.132  27.549  30.025  1.00  0.00     0.041 A 
ATOM     63  F   UNL A   1      46.283  27.950  31.407  1.00  0.00    -0.206 F 
ATOM     64  C   UNL A   1      48.750  27.624  28.780  1.00  0.00     0.022 A 
BRANCH  61  65
ATOM     65  S   UNL A   1      48.767  28.230  26.056  1.00  0.00     0.124 S 
ATOM     66  O   UNL A   1      49.294  26.869  26.002  1.00  0.00    -0.237 OA
ATOM     67  O   UNL A   1      47.588  28.491  25.238  1.00  0.00    -0.237 OA
ATOM     68  O   UNL A   1      49.779  29.285  26.047  1.00  0.00    -0.744 OA
ENDBRANCH  61  65
ENDBRANCH  44  58
BRANCH  45  69
ATOM     69  C   UNL A   1      36.879  32.284  30.398  1.00  0.00     0.023 A 
ATOM     70  C   UNL A   1      36.165  32.915  29.366  1.00  0.00     0.031 A 
ATOM     71  C   UNL A   1      36.285  32.232  31.671  1.00  0.00     0.131 A 
ATOM     72  C   UNL A   1      34.937  33.537  29.642  1.00  0.00     0.055 A 
ATOM     73  C   UNL A   1      35.031  32.795  31.924  1.00  0.00     0.041 A 
ATOM     74  F   UNL A   1      36.917  31.636  32.694  1.00  0.00    -0.206 F 
ATOM     75  C   UNL A   1      34.359  33.470  30.910  1.00  0.00     0.022 A 
BRANCH  72  76
ATOM     76  S   UNL A   1      34.173  34.552  28.345  1.00  0.00     0.124 S 
ATOM     77  O   UNL A   1      34.073  35.849  29.005  1.00  0.00    -0.237 OA
ATOM     78  O   UNL A   1      35.153  34.452  27.269  1.00  0.00    -0.237 OA
ATOM     79  O   UNL A   1      32.901  33.879  28.094  1.00  0.00    -0.744 OA
ENDBRANCH  72  76
ENDBRANCH  45  69
BRANCH  57  80
ATOM     80  C   UNL A   1      43.205  34.878  31.743  1.00  0.00     0.023 A 
ATOM     81  C   UNL A   1      43.330  35.136  33.118  1.00  0.00     0.031 A 
ATOM     82  C   UNL A   1      43.525  35.909  30.841  1.00  0.00     0.131 A 
ATOM     83  C   UNL A   1      43.718  36.411  33.554  1.00  0.00     0.055 A 
ATOM     84  C   UNL A   1      43.962  37.158  31.280  1.00  0.00     0.041 A 
ATOM     85  F   UNL A   1      43.423  35.713  29.516  1.00  0.00    -0.206 F 
ATOM     86  C   UNL A   1      44.051  37.418  32.644  1.00  0.00     0.022 A 
BRANCH  83  87
ATOM     87  S   UNL A   1      43.717  36.760  35.334  1.00  0.00     0.124 S 
ATOM     88  O   UNL A   1      44.588  35.708  35.850  1.00  0.00    -0.237 OA
ATOM     89  O   UNL A   1      44.257  38.115  35.387  1.00  0.00    -0.237 OA
ATOM     90  O   UNL A   1      42.310  36.640  35.707  1.00  0.00    -0.744 OA
ENDBRANCH  83  87
ENDBRANCH  57  80
ENDBRANCH  31  32
ENDBRANCH  23  26
ENDBRANCH  21  22
ENDBRANCH   1  21
TORSDOF 17
ENDMDL
MODEL 3
REMARK VINA RESULT:     -11.0      6.132     10.825
REMARK SMILES CCCC(=O)/C(=C/NC(N)=O)C(=O)NCCCNC(=O)c1ccc(-c2c3nc(c(-c4cc(S(=O)(=O)[O-])ccc4F)c4ccc([nH]4)c(-c4cc(S(=O)(=O)[O-])ccc4F)c4nc(c(-c5cc(S(=O)(=O)[O-])ccc5F)c5ccc2[nH]5)C=C4)C=C3)cc1
REMARK SMILES IDX 16 1 15 2 14 3 12 4 13 5 6 7 7 8 4 9 5 10 3 11 2 12 1 13
REMARK SMILES IDX 8 14 9 15 10 17 11 18 17 21 18 22 19 23 20 25 21 26 22 27
REMARK SMILES IDX 83 28 23 29 82 30 24 31 25 32 26 33 76 34 27 35 81 36 75 37
REMARK SMILES IDX 77 38 28 39 80 40 74 41 73 42 29 44 61 45 41 46 60 47 42 48
REMARK SMILES IDX 45 49 59 50 78 51 43 52 44 53 58 55 79 56 46 57 30 58 31 59
REMARK SMILES IDX 39 60 32 61 38 62 40 63 37 64 33 65 34 66 35 67 36 68 62 69
REMARK SMILES IDX 63 70 71 71 64 72 70 73 72 74 69 75 65 76 66 77 67 78 68 79
REMARK SMILES IDX 47 80 48 81 56 82 49 83 55 84 57 85 54 86 50 87 51 88 52 89
REMARK SMILES IDX 53 90
REMARK H PARENT 14 6 8 16 10 19 10 20 18 24 77 43 45 54
REMARK Flexibility Score: inf
ROOT
ATOM      1  C   UNL A   1      31.950  31.482  26.712  1.00  0.00     0.042 C 
ENDROOT
BRANCH   1   2
ATOM      2  C   UNL A   1      32.241  29.998  26.581  1.00  0.00     0.118 C 
BRANCH   2   3
ATOM      3  N   UNL A   1      33.009  29.599  25.414  1.00  0.00    -0.352 N 
ATOM      4  C   UNL A   1      32.612  29.013  24.241  1.00  0.00     0.256 C 
ATOM      5  O   UNL A   1      33.428  28.976  23.318  1.00  0.00    -0.269 OA
ATOM      6  H   UNL A   1      33.975  29.778  25.478  1.00  0.00     0.163 HD
BRANCH   4   7
ATOM      7  C   UNL A   1      31.251  28.416  24.073  1.00  0.00     0.098 C 
ATOM      8  C   UNL A   1      30.259  28.981  23.362  1.00  0.00     0.105 C 
BRANCH   7   9
ATOM      9  C   UNL A   1      30.983  27.103  24.778  1.00  0.00     0.169 C 
ATOM     10  O   UNL A   1      31.683  26.755  25.733  1.00  0.00    -0.294 OA
BRANCH   9  11
ATOM     11  C   UNL A   1      29.808  26.213  24.384  1.00  0.00     0.081 C 
BRANCH  11  12
ATOM     12  C   UNL A   1      30.211  25.115  23.399  1.00  0.00     0.005 C 
ATOM     13  C   UNL A   1      31.043  23.995  24.004  1.00  0.00     0.004 C 
ENDBRANCH  11  12
ENDBRANCH   9  11
ENDBRANCH   7   9
BRANCH   8  14
ATOM     14  N   UNL A   1      30.279  30.189  22.708  1.00  0.00    -0.314 N 
ATOM     15  C   UNL A   1      29.267  30.545  21.846  1.00  0.00     0.316 C 
ATOM     16  H   UNL A   1      31.029  30.810  22.858  1.00  0.00     0.171 HD
ATOM     17  N   UNL A   1      29.169  31.886  21.662  1.00  0.00    -0.351 N 
ATOM     18  O   UNL A   1      28.442  29.782  21.374  1.00  0.00    -0.249 OA
ATOM     19  H   UNL A   1      29.844  32.487  22.050  1.00  0.00     0.161 HD
ATOM     20  H   UNL A   1      28.423  32.259  21.138  1.00  0.00     0.161 HD
ENDBRANCH   8  14
ENDBRANCH   4   7
ENDBRANCH   2   3
ENDBRANCH   1   2
BRANCH   1  21
ATOM     21  C   UNL A   1      33.122  32.329  27.196  1.00  0.00     0.118 C 
BRANCH  21  22
ATOM     22  N   UNL A   1      32.759  33.684  27.607  1.00  0.00    -0.352 N 
ATOM     23  C   UNL A   1      33.240  34.518  28.593  1.00  0.00     0.251 C 
ATOM     24  H   UNL A   1      32.029  34.078  27.076  1.00  0.00     0.163 HD
ATOM     25  O   UNL A   1      32.643  35.572  28.809  1.00  0.00    -0.269 OA
BRANCH  23  26
ATOM     26  C   UNL A   1      34.410  34.146  29.425  1.00  0.00     0.039 A 
ATOM     27  C   UNL A   1      34.211  33.436  30.615  1.00  0.00     0.014 A 
ATOM     28  C   UNL A   1      35.705  34.494  29.053  1.00  0.00     0.014 A 
ATOM     29  C   UNL A   1      35.312  32.972  31.349  1.00  0.00     0.010 A 
ATOM     30  C   UNL A   1      36.792  33.923  29.703  1.00  0.00     0.010 A 
ATOM     31  C   UNL A   1      36.615  33.151  30.860  1.00  0.00    -0.014 A 
BRANCH  31  32
ATOM     32  C   UNL A   1      37.820  32.585  31.532  1.00  0.00     0.031 A 
ATOM     33  C   UNL A   1      38.547  31.427  30.895  1.00  0.00     0.074 A 
ATOM     34  C   UNL A   1      38.193  33.024  32.753  1.00  0.00     0.049 A 
ATOM     35  N   UNL A   1      39.449  30.628  31.405  1.00  0.00    -0.248 NA
ATOM     36  C   UNL A   1      38.163  31.093  29.513  1.00  0.00     0.031 C 
ATOM     37  C   UNL A   1      37.562  34.117  33.496  1.00  0.00     0.029 A 
ATOM     38  N   UNL A   1      39.188  32.588  33.596  1.00  0.00    -0.354 N 
ATOM     39  C   UNL A   1      39.715  29.681  30.419  1.00  0.00     0.074 A 
ATOM     40  C   UNL A   1      38.822  29.962  29.316  1.00  0.00     0.031 C 
ATOM     41  C   UNL A   1      38.197  34.281  34.668  1.00  0.00     0.029 A 
ATOM     42  C   UNL A   1      39.238  33.267  34.795  1.00  0.00     0.049 A 
ATOM     43  H   UNL A   1      39.807  31.858  33.366  1.00  0.00     0.167 HD
ATOM     44  C   UNL A   1      40.641  28.690  30.417  1.00  0.00     0.034 A 
ATOM     45  C   UNL A   1      40.018  33.079  35.878  1.00  0.00     0.034 A 
ATOM     46  C   UNL A   1      41.555  28.448  31.504  1.00  0.00     0.049 A 
ATOM     47  C   UNL A   1      41.033  31.959  35.858  1.00  0.00     0.074 A 
ATOM     48  C   UNL A   1      42.547  27.488  31.602  1.00  0.00     0.029 A 
ATOM     49  N   UNL A   1      41.602  29.188  32.678  1.00  0.00    -0.354 N 
ATOM     50  N   UNL A   1      41.271  31.077  34.914  1.00  0.00    -0.248 NA
ATOM     51  C   UNL A   1      41.890  31.816  37.043  1.00  0.00     0.031 C 
ATOM     52  C   UNL A   1      43.166  27.621  32.849  1.00  0.00     0.029 A 
ATOM     53  C   UNL A   1      42.604  28.705  33.503  1.00  0.00     0.049 A 
ATOM     54  H   UNL A   1      41.010  29.945  32.892  1.00  0.00     0.167 HD
ATOM     55  C   UNL A   1      42.339  30.310  35.376  1.00  0.00     0.074 A 
ATOM     56  C   UNL A   1      42.700  30.835  36.675  1.00  0.00     0.031 C 
ATOM     57  C   UNL A   1      42.966  29.264  34.782  1.00  0.00     0.034 A 
BRANCH  44  58
ATOM     58  C   UNL A   1      40.707  27.805  29.196  1.00  0.00     0.023 A 
ATOM     59  C   UNL A   1      41.653  28.032  28.182  1.00  0.00     0.031 A 
ATOM     60  C   UNL A   1      39.805  26.741  29.028  1.00  0.00     0.131 A 
ATOM     61  C   UNL A   1      41.624  27.262  27.011  1.00  0.00     0.055 A 
ATOM     62  C   UNL A   1      39.837  25.921  27.897  1.00  0.00     0.041 A 
ATOM     63  F   UNL A   1      38.866  26.486  29.953  1.00  0.00    -0.206 F 
ATOM     64  C   UNL A   1      40.741  26.189  26.872  1.00  0.00     0.022 A 
BRANCH  61  65
ATOM     65  S   UNL A   1      42.663  27.775  25.617  1.00  0.00     0.124 S 
ATOM     66  O   UNL A   1      41.925  28.931  25.112  1.00  0.00    -0.237 OA
ATOM     67  O   UNL A   1      43.938  28.065  26.261  1.00  0.00    -0.237 OA
ATOM     68  O   UNL A   1      42.658  26.608  24.738  1.00  0.00    -0.744 OA
ENDBRANCH  61  65
ENDBRANCH  44  58
BRANCH  45  69
ATOM     69  C   UNL A   1      39.884  33.948  37.085  1.00  0.00     0.023 A 
ATOM     70  C   UNL A   1      40.780  35.007  37.307  1.00  0.00     0.031 A 
ATOM     71  C   UNL A   1      38.919  33.687  38.073  1.00  0.00     0.131 A 
ATOM     72  C   UNL A   1      40.744  35.714  38.519  1.00  0.00     0.055 A 
ATOM     73  C   UNL A   1      38.844  34.439  39.249  1.00  0.00     0.041 A 
ATOM     74  F   UNL A   1      38.032  32.693  37.913  1.00  0.00    -0.206 F 
ATOM     75  C   UNL A   1      39.774  35.446  39.486  1.00  0.00     0.022 A 
BRANCH  72  76
ATOM     76  S   UNL A   1      42.072  36.900  38.867  1.00  0.00     0.124 S 
ATOM     77  O   UNL A   1      41.330  38.016  39.444  1.00  0.00    -0.237 OA
ATOM     78  O   UNL A   1      42.917  36.145  39.787  1.00  0.00    -0.237 OA
ATOM     79  O   UNL A   1      42.655  37.152  37.551  1.00  0.00    -0.744 OA
ENDBRANCH  72  76
ENDBRANCH  45  69
BRANCH  57  80
ATOM     80  C   UNL A   1      44.164  28.684  35.490  1.00  0.00     0.023 A 
ATOM     81  C   UNL A   1      44.041  27.653  36.436  1.00  0.00     0.031 A 
ATOM     82  C   UNL A   1      45.450  29.173  35.201  1.00  0.00     0.131 A 
ATOM     83  C   UNL A   1      45.183  27.176  37.096  1.00  0.00     0.055 A 
ATOM     84  C   UNL A   1      46.588  28.657  35.822  1.00  0.00     0.041 A 
ATOM     85  F   UNL A   1      45.621  30.158  34.304  1.00  0.00    -0.206 F 
ATOM     86  C   UNL A   1      46.456  27.659  36.783  1.00  0.00     0.022 A 
BRANCH  83  87
ATOM     87  S   UNL A   1      44.976  25.957  38.423  1.00  0.00     0.124 S 
ATOM     88  O   UNL A   1      44.250  26.725  39.430  1.00  0.00    -0.237 OA
ATOM     89  O   UNL A   1      44.219  24.900  37.761  1.00  0.00    -0.237 OA
ATOM     90  O   UNL A   1      46.348  25.604  38.782  1.00  0.00    -0.744 OA
ENDBRANCH  83  87
ENDBRANCH  57  80
ENDBRANCH  31  32
ENDBRANCH  23  26
ENDBRANCH  21  22
ENDBRANCH   1  21
TORSDOF 17
ENDMDL
