MODEL 1
REMARK VINA RESULT:     -11.6      0.000      0.000
REMARK SMILES C[C@@H](CS(=O)(=O)[C@@H]1CCC[C@H](S(C)(=O)=O)C1)C(=O)NCCCNC(=O)c1ccc(-c2c3nc(c(-c4cc(S(=O)(=O)[O-])ccc4F)c4ccc([nH]4)c(-c4cc(S(=O)(=O)[O-])ccc4F)c4nc(c(-c5cc(S(=O)(=O)[O-])ccc5F)c5ccc2[nH]5)C=C4)C=C3)cc1
REMARK SMILES IDX 20 1 19 2 17 3 18 4 2 6 1 7 3 8 4 9 5 10 6 11 7 12 8 13
REMARK SMILES IDX 16 14 9 15 11 16 10 17 12 18 13 19 14 20 15 21 21 22 22 23
REMARK SMILES IDX 23 24 24 25 25 27 26 28 27 29 88 30 28 31 87 32 29 33 30 34
REMARK SMILES IDX 31 35 81 36 32 37 86 38 80 39 82 40 33 41 85 42 79 43 78 44
REMARK SMILES IDX 34 46 66 47 46 48 65 49 47 50 50 51 64 52 83 53 48 54 49 55
REMARK SMILES IDX 63 57 84 58 51 59 35 60 36 61 44 62 37 63 43 64 45 65 42 66
REMARK SMILES IDX 38 67 39 68 40 69 41 70 67 71 68 72 76 73 69 74 75 75 77 76
REMARK SMILES IDX 74 77 70 78 71 79 72 80 73 81 52 82 53 83 61 84 54 85 60 86
REMARK SMILES IDX 62 87 59 88 55 89 56 90 57 91 58 92
REMARK H PARENT 19 5 23 26 82 45 50 56
REMARK Flexibility Score: inf
ROOT
ATOM      1  C   UNL A   1      35.325  20.395  24.985  1.00  0.00     0.117 C 
ENDROOT
BRANCH   1   2
ATOM      2  N   UNL A   1      34.184  19.584  25.299  1.00  0.00    -0.356 N 
ATOM      3  C   UNL A   1      32.878  19.813  25.037  1.00  0.00     0.223 C 
ATOM      4  O   UNL A   1      32.111  18.862  25.238  1.00  0.00    -0.275 OA
ATOM      5  H   UNL A   1      34.381  18.742  25.771  1.00  0.00     0.163 HD
BRANCH   3   6
ATOM      6  C   UNL A   1      32.285  21.171  24.601  1.00  0.00     0.090 C 
ATOM      7  C   UNL A   1      32.184  21.365  23.093  1.00  0.00     0.019 C 
BRANCH   6   8
ATOM      8  C   UNL A   1      31.300  21.952  25.466  1.00  0.00     0.150 C 
BRANCH   8   9
ATOM      9  S   UNL A   1      31.637  23.241  26.655  1.00  0.00     0.153 S 
ATOM     10  O   UNL A   1      30.376  23.686  27.213  1.00  0.00    -0.229 OA
ATOM     11  O   UNL A   1      32.586  22.608  27.564  1.00  0.00    -0.229 OA
BRANCH   9  12
ATOM     12  C   UNL A   1      32.535  24.699  25.984  1.00  0.00     0.110 C 
ATOM     13  C   UNL A   1      31.871  25.966  26.576  1.00  0.00     0.020 C 
ATOM     14  C   UNL A   1      32.492  24.858  24.465  1.00  0.00     0.039 C 
ATOM     15  C   UNL A   1      32.510  27.264  26.083  1.00  0.00     0.003 C 
ATOM     16  C   UNL A   1      33.225  26.113  23.960  1.00  0.00     0.109 C 
ATOM     17  C   UNL A   1      32.578  27.357  24.558  1.00  0.00     0.020 C 
BRANCH  16  18
ATOM     18  S   UNL A   1      33.214  26.122  22.150  1.00  0.00     0.150 S 
ATOM     19  C   UNL A   1      31.519  26.375  21.674  1.00  0.00     0.158 C 
ATOM     20  O   UNL A   1      33.960  27.299  21.745  1.00  0.00    -0.229 OA
ATOM     21  O   UNL A   1      33.617  24.806  21.692  1.00  0.00    -0.229 OA
ENDBRANCH  16  18
ENDBRANCH   9  12
ENDBRANCH   8   9
ENDBRANCH   6   8
ENDBRANCH   3   6
ENDBRANCH   1   2
BRANCH   1  22
ATOM     22  C   UNL A   1      35.279  21.806  25.539  1.00  0.00     0.042 C 
BRANCH  22  23
ATOM     23  C   UNL A   1      36.652  22.415  25.746  1.00  0.00     0.118 C 
BRANCH  23  24
ATOM     24  N   UNL A   1      37.688  21.399  25.931  1.00  0.00    -0.352 N 
ATOM     25  C   UNL A   1      39.035  21.469  26.211  1.00  0.00     0.251 C 
ATOM     26  H   UNL A   1      37.355  20.477  25.836  1.00  0.00     0.163 HD
ATOM     27  O   UNL A   1      39.703  20.442  26.087  1.00  0.00    -0.269 OA
BRANCH  25  28
ATOM     28  C   UNL A   1      39.705  22.726  26.630  1.00  0.00     0.039 A 
ATOM     29  C   UNL A   1      40.702  22.672  27.616  1.00  0.00     0.014 A 
ATOM     30  C   UNL A   1      39.336  23.968  26.125  1.00  0.00     0.014 A 
ATOM     31  C   UNL A   1      41.359  23.840  28.022  1.00  0.00     0.010 A 
ATOM     32  C   UNL A   1      40.089  25.100  26.414  1.00  0.00     0.010 A 
ATOM     33  C   UNL A   1      41.096  25.063  27.384  1.00  0.00    -0.014 A 
BRANCH  33  34
ATOM     34  C   UNL A   1      41.819  26.320  27.728  1.00  0.00     0.031 A 
ATOM     35  C   UNL A   1      41.120  27.396  28.525  1.00  0.00     0.074 A 
ATOM     36  C   UNL A   1      43.062  26.534  27.249  1.00  0.00     0.049 A 
ATOM     37  N   UNL A   1      41.512  28.616  28.798  1.00  0.00    -0.248 NA
ATOM     38  C   UNL A   1      39.781  27.073  29.043  1.00  0.00     0.031 C 
ATOM     39  C   UNL A   1      43.826  25.592  26.428  1.00  0.00     0.029 A 
ATOM     40  N   UNL A   1      43.899  27.615  27.376  1.00  0.00    -0.354 N 
ATOM     41  C   UNL A   1      40.456  29.209  29.485  1.00  0.00     0.074 A 
ATOM     42  C   UNL A   1      39.383  28.242  29.518  1.00  0.00     0.031 C 
ATOM     43  C   UNL A   1      45.033  26.117  26.164  1.00  0.00     0.029 A 
ATOM     44  C   UNL A   1      45.105  27.459  26.732  1.00  0.00     0.049 A 
ATOM     45  H   UNL A   1      43.659  28.425  27.881  1.00  0.00     0.167 HD
ATOM     46  C   UNL A   1      40.395  30.438  30.058  1.00  0.00     0.034 A 
ATOM     47  C   UNL A   1      46.145  28.308  26.597  1.00  0.00     0.034 A 
ATOM     48  C   UNL A   1      41.491  31.377  30.043  1.00  0.00     0.049 A 
ATOM     49  C   UNL A   1      46.052  29.674  27.234  1.00  0.00     0.074 A 
ATOM     50  C   UNL A   1      41.568  32.620  30.646  1.00  0.00     0.029 A 
ATOM     51  N   UNL A   1      42.700  31.177  29.389  1.00  0.00    -0.354 N 
ATOM     52  N   UNL A   1      45.062  30.203  27.916  1.00  0.00    -0.248 NA
ATOM     53  C   UNL A   1      47.220  30.550  27.089  1.00  0.00     0.031 C 
ATOM     54  C   UNL A   1      42.789  33.201  30.294  1.00  0.00     0.029 A 
ATOM     55  C   UNL A   1      43.515  32.288  29.547  1.00  0.00     0.049 A 
ATOM     56  H   UNL A   1      42.943  30.366  28.889  1.00  0.00     0.167 HD
ATOM     57  C   UNL A   1      45.504  31.463  28.310  1.00  0.00     0.074 A 
ATOM     58  C   UNL A   1      46.854  31.605  27.803  1.00  0.00     0.031 C 
ATOM     59  C   UNL A   1      44.857  32.416  29.029  1.00  0.00     0.034 A 
BRANCH  46  60
ATOM     60  C   UNL A   1      39.100  30.836  30.730  1.00  0.00     0.023 A 
ATOM     61  C   UNL A   1      38.087  31.525  30.041  1.00  0.00     0.031 A 
ATOM     62  C   UNL A   1      38.883  30.544  32.088  1.00  0.00     0.131 A 
ATOM     63  C   UNL A   1      36.946  31.971  30.726  1.00  0.00     0.055 A 
ATOM     64  C   UNL A   1      37.705  30.910  32.744  1.00  0.00     0.041 A 
ATOM     65  F   UNL A   1      39.819  29.906  32.809  1.00  0.00    -0.206 F 
ATOM     66  C   UNL A   1      36.734  31.643  32.066  1.00  0.00     0.022 A 
BRANCH  63  67
ATOM     67  S   UNL A   1      35.821  33.117  29.882  1.00  0.00     0.124 S 
ATOM     68  O   UNL A   1      34.751  32.218  29.455  1.00  0.00    -0.237 OA
ATOM     69  O   UNL A   1      35.479  34.060  30.941  1.00  0.00    -0.237 OA
ATOM     70  O   UNL A   1      36.637  33.663  28.800  1.00  0.00    -0.744 OA
ENDBRANCH  63  67
ENDBRANCH  46  60
BRANCH  47  71
ATOM     71  C   UNL A   1      47.356  27.905  25.823  1.00  0.00     0.023 A 
ATOM     72  C   UNL A   1      47.415  28.084  24.432  1.00  0.00     0.031 A 
ATOM     73  C   UNL A   1      48.458  27.299  26.454  1.00  0.00     0.131 A 
ATOM     74  C   UNL A   1      48.525  27.616  23.711  1.00  0.00     0.055 A 
ATOM     75  C   UNL A   1      49.586  26.889  25.740  1.00  0.00     0.041 A 
ATOM     76  F   UNL A   1      48.463  27.112  27.784  1.00  0.00    -0.206 F 
ATOM     77  C   UNL A   1      49.617  27.033  24.357  1.00  0.00     0.022 A 
BRANCH  74  78
ATOM     78  S   UNL A   1      48.480  27.693  21.900  1.00  0.00     0.124 S 
ATOM     79  O   UNL A   1      48.702  26.298  21.539  1.00  0.00    -0.237 OA
ATOM     80  O   UNL A   1      47.140  28.217  21.653  1.00  0.00    -0.237 OA
ATOM     81  O   UNL A   1      49.573  28.606  21.573  1.00  0.00    -0.744 OA
ENDBRANCH  74  78
ENDBRANCH  47  71
BRANCH  59  82
ATOM     82  C   UNL A   1      45.624  33.677  29.349  1.00  0.00     0.023 A 
ATOM     83  C   UNL A   1      45.631  34.783  28.482  1.00  0.00     0.031 A 
ATOM     84  C   UNL A   1      46.365  33.767  30.541  1.00  0.00     0.131 A 
ATOM     85  C   UNL A   1      46.412  35.906  28.790  1.00  0.00     0.055 A 
ATOM     86  C   UNL A   1      47.084  34.915  30.876  1.00  0.00     0.041 A 
ATOM     87  F   UNL A   1      46.398  32.740  31.406  1.00  0.00    -0.206 F 
ATOM     88  C   UNL A   1      47.123  35.988  29.990  1.00  0.00     0.022 A 
BRANCH  85  89
ATOM     89  S   UNL A   1      46.575  37.218  27.548  1.00  0.00     0.124 S 
ATOM     90  O   UNL A   1      47.921  37.719  27.810  1.00  0.00    -0.237 OA
ATOM     91  O   UNL A   1      46.398  36.488  26.297  1.00  0.00    -0.237 OA
ATOM     92  O   UNL A   1      45.493  38.144  27.884  1.00  0.00    -0.744 OA
ENDBRANCH  85  89
ENDBRANCH  59  82
ENDBRANCH  33  34
ENDBRANCH  25  28
ENDBRANCH  23  24
ENDBRANCH  22  23
ENDBRANCH   1  22
TORSDOF 17
ENDMDL
MODEL 2
REMARK VINA RESULT:     -11.6      5.354     10.661
REMARK SMILES C[C@@H](CS(=O)(=O)[C@@H]1CCC[C@H](S(C)(=O)=O)C1)C(=O)NCCCNC(=O)c1ccc(-c2c3nc(c(-c4cc(S(=O)(=O)[O-])ccc4F)c4ccc([nH]4)c(-c4cc(S(=O)(=O)[O-])ccc4F)c4nc(c(-c5cc(S(=O)(=O)[O-])ccc5F)c5ccc2[nH]5)C=C4)C=C3)cc1
REMARK SMILES IDX 20 1 19 2 17 3 18 4 2 6 1 7 3 8 4 9 5 10 6 11 7 12 8 13
REMARK SMILES IDX 16 14 9 15 11 16 10 17 12 18 13 19 14 20 15 21 21 22 22 23
REMARK SMILES IDX 23 24 24 25 25 27 26 28 27 29 88 30 28 31 87 32 29 33 30 34
REMARK SMILES IDX 31 35 81 36 32 37 86 38 80 39 82 40 33 41 85 42 79 43 78 44
REMARK SMILES IDX 34 46 66 47 46 48 65 49 47 50 50 51 64 52 83 53 48 54 49 55
REMARK SMILES IDX 63 57 84 58 51 59 35 60 36 61 44 62 37 63 43 64 45 65 42 66
REMARK SMILES IDX 38 67 39 68 40 69 41 70 67 71 68 72 76 73 69 74 75 75 77 76
REMARK SMILES IDX 74 77 70 78 71 79 72 80 73 81 52 82 53 83 61 84 54 85 60 86
REMARK SMILES IDX 62 87 59 88 55 89 56 90 57 91 58 92
REMARK H PARENT 19 5 23 26 82 45 50 56
REMARK Flexibility Score: inf
ROOT
ATOM      1  C   UNL A   1      31.087  30.164  25.065  1.00  0.00     0.117 C 
ENDROOT
BRANCH   1   2
ATOM      2  N   UNL A   1      30.641  30.085  23.703  1.00  0.00    -0.356 N 
ATOM      3  C   UNL A   1      30.423  28.991  22.940  1.00  0.00     0.223 C 
ATOM      4  O   UNL A   1      29.851  29.191  21.860  1.00  0.00    -0.275 OA
ATOM      5  H   UNL A   1      30.470  30.950  23.264  1.00  0.00     0.163 HD
BRANCH   3   6
ATOM      6  C   UNL A   1      30.905  27.563  23.277  1.00  0.00     0.090 C 
ATOM      7  C   UNL A   1      30.149  26.890  24.415  1.00  0.00     0.019 C 
BRANCH   6   8
ATOM      8  C   UNL A   1      31.550  26.649  22.240  1.00  0.00     0.150 C 
BRANCH   8   9
ATOM      9  S   UNL A   1      33.240  26.077  22.152  1.00  0.00     0.153 S 
ATOM     10  O   UNL A   1      33.358  25.177  21.023  1.00  0.00    -0.229 OA
ATOM     11  O   UNL A   1      34.003  27.319  22.103  1.00  0.00    -0.229 OA
BRANCH   9  12
ATOM     12  C   UNL A   1      33.846  25.216  23.661  1.00  0.00     0.110 C 
ATOM     13  C   UNL A   1      34.695  24.009  23.196  1.00  0.00     0.020 C 
ATOM     14  C   UNL A   1      32.761  24.655  24.579  1.00  0.00     0.039 C 
ATOM     15  C   UNL A   1      35.251  23.184  24.357  1.00  0.00     0.003 C 
ATOM     16  C   UNL A   1      33.322  23.912  25.804  1.00  0.00     0.109 C 
ATOM     17  C   UNL A   1      34.172  22.733  25.343  1.00  0.00     0.020 C 
BRANCH  16  18
ATOM     18  S   UNL A   1      31.952  23.408  26.875  1.00  0.00     0.150 S 
ATOM     19  C   UNL A   1      30.886  22.408  25.863  1.00  0.00     0.158 C 
ATOM     20  O   UNL A   1      32.526  22.543  27.889  1.00  0.00    -0.229 OA
ATOM     21  O   UNL A   1      31.221  24.600  27.258  1.00  0.00    -0.229 OA
ENDBRANCH  16  18
ENDBRANCH   9  12
ENDBRANCH   8   9
ENDBRANCH   6   8
ENDBRANCH   3   6
ENDBRANCH   1   2
BRANCH   1  22
ATOM     22  C   UNL A   1      30.992  31.542  25.691  1.00  0.00     0.042 C 
BRANCH  22  23
ATOM     23  C   UNL A   1      32.085  31.817  26.705  1.00  0.00     0.118 C 
BRANCH  23  24
ATOM     24  N   UNL A   1      32.174  33.235  27.055  1.00  0.00    -0.352 N 
ATOM     25  C   UNL A   1      32.986  33.942  27.914  1.00  0.00     0.251 C 
ATOM     26  H   UNL A   1      31.520  33.798  26.580  1.00  0.00     0.163 HD
ATOM     27  O   UNL A   1      32.677  35.107  28.168  1.00  0.00    -0.269 OA
BRANCH  25  28
ATOM     28  C   UNL A   1      34.191  33.354  28.550  1.00  0.00     0.039 A 
ATOM     29  C   UNL A   1      35.430  33.990  28.384  1.00  0.00     0.014 A 
ATOM     30  C   UNL A   1      34.148  32.156  29.255  1.00  0.00     0.014 A 
ATOM     31  C   UNL A   1      36.582  33.463  28.983  1.00  0.00     0.010 A 
ATOM     32  C   UNL A   1      35.255  31.718  29.973  1.00  0.00     0.010 A 
ATOM     33  C   UNL A   1      36.496  32.349  29.832  1.00  0.00    -0.014 A 
BRANCH  33  34
ATOM     34  C   UNL A   1      37.677  31.793  30.551  1.00  0.00     0.031 A 
ATOM     35  C   UNL A   1      38.544  30.753  29.883  1.00  0.00     0.074 A 
ATOM     36  C   UNL A   1      37.917  32.152  31.829  1.00  0.00     0.049 A 
ATOM     37  N   UNL A   1      39.520  30.036  30.384  1.00  0.00    -0.248 NA
ATOM     38  C   UNL A   1      38.241  30.441  28.476  1.00  0.00     0.031 C 
ATOM     39  C   UNL A   1      37.124  33.112  32.601  1.00  0.00     0.029 A 
ATOM     40  N   UNL A   1      38.890  31.746  32.708  1.00  0.00    -0.354 N 
ATOM     41  C   UNL A   1      39.917  29.171  29.367  1.00  0.00     0.074 A 
ATOM     42  C   UNL A   1      39.028  29.402  28.251  1.00  0.00     0.031 C 
ATOM     43  C   UNL A   1      37.669  33.253  33.820  1.00  0.00     0.029 A 
ATOM     44  C   UNL A   1      38.803  32.344  33.944  1.00  0.00     0.049 A 
ATOM     45  H   UNL A   1      39.585  31.088  32.476  1.00  0.00     0.167 HD
ATOM     46  C   UNL A   1      40.945  28.285  29.355  1.00  0.00     0.034 A 
ATOM     47  C   UNL A   1      39.541  32.167  35.059  1.00  0.00     0.034 A 
ATOM     48  C   UNL A   1      41.843  28.094  30.469  1.00  0.00     0.049 A 
ATOM     49  C   UNL A   1      40.673  31.168  35.028  1.00  0.00     0.074 A 
ATOM     50  C   UNL A   1      42.956  27.276  30.547  1.00  0.00     0.029 A 
ATOM     51  N   UNL A   1      41.728  28.728  31.700  1.00  0.00    -0.354 N 
ATOM     52  N   UNL A   1      41.062  30.390  34.044  1.00  0.00    -0.248 NA
ATOM     53  C   UNL A   1      41.470  31.033  36.253  1.00  0.00     0.031 C 
ATOM     54  C   UNL A   1      43.467  27.357  31.845  1.00  0.00     0.029 A 
ATOM     55  C   UNL A   1      42.731  28.293  32.553  1.00  0.00     0.049 A 
ATOM     56  H   UNL A   1      41.037  29.388  31.932  1.00  0.00     0.167 HD
ATOM     57  C   UNL A   1      42.170  29.697  34.524  1.00  0.00     0.074 A 
ATOM     58  C   UNL A   1      42.396  30.163  35.877  1.00  0.00     0.031 C 
ATOM     59  C   UNL A   1      42.937  28.763  33.903  1.00  0.00     0.034 A 
BRANCH  46  60
ATOM     60  C   UNL A   1      41.138  27.451  28.109  1.00  0.00     0.023 A 
ATOM     61  C   UNL A   1      40.777  26.092  28.061  1.00  0.00     0.031 A 
ATOM     62  C   UNL A   1      41.714  28.013  26.956  1.00  0.00     0.131 A 
ATOM     63  C   UNL A   1      41.070  25.325  26.923  1.00  0.00     0.055 A 
ATOM     64  C   UNL A   1      41.920  27.267  25.793  1.00  0.00     0.041 A 
ATOM     65  F   UNL A   1      42.100  29.299  26.942  1.00  0.00    -0.206 F 
ATOM     66  C   UNL A   1      41.613  25.909  25.778  1.00  0.00     0.022 A 
BRANCH  63  67
ATOM     67  S   UNL A   1      40.877  23.524  27.020  1.00  0.00     0.124 S 
ATOM     68  O   UNL A   1      41.581  23.087  25.816  1.00  0.00    -0.237 OA
ATOM     69  O   UNL A   1      41.521  23.205  28.289  1.00  0.00    -0.237 OA
ATOM     70  O   UNL A   1      39.429  23.333  26.990  1.00  0.00    -0.744 OA
ENDBRANCH  63  67
ENDBRANCH  46  60
BRANCH  47  71
ATOM     71  C   UNL A   1      39.234  32.935  36.301  1.00  0.00     0.023 A 
ATOM     72  C   UNL A   1      39.763  34.220  36.503  1.00  0.00     0.031 A 
ATOM     73  C   UNL A   1      38.440  32.385  37.324  1.00  0.00     0.131 A 
ATOM     74  C   UNL A   1      39.538  34.889  37.716  1.00  0.00     0.055 A 
ATOM     75  C   UNL A   1      38.170  33.079  38.505  1.00  0.00     0.041 A 
ATOM     76  F   UNL A   1      37.899  31.164  37.184  1.00  0.00    -0.206 F 
ATOM     77  C   UNL A   1      38.733  34.334  38.712  1.00  0.00     0.022 A 
BRANCH  74  78
ATOM     78  S   UNL A   1      40.393  36.461  38.014  1.00  0.00     0.124 S 
ATOM     79  O   UNL A   1      41.466  36.048  38.912  1.00  0.00    -0.237 OA
ATOM     80  O   UNL A   1      40.795  36.846  36.665  1.00  0.00    -0.237 OA
ATOM     81  O   UNL A   1      39.359  37.299  38.617  1.00  0.00    -0.744 OA
ENDBRANCH  74  78
ENDBRANCH  47  71
BRANCH  59  82
ATOM     82  C   UNL A   1      44.120  28.223  34.670  1.00  0.00     0.023 A 
ATOM     83  C   UNL A   1      44.031  27.055  35.447  1.00  0.00     0.031 A 
ATOM     84  C   UNL A   1      45.355  28.894  34.626  1.00  0.00     0.131 A 
ATOM     85  C   UNL A   1      45.138  26.628  36.195  1.00  0.00     0.055 A 
ATOM     86  C   UNL A   1      46.473  28.426  35.317  1.00  0.00     0.041 A 
ATOM     87  F   UNL A   1      45.497  30.017  33.903  1.00  0.00    -0.206 F 
ATOM     88  C   UNL A   1      46.364  27.294  36.120  1.00  0.00     0.022 A 
BRANCH  85  89
ATOM     89  S   UNL A   1      44.923  25.251  37.356  1.00  0.00     0.124 S 
ATOM     90  O   UNL A   1      46.294  24.777  37.521  1.00  0.00    -0.237 OA
ATOM     91  O   UNL A   1      44.332  25.909  38.516  1.00  0.00    -0.237 OA
ATOM     92  O   UNL A   1      44.034  24.336  36.642  1.00  0.00    -0.744 OA
ENDBRANCH  85  89
ENDBRANCH  59  82
ENDBRANCH  33  34
ENDBRANCH  25  28
ENDBRANCH  23  24
ENDBRANCH  22  23
ENDBRANCH   1  22
TORSDOF 17
ENDMDL
MODEL 3
REMARK VINA RESULT:     -11.6      3.192      8.095
REMARK SMILES C[C@@H](CS(=O)(=O)[C@@H]1CCC[C@H](S(C)(=O)=O)C1)C(=O)NCCCNC(=O)c1ccc(-c2c3nc(c(-c4cc(S(=O)(=O)[O-])ccc4F)c4ccc([nH]4)c(-c4cc(S(=O)(=O)[O-])ccc4F)c4nc(c(-c5cc(S(=O)(=O)[O-])ccc5F)c5ccc2[nH]5)C=C4)C=C3)cc1
REMARK SMILES IDX 20 1 19 2 17 3 18 4 2 6 1 7 3 8 4 9 5 10 6 11 7 12 8 13
REMARK SMILES IDX 16 14 9 15 11 16 10 17 12 18 13 19 14 20 15 21 21 22 22 23
REMARK SMILES IDX 23 24 24 25 25 27 26 28 27 29 88 30 28 31 87 32 29 33 30 34
REMARK SMILES IDX 31 35 81 36 32 37 86 38 80 39 82 40 33 41 85 42 79 43 78 44
REMARK SMILES IDX 34 46 66 47 46 48 65 49 47 50 50 51 64 52 83 53 48 54 49 55
REMARK SMILES IDX 63 57 84 58 51 59 35 60 36 61 44 62 37 63 43 64 45 65 42 66
REMARK SMILES IDX 38 67 39 68 40 69 41 70 67 71 68 72 76 73 69 74 75 75 77 76
REMARK SMILES IDX 74 77 70 78 71 79 72 80 73 81 52 82 53 83 61 84 54 85 60 86
REMARK SMILES IDX 62 87 59 88 55 89 56 90 57 91 58 92
REMARK H PARENT 19 5 23 26 82 45 50 56
REMARK Flexibility Score: inf
ROOT
ATOM      1  C   UNL A   1      35.453  20.750  25.112  1.00  0.00     0.117 C 
ENDROOT
BRANCH   1   2
ATOM      2  N   UNL A   1      34.372  19.880  25.477  1.00  0.00    -0.356 N 
ATOM      3  C   UNL A   1      33.059  19.976  25.167  1.00  0.00     0.223 C 
ATOM      4  O   UNL A   1      32.366  18.988  25.440  1.00  0.00    -0.275 OA
ATOM      5  H   UNL A   1      34.621  19.104  26.029  1.00  0.00     0.163 HD
BRANCH   3   6
ATOM      6  C   UNL A   1      32.373  21.235  24.594  1.00  0.00     0.090 C 
ATOM      7  C   UNL A   1      32.279  21.270  23.073  1.00  0.00     0.019 C 
BRANCH   6   8
ATOM      8  C   UNL A   1      31.320  22.020  25.369  1.00  0.00     0.150 C 
BRANCH   8   9
ATOM      9  S   UNL A   1      31.548  23.408  26.469  1.00  0.00     0.153 S 
ATOM     10  O   UNL A   1      30.319  23.609  27.210  1.00  0.00    -0.229 OA
ATOM     11  O   UNL A   1      32.735  23.033  27.228  1.00  0.00    -0.229 OA
BRANCH   9  12
ATOM     12  C   UNL A   1      32.003  24.987  25.641  1.00  0.00     0.110 C 
ATOM     13  C   UNL A   1      33.433  24.818  25.075  1.00  0.00     0.020 C 
ATOM     14  C   UNL A   1      32.037  26.219  26.544  1.00  0.00     0.039 C 
ATOM     15  C   UNL A   1      33.951  26.073  24.371  1.00  0.00     0.003 C 
ATOM     16  C   UNL A   1      32.460  27.503  25.811  1.00  0.00     0.109 C 
ATOM     17  C   UNL A   1      33.863  27.327  25.240  1.00  0.00     0.020 C 
BRANCH  16  18
ATOM     18  S   UNL A   1      32.341  28.907  26.948  1.00  0.00     0.150 S 
ATOM     19  C   UNL A   1      31.851  30.298  25.954  1.00  0.00     0.158 C 
ATOM     20  O   UNL A   1      31.244  28.607  27.850  1.00  0.00    -0.229 OA
ATOM     21  O   UNL A   1      33.667  29.173  27.471  1.00  0.00    -0.229 OA
ENDBRANCH  16  18
ENDBRANCH   9  12
ENDBRANCH   8   9
ENDBRANCH   6   8
ENDBRANCH   3   6
ENDBRANCH   1   2
BRANCH   1  22
ATOM     22  C   UNL A   1      35.738  21.864  26.100  1.00  0.00     0.042 C 
BRANCH  22  23
ATOM     23  C   UNL A   1      36.969  22.678  25.749  1.00  0.00     0.118 C 
BRANCH  23  24
ATOM     24  N   UNL A   1      38.210  21.959  26.040  1.00  0.00    -0.352 N 
ATOM     25  C   UNL A   1      39.472  22.373  26.407  1.00  0.00     0.251 C 
ATOM     26  H   UNL A   1      38.127  20.982  25.954  1.00  0.00     0.163 HD
ATOM     27  O   UNL A   1      40.383  21.546  26.365  1.00  0.00    -0.269 OA
BRANCH  25  28
ATOM     28  C   UNL A   1      39.772  23.764  26.827  1.00  0.00     0.039 A 
ATOM     29  C   UNL A   1      39.797  24.074  28.195  1.00  0.00     0.014 A 
ATOM     30  C   UNL A   1      39.969  24.791  25.909  1.00  0.00     0.014 A 
ATOM     31  C   UNL A   1      40.089  25.377  28.620  1.00  0.00     0.010 A 
ATOM     32  C   UNL A   1      40.407  26.041  26.330  1.00  0.00     0.010 A 
ATOM     33  C   UNL A   1      40.452  26.364  27.690  1.00  0.00    -0.014 A 
BRANCH  33  34
ATOM     34  C   UNL A   1      40.843  27.744  28.095  1.00  0.00     0.031 A 
ATOM     35  C   UNL A   1      42.297  28.152  28.072  1.00  0.00     0.074 A 
ATOM     36  C   UNL A   1      39.910  28.596  28.566  1.00  0.00     0.049 A 
ATOM     37  N   UNL A   1      42.862  29.244  28.524  1.00  0.00    -0.248 NA
ATOM     38  C   UNL A   1      43.249  27.180  27.510  1.00  0.00     0.031 C 
ATOM     39  C   UNL A   1      38.479  28.305  28.682  1.00  0.00     0.029 A 
ATOM     40  N   UNL A   1      40.025  29.878  29.045  1.00  0.00    -0.354 N 
ATOM     41  C   UNL A   1      44.230  29.071  28.333  1.00  0.00     0.074 A 
ATOM     42  C   UNL A   1      44.413  27.742  27.795  1.00  0.00     0.031 C 
ATOM     43  C   UNL A   1      37.846  29.391  29.155  1.00  0.00     0.029 A 
ATOM     44  C   UNL A   1      38.829  30.429  29.445  1.00  0.00     0.049 A 
ATOM     45  H   UNL A   1      40.883  30.359  29.097  1.00  0.00     0.167 HD
ATOM     46  C   UNL A   1      45.240  29.949  28.559  1.00  0.00     0.034 A 
ATOM     47  C   UNL A   1      38.556  31.627  30.001  1.00  0.00     0.034 A 
ATOM     48  C   UNL A   1      45.034  31.284  29.065  1.00  0.00     0.049 A 
ATOM     49  C   UNL A   1      39.696  32.585  30.253  1.00  0.00     0.074 A 
ATOM     50  C   UNL A   1      45.971  32.282  29.270  1.00  0.00     0.029 A 
ATOM     51  N   UNL A   1      43.806  31.809  29.448  1.00  0.00    -0.354 N 
ATOM     52  N   UNL A   1      40.979  32.422  30.026  1.00  0.00    -0.248 NA
ATOM     53  C   UNL A   1      39.347  33.890  30.829  1.00  0.00     0.031 C 
ATOM     54  C   UNL A   1      45.323  33.378  29.846  1.00  0.00     0.029 A 
ATOM     55  C   UNL A   1      43.967  33.103  29.918  1.00  0.00     0.049 A 
ATOM     56  H   UNL A   1      42.947  31.332  29.392  1.00  0.00     0.167 HD
ATOM     57  C   UNL A   1      41.585  33.618  30.401  1.00  0.00     0.074 A 
ATOM     58  C   UNL A   1      40.525  34.496  30.851  1.00  0.00     0.031 C 
ATOM     59  C   UNL A   1      42.899  33.963  30.371  1.00  0.00     0.034 A 
BRANCH  46  60
ATOM     60  C   UNL A   1      46.651  29.484  28.276  1.00  0.00     0.023 A 
ATOM     61  C   UNL A   1      47.454  28.898  29.271  1.00  0.00     0.031 A 
ATOM     62  C   UNL A   1      47.214  29.650  26.998  1.00  0.00     0.131 A 
ATOM     63  C   UNL A   1      48.793  28.579  28.998  1.00  0.00     0.055 A 
ATOM     64  C   UNL A   1      48.519  29.245  26.707  1.00  0.00     0.041 A 
ATOM     65  F   UNL A   1      46.509  30.221  26.009  1.00  0.00    -0.206 F 
ATOM     66  C   UNL A   1      49.323  28.721  27.715  1.00  0.00     0.022 A 
BRANCH  63  67
ATOM     67  S   UNL A   1      49.874  28.122  30.383  1.00  0.00     0.124 S 
ATOM     68  O   UNL A   1      49.603  26.692  30.508  1.00  0.00    -0.237 OA
ATOM     69  O   UNL A   1      51.195  28.481  29.882  1.00  0.00    -0.237 OA
ATOM     70  O   UNL A   1      49.381  28.942  31.486  1.00  0.00    -0.744 OA
ENDBRANCH  63  67
ENDBRANCH  46  60
BRANCH  47  71
ATOM     71  C   UNL A   1      37.156  31.991  30.367  1.00  0.00     0.023 A 
ATOM     72  C   UNL A   1      36.283  32.546  29.417  1.00  0.00     0.031 A 
ATOM     73  C   UNL A   1      36.679  31.829  31.681  1.00  0.00     0.131 A 
ATOM     74  C   UNL A   1      35.001  32.966  29.804  1.00  0.00     0.055 A 
ATOM     75  C   UNL A   1      35.381  32.193  32.047  1.00  0.00     0.041 A 
ATOM     76  F   UNL A   1      37.464  31.294  32.630  1.00  0.00    -0.206 F 
ATOM     77  C   UNL A   1      34.539  32.780  31.108  1.00  0.00     0.022 A 
BRANCH  74  78
ATOM     78  S   UNL A   1      33.975  33.849  28.597  1.00  0.00     0.124 S 
ATOM     79  O   UNL A   1      34.939  34.772  28.009  1.00  0.00    -0.237 OA
ATOM     80  O   UNL A   1      33.517  32.762  27.738  1.00  0.00    -0.237 OA
ATOM     81  O   UNL A   1      32.939  34.467  29.422  1.00  0.00    -0.744 OA
ENDBRANCH  74  78
ENDBRANCH  47  71
BRANCH  59  82
ATOM     82  C   UNL A   1      43.251  35.369  30.795  1.00  0.00     0.023 A 
ATOM     83  C   UNL A   1      43.275  35.754  32.147  1.00  0.00     0.031 A 
ATOM     84  C   UNL A   1      43.561  36.340  29.826  1.00  0.00     0.131 A 
ATOM     85  C   UNL A   1      43.542  37.087  32.488  1.00  0.00     0.055 A 
ATOM     86  C   UNL A   1      43.895  37.649  30.176  1.00  0.00     0.041 A 
ATOM     87  F   UNL A   1      43.550  36.031  28.519  1.00  0.00    -0.206 F 
ATOM     88  C   UNL A   1      43.872  38.033  31.514  1.00  0.00     0.022 A 
BRANCH  85  89
ATOM     89  S   UNL A   1      43.347  37.597  34.217  1.00  0.00     0.124 S 
ATOM     90  O   UNL A   1      42.300  36.693  34.684  1.00  0.00    -0.237 OA
ATOM     91  O   UNL A   1      44.680  37.365  34.764  1.00  0.00    -0.237 OA
ATOM     92  O   UNL A   1      42.953  39.002  34.119  1.00  0.00    -0.744 OA
ENDBRANCH  85  89
ENDBRANCH  59  82
ENDBRANCH  33  34
ENDBRANCH  25  28
ENDBRANCH  23  24
ENDBRANCH  22  23
ENDBRANCH   1  22
TORSDOF 17
ENDMDL
