MODEL 1
REMARK VINA RESULT:     -13.3      0.000      0.000
REMARK SMILES CC(C)=C1[C@H]2CC[C@@H]1[C@@H](C(=O)Nc1cc(C)cc(C)c1)[C@@H]2C(=O)NCCCNC(=O)c1ccc(-c2c3nc(c(-c4cc(S(=O)(=O)[O-])ccc4F)c4ccc([nH]4)c(-c4cc(S(=O)(=O)[O-])ccc4F)c4nc(c(-c5cc(S(=O)(=O)[O-])ccc5F)c5ccc2[nH]5)C=C4)C=C3)cc1
REMARK SMILES IDX 26 1 25 2 24 3 22 4 23 5 21 7 1 8 2 9 3 10 4 11 5 12 8 13
REMARK SMILES IDX 6 14 7 15 9 16 10 17 11 18 12 19 13 21 14 22 20 23 15 24
REMARK SMILES IDX 18 25 16 26 17 27 19 28 27 29 28 30 29 31 30 33 31 34 32 35
REMARK SMILES IDX 93 36 33 37 92 38 34 39 35 40 36 41 86 42 37 43 91 44 85 45
REMARK SMILES IDX 87 46 38 47 90 48 84 49 83 50 39 52 71 53 51 54 70 55 52 56
REMARK SMILES IDX 55 57 69 58 88 59 53 60 54 61 68 63 89 64 56 65 40 66 41 67
REMARK SMILES IDX 49 68 42 69 48 70 50 71 47 72 43 73 44 74 45 75 46 76 72 77
REMARK SMILES IDX 73 78 81 79 74 80 80 81 82 82 79 83 75 84 76 85 77 86 78 87
REMARK SMILES IDX 57 88 58 89 66 90 59 91 65 92 67 93 64 94 60 95 61 96 62 97
REMARK SMILES IDX 63 98
REMARK H PARENT 24 6 12 20 28 32 87 51 55 62
REMARK Flexibility Score: inf
ROOT
ATOM      1  C   UNL A   1      36.084  20.744  24.660  1.00  0.00     0.042 C 
ENDROOT
BRANCH   1   2
ATOM      2  C   UNL A   1      34.703  21.158  25.088  1.00  0.00     0.117 C 
BRANCH   2   3
ATOM      3  N   UNL A   1      33.613  20.993  24.189  1.00  0.00    -0.356 N 
ATOM      4  C   UNL A   1      32.905  22.012  23.626  1.00  0.00     0.224 C 
ATOM      5  O   UNL A   1      32.205  21.710  22.650  1.00  0.00    -0.275 OA
ATOM      6  H   UNL A   1      33.352  20.073  23.955  1.00  0.00     0.163 HD
BRANCH   4   7
ATOM      7  C   UNL A   1      32.840  23.456  24.186  1.00  0.00     0.098 C 
ATOM      8  C   UNL A   1      33.179  27.627  26.504  1.00  0.00     0.039 C 
ATOM      9  C   UNL A   1      33.523  26.914  25.221  1.00  0.00    -0.077 C 
ATOM     10  C   UNL A   1      34.198  27.735  24.164  1.00  0.00     0.039 C 
ATOM     11  C   UNL A   1      33.422  25.576  25.122  1.00  0.00    -0.064 C 
ATOM     12  C   UNL A   1      33.924  24.575  24.086  1.00  0.00     0.028 C 
ATOM     13  C   UNL A   1      33.226  24.629  26.265  1.00  0.00     0.028 C 
ATOM     14  C   UNL A   1      35.222  24.355  24.860  1.00  0.00     0.009 C 
ATOM     15  C   UNL A   1      34.734  24.270  26.344  1.00  0.00     0.009 C 
ATOM     16  C   UNL A   1      32.339  23.543  25.627  1.00  0.00     0.099 C 
BRANCH  16  17
ATOM     17  C   UNL A   1      30.829  23.828  25.847  1.00  0.00     0.228 C 
ATOM     18  O   UNL A   1      30.249  23.164  26.723  1.00  0.00    -0.274 OA
ATOM     19  N   UNL A   1      30.083  24.842  25.308  1.00  0.00    -0.326 N 
ATOM     20  H   UNL A   1      29.218  24.966  25.760  1.00  0.00     0.169 HD
BRANCH  19  21
ATOM     21  C   UNL A   1      30.284  25.745  24.253  1.00  0.00     0.041 A 
ATOM     22  C   UNL A   1      30.727  25.353  22.992  1.00  0.00     0.029 A 
ATOM     23  C   UNL A   1      30.007  27.096  24.478  1.00  0.00     0.029 A 
ATOM     24  C   UNL A   1      31.160  26.299  22.056  1.00  0.00    -0.049 A 
ATOM     25  C   UNL A   1      30.363  28.063  23.525  1.00  0.00    -0.049 A 
ATOM     26  C   UNL A   1      32.001  25.875  20.885  1.00  0.00     0.044 C 
ATOM     27  C   UNL A   1      30.959  27.656  22.324  1.00  0.00     0.007 A 
ATOM     28  C   UNL A   1      30.297  29.526  23.854  1.00  0.00     0.044 C 
ENDBRANCH  19  21
ENDBRANCH  16  17
ENDBRANCH   4   7
ENDBRANCH   2   3
ENDBRANCH   1   2
BRANCH   1  29
ATOM     29  C   UNL A   1      37.175  21.421  25.452  1.00  0.00     0.118 C 
BRANCH  29  30
ATOM     30  N   UNL A   1      38.283  20.522  25.786  1.00  0.00    -0.352 N 
ATOM     31  C   UNL A   1      39.548  20.765  26.271  1.00  0.00     0.251 C 
ATOM     32  H   UNL A   1      38.087  19.568  25.635  1.00  0.00     0.163 HD
ATOM     33  O   UNL A   1      40.371  19.850  26.285  1.00  0.00    -0.269 OA
BRANCH  31  34
ATOM     34  C   UNL A   1      39.927  22.115  26.735  1.00  0.00     0.039 A 
ATOM     35  C   UNL A   1      40.927  22.271  27.698  1.00  0.00     0.014 A 
ATOM     36  C   UNL A   1      39.308  23.240  26.200  1.00  0.00     0.014 A 
ATOM     37  C   UNL A   1      41.373  23.554  28.031  1.00  0.00     0.010 A 
ATOM     38  C   UNL A   1      39.864  24.493  26.397  1.00  0.00     0.010 A 
ATOM     39  C   UNL A   1      40.888  24.672  27.334  1.00  0.00    -0.014 A 
BRANCH  39  40
ATOM     40  C   UNL A   1      41.397  26.049  27.577  1.00  0.00     0.031 A 
ATOM     41  C   UNL A   1      42.755  26.440  27.049  1.00  0.00     0.074 A 
ATOM     42  C   UNL A   1      40.690  26.898  28.351  1.00  0.00     0.049 A 
ATOM     43  N   UNL A   1      43.446  27.528  27.269  1.00  0.00    -0.248 NA
ATOM     44  C   UNL A   1      43.453  25.454  26.206  1.00  0.00     0.031 C 
ATOM     45  C   UNL A   1      39.396  26.604  28.972  1.00  0.00     0.029 A 
ATOM     46  N   UNL A   1      40.967  28.178  28.762  1.00  0.00    -0.354 N 
ATOM     47  C   UNL A   1      44.666  27.338  26.627  1.00  0.00     0.074 A 
ATOM     48  C   UNL A   1      44.650  26.002  26.075  1.00  0.00     0.031 C 
ATOM     49  C   UNL A   1      38.976  27.682  29.652  1.00  0.00     0.029 A 
ATOM     50  C   UNL A   1      39.995  28.723  29.572  1.00  0.00     0.049 A 
ATOM     51  H   UNL A   1      41.783  28.661  28.502  1.00  0.00     0.167 HD
ATOM     52  C   UNL A   1      45.693  28.209  26.485  1.00  0.00     0.034 A 
ATOM     53  C   UNL A   1      39.940  29.918  30.192  1.00  0.00     0.034 A 
ATOM     54  C   UNL A   1      45.667  29.553  27.002  1.00  0.00     0.049 A 
ATOM     55  C   UNL A   1      41.091  30.876  30.007  1.00  0.00     0.074 A 
ATOM     56  C   UNL A   1      46.604  30.556  26.837  1.00  0.00     0.029 A 
ATOM     57  N   UNL A   1      44.651  30.080  27.788  1.00  0.00    -0.354 N 
ATOM     58  N   UNL A   1      42.205  30.708  29.329  1.00  0.00    -0.248 NA
ATOM     59  C   UNL A   1      40.975  32.188  30.656  1.00  0.00     0.031 C 
ATOM     60  C   UNL A   1      46.195  31.662  27.589  1.00  0.00     0.029 A 
ATOM     61  C   UNL A   1      44.959  31.382  28.149  1.00  0.00     0.049 A 
ATOM     62  H   UNL A   1      43.832  29.600  28.050  1.00  0.00     0.167 HD
ATOM     63  C   UNL A   1      42.906  31.904  29.448  1.00  0.00     0.074 A 
ATOM     64  C   UNL A   1      42.080  32.790  30.244  1.00  0.00     0.031 C 
ATOM     65  C   UNL A   1      44.122  32.245  28.948  1.00  0.00     0.034 A 
BRANCH  52  66
ATOM     66  C   UNL A   1      46.930  27.730  25.761  1.00  0.00     0.023 A 
ATOM     67  C   UNL A   1      47.155  28.015  24.402  1.00  0.00     0.031 A 
ATOM     68  C   UNL A   1      47.895  26.965  26.440  1.00  0.00     0.131 A 
ATOM     69  C   UNL A   1      48.278  27.480  23.750  1.00  0.00     0.055 A 
ATOM     70  C   UNL A   1      49.052  26.508  25.806  1.00  0.00     0.041 A 
ATOM     71  F   UNL A   1      47.725  26.639  27.730  1.00  0.00    -0.206 F 
ATOM     72  C   UNL A   1      49.243  26.753  24.450  1.00  0.00     0.022 A 
BRANCH  69  73
ATOM     73  S   UNL A   1      48.386  27.633  21.946  1.00  0.00     0.124 S 
ATOM     74  O   UNL A   1      48.588  26.243  21.544  1.00  0.00    -0.237 OA
ATOM     75  O   UNL A   1      47.095  28.216  21.600  1.00  0.00    -0.237 OA
ATOM     76  O   UNL A   1      49.541  28.506  21.745  1.00  0.00    -0.744 OA
ENDBRANCH  69  73
ENDBRANCH  52  66
BRANCH  53  77
ATOM     77  C   UNL A   1      38.778  30.276  31.058  1.00  0.00     0.023 A 
ATOM     78  C   UNL A   1      37.687  30.999  30.547  1.00  0.00     0.031 A 
ATOM     79  C   UNL A   1      38.762  29.946  32.425  1.00  0.00     0.131 A 
ATOM     80  C   UNL A   1      36.659  31.419  31.406  1.00  0.00     0.055 A 
ATOM     81  C   UNL A   1      37.706  30.311  33.263  1.00  0.00     0.041 A 
ATOM     82  F   UNL A   1      39.775  29.253  32.969  1.00  0.00    -0.206 F 
ATOM     83  C   UNL A   1      36.654  31.066  32.757  1.00  0.00     0.022 A 
BRANCH  80  84
ATOM     84  S   UNL A   1      35.381  32.528  30.753  1.00  0.00     0.124 S 
ATOM     85  O   UNL A   1      34.306  32.345  31.722  1.00  0.00    -0.237 OA
ATOM     86  O   UNL A   1      36.059  33.820  30.782  1.00  0.00    -0.237 OA
ATOM     87  O   UNL A   1      35.116  31.994  29.419  1.00  0.00    -0.744 OA
ENDBRANCH  80  84
ENDBRANCH  53  77
BRANCH  65  88
ATOM     88  C   UNL A   1      44.603  33.651  29.209  1.00  0.00     0.023 A 
ATOM     89  C   UNL A   1      44.300  34.710  28.338  1.00  0.00     0.031 A 
ATOM     90  C   UNL A   1      45.375  33.930  30.351  1.00  0.00     0.131 A 
ATOM     91  C   UNL A   1      44.813  35.990  28.593  1.00  0.00     0.055 A 
ATOM     92  C   UNL A   1      45.824  35.219  30.636  1.00  0.00     0.041 A 
ATOM     93  F   UNL A   1      45.697  32.953  31.215  1.00  0.00    -0.206 F 
ATOM     94  C   UNL A   1      45.555  36.256  29.748  1.00  0.00     0.022 A 
BRANCH  91  95
ATOM     95  S   UNL A   1      44.579  37.285  27.346  1.00  0.00     0.124 S 
ATOM     96  O   UNL A   1      43.299  36.909  26.756  1.00  0.00    -0.237 OA
ATOM     97  O   UNL A   1      44.575  38.500  28.155  1.00  0.00    -0.237 OA
ATOM     98  O   UNL A   1      45.738  37.129  26.469  1.00  0.00    -0.744 OA
ENDBRANCH  91  95
ENDBRANCH  65  88
ENDBRANCH  39  40
ENDBRANCH  31  34
ENDBRANCH  29  30
ENDBRANCH   1  29
TORSDOF 15
ENDMDL
MODEL 2
REMARK VINA RESULT:     -13.3      1.661      7.711
REMARK SMILES CC(C)=C1[C@H]2CC[C@@H]1[C@@H](C(=O)Nc1cc(C)cc(C)c1)[C@@H]2C(=O)NCCCNC(=O)c1ccc(-c2c3nc(c(-c4cc(S(=O)(=O)[O-])ccc4F)c4ccc([nH]4)c(-c4cc(S(=O)(=O)[O-])ccc4F)c4nc(c(-c5cc(S(=O)(=O)[O-])ccc5F)c5ccc2[nH]5)C=C4)C=C3)cc1
REMARK SMILES IDX 26 1 25 2 24 3 22 4 23 5 21 7 1 8 2 9 3 10 4 11 5 12 8 13
REMARK SMILES IDX 6 14 7 15 9 16 10 17 11 18 12 19 13 21 14 22 20 23 15 24
REMARK SMILES IDX 18 25 16 26 17 27 19 28 27 29 28 30 29 31 30 33 31 34 32 35
REMARK SMILES IDX 93 36 33 37 92 38 34 39 35 40 36 41 86 42 37 43 91 44 85 45
REMARK SMILES IDX 87 46 38 47 90 48 84 49 83 50 39 52 71 53 51 54 70 55 52 56
REMARK SMILES IDX 55 57 69 58 88 59 53 60 54 61 68 63 89 64 56 65 40 66 41 67
REMARK SMILES IDX 49 68 42 69 48 70 50 71 47 72 43 73 44 74 45 75 46 76 72 77
REMARK SMILES IDX 73 78 81 79 74 80 80 81 82 82 79 83 75 84 76 85 77 86 78 87
REMARK SMILES IDX 57 88 58 89 66 90 59 91 65 92 67 93 64 94 60 95 61 96 62 97
REMARK SMILES IDX 63 98
REMARK H PARENT 24 6 12 20 28 32 87 51 55 62
REMARK Flexibility Score: inf
ROOT
ATOM      1  C   UNL A   1      35.776  22.784  24.159  1.00  0.00     0.042 C 
ENDROOT
BRANCH   1   2
ATOM      2  C   UNL A   1      34.947  24.037  24.194  1.00  0.00     0.117 C 
BRANCH   2   3
ATOM      3  N   UNL A   1      33.626  24.017  23.664  1.00  0.00    -0.356 N 
ATOM      4  C   UNL A   1      32.855  25.120  23.451  1.00  0.00     0.224 C 
ATOM      5  O   UNL A   1      31.873  24.959  22.715  1.00  0.00    -0.275 OA
ATOM      6  H   UNL A   1      33.242  23.141  23.433  1.00  0.00     0.163 HD
BRANCH   4   7
ATOM      7  C   UNL A   1      33.065  26.491  24.144  1.00  0.00     0.098 C 
ATOM      8  C   UNL A   1      32.950  30.580  26.624  1.00  0.00     0.039 C 
ATOM      9  C   UNL A   1      33.632  29.240  26.514  1.00  0.00    -0.077 C 
ATOM     10  C   UNL A   1      34.756  28.985  27.472  1.00  0.00     0.039 C 
ATOM     11  C   UNL A   1      33.117  28.260  25.749  1.00  0.00    -0.064 C 
ATOM     12  C   UNL A   1      33.416  26.768  25.640  1.00  0.00     0.028 C 
ATOM     13  C   UNL A   1      31.747  28.254  25.144  1.00  0.00     0.028 C 
ATOM     14  C   UNL A   1      32.347  26.431  26.678  1.00  0.00     0.009 C 
ATOM     15  C   UNL A   1      31.157  27.361  26.268  1.00  0.00     0.009 C 
ATOM     16  C   UNL A   1      31.995  27.528  23.808  1.00  0.00     0.099 C 
BRANCH  16  17
ATOM     17  C   UNL A   1      32.296  28.525  22.657  1.00  0.00     0.228 C 
ATOM     18  O   UNL A   1      33.440  28.499  22.171  1.00  0.00    -0.274 OA
ATOM     19  N   UNL A   1      31.407  29.324  21.989  1.00  0.00    -0.326 N 
ATOM     20  H   UNL A   1      31.775  29.695  21.155  1.00  0.00     0.169 HD
BRANCH  19  21
ATOM     21  C   UNL A   1      30.086  29.727  22.233  1.00  0.00     0.041 A 
ATOM     22  C   UNL A   1      29.670  31.054  22.153  1.00  0.00     0.029 A 
ATOM     23  C   UNL A   1      29.143  28.746  22.551  1.00  0.00     0.029 A 
ATOM     24  C   UNL A   1      28.423  31.448  22.651  1.00  0.00    -0.049 A 
ATOM     25  C   UNL A   1      27.858  29.108  22.983  1.00  0.00    -0.049 A 
ATOM     26  C   UNL A   1      28.145  32.897  22.935  1.00  0.00     0.044 C 
ATOM     27  C   UNL A   1      27.514  30.465  23.049  1.00  0.00     0.007 A 
ATOM     28  C   UNL A   1      26.924  28.083  23.558  1.00  0.00     0.044 C 
ENDBRANCH  19  21
ENDBRANCH  16  17
ENDBRANCH   4   7
ENDBRANCH   2   3
ENDBRANCH   1   2
BRANCH   1  29
ATOM     29  C   UNL A   1      36.162  22.292  25.532  1.00  0.00     0.118 C 
BRANCH  29  30
ATOM     30  N   UNL A   1      37.165  21.225  25.498  1.00  0.00    -0.352 N 
ATOM     31  C   UNL A   1      38.514  21.225  25.775  1.00  0.00     0.251 C 
ATOM     32  H   UNL A   1      36.811  20.347  25.227  1.00  0.00     0.163 HD
ATOM     33  O   UNL A   1      39.186  20.236  25.481  1.00  0.00    -0.269 OA
BRANCH  31  34
ATOM     34  C   UNL A   1      39.156  22.408  26.383  1.00  0.00     0.039 A 
ATOM     35  C   UNL A   1      40.249  22.251  27.239  1.00  0.00     0.014 A 
ATOM     36  C   UNL A   1      38.691  23.686  26.089  1.00  0.00     0.014 A 
ATOM     37  C   UNL A   1      40.933  23.380  27.700  1.00  0.00     0.010 A 
ATOM     38  C   UNL A   1      39.467  24.790  26.401  1.00  0.00     0.010 A 
ATOM     39  C   UNL A   1      40.585  24.657  27.231  1.00  0.00    -0.014 A 
BRANCH  39  40
ATOM     40  C   UNL A   1      41.339  25.881  27.611  1.00  0.00     0.031 A 
ATOM     41  C   UNL A   1      40.637  26.974  28.380  1.00  0.00     0.074 A 
ATOM     42  C   UNL A   1      42.605  26.051  27.179  1.00  0.00     0.049 A 
ATOM     43  N   UNL A   1      41.058  28.174  28.684  1.00  0.00    -0.248 NA
ATOM     44  C   UNL A   1      39.258  26.700  28.820  1.00  0.00     0.031 C 
ATOM     45  C   UNL A   1      43.362  25.092  26.370  1.00  0.00     0.029 A 
ATOM     46  N   UNL A   1      43.477  27.099  27.345  1.00  0.00    -0.354 N 
ATOM     47  C   UNL A   1      39.987  28.804  29.310  1.00  0.00     0.074 A 
ATOM     48  C   UNL A   1      38.875  27.881  29.274  1.00  0.00     0.031 C 
ATOM     49  C   UNL A   1      44.592  25.579  26.144  1.00  0.00     0.029 A 
ATOM     50  C   UNL A   1      44.696  26.908  26.733  1.00  0.00     0.049 A 
ATOM     51  H   UNL A   1      43.252  27.910  27.855  1.00  0.00     0.167 HD
ATOM     52  C   UNL A   1      39.944  30.027  29.888  1.00  0.00     0.034 A 
ATOM     53  C   UNL A   1      45.767  27.722  26.642  1.00  0.00     0.034 A 
ATOM     54  C   UNL A   1      41.080  30.911  29.954  1.00  0.00     0.049 A 
ATOM     55  C   UNL A   1      45.699  29.075  27.307  1.00  0.00     0.074 A 
ATOM     56  C   UNL A   1      41.185  32.130  30.597  1.00  0.00     0.029 A 
ATOM     57  N   UNL A   1      42.308  30.669  29.351  1.00  0.00    -0.354 N 
ATOM     58  N   UNL A   1      44.702  29.624  27.964  1.00  0.00    -0.248 NA
ATOM     59  C   UNL A   1      46.902  29.913  27.230  1.00  0.00     0.031 C 
ATOM     60  C   UNL A   1      42.447  32.663  30.317  1.00  0.00     0.029 A 
ATOM     61  C   UNL A   1      43.163  31.736  29.576  1.00  0.00     0.049 A 
ATOM     62  H   UNL A   1      42.538  29.859  28.841  1.00  0.00     0.167 HD
ATOM     63  C   UNL A   1      45.170  30.858  28.403  1.00  0.00     0.074 A 
ATOM     64  C   UNL A   1      46.544  30.963  27.955  1.00  0.00     0.031 C 
ATOM     65  C   UNL A   1      44.528  31.821  29.113  1.00  0.00     0.034 A 
BRANCH  52  66
ATOM     66  C   UNL A   1      38.629  30.486  30.475  1.00  0.00     0.023 A 
ATOM     67  C   UNL A   1      37.690  31.214  29.721  1.00  0.00     0.031 A 
ATOM     68  C   UNL A   1      38.314  30.198  31.814  1.00  0.00     0.131 A 
ATOM     69  C   UNL A   1      36.519  31.690  30.332  1.00  0.00     0.055 A 
ATOM     70  C   UNL A   1      37.108  30.601  32.391  1.00  0.00     0.041 A 
ATOM     71  F   UNL A   1      39.179  29.528  32.592  1.00  0.00    -0.206 F 
ATOM     72  C   UNL A   1      36.208  31.363  31.653  1.00  0.00     0.022 A 
BRANCH  69  73
ATOM     73  S   UNL A   1      35.476  32.855  29.413  1.00  0.00     0.124 S 
ATOM     74  O   UNL A   1      35.622  32.365  28.044  1.00  0.00    -0.237 OA
ATOM     75  O   UNL A   1      34.167  32.657  30.025  1.00  0.00    -0.237 OA
ATOM     76  O   UNL A   1      36.099  34.151  29.673  1.00  0.00    -0.744 OA
ENDBRANCH  69  73
ENDBRANCH  52  66
BRANCH  53  77
ATOM     77  C   UNL A   1      46.983  27.301  25.885  1.00  0.00     0.023 A 
ATOM     78  C   UNL A   1      47.199  27.726  24.564  1.00  0.00     0.031 A 
ATOM     79  C   UNL A   1      47.923  26.422  26.451  1.00  0.00     0.131 A 
ATOM     80  C   UNL A   1      48.291  27.230  23.835  1.00  0.00     0.055 A 
ATOM     81  C   UNL A   1      49.044  25.980  25.745  1.00  0.00     0.041 A 
ATOM     82  F   UNL A   1      47.771  25.984  27.712  1.00  0.00    -0.206 F 
ATOM     83  C   UNL A   1      49.224  26.371  24.422  1.00  0.00     0.022 A 
BRANCH  80  84
ATOM     84  S   UNL A   1      48.416  27.635  22.072  1.00  0.00     0.124 S 
ATOM     85  O   UNL A   1      47.121  28.256  21.818  1.00  0.00    -0.237 OA
ATOM     86  O   UNL A   1      49.572  28.526  22.048  1.00  0.00    -0.237 OA
ATOM     87  O   UNL A   1      48.620  26.335  21.438  1.00  0.00    -0.744 OA
ENDBRANCH  80  84
ENDBRANCH  53  77
BRANCH  65  88
ATOM     88  C   UNL A   1      45.324  33.047  29.486  1.00  0.00     0.023 A 
ATOM     89  C   UNL A   1      45.322  34.201  28.687  1.00  0.00     0.031 A 
ATOM     90  C   UNL A   1      46.091  33.056  30.664  1.00  0.00     0.131 A 
ATOM     91  C   UNL A   1      46.118  35.298  29.046  1.00  0.00     0.055 A 
ATOM     92  C   UNL A   1      46.826  34.176  31.053  1.00  0.00     0.041 A 
ATOM     93  F   UNL A   1      46.131  31.978  31.465  1.00  0.00    -0.206 F 
ATOM     94  C   UNL A   1      46.854  35.301  30.234  1.00  0.00     0.022 A 
BRANCH  91  95
ATOM     95  S   UNL A   1      46.257  36.687  27.889  1.00  0.00     0.124 S 
ATOM     96  O   UNL A   1      46.149  37.836  28.782  1.00  0.00    -0.237 OA
ATOM     97  O   UNL A   1      47.571  36.467  27.292  1.00  0.00    -0.237 OA
ATOM     98  O   UNL A   1      45.126  36.494  26.984  1.00  0.00    -0.744 OA
ENDBRANCH  91  95
ENDBRANCH  65  88
ENDBRANCH  39  40
ENDBRANCH  31  34
ENDBRANCH  29  30
ENDBRANCH   1  29
TORSDOF 15
ENDMDL
MODEL 3
REMARK VINA RESULT:     -13.2      4.825     10.249
REMARK SMILES CC(C)=C1[C@H]2CC[C@@H]1[C@@H](C(=O)Nc1cc(C)cc(C)c1)[C@@H]2C(=O)NCCCNC(=O)c1ccc(-c2c3nc(c(-c4cc(S(=O)(=O)[O-])ccc4F)c4ccc([nH]4)c(-c4cc(S(=O)(=O)[O-])ccc4F)c4nc(c(-c5cc(S(=O)(=O)[O-])ccc5F)c5ccc2[nH]5)C=C4)C=C3)cc1
REMARK SMILES IDX 26 1 25 2 24 3 22 4 23 5 21 7 1 8 2 9 3 10 4 11 5 12 8 13
REMARK SMILES IDX 6 14 7 15 9 16 10 17 11 18 12 19 13 21 14 22 20 23 15 24
REMARK SMILES IDX 18 25 16 26 17 27 19 28 27 29 28 30 29 31 30 33 31 34 32 35
REMARK SMILES IDX 93 36 33 37 92 38 34 39 35 40 36 41 86 42 37 43 91 44 85 45
REMARK SMILES IDX 87 46 38 47 90 48 84 49 83 50 39 52 71 53 51 54 70 55 52 56
REMARK SMILES IDX 55 57 69 58 88 59 53 60 54 61 68 63 89 64 56 65 40 66 41 67
REMARK SMILES IDX 49 68 42 69 48 70 50 71 47 72 43 73 44 74 45 75 46 76 72 77
REMARK SMILES IDX 73 78 81 79 74 80 80 81 82 82 79 83 75 84 76 85 77 86 78 87
REMARK SMILES IDX 57 88 58 89 66 90 59 91 65 92 67 93 64 94 60 95 61 96 62 97
REMARK SMILES IDX 63 98
REMARK H PARENT 24 6 12 20 28 32 87 51 55 62
REMARK Flexibility Score: inf
ROOT
ATOM      1  C   UNL A   1      31.251  30.428  25.370  1.00  0.00     0.042 C 
ENDROOT
BRANCH   1   2
ATOM      2  C   UNL A   1      31.518  29.130  24.659  1.00  0.00     0.117 C 
BRANCH   2   3
ATOM      3  N   UNL A   1      30.423  28.336  24.218  1.00  0.00    -0.356 N 
ATOM      4  C   UNL A   1      30.365  26.977  24.295  1.00  0.00     0.224 C 
ATOM      5  O   UNL A   1      29.242  26.475  24.155  1.00  0.00    -0.275 OA
ATOM      6  H   UNL A   1      29.650  28.803  23.829  1.00  0.00     0.163 HD
BRANCH   4   7
ATOM      7  C   UNL A   1      31.599  26.047  24.432  1.00  0.00     0.098 C 
ATOM      8  C   UNL A   1      35.852  23.900  24.853  1.00  0.00     0.039 C 
ATOM      9  C   UNL A   1      34.559  24.195  25.570  1.00  0.00    -0.077 C 
ATOM     10  C   UNL A   1      34.409  23.607  26.941  1.00  0.00     0.039 C 
ATOM     11  C   UNL A   1      33.694  25.107  25.092  1.00  0.00    -0.064 C 
ATOM     12  C   UNL A   1      32.473  25.793  25.700  1.00  0.00     0.028 C 
ATOM     13  C   UNL A   1      33.978  26.092  24.001  1.00  0.00     0.028 C 
ATOM     14  C   UNL A   1      33.322  26.958  26.204  1.00  0.00     0.009 C 
ATOM     15  C   UNL A   1      34.273  27.245  24.996  1.00  0.00     0.009 C 
ATOM     16  C   UNL A   1      32.611  26.185  23.296  1.00  0.00     0.099 C 
BRANCH  16  17
ATOM     17  C   UNL A   1      32.502  25.186  22.112  1.00  0.00     0.228 C 
ATOM     18  O   UNL A   1      32.614  25.652  20.966  1.00  0.00    -0.274 OA
ATOM     19  N   UNL A   1      32.464  23.819  22.174  1.00  0.00    -0.326 N 
ATOM     20  H   UNL A   1      32.627  23.389  21.303  1.00  0.00     0.169 HD
BRANCH  19  21
ATOM     21  C   UNL A   1      32.246  22.895  23.208  1.00  0.00     0.041 A 
ATOM     22  C   UNL A   1      31.178  22.990  24.097  1.00  0.00     0.029 A 
ATOM     23  C   UNL A   1      33.133  21.823  23.335  1.00  0.00     0.029 A 
ATOM     24  C   UNL A   1      31.139  22.212  25.259  1.00  0.00    -0.049 A 
ATOM     25  C   UNL A   1      33.071  20.979  24.454  1.00  0.00    -0.049 A 
ATOM     26  C   UNL A   1      30.230  22.592  26.394  1.00  0.00     0.044 C 
ATOM     27  C   UNL A   1      32.082  21.195  25.423  1.00  0.00     0.007 A 
ATOM     28  C   UNL A   1      34.161  19.982  24.724  1.00  0.00     0.044 C 
ENDBRANCH  19  21
ENDBRANCH  16  17
ENDBRANCH   4   7
ENDBRANCH   2   3
ENDBRANCH   1   2
BRANCH   1  29
ATOM     29  C   UNL A   1      32.230  30.703  26.485  1.00  0.00     0.118 C 
BRANCH  29  30
ATOM     30  N   UNL A   1      32.329  32.125  26.822  1.00  0.00    -0.352 N 
ATOM     31  C   UNL A   1      33.250  32.830  27.563  1.00  0.00     0.251 C 
ATOM     32  H   UNL A   1      31.603  32.679  26.452  1.00  0.00     0.163 HD
ATOM     33  O   UNL A   1      33.007  33.998  27.869  1.00  0.00    -0.269 OA
BRANCH  31  34
ATOM     34  C   UNL A   1      34.499  32.186  28.018  1.00  0.00     0.039 A 
ATOM     35  C   UNL A   1      35.670  32.938  28.146  1.00  0.00     0.014 A 
ATOM     36  C   UNL A   1      34.512  30.833  28.343  1.00  0.00     0.014 A 
ATOM     37  C   UNL A   1      36.809  32.351  28.706  1.00  0.00     0.010 A 
ATOM     38  C   UNL A   1      35.577  30.305  29.053  1.00  0.00     0.010 A 
ATOM     39  C   UNL A   1      36.751  31.047  29.223  1.00  0.00    -0.014 A 
BRANCH  39  40
ATOM     40  C   UNL A   1      37.902  30.409  29.916  1.00  0.00     0.031 A 
ATOM     41  C   UNL A   1      38.196  30.770  31.351  1.00  0.00     0.074 A 
ATOM     42  C   UNL A   1      38.732  29.597  29.230  1.00  0.00     0.049 A 
ATOM     43  N   UNL A   1      39.223  30.448  32.093  1.00  0.00    -0.248 NA
ATOM     44  C   UNL A   1      37.232  31.658  32.026  1.00  0.00     0.031 C 
ATOM     45  C   UNL A   1      38.586  29.230  27.818  1.00  0.00     0.029 A 
ATOM     46  N   UNL A   1      39.873  28.942  29.621  1.00  0.00    -0.354 N 
ATOM     47  C   UNL A   1      39.046  31.121  33.298  1.00  0.00     0.074 A 
ATOM     48  C   UNL A   1      37.856  31.929  33.160  1.00  0.00     0.031 C 
ATOM     49  C   UNL A   1      39.575  28.391  27.475  1.00  0.00     0.029 A 
ATOM     50  C   UNL A   1      40.463  28.207  28.617  1.00  0.00     0.049 A 
ATOM     51  H   UNL A   1      40.236  28.994  30.534  1.00  0.00     0.167 HD
ATOM     52  C   UNL A   1      39.793  31.048  34.425  1.00  0.00     0.034 A 
ATOM     53  C   UNL A   1      41.599  27.482  28.614  1.00  0.00     0.034 A 
ATOM     54  C   UNL A   1      40.948  30.198  34.556  1.00  0.00     0.049 A 
ATOM     55  C   UNL A   1      42.406  27.405  29.887  1.00  0.00     0.074 A 
ATOM     56  C   UNL A   1      41.723  29.967  35.676  1.00  0.00     0.029 A 
ATOM     57  N   UNL A   1      41.496  29.442  33.527  1.00  0.00    -0.354 N 
ATOM     58  N   UNL A   1      42.180  27.988  31.044  1.00  0.00    -0.248 NA
ATOM     59  C   UNL A   1      43.610  26.566  29.862  1.00  0.00     0.031 C 
ATOM     60  C   UNL A   1      42.786  29.136  35.307  1.00  0.00     0.029 A 
ATOM     61  C   UNL A   1      42.623  28.775  33.979  1.00  0.00     0.049 A 
ATOM     62  H   UNL A   1      41.136  29.387  32.612  1.00  0.00     0.167 HD
ATOM     63  C   UNL A   1      43.199  27.560  31.889  1.00  0.00     0.074 A 
ATOM     64  C   UNL A   1      44.026  26.655  31.116  1.00  0.00     0.031 C 
ATOM     65  C   UNL A   1      43.435  27.882  33.187  1.00  0.00     0.034 A 
BRANCH  52  66
ATOM     66  C   UNL A   1      39.393  31.920  35.594  1.00  0.00     0.023 A 
ATOM     67  C   UNL A   1      38.653  31.418  36.679  1.00  0.00     0.031 A 
ATOM     68  C   UNL A   1      39.751  33.279  35.616  1.00  0.00     0.131 A 
ATOM     69  C   UNL A   1      38.234  32.283  37.702  1.00  0.00     0.055 A 
ATOM     70  C   UNL A   1      39.405  34.115  36.679  1.00  0.00     0.041 A 
ATOM     71  F   UNL A   1      40.437  33.823  34.598  1.00  0.00    -0.206 F 
ATOM     72  C   UNL A   1      38.630  33.622  37.724  1.00  0.00     0.022 A 
BRANCH  69  73
ATOM     73  S   UNL A   1      37.051  31.665  38.930  1.00  0.00     0.124 S 
ATOM     74  O   UNL A   1      37.831  31.756  40.162  1.00  0.00    -0.237 OA
ATOM     75  O   UNL A   1      35.945  32.606  38.805  1.00  0.00    -0.237 OA
ATOM     76  O   UNL A   1      36.769  30.304  38.479  1.00  0.00    -0.744 OA
ENDBRANCH  69  73
ENDBRANCH  52  66
BRANCH  53  77
ATOM     77  C   UNL A   1      42.058  26.788  27.374  1.00  0.00     0.023 A 
ATOM     78  C   UNL A   1      41.921  25.397  27.227  1.00  0.00     0.031 A 
ATOM     79  C   UNL A   1      42.690  27.496  26.337  1.00  0.00     0.131 A 
ATOM     80  C   UNL A   1      42.459  24.754  26.101  1.00  0.00     0.055 A 
ATOM     81  C   UNL A   1      43.168  26.861  25.189  1.00  0.00     0.041 A 
ATOM     82  F   UNL A   1      42.847  28.827  26.420  1.00  0.00    -0.206 F 
ATOM     83  C   UNL A   1      43.068  25.479  25.074  1.00  0.00     0.022 A 
BRANCH  80  84
ATOM     84  S   UNL A   1      42.449  22.941  26.050  1.00  0.00     0.124 S 
ATOM     85  O   UNL A   1      43.373  22.609  27.129  1.00  0.00    -0.237 OA
ATOM     86  O   UNL A   1      41.042  22.639  26.292  1.00  0.00    -0.237 OA
ATOM     87  O   UNL A   1      42.927  22.636  24.703  1.00  0.00    -0.744 OA
ENDBRANCH  80  84
ENDBRANCH  53  77
BRANCH  65  88
ATOM     88  C   UNL A   1      44.607  27.211  33.860  1.00  0.00     0.023 A 
ATOM     89  C   UNL A   1      44.499  25.935  34.437  1.00  0.00     0.031 A 
ATOM     90  C   UNL A   1      45.852  27.863  33.919  1.00  0.00     0.131 A 
ATOM     91  C   UNL A   1      45.600  25.374  35.097  1.00  0.00     0.055 A 
ATOM     92  C   UNL A   1      46.964  27.269  34.516  1.00  0.00     0.041 A 
ATOM     93  F   UNL A   1      46.011  29.086  33.386  1.00  0.00    -0.206 F 
ATOM     94  C   UNL A   1      46.838  26.022  35.122  1.00  0.00     0.022 A 
BRANCH  91  95
ATOM     95  S   UNL A   1      45.370  23.823  36.009  1.00  0.00     0.124 S 
ATOM     96  O   UNL A   1      44.041  23.410  35.571  1.00  0.00    -0.237 OA
ATOM     97  O   UNL A   1      46.481  23.009  35.527  1.00  0.00    -0.237 OA
ATOM     98  O   UNL A   1      45.463  24.232  37.409  1.00  0.00    -0.744 OA
ENDBRANCH  91  95
ENDBRANCH  65  88
ENDBRANCH  39  40
ENDBRANCH  31  34
ENDBRANCH  29  30
ENDBRANCH   1  29
TORSDOF 15
ENDMDL
