MODEL 1
REMARK VINA RESULT:     -12.6      0.000      0.000
REMARK SMILES Cc1ccc(Br)cc1S(=O)(=O)N[C@H]1C=C[C@H](C(=O)NCCCNC(=O)c2ccc(-c3c4nc(c(-c5cc(S(=O)(=O)[O-])ccc5F)c5ccc([nH]5)c(-c5cc(S(=O)(=O)[O-])ccc5F)c5nc(c(-c6cc(S(=O)(=O)[O-])ccc6F)c6ccc3[nH]6)C=C5)C=C4)cc2)C1
REMARK SMILES IDX 21 1 20 2 19 3 17 4 18 5 16 7 13 8 14 9 89 10 15 11 12 12
REMARK SMILES IDX 9 14 10 15 11 16 8 17 1 18 2 19 3 20 4 21 7 22 5 23 6 24
REMARK SMILES IDX 22 25 23 26 24 27 25 29 26 30 27 31 88 32 28 33 87 34 29 35
REMARK SMILES IDX 30 36 31 37 81 38 32 39 86 40 80 41 82 42 33 43 85 44 79 45
REMARK SMILES IDX 78 46 34 48 66 49 46 50 65 51 47 52 50 53 64 54 83 55 48 56
REMARK SMILES IDX 49 57 63 59 84 60 51 61 35 62 36 63 44 64 37 65 43 66 45 67
REMARK SMILES IDX 42 68 38 69 39 70 40 71 41 72 67 73 68 74 76 75 69 76 75 77
REMARK SMILES IDX 77 78 74 79 70 80 71 81 72 82 73 83 52 84 53 85 61 86 54 87
REMARK SMILES IDX 60 88 62 89 59 90 55 91 56 92 57 93 58 94
REMARK H PARENT 19 6 12 13 23 28 82 47 50 58
REMARK Flexibility Score: inf
ROOT
ATOM      1  C   UNL A   1      31.496  32.131  26.671  1.00  0.00     0.042 C 
ENDROOT
BRANCH   1   2
ATOM      2  C   UNL A   1      31.724  30.745  26.083  1.00  0.00     0.117 C 
BRANCH   2   3
ATOM      3  N   UNL A   1      31.736  29.716  27.109  1.00  0.00    -0.356 N 
ATOM      4  C   UNL A   1      31.675  28.363  27.114  1.00  0.00     0.226 C 
ATOM      5  O   UNL A   1      31.568  27.840  28.231  1.00  0.00    -0.274 OA
ATOM      6  H   UNL A   1      31.806  30.091  28.016  1.00  0.00     0.163 HD
BRANCH   4   7
ATOM      7  C   UNL A   1      31.706  27.455  25.881  1.00  0.00     0.103 C 
ATOM      8  C   UNL A   1      32.351  25.116  26.103  1.00  0.00     0.093 C 
ATOM      9  C   UNL A   1      33.427  25.912  25.439  1.00  0.00    -0.011 C 
ATOM     10  C   UNL A   1      31.143  26.048  25.939  1.00  0.00     0.042 C 
ATOM     11  C   UNL A   1      33.092  27.207  25.362  1.00  0.00    -0.016 C 
BRANCH   8  12
ATOM     12  N   UNL A   1      32.114  23.867  25.407  1.00  0.00    -0.204 NA
ATOM     13  H   UNL A   1      31.288  24.003  24.824  1.00  0.00     0.142 HD
BRANCH  12  14
ATOM     14  S   UNL A   1      31.859  22.468  26.303  1.00  0.00     0.241 S 
ATOM     15  O   UNL A   1      30.570  21.946  25.894  1.00  0.00    -0.207 OA
ATOM     16  O   UNL A   1      32.145  22.788  27.679  1.00  0.00    -0.207 OA
BRANCH  14  17
ATOM     17  C   UNL A   1      33.115  21.327  25.747  1.00  0.00     0.086 A 
ATOM     18  C   UNL A   1      35.103  22.782  26.526  1.00  0.00     0.046 C 
ATOM     19  C   UNL A   1      34.494  21.595  25.834  1.00  0.00    -0.031 A 
ATOM     20  C   UNL A   1      35.388  20.673  25.258  1.00  0.00     0.006 A 
ATOM     21  C   UNL A   1      34.934  19.493  24.665  1.00  0.00     0.016 A 
ATOM     22  C   UNL A   1      32.661  20.127  25.170  1.00  0.00     0.037 A 
ATOM     23  C   UNL A   1      33.573  19.214  24.647  1.00  0.00     0.019 A 
ATOM     24  Br  UNL A   1      32.962  17.586  23.908  1.00  0.00    -0.051 Br
ENDBRANCH  14  17
ENDBRANCH  12  14
ENDBRANCH   8  12
ENDBRANCH   4   7
ENDBRANCH   2   3
ENDBRANCH   1   2
BRANCH   1  25
ATOM     25  C   UNL A   1      32.727  32.686  27.376  1.00  0.00     0.118 C 
BRANCH  25  26
ATOM     26  N   UNL A   1      32.584  34.101  27.699  1.00  0.00    -0.352 N 
ATOM     27  C   UNL A   1      33.186  34.847  28.682  1.00  0.00     0.251 C 
ATOM     28  H   UNL A   1      31.959  34.598  27.122  1.00  0.00     0.163 HD
ATOM     29  O   UNL A   1      32.751  35.967  28.936  1.00  0.00    -0.269 OA
BRANCH  27  30
ATOM     30  C   UNL A   1      34.336  34.301  29.435  1.00  0.00     0.039 A 
ATOM     31  C   UNL A   1      34.099  33.518  30.569  1.00  0.00     0.014 A 
ATOM     32  C   UNL A   1      35.646  34.582  29.041  1.00  0.00     0.014 A 
ATOM     33  C   UNL A   1      35.177  32.970  31.270  1.00  0.00     0.010 A 
ATOM     34  C   UNL A   1      36.711  33.961  29.683  1.00  0.00     0.010 A 
ATOM     35  C   UNL A   1      36.490  33.161  30.813  1.00  0.00    -0.014 A 
BRANCH  35  36
ATOM     36  C   UNL A   1      37.658  32.569  31.517  1.00  0.00     0.031 A 
ATOM     37  C   UNL A   1      38.421  31.441  30.871  1.00  0.00     0.074 A 
ATOM     38  C   UNL A   1      37.976  32.983  32.758  1.00  0.00     0.049 A 
ATOM     39  N   UNL A   1      39.375  30.694  31.365  1.00  0.00    -0.248 NA
ATOM     40  C   UNL A   1      38.019  31.075  29.504  1.00  0.00     0.031 C 
ATOM     41  C   UNL A   1      37.280  34.034  33.504  1.00  0.00     0.029 A 
ATOM     42  N   UNL A   1      38.957  32.561  33.618  1.00  0.00    -0.354 N 
ATOM     43  C   UNL A   1      39.660  29.749  30.383  1.00  0.00     0.074 A 
ATOM     44  C   UNL A   1      38.736  29.983  29.295  1.00  0.00     0.031 C 
ATOM     45  C   UNL A   1      37.873  34.191  34.699  1.00  0.00     0.029 A 
ATOM     46  C   UNL A   1      38.960  33.225  34.824  1.00  0.00     0.049 A 
ATOM     47  H   UNL A   1      39.600  31.850  33.395  1.00  0.00     0.167 HD
ATOM     48  C   UNL A   1      40.618  28.788  30.383  1.00  0.00     0.034 A 
ATOM     49  C   UNL A   1      39.743  33.064  35.908  1.00  0.00     0.034 A 
ATOM     50  C   UNL A   1      41.559  28.602  31.460  1.00  0.00     0.049 A 
ATOM     51  C   UNL A   1      40.821  32.012  35.874  1.00  0.00     0.074 A 
ATOM     52  C   UNL A   1      42.619  27.715  31.539  1.00  0.00     0.029 A 
ATOM     53  N   UNL A   1      41.554  29.318  32.650  1.00  0.00    -0.354 N 
ATOM     54  N   UNL A   1      41.107  31.154  34.922  1.00  0.00    -0.248 NA
ATOM     55  C   UNL A   1      41.687  31.915  37.055  1.00  0.00     0.031 C 
ATOM     56  C   UNL A   1      43.222  27.861  32.794  1.00  0.00     0.029 A 
ATOM     57  C   UNL A   1      42.579  28.883  33.476  1.00  0.00     0.049 A 
ATOM     58  H   UNL A   1      40.916  30.034  32.875  1.00  0.00     0.167 HD
ATOM     59  C   UNL A   1      42.207  30.434  35.381  1.00  0.00     0.074 A 
ATOM     60  C   UNL A   1      42.537  30.968  36.686  1.00  0.00     0.031 C 
ATOM     61  C   UNL A   1      42.885  29.424  34.778  1.00  0.00     0.034 A 
BRANCH  48  62
ATOM     62  C   UNL A   1      40.673  27.863  29.190  1.00  0.00     0.023 A 
ATOM     63  C   UNL A   1      41.613  28.038  28.159  1.00  0.00     0.031 A 
ATOM     64  C   UNL A   1      39.742  26.816  29.058  1.00  0.00     0.131 A 
ATOM     65  C   UNL A   1      41.543  27.245  27.004  1.00  0.00     0.055 A 
ATOM     66  C   UNL A   1      39.734  25.973  27.945  1.00  0.00     0.041 A 
ATOM     67  F   UNL A   1      38.808  26.610  30.000  1.00  0.00    -0.206 F 
ATOM     68  C   UNL A   1      40.627  26.196  26.900  1.00  0.00     0.022 A 
BRANCH  65  69
ATOM     69  S   UNL A   1      42.565  27.703  25.577  1.00  0.00     0.124 S 
ATOM     70  O   UNL A   1      42.459  26.507  24.745  1.00  0.00    -0.237 OA
ATOM     71  O   UNL A   1      41.889  28.893  25.074  1.00  0.00    -0.237 OA
ATOM     72  O   UNL A   1      43.885  27.934  26.160  1.00  0.00    -0.744 OA
ENDBRANCH  65  69
ENDBRANCH  48  62
BRANCH  49  73
ATOM     73  C   UNL A   1      39.546  33.916  37.114  1.00  0.00     0.023 A 
ATOM     74  C   UNL A   1      38.889  33.414  38.248  1.00  0.00     0.031 A 
ATOM     75  C   UNL A   1      39.984  35.252  37.140  1.00  0.00     0.131 A 
ATOM     76  C   UNL A   1      38.648  34.255  39.347  1.00  0.00     0.055 A 
ATOM     77  C   UNL A   1      39.783  36.070  38.253  1.00  0.00     0.041 A 
ATOM     78  F   UNL A   1      40.626  35.777  36.085  1.00  0.00    -0.206 F 
ATOM     79  C   UNL A   1      39.100  35.576  39.361  1.00  0.00     0.022 A 
BRANCH  76  80
ATOM     80  S   UNL A   1      37.667  33.613  40.730  1.00  0.00     0.124 S 
ATOM     81  O   UNL A   1      36.534  33.009  40.038  1.00  0.00    -0.237 OA
ATOM     82  O   UNL A   1      38.601  32.686  41.360  1.00  0.00    -0.237 OA
ATOM     83  O   UNL A   1      37.357  34.809  41.510  1.00  0.00    -0.744 OA
ENDBRANCH  76  80
ENDBRANCH  49  73
BRANCH  61  84
ATOM     84  C   UNL A   1      44.078  28.873  35.515  1.00  0.00     0.023 A 
ATOM     85  C   UNL A   1      43.956  27.804  36.418  1.00  0.00     0.031 A 
ATOM     86  C   UNL A   1      45.349  29.439  35.321  1.00  0.00     0.131 A 
ATOM     87  C   UNL A   1      45.080  27.367  37.136  1.00  0.00     0.055 A 
ATOM     88  C   UNL A   1      46.474  28.965  35.997  1.00  0.00     0.041 A 
ATOM     89  F   UNL A   1      45.519  30.462  34.469  1.00  0.00    -0.206 F 
ATOM     90  C   UNL A   1      46.340  27.931  36.921  1.00  0.00     0.022 A 
BRANCH  87  91
ATOM     91  S   UNL A   1      44.858  26.105  38.419  1.00  0.00     0.124 S 
ATOM     92  O   UNL A   1      44.212  26.866  39.484  1.00  0.00    -0.237 OA
ATOM     93  O   UNL A   1      44.022  25.117  37.744  1.00  0.00    -0.237 OA
ATOM     94  O   UNL A   1      46.221  25.666  38.710  1.00  0.00    -0.744 OA
ENDBRANCH  87  91
ENDBRANCH  61  84
ENDBRANCH  35  36
ENDBRANCH  27  30
ENDBRANCH  25  26
ENDBRANCH   1  25
TORSDOF 16
ENDMDL
MODEL 2
REMARK VINA RESULT:     -12.4      3.284      8.541
REMARK SMILES Cc1ccc(Br)cc1S(=O)(=O)N[C@H]1C=C[C@H](C(=O)NCCCNC(=O)c2ccc(-c3c4nc(c(-c5cc(S(=O)(=O)[O-])ccc5F)c5ccc([nH]5)c(-c5cc(S(=O)(=O)[O-])ccc5F)c5nc(c(-c6cc(S(=O)(=O)[O-])ccc6F)c6ccc3[nH]6)C=C5)C=C4)cc2)C1
REMARK SMILES IDX 21 1 20 2 19 3 17 4 18 5 16 7 13 8 14 9 89 10 15 11 12 12
REMARK SMILES IDX 9 14 10 15 11 16 8 17 1 18 2 19 3 20 4 21 7 22 5 23 6 24
REMARK SMILES IDX 22 25 23 26 24 27 25 29 26 30 27 31 88 32 28 33 87 34 29 35
REMARK SMILES IDX 30 36 31 37 81 38 32 39 86 40 80 41 82 42 33 43 85 44 79 45
REMARK SMILES IDX 78 46 34 48 66 49 46 50 65 51 47 52 50 53 64 54 83 55 48 56
REMARK SMILES IDX 49 57 63 59 84 60 51 61 35 62 36 63 44 64 37 65 43 66 45 67
REMARK SMILES IDX 42 68 38 69 39 70 40 71 41 72 67 73 68 74 76 75 69 76 75 77
REMARK SMILES IDX 77 78 74 79 70 80 71 81 72 82 73 83 52 84 53 85 61 86 54 87
REMARK SMILES IDX 60 88 62 89 59 90 55 91 56 92 57 93 58 94
REMARK H PARENT 19 6 12 13 23 28 82 47 50 58
REMARK Flexibility Score: inf
ROOT
ATOM      1  C   UNL A   1      32.945  29.333  24.929  1.00  0.00     0.042 C 
ENDROOT
BRANCH   1   2
ATOM      2  C   UNL A   1      31.428  29.430  25.018  1.00  0.00     0.117 C 
BRANCH   2   3
ATOM      3  N   UNL A   1      30.832  29.812  23.749  1.00  0.00    -0.356 N 
ATOM      4  C   UNL A   1      30.305  29.145  22.696  1.00  0.00     0.226 C 
ATOM      5  O   UNL A   1      30.021  29.843  21.713  1.00  0.00    -0.274 OA
ATOM      6  H   UNL A   1      30.805  30.788  23.626  1.00  0.00     0.163 HD
BRANCH   4   7
ATOM      7  C   UNL A   1      30.058  27.635  22.617  1.00  0.00     0.103 C 
ATOM      8  C   UNL A   1      30.705  26.194  24.472  1.00  0.00     0.093 C 
ATOM      9  C   UNL A   1      31.624  26.019  23.306  1.00  0.00    -0.011 C 
ATOM     10  C   UNL A   1      29.502  26.876  23.807  1.00  0.00     0.042 C 
ATOM     11  C   UNL A   1      31.297  26.848  22.306  1.00  0.00    -0.016 C 
BRANCH   8  12
ATOM     12  N   UNL A   1      30.307  24.915  25.026  1.00  0.00    -0.204 NA
ATOM     13  H   UNL A   1      29.313  24.981  25.245  1.00  0.00     0.142 HD
BRANCH  12  14
ATOM     14  S   UNL A   1      31.078  24.347  26.407  1.00  0.00     0.241 S 
ATOM     15  O   UNL A   1      30.133  23.477  27.078  1.00  0.00    -0.207 OA
ATOM     16  O   UNL A   1      31.658  25.489  27.069  1.00  0.00    -0.207 OA
BRANCH  14  17
ATOM     17  C   UNL A   1      32.423  23.338  25.805  1.00  0.00     0.086 A 
ATOM     18  C   UNL A   1      34.138  25.270  25.728  1.00  0.00     0.046 C 
ATOM     19  C   UNL A   1      33.691  23.857  25.481  1.00  0.00    -0.031 A 
ATOM     20  C   UNL A   1      34.637  22.987  24.905  1.00  0.00     0.006 A 
ATOM     21  C   UNL A   1      34.356  21.633  24.710  1.00  0.00     0.016 A 
ATOM     22  C   UNL A   1      32.151  21.969  25.630  1.00  0.00     0.037 A 
ATOM     23  C   UNL A   1      33.122  21.126  25.098  1.00  0.00     0.019 A 
ATOM     24  Br  UNL A   1      32.766  19.281  24.901  1.00  0.00    -0.051 Br
ENDBRANCH  14  17
ENDBRANCH  12  14
ENDBRANCH   8  12
ENDBRANCH   4   7
ENDBRANCH   2   3
ENDBRANCH   1   2
BRANCH   1  25
ATOM     25  C   UNL A   1      33.630  29.466  26.283  1.00  0.00     0.118 C 
BRANCH  25  26
ATOM     26  N   UNL A   1      33.554  30.825  26.805  1.00  0.00    -0.352 N 
ATOM     27  C   UNL A   1      34.316  31.445  27.766  1.00  0.00     0.251 C 
ATOM     28  H   UNL A   1      32.849  31.386  26.408  1.00  0.00     0.163 HD
ATOM     29  O   UNL A   1      33.940  32.517  28.230  1.00  0.00    -0.269 OA
BRANCH  27  30
ATOM     30  C   UNL A   1      35.568  30.819  28.244  1.00  0.00     0.039 A 
ATOM     31  C   UNL A   1      36.796  31.352  27.840  1.00  0.00     0.014 A 
ATOM     32  C   UNL A   1      35.534  29.691  29.067  1.00  0.00     0.014 A 
ATOM     33  C   UNL A   1      37.985  30.789  28.311  1.00  0.00     0.010 A 
ATOM     34  C   UNL A   1      36.712  29.192  29.609  1.00  0.00     0.010 A 
ATOM     35  C   UNL A   1      37.952  29.724  29.225  1.00  0.00    -0.014 A 
BRANCH  35  36
ATOM     36  C   UNL A   1      39.196  29.120  29.769  1.00  0.00     0.031 A 
ATOM     37  C   UNL A   1      39.851  29.732  30.981  1.00  0.00     0.074 A 
ATOM     38  C   UNL A   1      39.776  28.087  29.130  1.00  0.00     0.049 A 
ATOM     39  N   UNL A   1      41.004  29.452  31.532  1.00  0.00    -0.248 NA
ATOM     40  C   UNL A   1      39.130  30.839  31.627  1.00  0.00     0.031 C 
ATOM     41  C   UNL A   1      39.261  27.441  27.921  1.00  0.00     0.029 A 
ATOM     42  N   UNL A   1      40.935  27.405  29.401  1.00  0.00    -0.354 N 
ATOM     43  C   UNL A   1      41.162  30.373  32.564  1.00  0.00     0.074 A 
ATOM     44  C   UNL A   1      40.014  31.253  32.520  1.00  0.00     0.031 C 
ATOM     45  C   UNL A   1      40.087  26.442  27.569  1.00  0.00     0.029 A 
ATOM     46  C   UNL A   1      41.211  26.403  28.499  1.00  0.00     0.049 A 
ATOM     47  H   UNL A   1      41.516  27.612  30.169  1.00  0.00     0.167 HD
ATOM     48  C   UNL A   1      42.163  30.462  33.476  1.00  0.00     0.034 A 
ATOM     49  C   UNL A   1      42.258  25.557  28.426  1.00  0.00     0.034 A 
ATOM     50  C   UNL A   1      43.275  29.546  33.529  1.00  0.00     0.049 A 
ATOM     51  C   UNL A   1      43.342  25.654  29.467  1.00  0.00     0.074 A 
ATOM     52  C   UNL A   1      44.305  29.490  34.452  1.00  0.00     0.029 A 
ATOM     53  N   UNL A   1      43.502  28.520  32.621  1.00  0.00    -0.354 N 
ATOM     54  N   UNL A   1      43.457  26.502  30.464  1.00  0.00    -0.248 NA
ATOM     55  C   UNL A   1      44.430  24.672  29.381  1.00  0.00     0.031 C 
ATOM     56  C   UNL A   1      45.179  28.464  34.072  1.00  0.00     0.029 A 
ATOM     57  C   UNL A   1      44.663  27.838  32.949  1.00  0.00     0.049 A 
ATOM     58  H   UNL A   1      42.920  28.306  31.854  1.00  0.00     0.167 HD
ATOM     59  C   UNL A   1      44.618  26.136  31.139  1.00  0.00     0.074 A 
ATOM     60  C   UNL A   1      45.157  24.985  30.444  1.00  0.00     0.031 C 
ATOM     61  C   UNL A   1      45.187  26.697  32.236  1.00  0.00     0.034 A 
BRANCH  48  62
ATOM     62  C   UNL A   1      42.099  31.601  34.467  1.00  0.00     0.023 A 
ATOM     63  C   UNL A   1      41.245  31.564  35.584  1.00  0.00     0.031 A 
ATOM     64  C   UNL A   1      42.869  32.761  34.268  1.00  0.00     0.131 A 
ATOM     65  C   UNL A   1      41.113  32.695  36.403  1.00  0.00     0.055 A 
ATOM     66  C   UNL A   1      42.798  33.851  35.139  1.00  0.00     0.041 A 
ATOM     67  F   UNL A   1      43.689  32.864  33.211  1.00  0.00    -0.206 F 
ATOM     68  C   UNL A   1      41.902  33.829  36.204  1.00  0.00     0.022 A 
BRANCH  65  69
ATOM     69  S   UNL A   1      39.784  32.718  37.637  1.00  0.00     0.124 S 
ATOM     70  O   UNL A   1      38.934  31.624  37.172  1.00  0.00    -0.237 OA
ATOM     71  O   UNL A   1      40.505  32.481  38.883  1.00  0.00    -0.237 OA
ATOM     72  O   UNL A   1      39.205  34.052  37.495  1.00  0.00    -0.744 OA
ENDBRANCH  65  69
ENDBRANCH  48  62
BRANCH  49  73
ATOM     73  C   UNL A   1      42.335  24.545  27.336  1.00  0.00     0.023 A 
ATOM     74  C   UNL A   1      41.556  23.378  27.383  1.00  0.00     0.031 A 
ATOM     75  C   UNL A   1      43.210  24.713  26.248  1.00  0.00     0.131 A 
ATOM     76  C   UNL A   1      41.698  22.401  26.384  1.00  0.00     0.055 A 
ATOM     77  C   UNL A   1      43.313  23.759  25.233  1.00  0.00     0.041 A 
ATOM     78  F   UNL A   1      43.969  25.815  26.151  1.00  0.00    -0.206 F 
ATOM     79  C   UNL A   1      42.563  22.589  25.303  1.00  0.00     0.022 A 
BRANCH  76  80
ATOM     80  S   UNL A   1      40.784  20.845  26.559  1.00  0.00     0.124 S 
ATOM     81  O   UNL A   1      40.828  20.634  28.001  1.00  0.00    -0.237 OA
ATOM     82  O   UNL A   1      39.482  21.193  26.001  1.00  0.00    -0.237 OA
ATOM     83  O   UNL A   1      41.567  19.900  25.765  1.00  0.00    -0.744 OA
ENDBRANCH  76  80
ENDBRANCH  49  73
BRANCH  61  84
ATOM     84  C   UNL A   1      46.431  26.035  32.769  1.00  0.00     0.023 A 
ATOM     85  C   UNL A   1      46.364  24.963  33.675  1.00  0.00     0.031 A 
ATOM     86  C   UNL A   1      47.698  26.497  32.376  1.00  0.00     0.131 A 
ATOM     87  C   UNL A   1      47.547  24.422  34.201  1.00  0.00     0.055 A 
ATOM     88  C   UNL A   1      48.872  25.919  32.861  1.00  0.00     0.041 A 
ATOM     89  F   UNL A   1      47.816  27.519  31.513  1.00  0.00    -0.206 F 
ATOM     90  C   UNL A   1      48.800  24.883  33.790  1.00  0.00     0.022 A 
BRANCH  87  91
ATOM     91  S   UNL A   1      47.426  23.159  35.498  1.00  0.00     0.124 S 
ATOM     92  O   UNL A   1      48.212  23.753  36.574  1.00  0.00    -0.237 OA
ATOM     93  O   UNL A   1      45.986  23.085  35.727  1.00  0.00    -0.237 OA
ATOM     94  O   UNL A   1      48.017  21.974  34.880  1.00  0.00    -0.744 OA
ENDBRANCH  87  91
ENDBRANCH  61  84
ENDBRANCH  35  36
ENDBRANCH  27  30
ENDBRANCH  25  26
ENDBRANCH   1  25
TORSDOF 16
ENDMDL
MODEL 3
REMARK VINA RESULT:     -12.3      5.813      8.847
REMARK SMILES Cc1ccc(Br)cc1S(=O)(=O)N[C@H]1C=C[C@H](C(=O)NCCCNC(=O)c2ccc(-c3c4nc(c(-c5cc(S(=O)(=O)[O-])ccc5F)c5ccc([nH]5)c(-c5cc(S(=O)(=O)[O-])ccc5F)c5nc(c(-c6cc(S(=O)(=O)[O-])ccc6F)c6ccc3[nH]6)C=C5)C=C4)cc2)C1
REMARK SMILES IDX 21 1 20 2 19 3 17 4 18 5 16 7 13 8 14 9 89 10 15 11 12 12
REMARK SMILES IDX 9 14 10 15 11 16 8 17 1 18 2 19 3 20 4 21 7 22 5 23 6 24
REMARK SMILES IDX 22 25 23 26 24 27 25 29 26 30 27 31 88 32 28 33 87 34 29 35
REMARK SMILES IDX 30 36 31 37 81 38 32 39 86 40 80 41 82 42 33 43 85 44 79 45
REMARK SMILES IDX 78 46 34 48 66 49 46 50 65 51 47 52 50 53 64 54 83 55 48 56
REMARK SMILES IDX 49 57 63 59 84 60 51 61 35 62 36 63 44 64 37 65 43 66 45 67
REMARK SMILES IDX 42 68 38 69 39 70 40 71 41 72 67 73 68 74 76 75 69 76 75 77
REMARK SMILES IDX 77 78 74 79 70 80 71 81 72 82 73 83 52 84 53 85 61 86 54 87
REMARK SMILES IDX 60 88 62 89 59 90 55 91 56 92 57 93 58 94
REMARK H PARENT 19 6 12 13 23 28 82 47 50 58
REMARK Flexibility Score: inf
ROOT
ATOM      1  C   UNL A   1      35.505  21.978  25.822  1.00  0.00     0.042 C 
ENDROOT
BRANCH   1   2
ATOM      2  C   UNL A   1      35.254  20.950  24.728  1.00  0.00     0.117 C 
BRANCH   2   3
ATOM      3  N   UNL A   1      34.331  19.914  25.158  1.00  0.00    -0.356 N 
ATOM      4  C   UNL A   1      32.985  19.763  25.156  1.00  0.00     0.226 C 
ATOM      5  O   UNL A   1      32.561  18.768  25.757  1.00  0.00    -0.274 OA
ATOM      6  H   UNL A   1      34.794  19.135  25.544  1.00  0.00     0.163 HD
BRANCH   4   7
ATOM      7  C   UNL A   1      31.974  20.711  24.504  1.00  0.00     0.103 C 
ATOM      8  C   UNL A   1      32.743  22.732  23.380  1.00  0.00     0.093 C 
ATOM      9  C   UNL A   1      32.081  23.056  24.680  1.00  0.00    -0.011 C 
ATOM     10  C   UNL A   1      32.237  21.304  23.133  1.00  0.00     0.042 C 
ATOM     11  C   UNL A   1      31.703  21.941  25.320  1.00  0.00    -0.016 C 
BRANCH   8  12
ATOM     12  N   UNL A   1      32.285  23.611  22.323  1.00  0.00    -0.204 NA
ATOM     13  H   UNL A   1      32.249  23.056  21.467  1.00  0.00     0.142 HD
BRANCH  12  14
ATOM     14  S   UNL A   1      33.170  24.996  21.971  1.00  0.00     0.241 S 
ATOM     15  O   UNL A   1      33.232  25.091  20.526  1.00  0.00    -0.207 OA
ATOM     16  O   UNL A   1      34.363  24.953  22.779  1.00  0.00    -0.207 OA
BRANCH  14  17
ATOM     17  C   UNL A   1      32.169  26.350  22.568  1.00  0.00     0.086 A 
ATOM     18  C   UNL A   1      33.975  28.156  22.179  1.00  0.00     0.046 C 
ATOM     19  C   UNL A   1      32.643  27.670  22.677  1.00  0.00    -0.031 A 
ATOM     20  C   UNL A   1      31.801  28.632  23.270  1.00  0.00     0.006 A 
ATOM     21  C   UNL A   1      30.510  28.307  23.690  1.00  0.00     0.016 A 
ATOM     22  C   UNL A   1      30.859  26.030  22.971  1.00  0.00     0.037 A 
ATOM     23  C   UNL A   1      30.037  27.013  23.515  1.00  0.00     0.019 A 
ATOM     24  Br  UNL A   1      28.265  26.590  24.017  1.00  0.00    -0.051 Br
ENDBRANCH  14  17
ENDBRANCH  12  14
ENDBRANCH   8  12
ENDBRANCH   4   7
ENDBRANCH   2   3
ENDBRANCH   1   2
BRANCH   1  25
ATOM     25  C   UNL A   1      36.896  22.595  25.749  1.00  0.00     0.118 C 
BRANCH  25  26
ATOM     26  N   UNL A   1      37.945  21.620  26.019  1.00  0.00    -0.352 N 
ATOM     27  C   UNL A   1      39.259  21.811  26.372  1.00  0.00     0.251 C 
ATOM     28  H   UNL A   1      37.669  20.678  25.937  1.00  0.00     0.163 HD
ATOM     29  O   UNL A   1      40.037  20.863  26.322  1.00  0.00    -0.269 OA
BRANCH  27  30
ATOM     30  C   UNL A   1      39.731  23.148  26.793  1.00  0.00     0.039 A 
ATOM     31  C   UNL A   1      40.582  23.254  27.898  1.00  0.00     0.014 A 
ATOM     32  C   UNL A   1      39.315  24.298  26.119  1.00  0.00     0.014 A 
ATOM     33  C   UNL A   1      41.060  24.509  28.286  1.00  0.00     0.010 A 
ATOM     34  C   UNL A   1      39.865  25.531  26.447  1.00  0.00     0.010 A 
ATOM     35  C   UNL A   1      40.732  25.654  27.543  1.00  0.00    -0.014 A 
BRANCH  35  36
ATOM     36  C   UNL A   1      41.246  26.999  27.909  1.00  0.00     0.031 A 
ATOM     37  C   UNL A   1      42.672  27.363  27.585  1.00  0.00     0.074 A 
ATOM     38  C   UNL A   1      40.466  27.851  28.602  1.00  0.00     0.049 A 
ATOM     39  N   UNL A   1      43.359  28.420  27.934  1.00  0.00    -0.248 NA
ATOM     40  C   UNL A   1      43.438  26.381  26.803  1.00  0.00     0.031 C 
ATOM     41  C   UNL A   1      39.085  27.591  29.015  1.00  0.00     0.029 A 
ATOM     42  N   UNL A   1      40.728  29.105  29.093  1.00  0.00    -0.354 N 
ATOM     43  C   UNL A   1      44.647  28.211  27.447  1.00  0.00     0.074 A 
ATOM     44  C   UNL A   1      44.654  26.901  26.832  1.00  0.00     0.031 C 
ATOM     45  C   UNL A   1      38.614  28.662  29.674  1.00  0.00     0.029 A 
ATOM     46  C   UNL A   1      39.669  29.665  29.771  1.00  0.00     0.049 A 
ATOM     47  H   UNL A   1      41.591  29.562  28.972  1.00  0.00     0.167 HD
ATOM     48  C   UNL A   1      45.716  29.044  27.492  1.00  0.00     0.034 A 
ATOM     49  C   UNL A   1      39.567  30.849  30.406  1.00  0.00     0.034 A 
ATOM     50  C   UNL A   1      45.674  30.364  28.070  1.00  0.00     0.049 A 
ATOM     51  C   UNL A   1      40.758  31.771  30.416  1.00  0.00     0.074 A 
ATOM     52  C   UNL A   1      46.670  31.325  28.105  1.00  0.00     0.029 A 
ATOM     53  N   UNL A   1      44.573  30.912  28.715  1.00  0.00    -0.354 N 
ATOM     54  N   UNL A   1      41.956  31.579  29.914  1.00  0.00    -0.248 NA
ATOM     55  C   UNL A   1      40.579  33.074  31.068  1.00  0.00     0.031 C 
ATOM     56  C   UNL A   1      46.187  32.432  28.814  1.00  0.00     0.029 A 
ATOM     57  C   UNL A   1      44.869  32.188  29.167  1.00  0.00     0.049 A 
ATOM     58  H   UNL A   1      43.705  30.460  28.834  1.00  0.00     0.167 HD
ATOM     59  C   UNL A   1      42.665  32.750  30.166  1.00  0.00     0.074 A 
ATOM     60  C   UNL A   1      41.756  33.645  30.852  1.00  0.00     0.031 C 
ATOM     61  C   UNL A   1      43.949  33.061  29.857  1.00  0.00     0.034 A 
BRANCH  48  62
ATOM     62  C   UNL A   1      47.018  28.534  26.916  1.00  0.00     0.023 A 
ATOM     63  C   UNL A   1      47.218  28.415  25.529  1.00  0.00     0.031 A 
ATOM     64  C   UNL A   1      48.056  28.117  27.767  1.00  0.00     0.131 A 
ATOM     65  C   UNL A   1      48.384  27.809  25.039  1.00  0.00     0.055 A 
ATOM     66  C   UNL A   1      49.253  27.595  27.269  1.00  0.00     0.041 A 
ATOM     67  F   UNL A   1      47.918  28.187  29.101  1.00  0.00    -0.206 F 
ATOM     68  C   UNL A   1      49.415  27.422  25.897  1.00  0.00     0.022 A 
BRANCH  65  69
ATOM     69  S   UNL A   1      48.467  27.396  23.275  1.00  0.00     0.124 S 
ATOM     70  O   UNL A   1      48.328  25.942  23.308  1.00  0.00    -0.237 OA
ATOM     71  O   UNL A   1      47.336  28.132  22.724  1.00  0.00    -0.237 OA
ATOM     72  O   UNL A   1      49.785  27.880  22.870  1.00  0.00    -0.744 OA
ENDBRANCH  65  69
ENDBRANCH  48  62
BRANCH  49  73
ATOM     73  C   UNL A   1      38.297  31.236  31.081  1.00  0.00     0.023 A 
ATOM     74  C   UNL A   1      37.259  31.851  30.361  1.00  0.00     0.031 A 
ATOM     75  C   UNL A   1      38.112  31.027  32.459  1.00  0.00     0.131 A 
ATOM     76  C   UNL A   1      36.100  32.275  31.030  1.00  0.00     0.055 A 
ATOM     77  C   UNL A   1      36.938  31.409  33.110  1.00  0.00     0.041 A 
ATOM     78  F   UNL A   1      39.069  30.435  33.190  1.00  0.00    -0.206 F 
ATOM     79  C   UNL A   1      35.927  32.048  32.397  1.00  0.00     0.022 A 
BRANCH  76  80
ATOM     80  S   UNL A   1      34.849  33.196  30.094  1.00  0.00     0.124 S 
ATOM     81  O   UNL A   1      34.301  32.158  29.228  1.00  0.00    -0.237 OA
ATOM     82  O   UNL A   1      33.970  33.676  31.155  1.00  0.00    -0.237 OA
ATOM     83  O   UNL A   1      35.626  34.230  29.415  1.00  0.00    -0.744 OA
ENDBRANCH  76  80
ENDBRANCH  49  73
BRANCH  61  84
ATOM     84  C   UNL A   1      44.420  34.445  30.223  1.00  0.00     0.023 A 
ATOM     85  C   UNL A   1      44.239  35.536  29.356  1.00  0.00     0.031 A 
ATOM     86  C   UNL A   1      45.071  34.667  31.447  1.00  0.00     0.131 A 
ATOM     87  C   UNL A   1      44.754  36.794  29.704  1.00  0.00     0.055 A 
ATOM     88  C   UNL A   1      45.534  35.932  31.812  1.00  0.00     0.041 A 
ATOM     89  F   UNL A   1      45.268  33.658  32.310  1.00  0.00    -0.206 F 
ATOM     90  C   UNL A   1      45.388  37.002  30.932  1.00  0.00     0.022 A 
BRANCH  87  91
ATOM     91  S   UNL A   1      44.660  38.140  28.492  1.00  0.00     0.124 S 
ATOM     92  O   UNL A   1      44.662  37.410  27.228  1.00  0.00    -0.237 OA
ATOM     93  O   UNL A   1      43.406  38.794  28.849  1.00  0.00    -0.237 OA
ATOM     94  O   UNL A   1      45.864  38.925  28.755  1.00  0.00    -0.744 OA
ENDBRANCH  87  91
ENDBRANCH  61  84
ENDBRANCH  35  36
ENDBRANCH  27  30
ENDBRANCH  25  26
ENDBRANCH   1  25
TORSDOF 16
ENDMDL
