MODEL 1
REMARK VINA RESULT:     -11.6      0.000      0.000
REMARK SMILES CCOc1ccc(NC(=O)CC2(CC(=O)NCCCNC(=O)c3ccc(-c4c5nc(c(-c6cc(S(=O)(=O)[O-])ccc6F)c6ccc([nH]6)c(-c6cc(S(=O)(=O)[O-])ccc6F)c6nc(c(-c7cc(S(=O)(=O)[O-])ccc7F)c7ccc4[nH]7)C=C6)C=C5)cc3)CCCCC2)cc1
REMARK SMILES IDX 14 1 15 2 16 3 13 5 12 6 86 7 90 8 87 9 89 10 88 11 11 12
REMARK SMILES IDX 9 13 8 14 10 16 7 17 4 18 5 19 92 20 6 21 91 22 3 23 2 24
REMARK SMILES IDX 1 25 17 26 18 27 19 28 20 29 21 30 22 32 23 33 24 34 85 35
REMARK SMILES IDX 25 36 84 37 26 38 27 39 28 40 78 41 29 42 83 43 77 44 79 45
REMARK SMILES IDX 30 46 82 47 76 48 75 49 31 51 63 52 43 53 62 54 44 55 47 56
REMARK SMILES IDX 61 57 80 58 45 59 46 60 60 62 81 63 48 64 32 65 33 66 41 67
REMARK SMILES IDX 34 68 40 69 42 70 39 71 35 72 36 73 37 74 38 75 64 76 65 77
REMARK SMILES IDX 73 78 66 79 72 80 74 81 71 82 67 83 68 84 69 85 70 86 49 87
REMARK SMILES IDX 50 88 58 89 51 90 57 91 59 92 56 93 52 94 53 95 54 96 55 97
REMARK H PARENT 16 4 8 15 20 31 79 50 47 61
REMARK Flexibility Score: inf
ROOT
ATOM      1  C   UNL A   1      31.939  28.459  27.560  1.00  0.00     0.220 C 
ATOM      2  O   UNL A   1      31.202  27.806  28.307  1.00  0.00    -0.275 OA
ATOM      3  N   UNL A   1      31.734  29.804  27.530  1.00  0.00    -0.356 N 
ATOM      4  H   UNL A   1      30.917  30.090  27.998  1.00  0.00     0.163 HD
ENDROOT
BRANCH   1   5
ATOM      5  C   UNL A   1      33.011  27.746  26.736  1.00  0.00     0.107 C 
BRANCH   5   6
ATOM      6  C   UNL A   1      32.492  26.809  25.579  1.00  0.00    -0.012 C 
ATOM      7  C   UNL A   1      33.636  26.567  24.548  1.00  0.00     0.008 C 
ATOM      8  C   UNL A   1      31.342  27.511  24.837  1.00  0.00     0.008 C 
ATOM      9  C   UNL A   1      34.035  27.808  23.743  1.00  0.00     0.001 C 
ATOM     10  C   UNL A   1      31.733  28.763  24.057  1.00  0.00     0.001 C 
ATOM     11  C   UNL A   1      32.837  28.456  23.059  1.00  0.00     0.000 C 
BRANCH   6  12
ATOM     12  C   UNL A   1      32.053  25.429  26.193  1.00  0.00     0.108 C 
BRANCH  12  13
ATOM     13  C   UNL A   1      30.657  24.869  25.888  1.00  0.00     0.224 C 
ATOM     14  N   UNL A   1      30.336  24.199  24.737  1.00  0.00    -0.326 N 
ATOM     15  H   UNL A   1      29.380  23.985  24.633  1.00  0.00     0.169 HD
ATOM     16  O   UNL A   1      29.764  24.978  26.739  1.00  0.00    -0.275 OA
BRANCH  14  17
ATOM     17  C   UNL A   1      31.156  23.770  23.685  1.00  0.00     0.041 A 
ATOM     18  C   UNL A   1      33.502  23.232  22.365  1.00  0.00     0.119 A 
ATOM     19  C   UNL A   1      32.725  24.315  21.958  1.00  0.00     0.048 A 
ATOM     20  C   UNL A   1      32.974  22.267  23.209  1.00  0.00     0.048 A 
ATOM     21  C   UNL A   1      31.538  24.590  22.631  1.00  0.00     0.030 A 
ATOM     22  C   UNL A   1      31.763  22.520  23.846  1.00  0.00     0.030 A 
BRANCH  18  23
ATOM     23  O   UNL A   1      34.870  23.341  22.342  1.00  0.00    -0.494 OA
BRANCH  23  24
ATOM     24  C   UNL A   1      35.472  23.447  23.618  1.00  0.00     0.226 C 
ATOM     25  C   UNL A   1      36.762  22.664  23.676  1.00  0.00     0.049 C 
ENDBRANCH  23  24
ENDBRANCH  18  23
ENDBRANCH  14  17
ENDBRANCH  12  13
ENDBRANCH   6  12
ENDBRANCH   5   6
ENDBRANCH   1   5
BRANCH   3  26
ATOM     26  C   UNL A   1      32.484  30.906  26.942  1.00  0.00     0.117 C 
BRANCH  26  27
ATOM     27  C   UNL A   1      31.728  32.243  26.929  1.00  0.00     0.042 C 
BRANCH  27  28
ATOM     28  C   UNL A   1      32.589  33.519  26.868  1.00  0.00     0.118 C 
BRANCH  28  29
ATOM     29  N   UNL A   1      32.544  34.303  28.093  1.00  0.00    -0.352 N 
ATOM     30  C   UNL A   1      33.363  34.405  29.196  1.00  0.00     0.251 C 
ATOM     31  H   UNL A   1      31.755  34.890  28.144  1.00  0.00     0.163 HD
ATOM     32  O   UNL A   1      32.953  35.122  30.113  1.00  0.00    -0.269 OA
BRANCH  30  33
ATOM     33  C   UNL A   1      34.657  33.675  29.389  1.00  0.00     0.039 A 
ATOM     34  C   UNL A   1      34.605  32.458  30.097  1.00  0.00     0.014 A 
ATOM     35  C   UNL A   1      35.910  34.123  28.961  1.00  0.00     0.014 A 
ATOM     36  C   UNL A   1      35.760  31.690  30.339  1.00  0.00     0.010 A 
ATOM     37  C   UNL A   1      37.065  33.327  29.161  1.00  0.00     0.010 A 
ATOM     38  C   UNL A   1      37.012  32.109  29.872  1.00  0.00    -0.014 A 
BRANCH  38  39
ATOM     39  C   UNL A   1      38.260  31.393  30.314  1.00  0.00     0.031 A 
ATOM     40  C   UNL A   1      38.829  31.726  31.673  1.00  0.00     0.074 A 
ATOM     41  C   UNL A   1      38.861  30.419  29.592  1.00  0.00     0.049 A 
ATOM     42  N   UNL A   1      39.848  31.197  32.305  1.00  0.00    -0.248 NA
ATOM     43  C   UNL A   1      38.159  32.804  32.414  1.00  0.00     0.031 C 
ATOM     44  C   UNL A   1      38.439  29.959  28.272  1.00  0.00     0.029 A 
ATOM     45  N   UNL A   1      39.961  29.630  29.868  1.00  0.00    -0.354 N 
ATOM     46  C   UNL A   1      39.913  31.853  33.529  1.00  0.00     0.074 A 
ATOM     47  C   UNL A   1      38.904  32.889  33.503  1.00  0.00     0.031 C 
ATOM     48  C   UNL A   1      39.258  28.976  27.853  1.00  0.00     0.029 A 
ATOM     49  C   UNL A   1      40.279  28.728  28.871  1.00  0.00     0.049 A 
ATOM     50  H   UNL A   1      40.475  29.706  30.704  1.00  0.00     0.167 HD
ATOM     51  C   UNL A   1      40.695  31.594  34.606  1.00  0.00     0.034 A 
ATOM     52  C   UNL A   1      41.264  27.804  28.786  1.00  0.00     0.034 A 
ATOM     53  C   UNL A   1      41.725  30.590  34.644  1.00  0.00     0.049 A 
ATOM     54  C   UNL A   1      42.211  27.620  29.957  1.00  0.00     0.074 A 
ATOM     55  C   UNL A   1      42.591  30.281  35.680  1.00  0.00     0.029 A 
ATOM     56  N   UNL A   1      42.037  29.731  33.600  1.00  0.00    -0.354 N 
ATOM     57  N   UNL A   1      42.217  28.222  31.125  1.00  0.00    -0.248 NA
ATOM     58  C   UNL A   1      43.264  26.603  29.809  1.00  0.00     0.031 C 
ATOM     59  C   UNL A   1      43.465  29.281  35.242  1.00  0.00     0.029 A 
ATOM     60  C   UNL A   1      43.092  28.906  33.963  1.00  0.00     0.049 A 
ATOM     61  H   UNL A   1      41.577  29.710  32.731  1.00  0.00     0.167 HD
ATOM     62  C   UNL A   1      43.229  27.607  31.864  1.00  0.00     0.074 A 
ATOM     63  C   UNL A   1      43.797  26.581  31.021  1.00  0.00     0.031 C 
ATOM     64  C   UNL A   1      43.645  27.866  33.131  1.00  0.00     0.034 A 
BRANCH  51  65
ATOM     65  C   UNL A   1      40.451  32.438  35.833  1.00  0.00     0.023 A 
ATOM     66  C   UNL A   1      39.416  32.121  36.731  1.00  0.00     0.031 A 
ATOM     67  C   UNL A   1      41.213  33.591  36.081  1.00  0.00     0.131 A 
ATOM     68  C   UNL A   1      39.114  32.994  37.785  1.00  0.00     0.055 A 
ATOM     69  C   UNL A   1      40.965  34.408  37.186  1.00  0.00     0.041 A 
ATOM     70  F   UNL A   1      42.197  33.954  35.244  1.00  0.00    -0.206 F 
ATOM     71  C   UNL A   1      39.900  34.120  38.036  1.00  0.00     0.022 A 
BRANCH  68  72
ATOM     72  S   UNL A   1      37.587  32.720  38.724  1.00  0.00     0.124 S 
ATOM     73  O   UNL A   1      37.795  33.587  39.881  1.00  0.00    -0.237 OA
ATOM     74  O   UNL A   1      36.556  33.151  37.782  1.00  0.00    -0.237 OA
ATOM     75  O   UNL A   1      37.612  31.290  39.009  1.00  0.00    -0.744 OA
ENDBRANCH  68  72
ENDBRANCH  51  65
BRANCH  52  76
ATOM     76  C   UNL A   1      41.456  26.957  27.561  1.00  0.00     0.023 A 
ATOM     77  C   UNL A   1      41.088  25.598  27.549  1.00  0.00     0.031 A 
ATOM     78  C   UNL A   1      42.153  27.450  26.444  1.00  0.00     0.131 A 
ATOM     79  C   UNL A   1      41.500  24.765  26.494  1.00  0.00     0.055 A 
ATOM     80  C   UNL A   1      42.500  26.631  25.366  1.00  0.00     0.041 A 
ATOM     81  F   UNL A   1      42.539  28.736  26.397  1.00  0.00    -0.206 F 
ATOM     82  C   UNL A   1      42.195  25.275  25.397  1.00  0.00     0.022 A 
BRANCH  79  83
ATOM     83  S   UNL A   1      41.254  22.970  26.651  1.00  0.00     0.124 S 
ATOM     84  O   UNL A   1      42.106  22.463  25.579  1.00  0.00    -0.237 OA
ATOM     85  O   UNL A   1      41.717  22.720  28.012  1.00  0.00    -0.237 OA
ATOM     86  O   UNL A   1      39.819  22.803  26.441  1.00  0.00    -0.744 OA
ENDBRANCH  79  83
ENDBRANCH  52  76
BRANCH  64  87
ATOM     87  C   UNL A   1      44.712  26.964  33.715  1.00  0.00     0.023 A 
ATOM     88  C   UNL A   1      44.397  25.824  34.476  1.00  0.00     0.031 A 
ATOM     89  C   UNL A   1      46.073  27.274  33.532  1.00  0.00     0.131 A 
ATOM     90  C   UNL A   1      45.420  25.085  35.091  1.00  0.00     0.055 A 
ATOM     91  C   UNL A   1      47.089  26.490  34.082  1.00  0.00     0.041 A 
ATOM     92  F   UNL A   1      46.440  28.349  32.816  1.00  0.00    -0.206 F 
ATOM     93  C   UNL A   1      46.765  25.401  34.884  1.00  0.00     0.022 A 
BRANCH  90  94
ATOM     94  S   UNL A   1      44.967  23.786  36.273  1.00  0.00     0.124 S 
ATOM     95  O   UNL A   1      46.272  23.314  36.722  1.00  0.00    -0.237 OA
ATOM     96  O   UNL A   1      44.183  24.524  37.259  1.00  0.00    -0.237 OA
ATOM     97  O   UNL A   1      44.206  22.835  35.464  1.00  0.00    -0.744 OA
ENDBRANCH  90  94
ENDBRANCH  64  87
ENDBRANCH  38  39
ENDBRANCH  30  33
ENDBRANCH  28  29
ENDBRANCH  27  28
ENDBRANCH  26  27
ENDBRANCH   3  26
TORSDOF 19
ENDMDL
MODEL 2
REMARK VINA RESULT:     -11.6      4.885     10.273
REMARK SMILES CCOc1ccc(NC(=O)CC2(CC(=O)NCCCNC(=O)c3ccc(-c4c5nc(c(-c6cc(S(=O)(=O)[O-])ccc6F)c6ccc([nH]6)c(-c6cc(S(=O)(=O)[O-])ccc6F)c6nc(c(-c7cc(S(=O)(=O)[O-])ccc7F)c7ccc4[nH]7)C=C6)C=C5)cc3)CCCCC2)cc1
REMARK SMILES IDX 14 1 15 2 16 3 13 5 12 6 86 7 90 8 87 9 89 10 88 11 11 12
REMARK SMILES IDX 9 13 8 14 10 16 7 17 4 18 5 19 92 20 6 21 91 22 3 23 2 24
REMARK SMILES IDX 1 25 17 26 18 27 19 28 20 29 21 30 22 32 23 33 24 34 85 35
REMARK SMILES IDX 25 36 84 37 26 38 27 39 28 40 78 41 29 42 83 43 77 44 79 45
REMARK SMILES IDX 30 46 82 47 76 48 75 49 31 51 63 52 43 53 62 54 44 55 47 56
REMARK SMILES IDX 61 57 80 58 45 59 46 60 60 62 81 63 48 64 32 65 33 66 41 67
REMARK SMILES IDX 34 68 40 69 42 70 39 71 35 72 36 73 37 74 38 75 64 76 65 77
REMARK SMILES IDX 73 78 66 79 72 80 74 81 71 82 67 83 68 84 69 85 70 86 49 87
REMARK SMILES IDX 50 88 58 89 51 90 57 91 59 92 56 93 52 94 53 95 54 96 55 97
REMARK H PARENT 16 4 8 15 20 31 79 50 47 61
REMARK Flexibility Score: inf
ROOT
ATOM      1  C   UNL A   1      32.785  20.674  25.005  1.00  0.00     0.220 C 
ATOM      2  O   UNL A   1      31.690  20.355  25.479  1.00  0.00    -0.275 OA
ATOM      3  N   UNL A   1      33.816  19.813  25.226  1.00  0.00    -0.356 N 
ATOM      4  H   UNL A   1      33.604  19.100  25.871  1.00  0.00     0.163 HD
ENDROOT
BRANCH   1   5
ATOM      5  C   UNL A   1      32.924  21.976  24.217  1.00  0.00     0.107 C 
BRANCH   5   6
ATOM      6  C   UNL A   1      32.597  23.303  25.001  1.00  0.00    -0.012 C 
ATOM      7  C   UNL A   1      33.222  24.521  24.256  1.00  0.00     0.008 C 
ATOM      8  C   UNL A   1      33.239  23.238  26.397  1.00  0.00     0.008 C 
ATOM      9  C   UNL A   1      34.754  24.556  24.275  1.00  0.00     0.001 C 
ATOM     10  C   UNL A   1      34.766  23.245  26.417  1.00  0.00     0.001 C 
ATOM     11  C   UNL A   1      35.310  24.463  25.691  1.00  0.00     0.000 C 
BRANCH   6  12
ATOM     12  C   UNL A   1      31.036  23.489  25.071  1.00  0.00     0.108 C 
BRANCH  12  13
ATOM     13  C   UNL A   1      30.417  24.314  26.207  1.00  0.00     0.224 C 
ATOM     14  N   UNL A   1      30.291  25.678  26.182  1.00  0.00    -0.326 N 
ATOM     15  H   UNL A   1      29.967  26.082  27.020  1.00  0.00     0.169 HD
ATOM     16  O   UNL A   1      29.955  23.728  27.195  1.00  0.00    -0.275 OA
BRANCH  14  17
ATOM     17  C   UNL A   1      30.551  26.588  25.149  1.00  0.00     0.041 A 
ATOM     18  C   UNL A   1      30.400  28.954  23.765  1.00  0.00     0.119 A 
ATOM     19  C   UNL A   1      29.751  27.829  23.262  1.00  0.00     0.048 A 
ATOM     20  C   UNL A   1      31.348  28.828  24.770  1.00  0.00     0.048 A 
ATOM     21  C   UNL A   1      29.824  26.631  23.966  1.00  0.00     0.030 A 
ATOM     22  C   UNL A   1      31.455  27.615  25.444  1.00  0.00     0.030 A 
BRANCH  18  23
ATOM     23  O   UNL A   1      29.808  30.186  23.636  1.00  0.00    -0.494 OA
BRANCH  23  24
ATOM     24  C   UNL A   1      28.585  30.176  22.924  1.00  0.00     0.226 C 
ATOM     25  C   UNL A   1      27.538  31.002  23.633  1.00  0.00     0.049 C 
ENDBRANCH  23  24
ENDBRANCH  18  23
ENDBRANCH  14  17
ENDBRANCH  12  13
ENDBRANCH   6  12
ENDBRANCH   5   6
ENDBRANCH   1   5
BRANCH   3  26
ATOM     26  C   UNL A   1      35.171  19.736  24.697  1.00  0.00     0.117 C 
BRANCH  26  27
ATOM     27  C   UNL A   1      36.167  20.682  25.386  1.00  0.00     0.042 C 
BRANCH  27  28
ATOM     28  C   UNL A   1      37.527  20.874  24.688  1.00  0.00     0.118 C 
BRANCH  28  29
ATOM     29  N   UNL A   1      38.555  19.962  25.170  1.00  0.00    -0.352 N 
ATOM     30  C   UNL A   1      39.684  20.115  25.946  1.00  0.00     0.251 C 
ATOM     31  H   UNL A   1      38.411  19.033  24.878  1.00  0.00     0.163 HD
ATOM     32  O   UNL A   1      40.391  19.113  26.078  1.00  0.00    -0.269 OA
BRANCH  30  33
ATOM     33  C   UNL A   1      40.141  21.396  26.574  1.00  0.00     0.039 A 
ATOM     34  C   UNL A   1      39.568  22.587  26.085  1.00  0.00     0.014 A 
ATOM     35  C   UNL A   1      41.114  21.504  27.571  1.00  0.00     0.014 A 
ATOM     36  C   UNL A   1      39.926  23.848  26.601  1.00  0.00     0.010 A 
ATOM     37  C   UNL A   1      41.438  22.769  28.124  1.00  0.00     0.010 A 
ATOM     38  C   UNL A   1      40.866  23.962  27.633  1.00  0.00    -0.014 A 
BRANCH  38  39
ATOM     39  C   UNL A   1      41.391  25.315  28.028  1.00  0.00     0.031 A 
ATOM     40  C   UNL A   1      42.793  25.687  27.606  1.00  0.00     0.074 A 
ATOM     41  C   UNL A   1      40.654  26.244  28.682  1.00  0.00     0.049 A 
ATOM     42  N   UNL A   1      43.442  26.814  27.762  1.00  0.00    -0.248 NA
ATOM     43  C   UNL A   1      43.565  24.641  26.919  1.00  0.00     0.031 C 
ATOM     44  C   UNL A   1      39.283  26.064  29.148  1.00  0.00     0.029 A 
ATOM     45  N   UNL A   1      40.955  27.537  29.065  1.00  0.00    -0.354 N 
ATOM     46  C   UNL A   1      44.680  26.622  27.160  1.00  0.00     0.074 A 
ATOM     47  C   UNL A   1      44.729  25.240  26.736  1.00  0.00     0.031 C 
ATOM     48  C   UNL A   1      38.859  27.192  29.749  1.00  0.00     0.029 A 
ATOM     49  C   UNL A   1      39.928  28.188  29.721  1.00  0.00     0.049 A 
ATOM     50  H   UNL A   1      41.827  27.957  28.887  1.00  0.00     0.167 HD
ATOM     51  C   UNL A   1      45.673  27.516  26.923  1.00  0.00     0.034 A 
ATOM     52  C   UNL A   1      39.849  29.440  30.231  1.00  0.00     0.034 A 
ATOM     53  C   UNL A   1      45.658  28.886  27.361  1.00  0.00     0.049 A 
ATOM     54  C   UNL A   1      41.025  30.384  30.066  1.00  0.00     0.074 A 
ATOM     55  C   UNL A   1      46.635  29.854  27.197  1.00  0.00     0.029 A 
ATOM     56  N   UNL A   1      44.619  29.488  28.056  1.00  0.00    -0.354 N 
ATOM     57  N   UNL A   1      42.167  30.190  29.446  1.00  0.00    -0.248 NA
ATOM     58  C   UNL A   1      40.884  31.731  30.641  1.00  0.00     0.031 C 
ATOM     59  C   UNL A   1      46.214  31.020  27.845  1.00  0.00     0.029 A 
ATOM     60  C   UNL A   1      44.939  30.807  28.341  1.00  0.00     0.049 A 
ATOM     61  H   UNL A   1      43.778  29.044  28.308  1.00  0.00     0.167 HD
ATOM     62  C   UNL A   1      42.842  31.410  29.503  1.00  0.00     0.074 A 
ATOM     63  C   UNL A   1      41.977  32.333  30.200  1.00  0.00     0.031 C 
ATOM     64  C   UNL A   1      44.067  31.737  29.017  1.00  0.00     0.034 A 
BRANCH  51  65
ATOM     65  C   UNL A   1      46.865  27.008  26.150  1.00  0.00     0.023 A 
ATOM     66  C   UNL A   1      47.922  26.351  26.806  1.00  0.00     0.031 A 
ATOM     67  C   UNL A   1      46.978  27.226  24.768  1.00  0.00     0.131 A 
ATOM     68  C   UNL A   1      49.082  26.013  26.097  1.00  0.00     0.055 A 
ATOM     69  C   UNL A   1      48.099  26.804  24.050  1.00  0.00     0.041 A 
ATOM     70  F   UNL A   1      46.011  27.869  24.096  1.00  0.00    -0.206 F 
ATOM     71  C   UNL A   1      49.166  26.209  24.717  1.00  0.00     0.022 A 
BRANCH  68  72
ATOM     72  S   UNL A   1      50.536  25.462  27.030  1.00  0.00     0.124 S 
ATOM     73  O   UNL A   1      51.481  25.173  25.955  1.00  0.00    -0.237 OA
ATOM     74  O   UNL A   1      50.844  26.630  27.853  1.00  0.00    -0.237 OA
ATOM     75  O   UNL A   1      50.052  24.295  27.759  1.00  0.00    -0.744 OA
ENDBRANCH  68  72
ENDBRANCH  51  65
BRANCH  52  76
ATOM     76  C   UNL A   1      38.631  29.923  30.965  1.00  0.00     0.023 A 
ATOM     77  C   UNL A   1      37.594  30.599  30.293  1.00  0.00     0.031 A 
ATOM     78  C   UNL A   1      38.560  29.858  32.367  1.00  0.00     0.131 A 
ATOM     79  C   UNL A   1      36.592  31.259  31.024  1.00  0.00     0.055 A 
ATOM     80  C   UNL A   1      37.523  30.459  33.086  1.00  0.00     0.041 A 
ATOM     81  F   UNL A   1      39.521  29.233  33.068  1.00  0.00    -0.206 F 
ATOM     82  C   UNL A   1      36.544  31.185  32.417  1.00  0.00     0.022 A 
BRANCH  79  83
ATOM     83  S   UNL A   1      35.441  32.352  30.139  1.00  0.00     0.124 S 
ATOM     84  O   UNL A   1      34.407  32.568  31.148  1.00  0.00    -0.237 OA
ATOM     85  O   UNL A   1      36.289  33.500  29.834  1.00  0.00    -0.237 OA
ATOM     86  O   UNL A   1      35.032  31.555  28.986  1.00  0.00    -0.744 OA
ENDBRANCH  79  83
ENDBRANCH  52  76
BRANCH  64  87
ATOM     87  C   UNL A   1      44.509  33.180  29.143  1.00  0.00     0.023 A 
ATOM     88  C   UNL A   1      45.167  33.666  30.286  1.00  0.00     0.031 A 
ATOM     89  C   UNL A   1      44.233  34.094  28.108  1.00  0.00     0.131 A 
ATOM     90  C   UNL A   1      45.454  35.036  30.402  1.00  0.00     0.055 A 
ATOM     91  C   UNL A   1      44.590  35.440  28.196  1.00  0.00     0.041 A 
ATOM     92  F   UNL A   1      43.606  33.692  26.990  1.00  0.00    -0.206 F 
ATOM     93  C   UNL A   1      45.186  35.922  29.357  1.00  0.00     0.022 A 
BRANCH  90  94
ATOM     94  S   UNL A   1      46.061  35.667  31.991  1.00  0.00     0.124 S 
ATOM     95  O   UNL A   1      47.042  34.655  32.367  1.00  0.00    -0.237 OA
ATOM     96  O   UNL A   1      46.602  36.971  31.620  1.00  0.00    -0.237 OA
ATOM     97  O   UNL A   1      44.861  35.709  32.825  1.00  0.00    -0.744 OA
ENDBRANCH  90  94
ENDBRANCH  64  87
ENDBRANCH  38  39
ENDBRANCH  30  33
ENDBRANCH  28  29
ENDBRANCH  27  28
ENDBRANCH  26  27
ENDBRANCH   3  26
TORSDOF 19
ENDMDL
MODEL 3
REMARK VINA RESULT:     -11.4      4.929      9.961
REMARK SMILES CCOc1ccc(NC(=O)CC2(CC(=O)NCCCNC(=O)c3ccc(-c4c5nc(c(-c6cc(S(=O)(=O)[O-])ccc6F)c6ccc([nH]6)c(-c6cc(S(=O)(=O)[O-])ccc6F)c6nc(c(-c7cc(S(=O)(=O)[O-])ccc7F)c7ccc4[nH]7)C=C6)C=C5)cc3)CCCCC2)cc1
REMARK SMILES IDX 14 1 15 2 16 3 13 5 12 6 86 7 90 8 87 9 89 10 88 11 11 12
REMARK SMILES IDX 9 13 8 14 10 16 7 17 4 18 5 19 92 20 6 21 91 22 3 23 2 24
REMARK SMILES IDX 1 25 17 26 18 27 19 28 20 29 21 30 22 32 23 33 24 34 85 35
REMARK SMILES IDX 25 36 84 37 26 38 27 39 28 40 78 41 29 42 83 43 77 44 79 45
REMARK SMILES IDX 30 46 82 47 76 48 75 49 31 51 63 52 43 53 62 54 44 55 47 56
REMARK SMILES IDX 61 57 80 58 45 59 46 60 60 62 81 63 48 64 32 65 33 66 41 67
REMARK SMILES IDX 34 68 40 69 42 70 39 71 35 72 36 73 37 74 38 75 64 76 65 77
REMARK SMILES IDX 73 78 66 79 72 80 74 81 71 82 67 83 68 84 69 85 70 86 49 87
REMARK SMILES IDX 50 88 58 89 51 90 57 91 59 92 56 93 52 94 53 95 54 96 55 97
REMARK H PARENT 16 4 8 15 20 31 79 50 47 61
REMARK Flexibility Score: inf
ROOT
ATOM      1  C   UNL A   1      34.121  25.155  23.156  1.00  0.00     0.220 C 
ATOM      2  O   UNL A   1      34.023  25.868  22.152  1.00  0.00    -0.275 OA
ATOM      3  N   UNL A   1      34.506  23.865  22.950  1.00  0.00    -0.356 N 
ATOM      4  H   UNL A   1      34.518  23.605  22.001  1.00  0.00     0.163 HD
ENDROOT
BRANCH   1   5
ATOM      5  C   UNL A   1      33.818  25.738  24.536  1.00  0.00     0.107 C 
BRANCH   5   6
ATOM      6  C   UNL A   1      32.438  25.330  25.177  1.00  0.00    -0.012 C 
ATOM      7  C   UNL A   1      31.415  24.992  24.050  1.00  0.00     0.008 C 
ATOM      8  C   UNL A   1      31.875  26.523  25.969  1.00  0.00     0.008 C 
ATOM      9  C   UNL A   1      30.985  26.197  23.205  1.00  0.00     0.001 C 
ATOM     10  C   UNL A   1      31.472  27.734  25.131  1.00  0.00     0.001 C 
ATOM     11  C   UNL A   1      30.462  27.342  24.065  1.00  0.00     0.000 C 
BRANCH   6  12
ATOM     12  C   UNL A   1      32.645  24.059  26.080  1.00  0.00     0.108 C 
BRANCH  12  13
ATOM     13  C   UNL A   1      31.448  23.160  26.418  1.00  0.00     0.224 C 
ATOM     14  N   UNL A   1      31.294  21.882  25.951  1.00  0.00    -0.326 N 
ATOM     15  H   UNL A   1      30.431  21.460  26.166  1.00  0.00     0.169 HD
ATOM     16  O   UNL A   1      30.579  23.579  27.194  1.00  0.00    -0.275 OA
BRANCH  14  17
ATOM     17  C   UNL A   1      32.176  21.080  25.213  1.00  0.00     0.041 A 
ATOM     18  C   UNL A   1      33.060  18.835  23.903  1.00  0.00     0.119 A 
ATOM     19  C   UNL A   1      33.631  19.178  25.127  1.00  0.00     0.048 A 
ATOM     20  C   UNL A   1      32.284  19.751  23.209  1.00  0.00     0.048 A 
ATOM     21  C   UNL A   1      33.180  20.314  25.792  1.00  0.00     0.030 A 
ATOM     22  C   UNL A   1      31.870  20.910  23.858  1.00  0.00     0.030 A 
BRANCH  18  23
ATOM     23  O   UNL A   1      32.855  17.511  23.605  1.00  0.00    -0.494 OA
BRANCH  23  24
ATOM     24  C   UNL A   1      34.039  16.746  23.488  1.00  0.00     0.226 C 
ATOM     25  C   UNL A   1      34.360  16.041  24.784  1.00  0.00     0.049 C 
ENDBRANCH  23  24
ENDBRANCH  18  23
ENDBRANCH  14  17
ENDBRANCH  12  13
ENDBRANCH   6  12
ENDBRANCH   5   6
ENDBRANCH   1   5
BRANCH   3  26
ATOM     26  C   UNL A   1      34.903  22.795  23.855  1.00  0.00     0.117 C 
BRANCH  26  27
ATOM     27  C   UNL A   1      36.377  22.853  24.286  1.00  0.00     0.042 C 
BRANCH  27  28
ATOM     28  C   UNL A   1      36.703  22.311  25.691  1.00  0.00     0.118 C 
BRANCH  28  29
ATOM     29  N   UNL A   1      37.973  21.604  25.754  1.00  0.00    -0.352 N 
ATOM     30  C   UNL A   1      39.226  21.926  26.230  1.00  0.00     0.251 C 
ATOM     31  H   UNL A   1      37.927  20.697  25.375  1.00  0.00     0.163 HD
ATOM     32  O   UNL A   1      40.114  21.094  26.028  1.00  0.00    -0.269 OA
BRANCH  30  33
ATOM     33  C   UNL A   1      39.597  23.213  26.902  1.00  0.00     0.039 A 
ATOM     34  C   UNL A   1      38.849  24.354  26.554  1.00  0.00     0.014 A 
ATOM     35  C   UNL A   1      40.647  23.376  27.810  1.00  0.00     0.014 A 
ATOM     36  C   UNL A   1      39.112  25.616  27.122  1.00  0.00     0.010 A 
ATOM     37  C   UNL A   1      40.881  24.635  28.417  1.00  0.00     0.010 A 
ATOM     38  C   UNL A   1      40.133  25.779  28.068  1.00  0.00    -0.014 A 
BRANCH  38  39
ATOM     39  C   UNL A   1      40.540  27.159  28.507  1.00  0.00     0.031 A 
ATOM     40  C   UNL A   1      41.983  27.567  28.329  1.00  0.00     0.074 A 
ATOM     41  C   UNL A   1      39.672  28.079  28.990  1.00  0.00     0.049 A 
ATOM     42  N   UNL A   1      42.561  28.720  28.562  1.00  0.00    -0.248 NA
ATOM     43  C   UNL A   1      42.895  26.531  27.823  1.00  0.00     0.031 C 
ATOM     44  C   UNL A   1      38.245  27.864  29.212  1.00  0.00     0.029 A 
ATOM     45  N   UNL A   1      39.861  29.391  29.380  1.00  0.00    -0.354 N 
ATOM     46  C   UNL A   1      43.892  28.554  28.195  1.00  0.00     0.074 A 
ATOM     47  C   UNL A   1      44.056  27.164  27.830  1.00  0.00     0.031 C 
ATOM     48  C   UNL A   1      37.688  28.992  29.692  1.00  0.00     0.029 A 
ATOM     49  C   UNL A   1      38.716  30.023  29.823  1.00  0.00     0.049 A 
ATOM     50  H   UNL A   1      40.739  29.836  29.346  1.00  0.00     0.167 HD
ATOM     51  C   UNL A   1      44.884  29.475  28.110  1.00  0.00     0.034 A 
ATOM     52  C   UNL A   1      38.511  31.284  30.271  1.00  0.00     0.034 A 
ATOM     53  C   UNL A   1      44.752  30.855  28.495  1.00  0.00     0.049 A 
ATOM     54  C   UNL A   1      39.670  32.263  30.287  1.00  0.00     0.074 A 
ATOM     55  C   UNL A   1      45.714  31.851  28.477  1.00  0.00     0.029 A 
ATOM     56  N   UNL A   1      43.589  31.439  28.975  1.00  0.00    -0.354 N 
ATOM     57  N   UNL A   1      40.909  32.092  29.886  1.00  0.00    -0.248 NA
ATOM     58  C   UNL A   1      39.390  33.619  30.786  1.00  0.00     0.031 C 
ATOM     59  C   UNL A   1      45.151  33.018  29.002  1.00  0.00     0.029 A 
ATOM     60  C   UNL A   1      43.815  32.775  29.271  1.00  0.00     0.049 A 
ATOM     61  H   UNL A   1      42.729  30.973  29.089  1.00  0.00     0.167 HD
ATOM     62  C   UNL A   1      41.528  33.335  30.024  1.00  0.00     0.074 A 
ATOM     63  C   UNL A   1      40.526  34.247  30.528  1.00  0.00     0.031 C 
ATOM     64  C   UNL A   1      42.810  33.692  29.752  1.00  0.00     0.034 A 
BRANCH  51  65
ATOM     65  C   UNL A   1      46.209  28.988  27.577  1.00  0.00     0.023 A 
ATOM     66  C   UNL A   1      46.401  28.784  26.198  1.00  0.00     0.031 A 
ATOM     67  C   UNL A   1      47.266  28.673  28.445  1.00  0.00     0.131 A 
ATOM     68  C   UNL A   1      47.587  28.199  25.736  1.00  0.00     0.055 A 
ATOM     69  C   UNL A   1      48.481  28.175  27.969  1.00  0.00     0.041 A 
ATOM     70  F   UNL A   1      47.130  28.825  29.772  1.00  0.00    -0.206 F 
ATOM     71  C   UNL A   1      48.640  27.919  26.609  1.00  0.00     0.022 A 
BRANCH  68  72
ATOM     72  S   UNL A   1      47.670  27.663  24.006  1.00  0.00     0.124 S 
ATOM     73  O   UNL A   1      49.094  27.820  23.719  1.00  0.00    -0.237 OA
ATOM     74  O   UNL A   1      47.182  26.287  24.078  1.00  0.00    -0.237 OA
ATOM     75  O   UNL A   1      46.792  28.601  23.315  1.00  0.00    -0.744 OA
ENDBRANCH  68  72
ENDBRANCH  51  65
BRANCH  52  76
ATOM     76  C   UNL A   1      37.168  31.744  30.762  1.00  0.00     0.023 A 
ATOM     77  C   UNL A   1      36.240  32.345  29.891  1.00  0.00     0.031 A 
ATOM     78  C   UNL A   1      36.860  31.735  32.133  1.00  0.00     0.131 A 
ATOM     79  C   UNL A   1      35.103  32.992  30.407  1.00  0.00     0.055 A 
ATOM     80  C   UNL A   1      35.693  32.320  32.635  1.00  0.00     0.041 A 
ATOM     81  F   UNL A   1      37.707  31.184  33.018  1.00  0.00    -0.206 F 
ATOM     82  C   UNL A   1      34.818  32.974  31.773  1.00  0.00     0.022 A 
BRANCH  79  83
ATOM     83  S   UNL A   1      34.083  33.995  29.286  1.00  0.00     0.124 S 
ATOM     84  O   UNL A   1      35.066  34.938  28.761  1.00  0.00    -0.237 OA
ATOM     85  O   UNL A   1      33.591  32.992  28.348  1.00  0.00    -0.237 OA
ATOM     86  O   UNL A   1      33.073  34.572  30.169  1.00  0.00    -0.744 OA
ENDBRANCH  79  83
ENDBRANCH  52  76
BRANCH  64  87
ATOM     87  C   UNL A   1      43.180  35.152  29.909  1.00  0.00     0.023 A 
ATOM     88  C   UNL A   1      42.864  36.115  28.934  1.00  0.00     0.031 A 
ATOM     89  C   UNL A   1      43.893  35.579  31.046  1.00  0.00     0.131 A 
ATOM     90  C   UNL A   1      43.328  37.432  29.073  1.00  0.00     0.055 A 
ATOM     91  C   UNL A   1      44.284  36.908  31.215  1.00  0.00     0.041 A 
ATOM     92  F   UNL A   1      44.225  34.708  32.013  1.00  0.00    -0.206 F 
ATOM     93  C   UNL A   1      44.021  37.839  30.216  1.00  0.00     0.022 A 
BRANCH  90  94
ATOM     94  S   UNL A   1      43.130  38.577  27.680  1.00  0.00     0.124 S 
ATOM     95  O   UNL A   1      44.503  39.010  27.443  1.00  0.00    -0.237 OA
ATOM     96  O   UNL A   1      42.547  37.718  26.653  1.00  0.00    -0.237 OA
ATOM     97  O   UNL A   1      42.236  39.607  28.206  1.00  0.00    -0.744 OA
ENDBRANCH  90  94
ENDBRANCH  64  87
ENDBRANCH  38  39
ENDBRANCH  30  33
ENDBRANCH  28  29
ENDBRANCH  27  28
ENDBRANCH  26  27
ENDBRANCH   3  26
TORSDOF 19
ENDMDL
