MODEL 1
REMARK VINA RESULT:     -11.6      0.000      0.000
REMARK SMILES COC(=O)c1ccccc1-c1ccc(/C=C(\C#N)C(=O)NCCCNC(=O)c2ccc(-c3c4nc(c(-c5cc(S(=O)(=O)[O-])ccc5F)c5ccc([nH]5)c(-c5cc(S(=O)(=O)[O-])ccc5F)c5nc(c(-c6cc(S(=O)(=O)[O-])ccc6F)c6ccc3[nH]6)C=C5)C=C4)cc2)o1
REMARK SMILES IDX 22 1 21 2 19 3 20 4 16 6 15 7 14 8 11 9 12 10 91 11 13 12
REMARK SMILES IDX 10 13 5 14 6 15 7 16 9 17 8 18 3 19 4 20 2 21 1 22 17 23
REMARK SMILES IDX 18 24 23 25 24 26 25 27 26 28 27 30 28 31 29 32 90 33 30 34
REMARK SMILES IDX 89 35 31 36 32 37 33 38 83 39 34 40 88 41 82 42 84 43 35 44
REMARK SMILES IDX 87 45 81 46 80 47 36 49 68 50 48 51 67 52 49 53 52 54 66 55
REMARK SMILES IDX 85 56 50 57 51 58 65 60 86 61 53 62 37 63 38 64 46 65 39 66
REMARK SMILES IDX 45 67 47 68 44 69 40 70 41 71 42 72 43 73 69 74 70 75 78 76
REMARK SMILES IDX 71 77 77 78 79 79 76 80 72 81 73 82 74 83 75 84 54 85 55 86
REMARK SMILES IDX 63 87 56 88 62 89 64 90 61 91 57 92 58 93 59 94 60 95
REMARK H PARENT 21 5 25 29 84 48 52 59
REMARK Flexibility Score: inf
ROOT
ATOM      1  C   UNL A   1      31.527  28.949  25.255  1.00  0.00     0.118 C 
ENDROOT
BRANCH   1   2
ATOM      2  N   UNL A   1      30.779  29.028  24.011  1.00  0.00    -0.351 N 
ATOM      3  C   UNL A   1      30.648  28.181  22.956  1.00  0.00     0.262 C 
ATOM      4  O   UNL A   1      29.870  28.532  22.063  1.00  0.00    -0.268 OA
ATOM      5  H   UNL A   1      30.263  29.861  23.913  1.00  0.00     0.163 HD
BRANCH   3   6
ATOM      6  C   UNL A   1      31.361  26.872  22.858  1.00  0.00     0.120 C 
ATOM      7  C   UNL A   1      30.864  25.862  23.603  1.00  0.00     0.072 C 
BRANCH   7   8
ATOM      8  C   UNL A   1      31.418  24.550  23.662  1.00  0.00     0.129 A 
ATOM      9  C   UNL A   1      32.942  22.931  23.820  1.00  0.00     0.135 A 
ATOM     10  C   UNL A   1      31.744  22.299  23.586  1.00  0.00     0.051 A 
ATOM     11  O   UNL A   1      32.743  24.272  23.900  1.00  0.00    -0.457 OA
ATOM     12  C   UNL A   1      30.774  23.329  23.485  1.00  0.00     0.051 A 
BRANCH   9  13
ATOM     13  C   UNL A   1      34.326  22.498  23.940  1.00  0.00     0.032 A 
ATOM     14  C   UNL A   1      34.714  21.422  24.760  1.00  0.00     0.071 A 
ATOM     15  C   UNL A   1      36.070  21.081  24.893  1.00  0.00     0.016 A 
ATOM     16  C   UNL A   1      37.043  21.789  24.189  1.00  0.00     0.001 A 
ATOM     17  C   UNL A   1      35.320  23.189  23.229  1.00  0.00     0.013 A 
ATOM     18  C   UNL A   1      36.667  22.839  23.353  1.00  0.00     0.001 A 
BRANCH  14  19
ATOM     19  C   UNL A   1      33.743  20.609  25.522  1.00  0.00     0.338 C 
ATOM     20  O   UNL A   1      33.359  20.900  26.647  1.00  0.00    -0.246 OA
BRANCH  19  21
ATOM     21  O   UNL A   1      33.405  19.511  24.811  1.00  0.00    -0.465 OA
ATOM     22  C   UNL A   1      32.860  18.445  25.587  1.00  0.00     0.282 C 
ENDBRANCH  19  21
ENDBRANCH  14  19
ENDBRANCH   9  13
ENDBRANCH   7   8
BRANCH   6  23
ATOM     23  C   UNL A   1      32.609  26.689  22.008  1.00  0.00     0.105 C 
ATOM     24  N   UNL A   1      33.642  26.536  21.302  1.00  0.00    -0.192 NA
ENDBRANCH   6  23
ENDBRANCH   3   6
ENDBRANCH   1   2
BRANCH   1  25
ATOM     25  C   UNL A   1      33.006  29.273  25.050  1.00  0.00     0.042 C 
BRANCH  25  26
ATOM     26  C   UNL A   1      33.771  29.437  26.363  1.00  0.00     0.118 C 
BRANCH  26  27
ATOM     27  N   UNL A   1      33.680  30.797  26.876  1.00  0.00    -0.352 N 
ATOM     28  C   UNL A   1      34.407  31.425  27.854  1.00  0.00     0.251 C 
ATOM     29  H   UNL A   1      32.985  31.353  26.455  1.00  0.00     0.163 HD
ATOM     30  O   UNL A   1      34.003  32.497  28.297  1.00  0.00    -0.269 OA
BRANCH  28  31
ATOM     31  C   UNL A   1      35.656  30.828  28.376  1.00  0.00     0.039 A 
ATOM     32  C   UNL A   1      36.880  31.337  27.933  1.00  0.00     0.014 A 
ATOM     33  C   UNL A   1      35.627  29.734  29.245  1.00  0.00     0.014 A 
ATOM     34  C   UNL A   1      38.074  30.780  28.397  1.00  0.00     0.010 A 
ATOM     35  C   UNL A   1      36.816  29.221  29.756  1.00  0.00     0.010 A 
ATOM     36  C   UNL A   1      38.051  29.732  29.330  1.00  0.00    -0.014 A 
BRANCH  36  37
ATOM     37  C   UNL A   1      39.309  29.144  29.858  1.00  0.00     0.031 A 
ATOM     38  C   UNL A   1      39.990  29.766  31.045  1.00  0.00     0.074 A 
ATOM     39  C   UNL A   1      39.867  28.095  29.226  1.00  0.00     0.049 A 
ATOM     40  N   UNL A   1      41.136  29.463  31.599  1.00  0.00    -0.248 NA
ATOM     41  C   UNL A   1      39.299  30.903  31.673  1.00  0.00     0.031 C 
ATOM     42  C   UNL A   1      39.316  27.429  28.044  1.00  0.00     0.029 A 
ATOM     43  N   UNL A   1      41.027  27.409  29.482  1.00  0.00    -0.354 N 
ATOM     44  C   UNL A   1      41.314  30.382  32.628  1.00  0.00     0.074 A 
ATOM     45  C   UNL A   1      40.186  31.288  32.579  1.00  0.00     0.031 C 
ATOM     46  C   UNL A   1      40.126  26.419  27.691  1.00  0.00     0.029 A 
ATOM     47  C   UNL A   1      41.274  26.392  28.590  1.00  0.00     0.049 A 
ATOM     48  H   UNL A   1      41.626  27.625  30.233  1.00  0.00     0.167 HD
ATOM     49  C   UNL A   1      42.316  30.450  33.542  1.00  0.00     0.034 A 
ATOM     50  C   UNL A   1      42.315  25.540  28.502  1.00  0.00     0.034 A 
ATOM     51  C   UNL A   1      43.427  29.529  33.579  1.00  0.00     0.049 A 
ATOM     52  C   UNL A   1      43.425  25.644  29.514  1.00  0.00     0.074 A 
ATOM     53  C   UNL A   1      44.471  29.469  34.486  1.00  0.00     0.029 A 
ATOM     54  N   UNL A   1      43.644  28.508  32.661  1.00  0.00    -0.354 N 
ATOM     55  N   UNL A   1      43.564  26.494  30.506  1.00  0.00    -0.248 NA
ATOM     56  C   UNL A   1      44.516  24.667  29.398  1.00  0.00     0.031 C 
ATOM     57  C   UNL A   1      45.347  28.454  34.083  1.00  0.00     0.029 A 
ATOM     58  C   UNL A   1      44.817  27.832  32.964  1.00  0.00     0.049 A 
ATOM     59  H   UNL A   1      43.050  28.295  31.905  1.00  0.00     0.167 HD
ATOM     60  C   UNL A   1      44.745  26.134  31.150  1.00  0.00     0.074 A 
ATOM     61  C   UNL A   1      45.271  24.986  30.439  1.00  0.00     0.031 C 
ATOM     62  C   UNL A   1      45.337  26.699  32.233  1.00  0.00     0.034 A 
BRANCH  49  63
ATOM     63  C   UNL A   1      42.258  31.578  34.548  1.00  0.00     0.023 A 
ATOM     64  C   UNL A   1      41.363  31.553  35.633  1.00  0.00     0.031 A 
ATOM     65  C   UNL A   1      43.066  32.717  34.392  1.00  0.00     0.131 A 
ATOM     66  C   UNL A   1      41.229  32.679  36.458  1.00  0.00     0.055 A 
ATOM     67  C   UNL A   1      42.992  33.800  35.272  1.00  0.00     0.041 A 
ATOM     68  F   UNL A   1      43.927  32.810  33.366  1.00  0.00    -0.206 F 
ATOM     69  C   UNL A   1      42.055  33.794  36.301  1.00  0.00     0.022 A 
BRANCH  66  70
ATOM     70  S   UNL A   1      39.843  32.733  37.628  1.00  0.00     0.124 S 
ATOM     71  O   UNL A   1      39.317  34.078  37.400  1.00  0.00    -0.237 OA
ATOM     72  O   UNL A   1      39.002  31.632  37.173  1.00  0.00    -0.237 OA
ATOM     73  O   UNL A   1      40.483  32.537  38.927  1.00  0.00    -0.744 OA
ENDBRANCH  66  70
ENDBRANCH  49  63
BRANCH  50  74
ATOM     74  C   UNL A   1      42.356  24.518  27.421  1.00  0.00     0.023 A 
ATOM     75  C   UNL A   1      41.675  23.299  27.557  1.00  0.00     0.031 A 
ATOM     76  C   UNL A   1      43.089  24.739  26.242  1.00  0.00     0.131 A 
ATOM     77  C   UNL A   1      41.770  22.329  26.547  1.00  0.00     0.055 A 
ATOM     78  C   UNL A   1      43.145  23.791  25.221  1.00  0.00     0.041 A 
ATOM     79  F   UNL A   1      43.751  25.894  26.061  1.00  0.00    -0.206 F 
ATOM     80  C   UNL A   1      42.490  22.572  25.374  1.00  0.00     0.022 A 
BRANCH  77  81
ATOM     81  S   UNL A   1      40.981  20.718  26.813  1.00  0.00     0.124 S 
ATOM     82  O   UNL A   1      39.741  20.866  26.061  1.00  0.00    -0.237 OA
ATOM     83  O   UNL A   1      41.968  19.801  26.250  1.00  0.00    -0.237 OA
ATOM     84  O   UNL A   1      40.829  20.650  28.265  1.00  0.00    -0.744 OA
ENDBRANCH  77  81
ENDBRANCH  50  74
BRANCH  62  85
ATOM     85  C   UNL A   1      46.602  26.047  32.732  1.00  0.00     0.023 A 
ATOM     86  C   UNL A   1      46.577  25.034  33.707  1.00  0.00     0.031 A 
ATOM     87  C   UNL A   1      47.851  26.462  32.237  1.00  0.00     0.131 A 
ATOM     88  C   UNL A   1      47.781  24.506  34.194  1.00  0.00     0.055 A 
ATOM     89  C   UNL A   1      49.044  25.893  32.686  1.00  0.00     0.041 A 
ATOM     90  F   UNL A   1      47.932  27.428  31.309  1.00  0.00    -0.206 F 
ATOM     91  C   UNL A   1      49.014  24.918  33.679  1.00  0.00     0.022 A 
BRANCH  88  92
ATOM     92  S   UNL A   1      47.722  23.331  35.576  1.00  0.00     0.124 S 
ATOM     93  O   UNL A   1      48.675  23.917  36.512  1.00  0.00    -0.237 OA
ATOM     94  O   UNL A   1      46.320  23.389  35.974  1.00  0.00    -0.237 OA
ATOM     95  O   UNL A   1      48.143  22.069  34.972  1.00  0.00    -0.744 OA
ENDBRANCH  88  92
ENDBRANCH  62  85
ENDBRANCH  36  37
ENDBRANCH  28  31
ENDBRANCH  26  27
ENDBRANCH  25  26
ENDBRANCH   1  25
TORSDOF 18
ENDMDL
MODEL 2
REMARK VINA RESULT:     -11.6      3.000      8.287
REMARK SMILES COC(=O)c1ccccc1-c1ccc(/C=C(\C#N)C(=O)NCCCNC(=O)c2ccc(-c3c4nc(c(-c5cc(S(=O)(=O)[O-])ccc5F)c5ccc([nH]5)c(-c5cc(S(=O)(=O)[O-])ccc5F)c5nc(c(-c6cc(S(=O)(=O)[O-])ccc6F)c6ccc3[nH]6)C=C5)C=C4)cc2)o1
REMARK SMILES IDX 22 1 21 2 19 3 20 4 16 6 15 7 14 8 11 9 12 10 91 11 13 12
REMARK SMILES IDX 10 13 5 14 6 15 7 16 9 17 8 18 3 19 4 20 2 21 1 22 17 23
REMARK SMILES IDX 18 24 23 25 24 26 25 27 26 28 27 30 28 31 29 32 90 33 30 34
REMARK SMILES IDX 89 35 31 36 32 37 33 38 83 39 34 40 88 41 82 42 84 43 35 44
REMARK SMILES IDX 87 45 81 46 80 47 36 49 68 50 48 51 67 52 49 53 52 54 66 55
REMARK SMILES IDX 85 56 50 57 51 58 65 60 86 61 53 62 37 63 38 64 46 65 39 66
REMARK SMILES IDX 45 67 47 68 44 69 40 70 41 71 42 72 43 73 69 74 70 75 78 76
REMARK SMILES IDX 71 77 77 78 79 79 76 80 72 81 73 82 74 83 75 84 54 85 55 86
REMARK SMILES IDX 63 87 56 88 62 89 64 90 61 91 57 92 58 93 59 94 60 95
REMARK H PARENT 21 5 25 29 84 48 52 59
REMARK Flexibility Score: inf
ROOT
ATOM      1  C   UNL A   1      31.955  30.232  25.781  1.00  0.00     0.118 C 
ENDROOT
BRANCH   1   2
ATOM      2  N   UNL A   1      31.091  30.081  24.622  1.00  0.00    -0.351 N 
ATOM      3  C   UNL A   1      30.637  28.994  23.944  1.00  0.00     0.262 C 
ATOM      4  O   UNL A   1      29.851  29.214  23.017  1.00  0.00    -0.268 OA
ATOM      5  H   UNL A   1      30.770  30.936  24.254  1.00  0.00     0.163 HD
BRANCH   3   6
ATOM      6  C   UNL A   1      31.015  27.591  24.290  1.00  0.00     0.120 C 
ATOM      7  C   UNL A   1      31.319  26.780  23.254  1.00  0.00     0.072 C 
BRANCH   7   8
ATOM      8  C   UNL A   1      31.679  25.406  23.379  1.00  0.00     0.129 A 
ATOM      9  C   UNL A   1      32.951  23.599  23.667  1.00  0.00     0.135 A 
ATOM     10  C   UNL A   1      31.691  23.131  23.379  1.00  0.00     0.051 A 
ATOM     11  O   UNL A   1      32.937  24.956  23.701  1.00  0.00    -0.457 OA
ATOM     12  C   UNL A   1      30.882  24.281  23.196  1.00  0.00     0.051 A 
BRANCH   9  13
ATOM     13  C   UNL A   1      34.252  22.983  23.877  1.00  0.00     0.032 A 
ATOM     14  C   UNL A   1      34.507  22.095  24.939  1.00  0.00     0.071 A 
ATOM     15  C   UNL A   1      35.795  21.574  25.140  1.00  0.00     0.016 A 
ATOM     16  C   UNL A   1      36.831  21.913  24.270  1.00  0.00     0.001 A 
ATOM     17  C   UNL A   1      35.305  23.300  23.004  1.00  0.00     0.013 A 
ATOM     18  C   UNL A   1      36.585  22.771  23.200  1.00  0.00     0.001 A 
BRANCH  14  19
ATOM     19  C   UNL A   1      33.459  21.670  25.892  1.00  0.00     0.338 C 
ATOM     20  O   UNL A   1      32.789  20.657  25.748  1.00  0.00    -0.246 OA
BRANCH  19  21
ATOM     21  O   UNL A   1      33.342  22.583  26.882  1.00  0.00    -0.465 OA
ATOM     22  C   UNL A   1      32.004  22.999  27.152  1.00  0.00     0.282 C 
ENDBRANCH  19  21
ENDBRANCH  14  19
ENDBRANCH   9  13
ENDBRANCH   7   8
BRANCH   6  23
ATOM     23  C   UNL A   1      31.014  27.079  25.722  1.00  0.00     0.105 C 
ATOM     24  N   UNL A   1      31.015  26.655  26.909  1.00  0.00    -0.192 NA
ENDBRANCH   6  23
ENDBRANCH   3   6
ENDBRANCH   1   2
BRANCH   1  25
ATOM     25  C   UNL A   1      31.691  31.543  26.519  1.00  0.00     0.042 C 
BRANCH  25  26
ATOM     26  C   UNL A   1      32.968  32.211  27.029  1.00  0.00     0.118 C 
BRANCH  26  27
ATOM     27  N   UNL A   1      32.720  33.570  27.493  1.00  0.00    -0.352 N 
ATOM     28  C   UNL A   1      33.253  34.255  28.555  1.00  0.00     0.251 C 
ATOM     29  H   UNL A   1      32.065  34.076  26.960  1.00  0.00     0.163 HD
ATOM     30  O   UNL A   1      32.724  35.305  28.908  1.00  0.00    -0.269 OA
BRANCH  28  31
ATOM     31  C   UNL A   1      34.442  33.743  29.270  1.00  0.00     0.039 A 
ATOM     32  C   UNL A   1      34.262  32.789  30.276  1.00  0.00     0.014 A 
ATOM     33  C   UNL A   1      35.720  34.240  28.999  1.00  0.00     0.014 A 
ATOM     34  C   UNL A   1      35.367  32.302  30.979  1.00  0.00     0.010 A 
ATOM     35  C   UNL A   1      36.827  33.707  29.655  1.00  0.00     0.010 A 
ATOM     36  C   UNL A   1      36.660  32.740  30.657  1.00  0.00    -0.014 A 
BRANCH  36  37
ATOM     37  C   UNL A   1      37.852  32.214  31.372  1.00  0.00     0.031 A 
ATOM     38  C   UNL A   1      38.671  31.112  30.758  1.00  0.00     0.074 A 
ATOM     39  C   UNL A   1      38.151  32.682  32.598  1.00  0.00     0.049 A 
ATOM     40  N   UNL A   1      39.686  30.455  31.258  1.00  0.00    -0.248 NA
ATOM     41  C   UNL A   1      38.272  30.673  29.413  1.00  0.00     0.031 C 
ATOM     42  C   UNL A   1      37.407  33.725  33.309  1.00  0.00     0.029 A 
ATOM     43  N   UNL A   1      39.152  32.336  33.469  1.00  0.00    -0.354 N 
ATOM     44  C   UNL A   1      40.036  29.511  30.298  1.00  0.00     0.074 A 
ATOM     45  C   UNL A   1      39.084  29.646  29.215  1.00  0.00     0.031 C 
ATOM     46  C   UNL A   1      37.990  33.948  34.496  1.00  0.00     0.029 A 
ATOM     47  C   UNL A   1      39.119  33.037  34.652  1.00  0.00     0.049 A 
ATOM     48  H   UNL A   1      39.829  31.651  33.267  1.00  0.00     0.167 HD
ATOM     49  C   UNL A   1      41.069  28.630  30.310  1.00  0.00     0.034 A 
ATOM     50  C   UNL A   1      39.905  32.946  35.743  1.00  0.00     0.034 A 
ATOM     51  C   UNL A   1      42.012  28.520  31.396  1.00  0.00     0.049 A 
ATOM     52  C   UNL A   1      41.034  31.949  35.744  1.00  0.00     0.074 A 
ATOM     53  C   UNL A   1      43.125  27.702  31.497  1.00  0.00     0.029 A 
ATOM     54  N   UNL A   1      41.951  29.249  32.579  1.00  0.00    -0.354 N 
ATOM     55  N   UNL A   1      41.378  31.088  34.814  1.00  0.00    -0.248 NA
ATOM     56  C   UNL A   1      41.885  31.918  36.941  1.00  0.00     0.031 C 
ATOM     57  C   UNL A   1      43.699  27.892  32.760  1.00  0.00     0.029 A 
ATOM     58  C   UNL A   1      42.987  28.879  33.423  1.00  0.00     0.049 A 
ATOM     59  H   UNL A   1      41.270  29.929  32.787  1.00  0.00     0.167 HD
ATOM     60  C   UNL A   1      42.504  30.432  35.303  1.00  0.00     0.074 A 
ATOM     61  C   UNL A   1      42.785  31.006  36.604  1.00  0.00     0.031 C 
ATOM     62  C   UNL A   1      43.242  29.449  34.726  1.00  0.00     0.034 A 
BRANCH  49  63
ATOM     63  C   UNL A   1      41.199  27.703  29.122  1.00  0.00     0.023 A 
ATOM     64  C   UNL A   1      42.198  27.888  28.148  1.00  0.00     0.031 A 
ATOM     65  C   UNL A   1      40.283  26.656  28.929  1.00  0.00     0.131 A 
ATOM     66  C   UNL A   1      42.198  27.104  26.985  1.00  0.00     0.055 A 
ATOM     67  C   UNL A   1      40.343  25.819  27.810  1.00  0.00     0.041 A 
ATOM     68  F   UNL A   1      39.295  26.438  29.812  1.00  0.00    -0.206 F 
ATOM     69  C   UNL A   1      41.292  26.054  26.820  1.00  0.00     0.022 A 
BRANCH  66  70
ATOM     70  S   UNL A   1      43.286  27.589  25.616  1.00  0.00     0.124 S 
ATOM     71  O   UNL A   1      44.022  26.350  25.373  1.00  0.00    -0.237 OA
ATOM     72  O   UNL A   1      42.337  27.983  24.582  1.00  0.00    -0.237 OA
ATOM     73  O   UNL A   1      44.083  28.676  26.181  1.00  0.00    -0.744 OA
ENDBRANCH  66  70
ENDBRANCH  49  63
BRANCH  50  74
ATOM     74  C   UNL A   1      39.655  33.821  36.921  1.00  0.00     0.023 A 
ATOM     75  C   UNL A   1      39.033  33.316  38.073  1.00  0.00     0.031 A 
ATOM     76  C   UNL A   1      40.020  35.179  36.906  1.00  0.00     0.131 A 
ATOM     77  C   UNL A   1      38.761  34.172  39.152  1.00  0.00     0.055 A 
ATOM     78  C   UNL A   1      39.787  36.016  37.998  1.00  0.00     0.041 A 
ATOM     79  F   UNL A   1      40.625  35.707  35.829  1.00  0.00    -0.206 F 
ATOM     80  C   UNL A   1      39.145  35.515  39.126  1.00  0.00     0.022 A 
BRANCH  77  81
ATOM     81  S   UNL A   1      37.843  33.514  40.571  1.00  0.00     0.124 S 
ATOM     82  O   UNL A   1      37.518  34.732  41.305  1.00  0.00    -0.237 OA
ATOM     83  O   UNL A   1      36.725  32.839  39.921  1.00  0.00    -0.237 OA
ATOM     84  O   UNL A   1      38.809  32.631  41.220  1.00  0.00    -0.744 OA
ENDBRANCH  77  81
ENDBRANCH  50  74
BRANCH  62  85
ATOM     85  C   UNL A   1      44.449  28.968  35.493  1.00  0.00     0.023 A 
ATOM     86  C   UNL A   1      44.342  28.001  36.508  1.00  0.00     0.031 A 
ATOM     87  C   UNL A   1      45.720  29.501  35.214  1.00  0.00     0.131 A 
ATOM     88  C   UNL A   1      45.479  27.635  37.244  1.00  0.00     0.055 A 
ATOM     89  C   UNL A   1      46.856  29.093  35.913  1.00  0.00     0.041 A 
ATOM     90  F   UNL A   1      45.876  30.430  34.258  1.00  0.00    -0.206 F 
ATOM     91  C   UNL A   1      46.738  28.163  36.943  1.00  0.00     0.022 A 
BRANCH  88  92
ATOM     92  S   UNL A   1      45.278  26.522  38.662  1.00  0.00     0.124 S 
ATOM     93  O   UNL A   1      45.869  25.285  38.162  1.00  0.00    -0.237 OA
ATOM     94  O   UNL A   1      46.027  27.210  39.708  1.00  0.00    -0.237 OA
ATOM     95  O   UNL A   1      43.830  26.480  38.863  1.00  0.00    -0.744 OA
ENDBRANCH  88  92
ENDBRANCH  62  85
ENDBRANCH  36  37
ENDBRANCH  28  31
ENDBRANCH  26  27
ENDBRANCH  25  26
ENDBRANCH   1  25
TORSDOF 18
ENDMDL
MODEL 3
REMARK VINA RESULT:     -11.4      1.788      2.028
REMARK SMILES COC(=O)c1ccccc1-c1ccc(/C=C(\C#N)C(=O)NCCCNC(=O)c2ccc(-c3c4nc(c(-c5cc(S(=O)(=O)[O-])ccc5F)c5ccc([nH]5)c(-c5cc(S(=O)(=O)[O-])ccc5F)c5nc(c(-c6cc(S(=O)(=O)[O-])ccc6F)c6ccc3[nH]6)C=C5)C=C4)cc2)o1
REMARK SMILES IDX 22 1 21 2 19 3 20 4 16 6 15 7 14 8 11 9 12 10 91 11 13 12
REMARK SMILES IDX 10 13 5 14 6 15 7 16 9 17 8 18 3 19 4 20 2 21 1 22 17 23
REMARK SMILES IDX 18 24 23 25 24 26 25 27 26 28 27 30 28 31 29 32 90 33 30 34
REMARK SMILES IDX 89 35 31 36 32 37 33 38 83 39 34 40 88 41 82 42 84 43 35 44
REMARK SMILES IDX 87 45 81 46 80 47 36 49 68 50 48 51 67 52 49 53 52 54 66 55
REMARK SMILES IDX 85 56 50 57 51 58 65 60 86 61 53 62 37 63 38 64 46 65 39 66
REMARK SMILES IDX 45 67 47 68 44 69 40 70 41 71 42 72 43 73 69 74 70 75 78 76
REMARK SMILES IDX 71 77 77 78 79 79 76 80 72 81 73 82 74 83 75 84 54 85 55 86
REMARK SMILES IDX 63 87 56 88 62 89 64 90 61 91 57 92 58 93 59 94 60 95
REMARK H PARENT 21 5 25 29 84 48 52 59
REMARK Flexibility Score: inf
ROOT
ATOM      1  C   UNL A   1      31.515  28.970  25.242  1.00  0.00     0.118 C 
ENDROOT
BRANCH   1   2
ATOM      2  N   UNL A   1      30.769  29.057  23.997  1.00  0.00    -0.351 N 
ATOM      3  C   UNL A   1      30.644  28.219  22.935  1.00  0.00     0.262 C 
ATOM      4  O   UNL A   1      29.867  28.574  22.043  1.00  0.00    -0.268 OA
ATOM      5  H   UNL A   1      30.251  29.890  23.905  1.00  0.00     0.163 HD
BRANCH   3   6
ATOM      6  C   UNL A   1      31.361  26.913  22.827  1.00  0.00     0.120 C 
ATOM      7  C   UNL A   1      30.858  25.892  23.552  1.00  0.00     0.072 C 
BRANCH   7   8
ATOM      8  C   UNL A   1      31.413  24.580  23.600  1.00  0.00     0.129 A 
ATOM      9  C   UNL A   1      32.937  22.962  23.770  1.00  0.00     0.135 A 
ATOM     10  C   UNL A   1      31.749  22.332  23.486  1.00  0.00     0.051 A 
ATOM     11  O   UNL A   1      32.731  24.300  23.873  1.00  0.00    -0.457 OA
ATOM     12  C   UNL A   1      30.779  23.361  23.378  1.00  0.00     0.051 A 
BRANCH   9  13
ATOM     13  C   UNL A   1      34.318  22.530  23.922  1.00  0.00     0.032 A 
ATOM     14  C   UNL A   1      34.689  21.459  24.756  1.00  0.00     0.071 A 
ATOM     15  C   UNL A   1      36.041  21.118  24.920  1.00  0.00     0.016 A 
ATOM     16  C   UNL A   1      37.029  21.824  24.235  1.00  0.00     0.001 A 
ATOM     17  C   UNL A   1      35.327  23.218  23.230  1.00  0.00     0.013 A 
ATOM     18  C   UNL A   1      36.672  22.870  23.386  1.00  0.00     0.001 A 
BRANCH  14  19
ATOM     19  C   UNL A   1      33.701  20.649  25.500  1.00  0.00     0.338 C 
ATOM     20  O   UNL A   1      33.277  20.954  26.606  1.00  0.00    -0.246 OA
BRANCH  19  21
ATOM     21  O   UNL A   1      33.397  19.534  24.798  1.00  0.00    -0.465 OA
ATOM     22  C   UNL A   1      32.830  18.480  25.573  1.00  0.00     0.282 C 
ENDBRANCH  19  21
ENDBRANCH  14  19
ENDBRANCH   9  13
ENDBRANCH   7   8
BRANCH   6  23
ATOM     23  C   UNL A   1      32.619  26.744  21.990  1.00  0.00     0.105 C 
ATOM     24  N   UNL A   1      33.661  26.603  21.294  1.00  0.00    -0.192 NA
ENDBRANCH   6  23
ENDBRANCH   3   6
ENDBRANCH   1   2
BRANCH   1  25
ATOM     25  C   UNL A   1      32.994  29.298  25.043  1.00  0.00     0.042 C 
BRANCH  25  26
ATOM     26  C   UNL A   1      33.753  29.465  26.359  1.00  0.00     0.118 C 
BRANCH  26  27
ATOM     27  N   UNL A   1      33.689  30.835  26.850  1.00  0.00    -0.352 N 
ATOM     28  C   UNL A   1      34.425  31.463  27.822  1.00  0.00     0.251 C 
ATOM     29  H   UNL A   1      33.009  31.400  26.416  1.00  0.00     0.163 HD
ATOM     30  O   UNL A   1      34.042  32.551  28.245  1.00  0.00    -0.269 OA
BRANCH  28  31
ATOM     31  C   UNL A   1      35.657  30.846  28.360  1.00  0.00     0.039 A 
ATOM     32  C   UNL A   1      36.895  31.334  27.931  1.00  0.00     0.014 A 
ATOM     33  C   UNL A   1      35.600  29.756  29.232  1.00  0.00     0.014 A 
ATOM     34  C   UNL A   1      38.074  30.758  28.410  1.00  0.00     0.010 A 
ATOM     35  C   UNL A   1      36.774  29.225  29.759  1.00  0.00     0.010 A 
ATOM     36  C   UNL A   1      38.022  29.714  29.347  1.00  0.00    -0.014 A 
BRANCH  36  37
ATOM     37  C   UNL A   1      39.264  29.107  29.891  1.00  0.00     0.031 A 
ATOM     38  C   UNL A   1      39.917  29.696  31.111  1.00  0.00     0.074 A 
ATOM     39  C   UNL A   1      39.834  28.071  29.247  1.00  0.00     0.049 A 
ATOM     40  N   UNL A   1      41.047  29.373  31.686  1.00  0.00    -0.248 NA
ATOM     41  C   UNL A   1      39.216  30.819  31.749  1.00  0.00     0.031 C 
ATOM     42  C   UNL A   1      39.310  27.438  28.035  1.00  0.00     0.029 A 
ATOM     43  N   UNL A   1      40.984  27.374  29.516  1.00  0.00    -0.354 N 
ATOM     44  C   UNL A   1      41.203  30.265  32.742  1.00  0.00     0.074 A 
ATOM     45  C   UNL A   1      40.080  31.177  32.687  1.00  0.00     0.031 C 
ATOM     46  C   UNL A   1      40.124  26.434  27.677  1.00  0.00     0.029 A 
ATOM     47  C   UNL A   1      41.249  26.378  28.605  1.00  0.00     0.049 A 
ATOM     48  H   UNL A   1      41.564  27.567  30.286  1.00  0.00     0.167 HD
ATOM     49  C   UNL A   1      42.182  30.305  33.683  1.00  0.00     0.034 A 
ATOM     50  C   UNL A   1      42.288  25.524  28.522  1.00  0.00     0.034 A 
ATOM     51  C   UNL A   1      43.287  29.378  33.724  1.00  0.00     0.049 A 
ATOM     52  C   UNL A   1      43.373  25.597  29.564  1.00  0.00     0.074 A 
ATOM     53  C   UNL A   1      44.307  29.290  34.656  1.00  0.00     0.029 A 
ATOM     54  N   UNL A   1      43.523  28.380  32.786  1.00  0.00    -0.354 N 
ATOM     55  N   UNL A   1      43.490  26.420  30.580  1.00  0.00    -0.248 NA
ATOM     56  C   UNL A   1      44.462  24.618  29.451  1.00  0.00     0.031 C 
ATOM     57  C   UNL A   1      45.189  28.281  34.250  1.00  0.00     0.029 A 
ATOM     58  C   UNL A   1      44.685  27.691  33.102  1.00  0.00     0.049 A 
ATOM     59  H   UNL A   1      42.948  28.188  32.010  1.00  0.00     0.167 HD
ATOM     60  C   UNL A   1      44.652  26.039  31.244  1.00  0.00     0.074 A 
ATOM     61  C   UNL A   1      45.192  24.907  30.519  1.00  0.00     0.031 C 
ATOM     62  C   UNL A   1      45.219  26.574  32.356  1.00  0.00     0.034 A 
BRANCH  49  63
ATOM     63  C   UNL A   1      42.102  31.407  34.714  1.00  0.00     0.023 A 
ATOM     64  C   UNL A   1      42.843  32.597  34.581  1.00  0.00     0.031 A 
ATOM     65  C   UNL A   1      41.322  31.248  35.872  1.00  0.00     0.131 A 
ATOM     66  C   UNL A   1      42.863  33.532  35.626  1.00  0.00     0.055 A 
ATOM     67  C   UNL A   1      41.276  32.226  36.871  1.00  0.00     0.041 A 
ATOM     68  F   UNL A   1      40.608  30.129  36.069  1.00  0.00    -0.206 F 
ATOM     69  C   UNL A   1      42.065  33.367  36.761  1.00  0.00     0.022 A 
BRANCH  66  70
ATOM     70  S   UNL A   1      44.077  34.878  35.557  1.00  0.00     0.124 S 
ATOM     71  O   UNL A   1      45.222  34.211  34.940  1.00  0.00    -0.237 OA
ATOM     72  O   UNL A   1      43.399  35.874  34.737  1.00  0.00    -0.237 OA
ATOM     73  O   UNL A   1      44.264  35.244  36.960  1.00  0.00    -0.744 OA
ENDBRANCH  66  70
ENDBRANCH  49  63
BRANCH  50  74
ATOM     74  C   UNL A   1      42.353  24.529  27.416  1.00  0.00     0.023 A 
ATOM     75  C   UNL A   1      41.704  23.289  27.525  1.00  0.00     0.031 A 
ATOM     76  C   UNL A   1      43.077  24.797  26.241  1.00  0.00     0.131 A 
ATOM     77  C   UNL A   1      41.821  22.347  26.491  1.00  0.00     0.055 A 
ATOM     78  C   UNL A   1      43.154  23.875  25.197  1.00  0.00     0.041 A 
ATOM     79  F   UNL A   1      43.709  25.972  26.086  1.00  0.00    -0.206 F 
ATOM     80  C   UNL A   1      42.531  22.636  25.324  1.00  0.00     0.022 A 
BRANCH  77  81
ATOM     81  S   UNL A   1      41.075  20.710  26.721  1.00  0.00     0.124 S 
ATOM     82  O   UNL A   1      39.831  20.842  25.971  1.00  0.00    -0.237 OA
ATOM     83  O   UNL A   1      42.086  19.833  26.140  1.00  0.00    -0.237 OA
ATOM     84  O   UNL A   1      40.923  20.607  28.171  1.00  0.00    -0.744 OA
ENDBRANCH  77  81
ENDBRANCH  50  74
BRANCH  62  85
ATOM     85  C   UNL A   1      46.468  25.903  32.871  1.00  0.00     0.023 A 
ATOM     86  C   UNL A   1      47.740  26.222  32.364  1.00  0.00     0.031 A 
ATOM     87  C   UNL A   1      46.378  24.918  33.870  1.00  0.00     0.131 A 
ATOM     88  C   UNL A   1      48.867  25.522  32.821  1.00  0.00     0.055 A 
ATOM     89  C   UNL A   1      47.510  24.265  34.360  1.00  0.00     0.041 A 
ATOM     90  F   UNL A   1      45.188  24.574  34.386  1.00  0.00    -0.206 F 
ATOM     91  C   UNL A   1      48.762  24.557  33.826  1.00  0.00     0.022 A 
BRANCH  88  92
ATOM     92  S   UNL A   1      50.467  25.829  32.020  1.00  0.00     0.124 S 
ATOM     93  O   UNL A   1      51.277  24.729  32.532  1.00  0.00    -0.237 OA
ATOM     94  O   UNL A   1      50.124  25.763  30.604  1.00  0.00    -0.237 OA
ATOM     95  O   UNL A   1      50.844  27.155  32.505  1.00  0.00    -0.744 OA
ENDBRANCH  88  92
ENDBRANCH  62  85
ENDBRANCH  36  37
ENDBRANCH  28  31
ENDBRANCH  26  27
ENDBRANCH  25  26
ENDBRANCH   1  25
TORSDOF 18
ENDMDL
