MODEL 1
REMARK VINA RESULT:     -12.4      0.000      0.000
REMARK SMILES CN(C)C(=O)[C@@H]1CC=CC[C@H]1C(=O)N(c1ccccc1)c1ccccc1C(=O)NCCCNC(=O)c1ccc(-c2c3nc(c(-c4cc(S(=O)(=O)[O-])ccc4F)c4ccc([nH]4)c(-c4cc(S(=O)(=O)[O-])ccc4F)c4nc(c(-c5cc(S(=O)(=O)[O-])ccc5F)c5ccc2[nH]5)C=C4)C=C3)cc1
REMARK SMILES IDX 30 1 29 2 27 3 28 4 26 6 21 7 22 8 23 9 25 10 24 11 14 12
REMARK SMILES IDX 12 13 13 14 11 15 6 16 7 17 8 18 10 19 9 20 4 21 1 22 2 23
REMARK SMILES IDX 3 24 5 25 15 26 16 27 20 28 17 29 19 30 18 31 31 32 32 33
REMARK SMILES IDX 33 34 34 35 35 37 36 38 37 39 98 40 38 41 97 42 39 43 40 44
REMARK SMILES IDX 41 45 91 46 42 47 96 48 90 49 92 50 43 51 95 52 89 53 88 54
REMARK SMILES IDX 44 56 76 57 56 58 75 59 57 60 60 61 74 62 93 63 58 64 59 65
REMARK SMILES IDX 73 67 94 68 61 69 45 70 46 71 54 72 47 73 53 74 55 75 52 76
REMARK SMILES IDX 48 77 49 78 50 79 51 80 77 81 78 82 86 83 79 84 85 85 87 86
REMARK SMILES IDX 84 87 80 88 81 89 82 90 83 91 62 92 63 93 71 94 64 95 70 96
REMARK SMILES IDX 72 97 69 98 65 99 66 100 67 101 68 102
REMARK H PARENT 29 5 33 36 92 55 60 66
REMARK Flexibility Score: inf
ROOT
ATOM      1  C   UNL A   1      32.045  27.544  26.986  1.00  0.00     0.118 C 
ENDROOT
BRANCH   1   2
ATOM      2  N   UNL A   1      30.994  26.732  26.454  1.00  0.00    -0.352 N 
ATOM      3  C   UNL A   1      30.995  25.964  25.314  1.00  0.00     0.253 C 
ATOM      4  O   UNL A   1      30.113  25.098  25.258  1.00  0.00    -0.269 OA
ATOM      5  H   UNL A   1      30.157  26.723  26.974  1.00  0.00     0.163 HD
BRANCH   3   6
ATOM      6  C   UNL A   1      31.820  26.211  24.077  1.00  0.00     0.063 A 
ATOM      7  C   UNL A   1      32.711  25.397  23.329  1.00  0.00     0.062 A 
ATOM      8  C   UNL A   1      33.301  25.975  22.163  1.00  0.00     0.027 A 
ATOM      9  C   UNL A   1      33.082  27.292  21.759  1.00  0.00     0.002 A 
ATOM     10  C   UNL A   1      31.634  27.558  23.640  1.00  0.00     0.016 A 
ATOM     11  C   UNL A   1      32.253  28.094  22.511  1.00  0.00     0.001 A 
BRANCH   7  12
ATOM     12  N   UNL A   1      33.083  24.011  23.585  1.00  0.00    -0.280 N 
BRANCH  12  13
ATOM     13  C   UNL A   1      32.187  22.968  23.335  1.00  0.00     0.235 C 
ATOM     14  O   UNL A   1      30.992  23.230  23.132  1.00  0.00    -0.274 OA
BRANCH  13  15
ATOM     15  C   UNL A   1      32.622  21.447  23.365  1.00  0.00     0.096 C 
ATOM     16  C   UNL A   1      32.154  20.725  24.652  1.00  0.00     0.095 C 
ATOM     17  C   UNL A   1      32.586  19.254  24.697  1.00  0.00     0.041 C 
ATOM     18  C   UNL A   1      32.219  18.522  23.447  1.00  0.00    -0.030 C 
ATOM     19  C   UNL A   1      32.468  20.591  22.083  1.00  0.00     0.041 C 
ATOM     20  C   UNL A   1      32.150  19.142  22.265  1.00  0.00    -0.030 C 
BRANCH  16  21
ATOM     21  C   UNL A   1      32.735  21.425  25.878  1.00  0.00     0.226 C 
ATOM     22  C   UNL A   1      32.502  23.400  27.268  1.00  0.00     0.146 C 
ATOM     23  N   UNL A   1      31.891  22.281  26.573  1.00  0.00    -0.349 N 
ATOM     24  C   UNL A   1      30.443  22.251  26.495  1.00  0.00     0.146 C 
ATOM     25  O   UNL A   1      33.915  21.271  26.198  1.00  0.00    -0.275 OA
ENDBRANCH  16  21
ENDBRANCH  13  15
ENDBRANCH  12  13
BRANCH  12  26
ATOM     26  C   UNL A   1      34.455  23.824  23.958  1.00  0.00     0.049 A 
ATOM     27  C   UNL A   1      34.939  24.395  25.151  1.00  0.00     0.027 A 
ATOM     28  C   UNL A   1      35.316  23.026  23.199  1.00  0.00     0.027 A 
ATOM     29  C   UNL A   1      36.214  24.080  25.623  1.00  0.00     0.002 A 
ATOM     30  C   UNL A   1      36.591  22.708  23.675  1.00  0.00     0.002 A 
ATOM     31  C   UNL A   1      37.029  23.217  24.896  1.00  0.00     0.000 A 
ENDBRANCH  12  26
ENDBRANCH   7  12
ENDBRANCH   3   6
ENDBRANCH   1   2
BRANCH   1  32
ATOM     32  C   UNL A   1      31.744  29.007  27.252  1.00  0.00     0.042 C 
BRANCH  32  33
ATOM     33  C   UNL A   1      32.278  30.022  26.235  1.00  0.00     0.118 C 
BRANCH  33  34
ATOM     34  N   UNL A   1      32.119  31.439  26.562  1.00  0.00    -0.352 N 
ATOM     35  C   UNL A   1      32.854  32.390  27.246  1.00  0.00     0.251 C 
ATOM     36  H   UNL A   1      31.279  31.808  26.206  1.00  0.00     0.163 HD
ATOM     37  O   UNL A   1      32.393  33.519  27.319  1.00  0.00    -0.269 OA
BRANCH  35  38
ATOM     38  C   UNL A   1      34.128  32.089  27.952  1.00  0.00     0.039 A 
ATOM     39  C   UNL A   1      35.125  33.083  28.003  1.00  0.00     0.014 A 
ATOM     40  C   UNL A   1      34.398  30.856  28.524  1.00  0.00     0.014 A 
ATOM     41  C   UNL A   1      36.323  32.869  28.702  1.00  0.00     0.010 A 
ATOM     42  C   UNL A   1      35.534  30.674  29.305  1.00  0.00     0.010 A 
ATOM     43  C   UNL A   1      36.520  31.670  29.392  1.00  0.00    -0.014 A 
BRANCH  43  44
ATOM     44  C   UNL A   1      37.770  31.336  30.125  1.00  0.00     0.031 A 
ATOM     45  C   UNL A   1      38.714  30.337  29.505  1.00  0.00     0.074 A 
ATOM     46  C   UNL A   1      37.989  31.791  31.373  1.00  0.00     0.049 A 
ATOM     47  N   UNL A   1      39.672  29.639  30.054  1.00  0.00    -0.248 NA
ATOM     48  C   UNL A   1      38.488  30.037  28.083  1.00  0.00     0.031 C 
ATOM     49  C   UNL A   1      37.149  32.752  32.089  1.00  0.00     0.029 A 
ATOM     50  N   UNL A   1      38.972  31.470  32.278  1.00  0.00    -0.354 N 
ATOM     51  C   UNL A   1      40.120  28.773  29.061  1.00  0.00     0.074 A 
ATOM     52  C   UNL A   1      39.283  28.996  27.902  1.00  0.00     0.031 C 
ATOM     53  C   UNL A   1      37.652  32.941  33.321  1.00  0.00     0.029 A 
ATOM     54  C   UNL A   1      38.813  32.075  33.503  1.00  0.00     0.049 A 
ATOM     55  H   UNL A   1      39.719  30.865  32.068  1.00  0.00     0.167 HD
ATOM     56  C   UNL A   1      41.147  27.887  29.106  1.00  0.00     0.034 A 
ATOM     57  C   UNL A   1      39.510  31.922  34.648  1.00  0.00     0.034 A 
ATOM     58  C   UNL A   1      41.999  27.722  30.256  1.00  0.00     0.049 A 
ATOM     59  C   UNL A   1      40.659  30.943  34.677  1.00  0.00     0.074 A 
ATOM     60  C   UNL A   1      43.107  26.906  30.404  1.00  0.00     0.029 A 
ATOM     61  N   UNL A   1      41.842  28.399  31.461  1.00  0.00    -0.354 N 
ATOM     62  N   UNL A   1      41.082  30.134  33.731  1.00  0.00    -0.248 NA
ATOM     63  C   UNL A   1      41.427  30.861  35.926  1.00  0.00     0.031 C 
ATOM     64  C   UNL A   1      43.588  27.052  31.710  1.00  0.00     0.029 A 
ATOM     65  C   UNL A   1      42.824  28.010  32.358  1.00  0.00     0.049 A 
ATOM     66  H   UNL A   1      41.137  29.059  31.647  1.00  0.00     0.167 HD
ATOM     67  C   UNL A   1      42.188  29.476  34.262  1.00  0.00     0.074 A 
ATOM     68  C   UNL A   1      42.370  29.987  35.605  1.00  0.00     0.031 C 
ATOM     69  C   UNL A   1      42.987  28.536  33.691  1.00  0.00     0.034 A 
BRANCH  56  70
ATOM     70  C   UNL A   1      41.374  27.028  27.883  1.00  0.00     0.023 A 
ATOM     71  C   UNL A   1      41.007  25.670  27.857  1.00  0.00     0.031 A 
ATOM     72  C   UNL A   1      42.025  27.550  26.752  1.00  0.00     0.131 A 
ATOM     73  C   UNL A   1      41.391  24.860  26.779  1.00  0.00     0.055 A 
ATOM     74  C   UNL A   1      42.316  26.761  25.638  1.00  0.00     0.041 A 
ATOM     75  F   UNL A   1      42.417  28.834  26.720  1.00  0.00    -0.206 F 
ATOM     76  C   UNL A   1      42.019  25.401  25.656  1.00  0.00     0.022 A 
BRANCH  73  77
ATOM     77  S   UNL A   1      41.219  23.062  26.950  1.00  0.00     0.124 S 
ATOM     78  O   UNL A   1      39.774  22.921  27.112  1.00  0.00    -0.237 OA
ATOM     79  O   UNL A   1      41.774  22.571  25.695  1.00  0.00    -0.237 OA
ATOM     80  O   UNL A   1      42.005  22.756  28.145  1.00  0.00    -0.744 OA
ENDBRANCH  73  77
ENDBRANCH  56  70
BRANCH  57  81
ATOM     81  C   UNL A   1      39.145  32.699  35.867  1.00  0.00     0.023 A 
ATOM     82  C   UNL A   1      39.662  33.987  36.077  1.00  0.00     0.031 A 
ATOM     83  C   UNL A   1      38.310  32.155  36.860  1.00  0.00     0.131 A 
ATOM     84  C   UNL A   1      39.379  34.671  37.269  1.00  0.00     0.055 A 
ATOM     85  C   UNL A   1      37.992  32.859  38.023  1.00  0.00     0.041 A 
ATOM     86  F   UNL A   1      37.780  30.930  36.706  1.00  0.00    -0.206 F 
ATOM     87  C   UNL A   1      38.538  34.120  38.239  1.00  0.00     0.022 A 
BRANCH  84  88
ATOM     88  S   UNL A   1      40.188  36.267  37.567  1.00  0.00     0.124 S 
ATOM     89  O   UNL A   1      41.463  35.851  38.141  1.00  0.00    -0.237 OA
ATOM     90  O   UNL A   1      40.244  36.832  36.223  1.00  0.00    -0.237 OA
ATOM     91  O   UNL A   1      39.278  36.943  38.488  1.00  0.00    -0.744 OA
ENDBRANCH  84  88
ENDBRANCH  57  81
BRANCH  69  92
ATOM     92  C   UNL A   1      44.164  28.055  34.502  1.00  0.00     0.023 A 
ATOM     93  C   UNL A   1      44.062  26.967  35.385  1.00  0.00     0.031 A 
ATOM     94  C   UNL A   1      45.409  28.698  34.383  1.00  0.00     0.131 A 
ATOM     95  C   UNL A   1      45.173  26.586  36.154  1.00  0.00     0.055 A 
ATOM     96  C   UNL A   1      46.524  28.279  35.107  1.00  0.00     0.041 A 
ATOM     97  F   UNL A   1      45.561  29.743  33.553  1.00  0.00    -0.206 F 
ATOM     98  C   UNL A   1      46.407  27.225  36.008  1.00  0.00     0.022 A 
BRANCH  95  99
ATOM     99  S   UNL A   1      44.961  25.297  37.412  1.00  0.00     0.124 S 
ATOM    100  O   UNL A   1      46.224  25.372  38.139  1.00  0.00    -0.237 OA
ATOM    101  O   UNL A   1      43.781  25.759  38.135  1.00  0.00    -0.237 OA
ATOM    102  O   UNL A   1      44.769  24.079  36.626  1.00  0.00    -0.744 OA
ENDBRANCH  95  99
ENDBRANCH  69  92
ENDBRANCH  43  44
ENDBRANCH  35  38
ENDBRANCH  33  34
ENDBRANCH  32  33
ENDBRANCH   1  32
TORSDOF 18
ENDMDL
MODEL 2
REMARK VINA RESULT:     -12.2      1.862      7.548
REMARK SMILES CN(C)C(=O)[C@@H]1CC=CC[C@H]1C(=O)N(c1ccccc1)c1ccccc1C(=O)NCCCNC(=O)c1ccc(-c2c3nc(c(-c4cc(S(=O)(=O)[O-])ccc4F)c4ccc([nH]4)c(-c4cc(S(=O)(=O)[O-])ccc4F)c4nc(c(-c5cc(S(=O)(=O)[O-])ccc5F)c5ccc2[nH]5)C=C4)C=C3)cc1
REMARK SMILES IDX 30 1 29 2 27 3 28 4 26 6 21 7 22 8 23 9 25 10 24 11 14 12
REMARK SMILES IDX 12 13 13 14 11 15 6 16 7 17 8 18 10 19 9 20 4 21 1 22 2 23
REMARK SMILES IDX 3 24 5 25 15 26 16 27 20 28 17 29 19 30 18 31 31 32 32 33
REMARK SMILES IDX 33 34 34 35 35 37 36 38 37 39 98 40 38 41 97 42 39 43 40 44
REMARK SMILES IDX 41 45 91 46 42 47 96 48 90 49 92 50 43 51 95 52 89 53 88 54
REMARK SMILES IDX 44 56 76 57 56 58 75 59 57 60 60 61 74 62 93 63 58 64 59 65
REMARK SMILES IDX 73 67 94 68 61 69 45 70 46 71 54 72 47 73 53 74 55 75 52 76
REMARK SMILES IDX 48 77 49 78 50 79 51 80 77 81 78 82 86 83 79 84 85 85 87 86
REMARK SMILES IDX 84 87 80 88 81 89 82 90 83 91 62 92 63 93 71 94 64 95 70 96
REMARK SMILES IDX 72 97 69 98 65 99 66 100 67 101 68 102
REMARK H PARENT 29 5 33 36 92 55 60 66
REMARK Flexibility Score: inf
ROOT
ATOM      1  C   UNL A   1      32.151  27.539  27.194  1.00  0.00     0.118 C 
ENDROOT
BRANCH   1   2
ATOM      2  N   UNL A   1      31.048  26.831  26.620  1.00  0.00    -0.352 N 
ATOM      3  C   UNL A   1      30.996  26.138  25.434  1.00  0.00     0.253 C 
ATOM      4  O   UNL A   1      30.059  25.336  25.330  1.00  0.00    -0.269 OA
ATOM      5  H   UNL A   1      30.215  26.842  27.145  1.00  0.00     0.163 HD
BRANCH   3   6
ATOM      6  C   UNL A   1      31.830  26.411  24.208  1.00  0.00     0.063 A 
ATOM      7  C   UNL A   1      32.716  25.609  23.442  1.00  0.00     0.062 A 
ATOM      8  C   UNL A   1      33.318  26.212  22.296  1.00  0.00     0.027 A 
ATOM      9  C   UNL A   1      33.115  27.542  21.927  1.00  0.00     0.002 A 
ATOM     10  C   UNL A   1      31.659  27.771  23.808  1.00  0.00     0.016 A 
ATOM     11  C   UNL A   1      32.290  28.332  22.697  1.00  0.00     0.001 A 
BRANCH   7  12
ATOM     12  N   UNL A   1      33.072  24.212  23.661  1.00  0.00    -0.280 N 
BRANCH  12  13
ATOM     13  C   UNL A   1      32.161  23.187  23.392  1.00  0.00     0.235 C 
ATOM     14  O   UNL A   1      30.968  23.468  23.208  1.00  0.00    -0.274 OA
BRANCH  13  15
ATOM     15  C   UNL A   1      32.579  21.661  23.375  1.00  0.00     0.096 C 
ATOM     16  C   UNL A   1      32.081  20.900  24.627  1.00  0.00     0.095 C 
ATOM     17  C   UNL A   1      32.496  19.423  24.628  1.00  0.00     0.041 C 
ATOM     18  C   UNL A   1      32.142  18.740  23.347  1.00  0.00    -0.030 C 
ATOM     19  C   UNL A   1      32.437  20.853  22.060  1.00  0.00     0.041 C 
ATOM     20  C   UNL A   1      32.099  19.401  22.186  1.00  0.00    -0.030 C 
BRANCH  16  21
ATOM     21  C   UNL A   1      32.649  21.549  25.887  1.00  0.00     0.226 C 
ATOM     22  C   UNL A   1      32.404  23.469  27.350  1.00  0.00     0.146 C 
ATOM     23  N   UNL A   1      31.799  22.380  26.605  1.00  0.00    -0.349 N 
ATOM     24  C   UNL A   1      30.352  22.358  26.508  1.00  0.00     0.146 C 
ATOM     25  O   UNL A   1      33.824  21.378  26.215  1.00  0.00    -0.275 OA
ENDBRANCH  16  21
ENDBRANCH  13  15
ENDBRANCH  12  13
BRANCH  12  26
ATOM     26  C   UNL A   1      34.443  23.999  24.021  1.00  0.00     0.049 A 
ATOM     27  C   UNL A   1      34.919  24.455  25.266  1.00  0.00     0.027 A 
ATOM     28  C   UNL A   1      35.313  23.283  23.193  1.00  0.00     0.027 A 
ATOM     29  C   UNL A   1      36.194  24.105  25.711  1.00  0.00     0.002 A 
ATOM     30  C   UNL A   1      36.588  22.928  23.643  1.00  0.00     0.002 A 
ATOM     31  C   UNL A   1      37.017  23.321  24.908  1.00  0.00     0.000 A 
ENDBRANCH  12  26
ENDBRANCH   7  12
ENDBRANCH   3   6
ENDBRANCH   1   2
BRANCH   1  32
ATOM     32  C   UNL A   1      32.053  29.050  27.284  1.00  0.00     0.042 C 
BRANCH  32  33
ATOM     33  C   UNL A   1      33.054  29.862  26.454  1.00  0.00     0.118 C 
BRANCH  33  34
ATOM     34  N   UNL A   1      33.294  31.246  26.865  1.00  0.00    -0.352 N 
ATOM     35  C   UNL A   1      34.269  31.915  27.581  1.00  0.00     0.251 C 
ATOM     36  H   UNL A   1      32.582  31.851  26.554  1.00  0.00     0.163 HD
ATOM     37  O   UNL A   1      34.135  33.120  27.732  1.00  0.00    -0.269 OA
BRANCH  35  38
ATOM     38  C   UNL A   1      35.419  31.234  28.234  1.00  0.00     0.039 A 
ATOM     39  C   UNL A   1      35.181  30.055  28.966  1.00  0.00     0.014 A 
ATOM     40  C   UNL A   1      36.711  31.735  28.191  1.00  0.00     0.014 A 
ATOM     41  C   UNL A   1      36.239  29.347  29.556  1.00  0.00     0.010 A 
ATOM     42  C   UNL A   1      37.774  30.984  28.683  1.00  0.00     0.010 A 
ATOM     43  C   UNL A   1      37.553  29.789  29.386  1.00  0.00    -0.014 A 
BRANCH  43  44
ATOM     44  C   UNL A   1      38.733  29.129  30.005  1.00  0.00     0.031 A 
ATOM     45  C   UNL A   1      39.215  29.638  31.340  1.00  0.00     0.074 A 
ATOM     46  C   UNL A   1      39.447  28.206  29.335  1.00  0.00     0.049 A 
ATOM     47  N   UNL A   1      40.370  29.478  31.930  1.00  0.00    -0.248 NA
ATOM     48  C   UNL A   1      38.280  30.509  32.071  1.00  0.00     0.031 C 
ATOM     49  C   UNL A   1      39.095  27.637  28.033  1.00  0.00     0.029 A 
ATOM     50  N   UNL A   1      40.647  27.612  29.644  1.00  0.00    -0.354 N 
ATOM     51  C   UNL A   1      40.323  30.279  33.067  1.00  0.00     0.074 A 
ATOM     52  C   UNL A   1      39.050  30.967  33.044  1.00  0.00     0.031 C 
ATOM     53  C   UNL A   1      40.058  26.778  27.655  1.00  0.00     0.029 A 
ATOM     54  C   UNL A   1      41.119  26.777  28.657  1.00  0.00     0.049 A 
ATOM     55  H   UNL A   1      41.122  27.768  30.491  1.00  0.00     0.167 HD
ATOM     56  C   UNL A   1      41.248  30.413  34.050  1.00  0.00     0.034 A 
ATOM     57  C   UNL A   1      42.290  26.113  28.563  1.00  0.00     0.034 A 
ATOM     58  C   UNL A   1      42.487  29.675  34.077  1.00  0.00     0.049 A 
ATOM     59  C   UNL A   1      43.303  26.262  29.673  1.00  0.00     0.074 A 
ATOM     60  C   UNL A   1      43.475  29.676  35.045  1.00  0.00     0.029 A 
ATOM     61  N   UNL A   1      42.903  28.792  33.087  1.00  0.00    -0.354 N 
ATOM     62  N   UNL A   1      43.248  27.014  30.749  1.00  0.00    -0.248 NA
ATOM     63  C   UNL A   1      44.533  25.468  29.556  1.00  0.00     0.031 C 
ATOM     64  C   UNL A   1      44.508  28.835  34.618  1.00  0.00     0.029 A 
ATOM     65  C   UNL A   1      44.136  28.254  33.415  1.00  0.00     0.049 A 
ATOM     66  H   UNL A   1      42.394  28.580  32.271  1.00  0.00     0.167 HD
ATOM     67  C   UNL A   1      44.420  26.753  31.454  1.00  0.00     0.074 A 
ATOM     68  C   UNL A   1      45.157  25.771  30.685  1.00  0.00     0.031 C 
ATOM     69  C   UNL A   1      44.850  27.273  32.634  1.00  0.00     0.034 A 
BRANCH  56  70
ATOM     70  C   UNL A   1      40.952  31.407  35.149  1.00  0.00     0.023 A 
ATOM     71  C   UNL A   1      39.896  31.212  36.057  1.00  0.00     0.031 A 
ATOM     72  C   UNL A   1      41.690  32.600  35.253  1.00  0.00     0.131 A 
ATOM     73  C   UNL A   1      39.537  32.234  36.948  1.00  0.00     0.055 A 
ATOM     74  C   UNL A   1      41.391  33.571  36.210  1.00  0.00     0.041 A 
ATOM     75  F   UNL A   1      42.700  32.855  34.406  1.00  0.00    -0.206 F 
ATOM     76  C   UNL A   1      40.294  33.402  37.050  1.00  0.00     0.022 A 
BRANCH  73  77
ATOM     77  S   UNL A   1      37.963  32.086  37.836  1.00  0.00     0.124 S 
ATOM     78  O   UNL A   1      37.593  30.703  37.547  1.00  0.00    -0.237 OA
ATOM     79  O   UNL A   1      38.349  32.371  39.213  1.00  0.00    -0.237 OA
ATOM     80  O   UNL A   1      37.116  33.095  37.202  1.00  0.00    -0.744 OA
ENDBRANCH  73  77
ENDBRANCH  56  70
BRANCH  57  81
ATOM     81  C   UNL A   1      42.582  25.255  27.379  1.00  0.00     0.023 A 
ATOM     82  C   UNL A   1      42.128  23.929  27.326  1.00  0.00     0.031 A 
ATOM     83  C   UNL A   1      43.353  25.730  26.303  1.00  0.00     0.131 A 
ATOM     84  C   UNL A   1      42.484  23.107  26.246  1.00  0.00     0.055 A 
ATOM     85  C   UNL A   1      43.665  24.924  25.206  1.00  0.00     0.041 A 
ATOM     86  F   UNL A   1      43.806  26.995  26.297  1.00  0.00    -0.206 F 
ATOM     87  C   UNL A   1      43.240  23.599  25.180  1.00  0.00     0.022 A 
BRANCH  84  88
ATOM     88  S   UNL A   1      42.003  21.358  26.290  1.00  0.00     0.124 S 
ATOM     89  O   UNL A   1      40.585  21.431  25.958  1.00  0.00    -0.237 OA
ATOM     90  O   UNL A   1      42.873  20.781  25.270  1.00  0.00    -0.237 OA
ATOM     91  O   UNL A   1      42.306  20.957  27.662  1.00  0.00    -0.744 OA
ENDBRANCH  84  88
ENDBRANCH  57  81
BRANCH  69  92
ATOM     92  C   UNL A   1      46.146  26.736  33.187  1.00  0.00     0.023 A 
ATOM     93  C   UNL A   1      46.189  25.586  33.993  1.00  0.00     0.031 A 
ATOM     94  C   UNL A   1      47.357  27.389  32.898  1.00  0.00     0.131 A 
ATOM     95  C   UNL A   1      47.413  25.153  34.526  1.00  0.00     0.055 A 
ATOM     96  C   UNL A   1      48.578  26.921  33.383  1.00  0.00     0.041 A 
ATOM     97  F   UNL A   1      47.372  28.493  32.133  1.00  0.00    -0.206 F 
ATOM     98  C   UNL A   1      48.610  25.803  34.212  1.00  0.00     0.022 A 
BRANCH  95  99
ATOM     99  S   UNL A   1      47.412  23.775  35.704  1.00  0.00     0.124 S 
ATOM    100  O   UNL A   1      48.687  23.959  36.389  1.00  0.00    -0.237 OA
ATOM    101  O   UNL A   1      46.217  24.045  36.498  1.00  0.00    -0.237 OA
ATOM    102  O   UNL A   1      47.332  22.592  34.849  1.00  0.00    -0.744 OA
ENDBRANCH  95  99
ENDBRANCH  69  92
ENDBRANCH  43  44
ENDBRANCH  35  38
ENDBRANCH  33  34
ENDBRANCH  32  33
ENDBRANCH   1  32
TORSDOF 18
ENDMDL
MODEL 3
REMARK VINA RESULT:     -11.9      2.602      7.935
REMARK SMILES CN(C)C(=O)[C@@H]1CC=CC[C@H]1C(=O)N(c1ccccc1)c1ccccc1C(=O)NCCCNC(=O)c1ccc(-c2c3nc(c(-c4cc(S(=O)(=O)[O-])ccc4F)c4ccc([nH]4)c(-c4cc(S(=O)(=O)[O-])ccc4F)c4nc(c(-c5cc(S(=O)(=O)[O-])ccc5F)c5ccc2[nH]5)C=C4)C=C3)cc1
REMARK SMILES IDX 30 1 29 2 27 3 28 4 26 6 21 7 22 8 23 9 25 10 24 11 14 12
REMARK SMILES IDX 12 13 13 14 11 15 6 16 7 17 8 18 10 19 9 20 4 21 1 22 2 23
REMARK SMILES IDX 3 24 5 25 15 26 16 27 20 28 17 29 19 30 18 31 31 32 32 33
REMARK SMILES IDX 33 34 34 35 35 37 36 38 37 39 98 40 38 41 97 42 39 43 40 44
REMARK SMILES IDX 41 45 91 46 42 47 96 48 90 49 92 50 43 51 95 52 89 53 88 54
REMARK SMILES IDX 44 56 76 57 56 58 75 59 57 60 60 61 74 62 93 63 58 64 59 65
REMARK SMILES IDX 73 67 94 68 61 69 45 70 46 71 54 72 47 73 53 74 55 75 52 76
REMARK SMILES IDX 48 77 49 78 50 79 51 80 77 81 78 82 86 83 79 84 85 85 87 86
REMARK SMILES IDX 84 87 80 88 81 89 82 90 83 91 62 92 63 93 71 94 64 95 70 96
REMARK SMILES IDX 72 97 69 98 65 99 66 100 67 101 68 102
REMARK H PARENT 29 5 33 36 92 55 60 66
REMARK Flexibility Score: inf
ROOT
ATOM      1  C   UNL A   1      33.589  27.436  26.507  1.00  0.00     0.118 C 
ENDROOT
BRANCH   1   2
ATOM      2  N   UNL A   1      32.233  26.986  26.440  1.00  0.00    -0.352 N 
ATOM      3  C   UNL A   1      31.628  26.221  25.470  1.00  0.00     0.253 C 
ATOM      4  O   UNL A   1      30.567  25.681  25.807  1.00  0.00    -0.269 OA
ATOM      5  H   UNL A   1      31.655  27.260  27.189  1.00  0.00     0.163 HD
BRANCH   3   6
ATOM      6  C   UNL A   1      32.025  26.154  24.017  1.00  0.00     0.063 A 
ATOM      7  C   UNL A   1      32.632  25.144  23.225  1.00  0.00     0.062 A 
ATOM      8  C   UNL A   1      32.829  25.430  21.839  1.00  0.00     0.027 A 
ATOM      9  C   UNL A   1      32.500  26.650  21.249  1.00  0.00     0.002 A 
ATOM     10  C   UNL A   1      31.717  27.394  23.380  1.00  0.00     0.016 A 
ATOM     11  C   UNL A   1      31.953  27.646  22.028  1.00  0.00     0.001 A 
BRANCH   7  12
ATOM     12  N   UNL A   1      33.059  23.815  23.647  1.00  0.00    -0.280 N 
BRANCH  12  13
ATOM     13  C   UNL A   1      32.174  22.733  23.621  1.00  0.00     0.235 C 
ATOM     14  O   UNL A   1      30.956  22.948  23.540  1.00  0.00    -0.274 OA
BRANCH  13  15
ATOM     15  C   UNL A   1      32.659  21.233  23.757  1.00  0.00     0.096 C 
ATOM     16  C   UNL A   1      32.298  20.619  25.131  1.00  0.00     0.095 C 
ATOM     17  C   UNL A   1      32.779  19.170  25.278  1.00  0.00     0.041 C 
ATOM     18  C   UNL A   1      32.358  18.319  24.125  1.00  0.00    -0.030 C 
ATOM     19  C   UNL A   1      32.453  20.261  22.568  1.00  0.00     0.041 C 
ATOM     20  C   UNL A   1      32.194  18.826  22.899  1.00  0.00    -0.030 C 
BRANCH  16  21
ATOM     21  C   UNL A   1      32.932  21.443  26.249  1.00  0.00     0.226 C 
ATOM     22  C   UNL A   1      32.786  23.572  27.402  1.00  0.00     0.146 C 
ATOM     23  N   UNL A   1      32.129  22.396  26.862  1.00  0.00    -0.349 N 
ATOM     24  C   UNL A   1      30.679  22.393  26.828  1.00  0.00     0.146 C 
ATOM     25  O   UNL A   1      34.117  21.296  26.551  1.00  0.00    -0.275 OA
ENDBRANCH  16  21
ENDBRANCH  13  15
ENDBRANCH  12  13
BRANCH  12  26
ATOM     26  C   UNL A   1      34.459  23.704  23.932  1.00  0.00     0.049 A 
ATOM     27  C   UNL A   1      34.991  24.327  25.079  1.00  0.00     0.027 A 
ATOM     28  C   UNL A   1      35.309  22.931  23.135  1.00  0.00     0.027 A 
ATOM     29  C   UNL A   1      36.308  24.086  25.472  1.00  0.00     0.002 A 
ATOM     30  C   UNL A   1      36.626  22.687  23.533  1.00  0.00     0.002 A 
ATOM     31  C   UNL A   1      37.116  23.247  24.711  1.00  0.00     0.000 A 
ENDBRANCH  12  26
ENDBRANCH   7  12
ENDBRANCH   3   6
ENDBRANCH   1   2
BRANCH   1  32
ATOM     32  C   UNL A   1      33.846  28.928  26.407  1.00  0.00     0.042 C 
BRANCH  32  33
ATOM     33  C   UNL A   1      33.039  29.837  27.341  1.00  0.00     0.118 C 
BRANCH  33  34
ATOM     34  N   UNL A   1      33.516  31.209  27.512  1.00  0.00    -0.352 N 
ATOM     35  C   UNL A   1      34.685  31.809  27.943  1.00  0.00     0.251 C 
ATOM     36  H   UNL A   1      32.833  31.871  27.257  1.00  0.00     0.163 HD
ATOM     37  O   UNL A   1      34.726  33.030  27.951  1.00  0.00    -0.269 OA
BRANCH  35  38
ATOM     38  C   UNL A   1      35.854  31.049  28.461  1.00  0.00     0.039 A 
ATOM     39  C   UNL A   1      37.146  31.435  28.056  1.00  0.00     0.014 A 
ATOM     40  C   UNL A   1      35.725  29.946  29.291  1.00  0.00     0.014 A 
ATOM     41  C   UNL A   1      38.284  30.786  28.557  1.00  0.00     0.010 A 
ATOM     42  C   UNL A   1      36.848  29.366  29.872  1.00  0.00     0.010 A 
ATOM     43  C   UNL A   1      38.143  29.766  29.501  1.00  0.00    -0.014 A 
BRANCH  43  44
ATOM     44  C   UNL A   1      39.285  28.993  30.059  1.00  0.00     0.031 A 
ATOM     45  C   UNL A   1      39.963  29.520  31.298  1.00  0.00     0.074 A 
ATOM     46  C   UNL A   1      39.801  27.939  29.400  1.00  0.00     0.049 A 
ATOM     47  N   UNL A   1      41.142  29.243  31.789  1.00  0.00    -0.248 NA
ATOM     48  C   UNL A   1      39.230  30.557  32.040  1.00  0.00     0.031 C 
ATOM     49  C   UNL A   1      39.246  27.338  28.187  1.00  0.00     0.029 A 
ATOM     50  N   UNL A   1      40.939  27.208  29.643  1.00  0.00    -0.354 N 
ATOM     51  C   UNL A   1      41.317  30.117  32.858  1.00  0.00     0.074 A 
ATOM     52  C   UNL A   1      40.148  30.969  32.898  1.00  0.00     0.031 C 
ATOM     53  C   UNL A   1      40.045  26.332  27.791  1.00  0.00     0.029 A 
ATOM     54  C   UNL A   1      41.195  26.253  28.687  1.00  0.00     0.049 A 
ATOM     55  H   UNL A   1      41.515  27.354  30.427  1.00  0.00     0.167 HD
ATOM     56  C   UNL A   1      42.348  30.188  33.736  1.00  0.00     0.034 A 
ATOM     57  C   UNL A   1      42.254  25.430  28.538  1.00  0.00     0.034 A 
ATOM     58  C   UNL A   1      43.477  29.292  33.707  1.00  0.00     0.049 A 
ATOM     59  C   UNL A   1      43.387  25.513  29.533  1.00  0.00     0.074 A 
ATOM     60  C   UNL A   1      44.551  29.223  34.576  1.00  0.00     0.029 A 
ATOM     61  N   UNL A   1      43.670  28.296  32.756  1.00  0.00    -0.354 N 
ATOM     62  N   UNL A   1      43.541  26.335  30.546  1.00  0.00    -0.248 NA
ATOM     63  C   UNL A   1      44.485  24.552  29.366  1.00  0.00     0.031 C 
ATOM     64  C   UNL A   1      45.417  28.221  34.123  1.00  0.00     0.029 A 
ATOM     65  C   UNL A   1      44.851  27.617  33.010  1.00  0.00     0.049 A 
ATOM     66  H   UNL A   1      43.057  28.102  32.011  1.00  0.00     0.167 HD
ATOM     67  C   UNL A   1      44.735  25.964  31.157  1.00  0.00     0.074 A 
ATOM     68  C   UNL A   1      45.255  24.841  30.405  1.00  0.00     0.031 C 
ATOM     69  C   UNL A   1      45.348  26.498  32.247  1.00  0.00     0.034 A 
BRANCH  56  70
ATOM     70  C   UNL A   1      42.297  31.285  34.775  1.00  0.00     0.023 A 
ATOM     71  C   UNL A   1      42.770  32.582  34.503  1.00  0.00     0.031 A 
ATOM     72  C   UNL A   1      41.833  31.019  36.075  1.00  0.00     0.131 A 
ATOM     73  C   UNL A   1      42.873  33.523  35.538  1.00  0.00     0.055 A 
ATOM     74  C   UNL A   1      41.845  31.992  37.077  1.00  0.00     0.041 A 
ATOM     75  F   UNL A   1      41.385  29.797  36.405  1.00  0.00    -0.206 F 
ATOM     76  C   UNL A   1      42.389  33.247  36.817  1.00  0.00     0.022 A 
BRANCH  73  77
ATOM     77  S   UNL A   1      43.815  35.042  35.228  1.00  0.00     0.124 S 
ATOM     78  O   UNL A   1      43.661  35.191  33.783  1.00  0.00    -0.237 OA
ATOM     79  O   UNL A   1      43.116  36.021  36.051  1.00  0.00    -0.237 OA
ATOM     80  O   UNL A   1      45.167  34.703  35.671  1.00  0.00    -0.744 OA
ENDBRANCH  73  77
ENDBRANCH  56  70
BRANCH  57  81
ATOM     81  C   UNL A   1      42.310  24.463  27.404  1.00  0.00     0.023 A 
ATOM     82  C   UNL A   1      41.581  23.265  27.448  1.00  0.00     0.031 A 
ATOM     83  C   UNL A   1      43.121  24.699  26.280  1.00  0.00     0.131 A 
ATOM     84  C   UNL A   1      41.710  22.326  26.414  1.00  0.00     0.055 A 
ATOM     85  C   UNL A   1      43.210  23.783  25.230  1.00  0.00     0.041 A 
ATOM     86  F   UNL A   1      43.833  25.833  26.181  1.00  0.00    -0.206 F 
ATOM     87  C   UNL A   1      42.511  22.581  25.299  1.00  0.00     0.022 A 
BRANCH  84  88
ATOM     88  S   UNL A   1      40.870  20.727  26.583  1.00  0.00     0.124 S 
ATOM     89  O   UNL A   1      40.819  20.570  28.032  1.00  0.00    -0.237 OA
ATOM     90  O   UNL A   1      39.595  20.985  25.921  1.00  0.00    -0.237 OA
ATOM     91  O   UNL A   1      41.756  19.801  25.883  1.00  0.00    -0.744 OA
ENDBRANCH  84  88
ENDBRANCH  57  81
BRANCH  69  92
ATOM     92  C   UNL A   1      46.613  25.827  32.719  1.00  0.00     0.023 A 
ATOM     93  C   UNL A   1      47.867  26.136  32.166  1.00  0.00     0.031 A 
ATOM     94  C   UNL A   1      46.558  24.865  33.743  1.00  0.00     0.131 A 
ATOM     95  C   UNL A   1      49.011  25.449  32.604  1.00  0.00     0.055 A 
ATOM     96  C   UNL A   1      47.705  24.227  34.214  1.00  0.00     0.041 A 
ATOM     97  F   UNL A   1      45.385  24.533  34.305  1.00  0.00    -0.206 F 
ATOM     98  C   UNL A   1      48.940  24.510  33.636  1.00  0.00     0.022 A 
BRANCH  95  99
ATOM     99  S   UNL A   1      50.583  25.740  31.748  1.00  0.00     0.124 S 
ATOM    100  O   UNL A   1      50.504  24.796  30.638  1.00  0.00    -0.237 OA
ATOM    101  O   UNL A   1      50.487  27.152  31.391  1.00  0.00    -0.237 OA
ATOM    102  O   UNL A   1      51.588  25.425  32.761  1.00  0.00    -0.744 OA
ENDBRANCH  95  99
ENDBRANCH  69  92
ENDBRANCH  43  44
ENDBRANCH  35  38
ENDBRANCH  33  34
ENDBRANCH  32  33
ENDBRANCH   1  32
TORSDOF 18
ENDMDL
