MODEL 1
REMARK VINA RESULT:     -11.8      0.000      0.000
REMARK SMILES C[C@H](CC(=O)NCCCNC(=O)c1ccc(-c2c3nc(c(-c4cc(S(=O)(=O)[O-])ccc4F)c4ccc([nH]4)c(-c4cc(S(=O)(=O)[O-])ccc4F)c4nc(c(-c5cc(S(=O)(=O)[O-])ccc5F)c5ccc2[nH]5)C=C4)C=C3)cc1)NC(=O)Cn1nc2ccccn2c1=O
REMARK SMILES IDX 7 1 6 2 4 3 5 4 3 6 2 7 1 8 76 9 77 10 78 12 79 13 80 14
REMARK SMILES IDX 81 15 88 16 82 17 87 18 89 19 83 20 86 21 84 22 85 23 8 24
REMARK SMILES IDX 9 25 10 26 11 27 12 29 13 30 14 31 75 32 15 33 74 34 16 35
REMARK SMILES IDX 17 36 18 37 68 38 19 39 73 40 67 41 69 42 20 43 72 44 66 45
REMARK SMILES IDX 65 46 21 48 53 49 33 50 52 51 34 52 37 53 51 54 70 55 35 56
REMARK SMILES IDX 36 57 50 59 71 60 38 61 22 62 23 63 31 64 24 65 30 66 32 67
REMARK SMILES IDX 29 68 25 69 26 70 27 71 28 72 54 73 55 74 63 75 56 76 62 77
REMARK SMILES IDX 64 78 61 79 57 80 58 81 59 82 60 83 39 84 40 85 48 86 41 87
REMARK SMILES IDX 47 88 49 89 46 90 42 91 43 92 44 93 45 94
REMARK H PARENT 6 5 76 11 10 28 69 47 37 58
REMARK Flexibility Score: inf
ROOT
ATOM      1  C   UNL A   1      31.723  29.343  24.801  1.00  0.00     0.117 C 
ENDROOT
BRANCH   1   2
ATOM      2  N   UNL A   1      31.088  29.438  23.494  1.00  0.00    -0.356 N 
ATOM      3  C   UNL A   1      30.311  28.542  22.825  1.00  0.00     0.222 C 
ATOM      4  O   UNL A   1      29.942  28.826  21.683  1.00  0.00    -0.275 OA
ATOM      5  H   UNL A   1      31.245  30.285  23.018  1.00  0.00     0.163 HD
BRANCH   3   6
ATOM      6  C   UNL A   1      29.881  27.247  23.481  1.00  0.00     0.124 C 
BRANCH   6   7
ATOM      7  C   UNL A   1      30.882  26.088  23.369  1.00  0.00     0.088 C 
ATOM      8  C   UNL A   1      30.254  24.735  23.703  1.00  0.00     0.031 C 
BRANCH   7   9
ATOM      9  N   UNL A   1      31.530  26.020  22.069  1.00  0.00    -0.352 N 
ATOM     10  C   UNL A   1      32.842  25.855  21.732  1.00  0.00     0.242 C 
ATOM     11  H   UNL A   1      30.919  26.108  21.302  1.00  0.00     0.163 HD
ATOM     12  O   UNL A   1      33.127  25.908  20.532  1.00  0.00    -0.273 OA
BRANCH  10  13
ATOM     13  C   UNL A   1      33.899  25.520  22.773  1.00  0.00     0.249 C 
BRANCH  13  14
ATOM     14  N   UNL A   1      33.956  24.149  23.231  1.00  0.00    -0.203 N 
ATOM     15  N   UNL A   1      33.168  23.151  22.673  1.00  0.00    -0.149 NA
ATOM     16  C   UNL A   1      34.442  23.736  24.481  1.00  0.00     0.350 A 
ATOM     17  C   UNL A   1      33.187  22.209  23.565  1.00  0.00     0.161 A 
ATOM     18  N   UNL A   1      33.948  22.472  24.657  1.00  0.00    -0.250 N 
ATOM     19  O   UNL A   1      35.097  24.390  25.281  1.00  0.00    -0.246 OA
ATOM     20  C   UNL A   1      32.460  20.900  23.532  1.00  0.00     0.050 A 
ATOM     21  C   UNL A   1      34.055  21.657  25.747  1.00  0.00     0.098 A 
ATOM     22  C   UNL A   1      32.265  20.365  24.758  1.00  0.00     0.005 A 
ATOM     23  C   UNL A   1      33.244  20.593  25.822  1.00  0.00     0.019 A 
ENDBRANCH  13  14
ENDBRANCH  10  13
ENDBRANCH   7   9
ENDBRANCH   6   7
ENDBRANCH   3   6
ENDBRANCH   1   2
BRANCH   1  24
ATOM     24  C   UNL A   1      33.163  28.857  24.693  1.00  0.00     0.042 C 
BRANCH  24  25
ATOM     25  C   UNL A   1      33.978  29.021  25.964  1.00  0.00     0.118 C 
BRANCH  25  26
ATOM     26  N   UNL A   1      33.746  30.303  26.601  1.00  0.00    -0.352 N 
ATOM     27  C   UNL A   1      34.399  30.892  27.656  1.00  0.00     0.251 C 
ATOM     28  H   UNL A   1      33.009  30.831  26.218  1.00  0.00     0.163 HD
ATOM     29  O   UNL A   1      33.876  31.858  28.207  1.00  0.00    -0.269 OA
BRANCH  27  30
ATOM     30  C   UNL A   1      35.705  30.375  28.141  1.00  0.00     0.039 A 
ATOM     31  C   UNL A   1      35.763  29.791  29.410  1.00  0.00     0.014 A 
ATOM     32  C   UNL A   1      36.878  30.506  27.393  1.00  0.00     0.014 A 
ATOM     33  C   UNL A   1      36.980  29.311  29.903  1.00  0.00     0.010 A 
ATOM     34  C   UNL A   1      38.068  29.931  27.841  1.00  0.00     0.010 A 
ATOM     35  C   UNL A   1      38.141  29.349  29.113  1.00  0.00    -0.014 A 
BRANCH  35  36
ATOM     36  C   UNL A   1      39.433  28.813  29.625  1.00  0.00     0.031 A 
ATOM     37  C   UNL A   1      40.108  29.453  30.813  1.00  0.00     0.074 A 
ATOM     38  C   UNL A   1      40.010  27.762  29.008  1.00  0.00     0.049 A 
ATOM     39  N   UNL A   1      41.234  29.133  31.398  1.00  0.00    -0.248 NA
ATOM     40  C   UNL A   1      39.444  30.625  31.402  1.00  0.00     0.031 C 
ATOM     41  C   UNL A   1      39.482  27.087  27.821  1.00  0.00     0.029 A 
ATOM     42  N   UNL A   1      41.163  27.073  29.293  1.00  0.00    -0.354 N 
ATOM     43  C   UNL A   1      41.418  30.067  32.413  1.00  0.00     0.074 A 
ATOM     44  C   UNL A   1      40.323  31.006  32.316  1.00  0.00     0.031 C 
ATOM     45  C   UNL A   1      40.282  26.057  27.507  1.00  0.00     0.029 A 
ATOM     46  C   UNL A   1      41.410  26.027  28.433  1.00  0.00     0.049 A 
ATOM     47  H   UNL A   1      41.758  27.305  30.042  1.00  0.00     0.167 HD
ATOM     48  C   UNL A   1      42.393  30.121  33.355  1.00  0.00     0.034 A 
ATOM     49  C   UNL A   1      42.430  25.147  28.388  1.00  0.00     0.034 A 
ATOM     50  C   UNL A   1      43.474  29.168  33.443  1.00  0.00     0.049 A 
ATOM     51  C   UNL A   1      43.514  25.240  29.433  1.00  0.00     0.074 A 
ATOM     52  C   UNL A   1      44.482  29.095  34.389  1.00  0.00     0.029 A 
ATOM     53  N   UNL A   1      43.698  28.130  32.547  1.00  0.00    -0.354 N 
ATOM     54  N   UNL A   1      43.636  26.093  30.425  1.00  0.00    -0.248 NA
ATOM     55  C   UNL A   1      44.587  24.242  29.360  1.00  0.00     0.031 C 
ATOM     56  C   UNL A   1      45.359  28.069  34.018  1.00  0.00     0.029 A 
ATOM     57  C   UNL A   1      44.849  27.437  32.895  1.00  0.00     0.049 A 
ATOM     58  H   UNL A   1      43.124  27.917  31.776  1.00  0.00     0.167 HD
ATOM     59  C   UNL A   1      44.788  25.713  31.110  1.00  0.00     0.074 A 
ATOM     60  C   UNL A   1      45.302  24.540  30.433  1.00  0.00     0.031 C 
ATOM     61  C   UNL A   1      45.366  26.281  32.201  1.00  0.00     0.034 A 
BRANCH  48  62
ATOM     62  C   UNL A   1      42.346  31.266  34.344  1.00  0.00     0.023 A 
ATOM     63  C   UNL A   1      41.404  31.309  35.388  1.00  0.00     0.031 A 
ATOM     64  C   UNL A   1      43.245  32.342  34.231  1.00  0.00     0.131 A 
ATOM     65  C   UNL A   1      41.329  32.435  36.222  1.00  0.00     0.055 A 
ATOM     66  C   UNL A   1      43.224  33.419  35.119  1.00  0.00     0.041 A 
ATOM     67  F   UNL A   1      44.154  32.372  33.244  1.00  0.00    -0.206 F 
ATOM     68  C   UNL A   1      42.251  33.478  36.113  1.00  0.00     0.022 A 
BRANCH  65  69
ATOM     69  S   UNL A   1      39.915  32.589  37.348  1.00  0.00     0.124 S 
ATOM     70  O   UNL A   1      40.566  32.509  38.653  1.00  0.00    -0.237 OA
ATOM     71  O   UNL A   1      39.363  33.889  36.987  1.00  0.00    -0.237 OA
ATOM     72  O   UNL A   1      39.079  31.439  37.007  1.00  0.00    -0.744 OA
ENDBRANCH  65  69
ENDBRANCH  48  62
BRANCH  49  73
ATOM     73  C   UNL A   1      42.490  24.111  27.315  1.00  0.00     0.023 A 
ATOM     74  C   UNL A   1      41.667  22.973  27.354  1.00  0.00     0.031 A 
ATOM     75  C   UNL A   1      43.407  24.221  26.255  1.00  0.00     0.131 A 
ATOM     76  C   UNL A   1      41.812  21.970  26.383  1.00  0.00     0.055 A 
ATOM     77  C   UNL A   1      43.503  23.251  25.256  1.00  0.00     0.041 A 
ATOM     78  F   UNL A   1      44.220  25.287  26.168  1.00  0.00    -0.206 F 
ATOM     79  C   UNL A   1      42.713  22.110  25.325  1.00  0.00     0.022 A 
BRANCH  76  80
ATOM     80  S   UNL A   1      40.873  20.429  26.575  1.00  0.00     0.124 S 
ATOM     81  O   UNL A   1      39.565  20.813  26.058  1.00  0.00    -0.237 OA
ATOM     82  O   UNL A   1      41.641  19.501  25.753  1.00  0.00    -0.237 OA
ATOM     83  O   UNL A   1      40.926  20.175  28.014  1.00  0.00    -0.744 OA
ENDBRANCH  76  80
ENDBRANCH  49  73
BRANCH  61  84
ATOM     84  C   UNL A   1      46.604  25.606  32.746  1.00  0.00     0.023 A 
ATOM     85  C   UNL A   1      46.531  24.607  33.733  1.00  0.00     0.031 A 
ATOM     86  C   UNL A   1      47.880  25.994  32.296  1.00  0.00     0.131 A 
ATOM     87  C   UNL A   1      47.707  24.090  34.295  1.00  0.00     0.055 A 
ATOM     88  C   UNL A   1      49.046  25.418  32.803  1.00  0.00     0.041 A 
ATOM     89  F   UNL A   1      48.016  26.945  31.359  1.00  0.00    -0.206 F 
ATOM     90  C   UNL A   1      48.964  24.474  33.823  1.00  0.00     0.022 A 
BRANCH  87  91
ATOM     91  S   UNL A   1      47.575  23.007  35.745  1.00  0.00     0.124 S 
ATOM     92  O   UNL A   1      46.852  21.861  35.202  1.00  0.00    -0.237 OA
ATOM     93  O   UNL A   1      48.974  22.772  36.089  1.00  0.00    -0.237 OA
ATOM     94  O   UNL A   1      46.827  23.812  36.708  1.00  0.00    -0.744 OA
ENDBRANCH  87  91
ENDBRANCH  61  84
ENDBRANCH  35  36
ENDBRANCH  27  30
ENDBRANCH  25  26
ENDBRANCH  24  25
ENDBRANCH   1  24
TORSDOF 17
ENDMDL
MODEL 2
REMARK VINA RESULT:     -11.5      2.195      2.915
REMARK SMILES C[C@H](CC(=O)NCCCNC(=O)c1ccc(-c2c3nc(c(-c4cc(S(=O)(=O)[O-])ccc4F)c4ccc([nH]4)c(-c4cc(S(=O)(=O)[O-])ccc4F)c4nc(c(-c5cc(S(=O)(=O)[O-])ccc5F)c5ccc2[nH]5)C=C4)C=C3)cc1)NC(=O)Cn1nc2ccccn2c1=O
REMARK SMILES IDX 7 1 6 2 4 3 5 4 3 6 2 7 1 8 76 9 77 10 78 12 79 13 80 14
REMARK SMILES IDX 81 15 88 16 82 17 87 18 89 19 83 20 86 21 84 22 85 23 8 24
REMARK SMILES IDX 9 25 10 26 11 27 12 29 13 30 14 31 75 32 15 33 74 34 16 35
REMARK SMILES IDX 17 36 18 37 68 38 19 39 73 40 67 41 69 42 20 43 72 44 66 45
REMARK SMILES IDX 65 46 21 48 53 49 33 50 52 51 34 52 37 53 51 54 70 55 35 56
REMARK SMILES IDX 36 57 50 59 71 60 38 61 22 62 23 63 31 64 24 65 30 66 32 67
REMARK SMILES IDX 29 68 25 69 26 70 27 71 28 72 54 73 55 74 63 75 56 76 62 77
REMARK SMILES IDX 64 78 61 79 57 80 58 81 59 82 60 83 39 84 40 85 48 86 41 87
REMARK SMILES IDX 47 88 49 89 46 90 42 91 43 92 44 93 45 94
REMARK H PARENT 6 5 76 11 10 28 69 47 37 58
REMARK Flexibility Score: inf
ROOT
ATOM      1  C   UNL A   1      31.878  28.091  27.791  1.00  0.00     0.117 C 
ENDROOT
BRANCH   1   2
ATOM      2  N   UNL A   1      31.229  26.995  27.085  1.00  0.00    -0.356 N 
ATOM      3  C   UNL A   1      31.750  26.050  26.256  1.00  0.00     0.222 C 
ATOM      4  O   UNL A   1      30.976  25.257  25.714  1.00  0.00    -0.275 OA
ATOM      5  H   UNL A   1      30.258  26.926  27.232  1.00  0.00     0.163 HD
BRANCH   3   6
ATOM      6  C   UNL A   1      33.244  25.952  26.034  1.00  0.00     0.124 C 
BRANCH   6   7
ATOM      7  C   UNL A   1      33.752  24.582  25.563  1.00  0.00     0.088 C 
ATOM      8  C   UNL A   1      35.158  24.650  24.967  1.00  0.00     0.031 C 
BRANCH   7   9
ATOM      9  N   UNL A   1      33.711  23.570  26.607  1.00  0.00    -0.352 N 
ATOM     10  C   UNL A   1      33.060  22.372  26.665  1.00  0.00     0.242 C 
ATOM     11  H   UNL A   1      34.242  23.786  27.407  1.00  0.00     0.163 HD
ATOM     12  O   UNL A   1      33.143  21.736  27.719  1.00  0.00    -0.273 OA
BRANCH  10  13
ATOM     13  C   UNL A   1      32.345  21.791  25.455  1.00  0.00     0.249 C 
BRANCH  13  14
ATOM     14  N   UNL A   1      32.783  20.492  24.996  1.00  0.00    -0.203 N 
ATOM     15  N   UNL A   1      32.032  19.342  25.206  1.00  0.00    -0.149 NA
ATOM     16  C   UNL A   1      34.109  20.150  24.688  1.00  0.00     0.350 A 
ATOM     17  C   UNL A   1      32.887  18.381  25.040  1.00  0.00     0.161 A 
ATOM     18  N   UNL A   1      34.138  18.782  24.701  1.00  0.00    -0.250 N 
ATOM     19  O   UNL A   1      35.057  20.906  24.525  1.00  0.00    -0.246 OA
ATOM     20  C   UNL A   1      32.654  16.910  25.198  1.00  0.00     0.050 A 
ATOM     21  C   UNL A   1      35.209  17.948  24.548  1.00  0.00     0.098 A 
ATOM     22  C   UNL A   1      33.785  16.214  25.452  1.00  0.00     0.005 A 
ATOM     23  C   UNL A   1      35.063  16.663  24.898  1.00  0.00     0.019 A 
ENDBRANCH  13  14
ENDBRANCH  10  13
ENDBRANCH   7   9
ENDBRANCH   6   7
ENDBRANCH   3   6
ENDBRANCH   1   2
BRANCH   1  24
ATOM     24  C   UNL A   1      32.044  29.316  26.899  1.00  0.00     0.042 C 
BRANCH  24  25
ATOM     25  C   UNL A   1      33.462  29.856  26.831  1.00  0.00     0.118 C 
BRANCH  25  26
ATOM     26  N   UNL A   1      33.527  31.264  27.174  1.00  0.00    -0.352 N 
ATOM     27  C   UNL A   1      34.376  31.921  28.030  1.00  0.00     0.251 C 
ATOM     28  H   UNL A   1      32.863  31.834  26.723  1.00  0.00     0.163 HD
ATOM     29  O   UNL A   1      34.092  33.065  28.377  1.00  0.00    -0.269 OA
BRANCH  27  30
ATOM     30  C   UNL A   1      35.609  31.272  28.544  1.00  0.00     0.039 A 
ATOM     31  C   UNL A   1      36.843  31.872  28.275  1.00  0.00     0.014 A 
ATOM     32  C   UNL A   1      35.575  30.059  29.237  1.00  0.00     0.014 A 
ATOM     33  C   UNL A   1      38.024  31.278  28.730  1.00  0.00     0.010 A 
ATOM     34  C   UNL A   1      36.744  29.524  29.782  1.00  0.00     0.010 A 
ATOM     35  C   UNL A   1      37.986  30.112  29.514  1.00  0.00    -0.014 A 
BRANCH  35  36
ATOM     36  C   UNL A   1      39.241  29.492  30.023  1.00  0.00     0.031 A 
ATOM     37  C   UNL A   1      39.903  30.023  31.270  1.00  0.00     0.074 A 
ATOM     38  C   UNL A   1      39.797  28.465  29.350  1.00  0.00     0.049 A 
ATOM     39  N   UNL A   1      40.999  29.619  31.862  1.00  0.00    -0.248 NA
ATOM     40  C   UNL A   1      39.266  31.177  31.921  1.00  0.00     0.031 C 
ATOM     41  C   UNL A   1      39.280  27.894  28.104  1.00  0.00     0.029 A 
ATOM     42  N   UNL A   1      40.915  27.713  29.618  1.00  0.00    -0.354 N 
ATOM     43  C   UNL A   1      41.186  30.474  32.945  1.00  0.00     0.074 A 
ATOM     44  C   UNL A   1      40.130  31.460  32.883  1.00  0.00     0.031 C 
ATOM     45  C   UNL A   1      40.051  26.857  27.742  1.00  0.00     0.029 A 
ATOM     46  C   UNL A   1      41.148  26.719  28.694  1.00  0.00     0.049 A 
ATOM     47  H   UNL A   1      41.495  27.869  30.398  1.00  0.00     0.167 HD
ATOM     48  C   UNL A   1      42.133  30.425  33.915  1.00  0.00     0.034 A 
ATOM     49  C   UNL A   1      42.136  25.805  28.616  1.00  0.00     0.034 A 
ATOM     50  C   UNL A   1      43.175  29.427  33.966  1.00  0.00     0.049 A 
ATOM     51  C   UNL A   1      43.191  25.784  29.695  1.00  0.00     0.074 A 
ATOM     52  C   UNL A   1      44.151  29.250  34.932  1.00  0.00     0.029 A 
ATOM     53  N   UNL A   1      43.388  28.444  33.006  1.00  0.00    -0.354 N 
ATOM     54  N   UNL A   1      43.314  26.561  30.747  1.00  0.00    -0.248 NA
ATOM     55  C   UNL A   1      44.228  24.752  29.583  1.00  0.00     0.031 C 
ATOM     56  C   UNL A   1      45.000  28.219  34.515  1.00  0.00     0.029 A 
ATOM     57  C   UNL A   1      44.501  27.685  33.337  1.00  0.00     0.049 A 
ATOM     58  H   UNL A   1      42.830  28.308  32.207  1.00  0.00     0.167 HD
ATOM     59  C   UNL A   1      44.430  26.091  31.435  1.00  0.00     0.074 A 
ATOM     60  C   UNL A   1      44.921  24.948  30.693  1.00  0.00     0.031 C 
ATOM     61  C   UNL A   1      44.996  26.560  32.578  1.00  0.00     0.034 A 
BRANCH  48  62
ATOM     62  C   UNL A   1      42.100  31.500  34.980  1.00  0.00     0.023 A 
ATOM     63  C   UNL A   1      41.103  31.533  35.972  1.00  0.00     0.031 A 
ATOM     64  C   UNL A   1      43.066  32.521  34.991  1.00  0.00     0.131 A 
ATOM     65  C   UNL A   1      41.049  32.602  36.879  1.00  0.00     0.055 A 
ATOM     66  C   UNL A   1      43.060  33.535  35.952  1.00  0.00     0.041 A 
ATOM     67  F   UNL A   1      44.031  32.561  34.059  1.00  0.00    -0.206 F 
ATOM     68  C   UNL A   1      42.037  33.589  36.895  1.00  0.00     0.022 A 
BRANCH  65  69
ATOM     69  S   UNL A   1      39.584  32.769  37.937  1.00  0.00     0.124 S 
ATOM     70  O   UNL A   1      38.751  31.665  37.465  1.00  0.00    -0.237 OA
ATOM     71  O   UNL A   1      40.142  32.622  39.276  1.00  0.00    -0.237 OA
ATOM     72  O   UNL A   1      39.078  34.102  37.614  1.00  0.00    -0.744 OA
ENDBRANCH  65  69
ENDBRANCH  48  62
BRANCH  49  73
ATOM     73  C   UNL A   1      42.190  24.844  27.476  1.00  0.00     0.023 A 
ATOM     74  C   UNL A   1      41.435  23.659  27.486  1.00  0.00     0.031 A 
ATOM     75  C   UNL A   1      43.035  25.074  26.376  1.00  0.00     0.131 A 
ATOM     76  C   UNL A   1      41.578  22.729  26.444  1.00  0.00     0.055 A 
ATOM     77  C   UNL A   1      43.126  24.176  25.311  1.00  0.00     0.041 A 
ATOM     78  F   UNL A   1      43.781  26.190  26.314  1.00  0.00    -0.206 F 
ATOM     79  C   UNL A   1      42.406  22.988  25.349  1.00  0.00     0.022 A 
BRANCH  76  80
ATOM     80  S   UNL A   1      40.740  21.126  26.587  1.00  0.00     0.124 S 
ATOM     81  O   UNL A   1      41.616  20.263  25.802  1.00  0.00    -0.237 OA
ATOM     82  O   UNL A   1      40.747  20.907  28.029  1.00  0.00    -0.237 OA
ATOM     83  O   UNL A   1      39.424  21.377  26.003  1.00  0.00    -0.744 OA
ENDBRANCH  76  80
ENDBRANCH  49  73
BRANCH  61  84
ATOM     84  C   UNL A   1      46.191  25.802  33.109  1.00  0.00     0.023 A 
ATOM     85  C   UNL A   1      47.490  26.026  32.618  1.00  0.00     0.031 A 
ATOM     86  C   UNL A   1      46.023  24.814  34.097  1.00  0.00     0.131 A 
ATOM     87  C   UNL A   1      48.552  25.221  33.054  1.00  0.00     0.055 A 
ATOM     88  C   UNL A   1      47.098  24.070  34.585  1.00  0.00     0.041 A 
ATOM     89  F   UNL A   1      44.808  24.551  34.602  1.00  0.00    -0.206 F 
ATOM     90  C   UNL A   1      48.369  24.258  34.049  1.00  0.00     0.022 A 
BRANCH  87  91
ATOM     91  S   UNL A   1      50.151  25.358  32.207  1.00  0.00     0.124 S 
ATOM     92  O   UNL A   1      50.971  26.022  33.215  1.00  0.00    -0.237 OA
ATOM     93  O   UNL A   1      50.482  23.962  31.936  1.00  0.00    -0.237 OA
ATOM     94  O   UNL A   1      49.846  26.163  31.026  1.00  0.00    -0.744 OA
ENDBRANCH  87  91
ENDBRANCH  61  84
ENDBRANCH  35  36
ENDBRANCH  27  30
ENDBRANCH  25  26
ENDBRANCH  24  25
ENDBRANCH   1  24
TORSDOF 17
ENDMDL
MODEL 3
REMARK VINA RESULT:     -11.4      3.161      8.519
REMARK SMILES C[C@H](CC(=O)NCCCNC(=O)c1ccc(-c2c3nc(c(-c4cc(S(=O)(=O)[O-])ccc4F)c4ccc([nH]4)c(-c4cc(S(=O)(=O)[O-])ccc4F)c4nc(c(-c5cc(S(=O)(=O)[O-])ccc5F)c5ccc2[nH]5)C=C4)C=C3)cc1)NC(=O)Cn1nc2ccccn2c1=O
REMARK SMILES IDX 7 1 6 2 4 3 5 4 3 6 2 7 1 8 76 9 77 10 78 12 79 13 80 14
REMARK SMILES IDX 81 15 88 16 82 17 87 18 89 19 83 20 86 21 84 22 85 23 8 24
REMARK SMILES IDX 9 25 10 26 11 27 12 29 13 30 14 31 75 32 15 33 74 34 16 35
REMARK SMILES IDX 17 36 18 37 68 38 19 39 73 40 67 41 69 42 20 43 72 44 66 45
REMARK SMILES IDX 65 46 21 48 53 49 33 50 52 51 34 52 37 53 51 54 70 55 35 56
REMARK SMILES IDX 36 57 50 59 71 60 38 61 22 62 23 63 31 64 24 65 30 66 32 67
REMARK SMILES IDX 29 68 25 69 26 70 27 71 28 72 54 73 55 74 63 75 56 76 62 77
REMARK SMILES IDX 64 78 61 79 57 80 58 81 59 82 60 83 39 84 40 85 48 86 41 87
REMARK SMILES IDX 47 88 49 89 46 90 42 91 43 92 44 93 45 94
REMARK H PARENT 6 5 76 11 10 28 69 47 37 58
REMARK Flexibility Score: inf
ROOT
ATOM      1  C   UNL A   1      31.568  30.365  25.991  1.00  0.00     0.117 C 
ENDROOT
BRANCH   1   2
ATOM      2  N   UNL A   1      31.122  30.255  24.610  1.00  0.00    -0.356 N 
ATOM      3  C   UNL A   1      30.636  29.184  23.924  1.00  0.00     0.222 C 
ATOM      4  O   UNL A   1      30.388  29.322  22.723  1.00  0.00    -0.275 OA
ATOM      5  H   UNL A   1      31.180  31.088  24.088  1.00  0.00     0.163 HD
BRANCH   3   6
ATOM      6  C   UNL A   1      30.373  27.869  24.625  1.00  0.00     0.124 C 
BRANCH   6   7
ATOM      7  C   UNL A   1      31.063  26.644  24.009  1.00  0.00     0.088 C 
ATOM      8  C   UNL A   1      30.070  25.562  23.585  1.00  0.00     0.031 C 
BRANCH   7   9
ATOM      9  N   UNL A   1      31.928  26.981  22.890  1.00  0.00    -0.352 N 
ATOM     10  C   UNL A   1      33.270  26.811  22.715  1.00  0.00     0.242 C 
ATOM     11  H   UNL A   1      31.467  27.404  22.130  1.00  0.00     0.163 HD
ATOM     12  O   UNL A   1      33.765  27.263  21.678  1.00  0.00    -0.273 OA
BRANCH  10  13
ATOM     13  C   UNL A   1      34.110  26.013  23.700  1.00  0.00     0.249 C 
BRANCH  13  14
ATOM     14  N   UNL A   1      34.118  24.575  23.541  1.00  0.00    -0.203 N 
ATOM     15  N   UNL A   1      33.146  23.909  22.805  1.00  0.00    -0.149 NA
ATOM     16  C   UNL A   1      34.783  23.674  24.386  1.00  0.00     0.350 A 
ATOM     17  C   UNL A   1      33.238  22.682  23.214  1.00  0.00     0.161 A 
ATOM     18  N   UNL A   1      34.209  22.457  24.134  1.00  0.00    -0.250 N 
ATOM     19  O   UNL A   1      35.635  23.927  25.227  1.00  0.00    -0.246 OA
ATOM     20  C   UNL A   1      32.393  21.514  22.805  1.00  0.00     0.050 A 
ATOM     21  C   UNL A   1      34.436  21.261  24.752  1.00  0.00     0.098 A 
ATOM     22  C   UNL A   1      32.377  20.520  23.721  1.00  0.00     0.005 A 
ATOM     23  C   UNL A   1      33.552  20.272  24.557  1.00  0.00     0.019 A 
ENDBRANCH  13  14
ENDBRANCH  10  13
ENDBRANCH   7   9
ENDBRANCH   6   7
ENDBRANCH   3   6
ENDBRANCH   1   2
BRANCH   1  24
ATOM     24  C   UNL A   1      31.481  31.800  26.498  1.00  0.00     0.042 C 
BRANCH  24  25
ATOM     25  C   UNL A   1      32.797  32.368  27.003  1.00  0.00     0.118 C 
BRANCH  25  26
ATOM     26  N   UNL A   1      32.666  33.745  27.440  1.00  0.00    -0.352 N 
ATOM     27  C   UNL A   1      33.256  34.391  28.499  1.00  0.00     0.251 C 
ATOM     28  H   UNL A   1      32.063  34.300  26.895  1.00  0.00     0.163 HD
ATOM     29  O   UNL A   1      32.807  35.480  28.848  1.00  0.00    -0.269 OA
BRANCH  27  30
ATOM     30  C   UNL A   1      34.406  33.793  29.225  1.00  0.00     0.039 A 
ATOM     31  C   UNL A   1      34.151  32.816  30.192  1.00  0.00     0.014 A 
ATOM     32  C   UNL A   1      35.721  34.215  29.008  1.00  0.00     0.014 A 
ATOM     33  C   UNL A   1      35.209  32.246  30.906  1.00  0.00     0.010 A 
ATOM     34  C   UNL A   1      36.782  33.569  29.643  1.00  0.00     0.010 A 
ATOM     35  C   UNL A   1      36.540  32.595  30.619  1.00  0.00    -0.014 A 
BRANCH  35  36
ATOM     36  C   UNL A   1      37.671  31.968  31.358  1.00  0.00     0.031 A 
ATOM     37  C   UNL A   1      38.500  30.887  30.711  1.00  0.00     0.074 A 
ATOM     38  C   UNL A   1      37.938  32.357  32.621  1.00  0.00     0.049 A 
ATOM     39  N   UNL A   1      39.518  30.221  31.196  1.00  0.00    -0.248 NA
ATOM     40  C   UNL A   1      38.117  30.481  29.351  1.00  0.00     0.031 C 
ATOM     41  C   UNL A   1      37.178  33.357  33.375  1.00  0.00     0.029 A 
ATOM     42  N   UNL A   1      38.923  31.965  33.495  1.00  0.00    -0.354 N 
ATOM     43  C   UNL A   1      39.888  29.314  30.208  1.00  0.00     0.074 A 
ATOM     44  C   UNL A   1      38.940  29.468  29.127  1.00  0.00     0.031 C 
ATOM     45  C   UNL A   1      37.750  33.531  34.576  1.00  0.00     0.029 A 
ATOM     46  C   UNL A   1      38.882  32.620  34.705  1.00  0.00     0.049 A 
ATOM     47  H   UNL A   1      39.595  31.280  33.276  1.00  0.00     0.167 HD
ATOM     48  C   UNL A   1      40.936  28.453  30.192  1.00  0.00     0.034 A 
ATOM     49  C   UNL A   1      39.663  32.498  35.798  1.00  0.00     0.034 A 
ATOM     50  C   UNL A   1      41.879  28.319  31.277  1.00  0.00     0.049 A 
ATOM     51  C   UNL A   1      40.809  31.518  35.764  1.00  0.00     0.074 A 
ATOM     52  C   UNL A   1      43.008  27.520  31.343  1.00  0.00     0.029 A 
ATOM     53  N   UNL A   1      41.799  28.990  32.492  1.00  0.00    -0.354 N 
ATOM     54  N   UNL A   1      41.182  30.714  34.794  1.00  0.00    -0.248 NA
ATOM     55  C   UNL A   1      41.647  31.443  36.965  1.00  0.00     0.031 C 
ATOM     56  C   UNL A   1      43.559  27.645  32.623  1.00  0.00     0.029 A 
ATOM     57  C   UNL A   1      42.834  28.593  33.326  1.00  0.00     0.049 A 
ATOM     58  H   UNL A   1      41.107  29.650  32.725  1.00  0.00     0.167 HD
ATOM     59  C   UNL A   1      42.317  30.057  35.264  1.00  0.00     0.074 A 
ATOM     60  C   UNL A   1      42.579  30.583  36.588  1.00  0.00     0.031 C 
ATOM     61  C   UNL A   1      43.075  29.108  34.655  1.00  0.00     0.034 A 
BRANCH  48  62
ATOM     62  C   UNL A   1      41.096  27.569  28.973  1.00  0.00     0.023 A 
ATOM     63  C   UNL A   1      42.107  27.793  28.020  1.00  0.00     0.031 A 
ATOM     64  C   UNL A   1      40.212  26.499  28.748  1.00  0.00     0.131 A 
ATOM     65  C   UNL A   1      42.158  27.013  26.854  1.00  0.00     0.055 A 
ATOM     66  C   UNL A   1      40.324  25.670  27.630  1.00  0.00     0.041 A 
ATOM     67  F   UNL A   1      39.213  26.245  29.608  1.00  0.00    -0.206 F 
ATOM     68  C   UNL A   1      41.292  25.935  26.666  1.00  0.00     0.022 A 
BRANCH  65  69
ATOM     69  S   UNL A   1      43.273  27.526  25.517  1.00  0.00     0.124 S 
ATOM     70  O   UNL A   1      42.327  28.010  24.513  1.00  0.00    -0.237 OA
ATOM     71  O   UNL A   1      44.095  28.542  26.162  1.00  0.00    -0.237 OA
ATOM     72  O   UNL A   1      43.970  26.292  25.160  1.00  0.00    -0.744 OA
ENDBRANCH  65  69
ENDBRANCH  48  62
BRANCH  49  73
ATOM     73  C   UNL A   1      39.386  33.309  37.020  1.00  0.00     0.023 A 
ATOM     74  C   UNL A   1      40.055  34.521  37.257  1.00  0.00     0.031 A 
ATOM     75  C   UNL A   1      38.478  32.858  37.995  1.00  0.00     0.131 A 
ATOM     76  C   UNL A   1      39.844  35.213  38.460  1.00  0.00     0.055 A 
ATOM     77  C   UNL A   1      38.224  33.583  39.161  1.00  0.00     0.041 A 
ATOM     78  F   UNL A   1      37.812  31.705  37.822  1.00  0.00    -0.206 F 
ATOM     79  C   UNL A   1      38.920  34.761  39.406  1.00  0.00     0.022 A 
BRANCH  76  80
ATOM     80  S   UNL A   1      40.867  36.668  38.818  1.00  0.00     0.124 S 
ATOM     81  O   UNL A   1      41.509  36.904  37.530  1.00  0.00    -0.237 OA
ATOM     82  O   UNL A   1      39.868  37.650  39.227  1.00  0.00    -0.237 OA
ATOM     83  O   UNL A   1      41.755  36.205  39.883  1.00  0.00    -0.744 OA
ENDBRANCH  76  80
ENDBRANCH  49  73
BRANCH  61  84
ATOM     84  C   UNL A   1      44.285  28.610  35.412  1.00  0.00     0.023 A 
ATOM     85  C   UNL A   1      44.196  27.559  36.343  1.00  0.00     0.031 A 
ATOM     86  C   UNL A   1      45.539  29.221  35.226  1.00  0.00     0.131 A 
ATOM     87  C   UNL A   1      45.317  27.206  37.108  1.00  0.00     0.055 A 
ATOM     88  C   UNL A   1      46.669  28.811  35.935  1.00  0.00     0.041 A 
ATOM     89  F   UNL A   1      45.686  30.232  34.356  1.00  0.00    -0.206 F 
ATOM     90  C   UNL A   1      46.558  27.811  36.896  1.00  0.00     0.022 A 
BRANCH  87  91
ATOM     91  S   UNL A   1      45.100  26.037  38.479  1.00  0.00     0.124 S 
ATOM     92  O   UNL A   1      44.366  24.951  37.837  1.00  0.00    -0.237 OA
ATOM     93  O   UNL A   1      46.478  25.738  38.856  1.00  0.00    -0.237 OA
ATOM     94  O   UNL A   1      44.339  26.802  39.465  1.00  0.00    -0.744 OA
ENDBRANCH  87  91
ENDBRANCH  61  84
ENDBRANCH  35  36
ENDBRANCH  27  30
ENDBRANCH  25  26
ENDBRANCH  24  25
ENDBRANCH   1  24
TORSDOF 17
ENDMDL
