MODEL 1
REMARK VINA RESULT:     -11.0      0.000      0.000
REMARK SMILES CCOc1ccc(-c2nn(-c3ccccc3)cc2/C=C2/SC(=S)N(CC(=O)NCCCNC(=O)c3ccc(-c4c5nc(c(-c6cc(S(=O)(=O)[O-])ccc6F)c6ccc([nH]6)c(-c6cc(S(=O)(=O)[O-])ccc6F)c6nc(c(-c7cc(S(=O)(=O)[O-])ccc7F)c7ccc4[nH]7)C=C6)C=C5)cc3)C2=O)cc1F
REMARK SMILES IDX 29 1 28 2 26 3 27 4 25 6 24 7 19 8 20 9 21 10 98 11 22 12
REMARK SMILES IDX 99 13 23 14 18 15 8 16 9 17 10 18 17 19 7 20 4 21 5 22
REMARK SMILES IDX 101 23 6 24 100 25 102 26 3 27 2 28 1 29 11 30 12 31 16 32
REMARK SMILES IDX 13 33 15 34 14 35 30 36 31 37 32 38 33 39 34 41 35 42 36 43
REMARK SMILES IDX 97 44 37 45 96 46 38 47 39 48 40 49 90 50 41 51 95 52 89 53
REMARK SMILES IDX 91 54 42 55 94 56 88 57 87 58 43 60 75 61 55 62 74 63 56 64
REMARK SMILES IDX 59 65 73 66 92 67 57 68 58 69 72 71 93 72 60 73 44 74 45 75
REMARK SMILES IDX 53 76 46 77 52 78 54 79 51 80 47 81 48 82 49 83 50 84 76 85
REMARK SMILES IDX 77 86 85 87 78 88 84 89 86 90 83 91 79 92 80 93 81 94 82 95
REMARK SMILES IDX 61 96 62 97 70 98 63 99 69 100 71 101 68 102 64 103 65 104
REMARK SMILES IDX 66 105 67 106
REMARK H PARENT 28 5 32 40 91 59 59 70
REMARK Flexibility Score: inf
ROOT
ATOM      1  C   UNL A   1      43.556  27.423  36.299  1.00  0.00     0.117 C 
ENDROOT
BRANCH   1   2
ATOM      2  N   UNL A   1      42.377  28.227  36.556  1.00  0.00    -0.354 N 
ATOM      3  C   UNL A   1      41.708  29.071  35.715  1.00  0.00     0.240 C 
ATOM      4  O   UNL A   1      40.534  29.332  35.985  1.00  0.00    -0.273 OA
ATOM      5  H   UNL A   1      42.006  28.154  37.465  1.00  0.00     0.163 HD
BRANCH   3   6
ATOM      6  C   UNL A   1      42.339  29.549  34.400  1.00  0.00     0.227 C 
BRANCH   6   7
ATOM      7  N   UNL A   1      42.682  30.972  34.416  1.00  0.00    -0.283 N 
ATOM      8  C   UNL A   1      41.676  34.302  33.329  1.00  0.00     0.033 C 
ATOM      9  C   UNL A   1      42.309  33.227  33.822  1.00  0.00     0.081 C 
ATOM     10  S   UNL A   1      43.756  33.291  34.749  1.00  0.00    -0.054 SA
ATOM     11  C   UNL A   1      41.889  31.807  33.648  1.00  0.00     0.266 C 
ATOM     12  C   UNL A   1      43.805  31.541  34.967  1.00  0.00     0.148 C 
ATOM     13  O   UNL A   1      41.008  31.428  32.895  1.00  0.00    -0.268 OA
ATOM     14  S   UNL A   1      45.088  30.787  35.722  1.00  0.00    -0.052 S 
BRANCH   8  15
ATOM     15  C   UNL A   1      40.490  34.237  32.547  1.00  0.00     0.022 A 
ATOM     16  C   UNL A   1      40.347  34.063  31.148  1.00  0.00     0.100 A 
ATOM     17  N   UNL A   1      39.063  33.863  30.825  1.00  0.00    -0.167 NA
ATOM     18  N   UNL A   1      38.376  34.044  31.979  1.00  0.00    -0.240 N 
ATOM     19  C   UNL A   1      39.210  34.325  33.036  1.00  0.00     0.123 A 
BRANCH  16  20
ATOM     20  C   UNL A   1      41.365  34.135  30.109  1.00  0.00     0.006 A 
ATOM     21  C   UNL A   1      43.345  34.428  28.154  1.00  0.00     0.154 A 
ATOM     22  C   UNL A   1      43.360  33.315  28.997  1.00  0.00     0.050 A 
ATOM     23  C   UNL A   1      42.311  35.357  28.255  1.00  0.00     0.165 A 
ATOM     24  C   UNL A   1      42.372  33.171  29.979  1.00  0.00     0.014 A 
ATOM     25  C   UNL A   1      41.334  35.226  29.231  1.00  0.00     0.053 A 
ATOM     26  F   UNL A   1      42.231  36.390  27.405  1.00  0.00    -0.203 F 
BRANCH  21  27
ATOM     27  O   UNL A   1      44.287  34.517  27.166  1.00  0.00    -0.491 OA
BRANCH  27  28
ATOM     28  C   UNL A   1      44.842  33.242  26.816  1.00  0.00     0.226 C 
ATOM     29  C   UNL A   1      46.346  33.303  26.601  1.00  0.00     0.049 C 
ENDBRANCH  27  28
ENDBRANCH  21  27
ENDBRANCH  16  20
BRANCH  18  30
ATOM     30  C   UNL A   1      36.965  34.008  31.988  1.00  0.00     0.065 A 
ATOM     31  C   UNL A   1      36.263  34.894  32.815  1.00  0.00     0.028 A 
ATOM     32  C   UNL A   1      36.281  33.071  31.204  1.00  0.00     0.028 A 
ATOM     33  C   UNL A   1      34.872  34.839  32.857  1.00  0.00     0.002 A 
ATOM     34  C   UNL A   1      34.892  32.990  31.292  1.00  0.00     0.002 A 
ATOM     35  C   UNL A   1      34.193  33.869  32.119  1.00  0.00     0.000 A 
ENDBRANCH  18  30
ENDBRANCH   8  15
ENDBRANCH   6   7
ENDBRANCH   3   6
ENDBRANCH   1   2
BRANCH   1  36
ATOM     36  C   UNL A   1      44.012  26.606  37.508  1.00  0.00     0.042 C 
BRANCH  36  37
ATOM     37  C   UNL A   1      44.038  25.114  37.222  1.00  0.00     0.118 C 
BRANCH  37  38
ATOM     38  N   UNL A   1      45.389  24.557  37.232  1.00  0.00    -0.352 N 
ATOM     39  C   UNL A   1      46.144  24.118  36.156  1.00  0.00     0.251 C 
ATOM     40  H   UNL A   1      45.817  24.484  38.115  1.00  0.00     0.163 HD
ATOM     41  O   UNL A   1      47.105  23.391  36.339  1.00  0.00    -0.269 OA
BRANCH  39  42
ATOM     42  C   UNL A   1      45.743  24.528  34.796  1.00  0.00     0.039 A 
ATOM     43  C   UNL A   1      46.014  25.814  34.319  1.00  0.00     0.014 A 
ATOM     44  C   UNL A   1      45.125  23.588  33.978  1.00  0.00     0.014 A 
ATOM     45  C   UNL A   1      45.744  26.108  32.984  1.00  0.00     0.010 A 
ATOM     46  C   UNL A   1      45.009  23.825  32.632  1.00  0.00     0.010 A 
ATOM     47  C   UNL A   1      45.267  25.098  32.135  1.00  0.00    -0.014 A 
BRANCH  47  48
ATOM     48  C   UNL A   1      45.137  25.322  30.698  1.00  0.00     0.031 A 
ATOM     49  C   UNL A   1      46.228  26.121  30.077  1.00  0.00     0.074 A 
ATOM     50  C   UNL A   1      44.243  24.662  29.929  1.00  0.00     0.049 A 
ATOM     51  N   UNL A   1      46.137  27.285  29.527  1.00  0.00    -0.248 NA
ATOM     52  C   UNL A   1      47.611  25.626  30.182  1.00  0.00     0.031 C 
ATOM     53  C   UNL A   1      43.291  23.620  30.326  1.00  0.00     0.029 A 
ATOM     54  N   UNL A   1      44.094  24.698  28.579  1.00  0.00    -0.354 N 
ATOM     55  C   UNL A   1      47.397  27.577  29.014  1.00  0.00     0.074 A 
ATOM     56  C   UNL A   1      48.294  26.616  29.604  1.00  0.00     0.031 C 
ATOM     57  C   UNL A   1      42.858  22.963  29.230  1.00  0.00     0.029 A 
ATOM     58  C   UNL A   1      43.370  23.633  28.049  1.00  0.00     0.049 A 
ATOM     59  H   UNL A   1      44.467  25.419  28.020  1.00  0.00     0.167 HD
ATOM     60  C   UNL A   1      47.559  28.447  27.978  1.00  0.00     0.034 A 
ATOM     61  C   UNL A   1      43.228  23.314  26.734  1.00  0.00     0.034 A 
ATOM     62  C   UNL A   1      46.372  29.246  27.773  1.00  0.00     0.049 A 
ATOM     63  C   UNL A   1      43.454  24.582  25.988  1.00  0.00     0.074 A 
ATOM     64  C   UNL A   1      45.630  30.090  28.579  1.00  0.00     0.029 A 
ATOM     65  N   UNL A   1      45.537  28.917  26.728  1.00  0.00    -0.354 N 
ATOM     66  N   UNL A   1      42.689  25.637  26.121  1.00  0.00    -0.248 NA
ATOM     67  C   UNL A   1      44.795  24.852  25.492  1.00  0.00     0.031 C 
ATOM     68  C   UNL A   1      44.272  29.769  28.282  1.00  0.00     0.029 A 
ATOM     69  C   UNL A   1      44.270  28.824  27.253  1.00  0.00     0.049 A 
ATOM     70  H   UNL A   1      45.796  28.778  25.789  1.00  0.00     0.167 HD
ATOM     71  C   UNL A   1      43.562  26.715  26.144  1.00  0.00     0.074 A 
ATOM     72  C   UNL A   1      44.836  26.178  25.665  1.00  0.00     0.031 C 
ATOM     73  C   UNL A   1      43.267  27.871  26.812  1.00  0.00     0.034 A 
BRANCH  60  74
ATOM     74  C   UNL A   1      48.652  28.362  26.938  1.00  0.00     0.023 A 
ATOM     75  C   UNL A   1      48.287  27.994  25.628  1.00  0.00     0.031 A 
ATOM     76  C   UNL A   1      50.037  28.350  27.219  1.00  0.00     0.131 A 
ATOM     77  C   UNL A   1      49.256  27.573  24.699  1.00  0.00     0.055 A 
ATOM     78  C   UNL A   1      51.001  27.995  26.272  1.00  0.00     0.041 A 
ATOM     79  F   UNL A   1      50.526  28.582  28.443  1.00  0.00    -0.206 F 
ATOM     80  C   UNL A   1      50.613  27.576  25.012  1.00  0.00     0.022 A 
BRANCH  77  81
ATOM     81  S   UNL A   1      48.697  26.870  23.126  1.00  0.00     0.124 S 
ATOM     82  O   UNL A   1      47.751  27.882  22.670  1.00  0.00    -0.237 OA
ATOM     83  O   UNL A   1      49.947  26.773  22.379  1.00  0.00    -0.237 OA
ATOM     84  O   UNL A   1      48.105  25.593  23.516  1.00  0.00    -0.744 OA
ENDBRANCH  77  81
ENDBRANCH  60  74
BRANCH  61  85
ATOM     85  C   UNL A   1      43.179  21.954  26.115  1.00  0.00     0.023 A 
ATOM     86  C   UNL A   1      44.320  21.346  25.543  1.00  0.00     0.031 A 
ATOM     87  C   UNL A   1      42.050  21.115  26.276  1.00  0.00     0.131 A 
ATOM     88  C   UNL A   1      44.302  19.977  25.178  1.00  0.00     0.055 A 
ATOM     89  C   UNL A   1      42.031  19.770  25.892  1.00  0.00     0.041 A 
ATOM     90  F   UNL A   1      40.945  21.537  26.908  1.00  0.00    -0.206 F 
ATOM     91  C   UNL A   1      43.166  19.188  25.360  1.00  0.00     0.022 A 
BRANCH  88  92
ATOM     92  S   UNL A   1      45.809  19.145  24.578  1.00  0.00     0.124 S 
ATOM     93  O   UNL A   1      45.909  18.008  25.486  1.00  0.00    -0.237 OA
ATOM     94  O   UNL A   1      45.481  18.839  23.192  1.00  0.00    -0.237 OA
ATOM     95  O   UNL A   1      46.842  20.167  24.750  1.00  0.00    -0.744 OA
ENDBRANCH  88  92
ENDBRANCH  61  85
BRANCH  73  96
ATOM     96  C   UNL A   1      41.861  28.101  27.329  1.00  0.00     0.023 A 
ATOM     97  C   UNL A   1      41.454  27.946  28.674  1.00  0.00     0.031 A 
ATOM     98  C   UNL A   1      40.948  28.694  26.437  1.00  0.00     0.131 A 
ATOM     99  C   UNL A   1      40.176  28.387  29.079  1.00  0.00     0.055 A 
ATOM    100  C   UNL A   1      39.694  29.146  26.845  1.00  0.00     0.041 A 
ATOM    101  F   UNL A   1      41.290  28.899  25.154  1.00  0.00    -0.206 F 
ATOM    102  C   UNL A   1      39.303  28.996  28.169  1.00  0.00     0.022 A 
BRANCH  99 103
ATOM    103  S   UNL A   1      39.633  28.216  30.813  1.00  0.00     0.124 S 
ATOM    104  O   UNL A   1      38.956  29.481  31.076  1.00  0.00    -0.237 OA
ATOM    105  O   UNL A   1      38.784  27.029  30.771  1.00  0.00    -0.237 OA
ATOM    106  O   UNL A   1      40.887  28.035  31.549  1.00  0.00    -0.744 OA
ENDBRANCH  99 103
ENDBRANCH  73  96
ENDBRANCH  47  48
ENDBRANCH  39  42
ENDBRANCH  37  38
ENDBRANCH  36  37
ENDBRANCH   1  36
TORSDOF 19
ENDMDL
MODEL 2
REMARK VINA RESULT:     -10.6      2.254      3.645
REMARK SMILES CCOc1ccc(-c2nn(-c3ccccc3)cc2/C=C2/SC(=S)N(CC(=O)NCCCNC(=O)c3ccc(-c4c5nc(c(-c6cc(S(=O)(=O)[O-])ccc6F)c6ccc([nH]6)c(-c6cc(S(=O)(=O)[O-])ccc6F)c6nc(c(-c7cc(S(=O)(=O)[O-])ccc7F)c7ccc4[nH]7)C=C6)C=C5)cc3)C2=O)cc1F
REMARK SMILES IDX 29 1 28 2 26 3 27 4 25 6 24 7 19 8 20 9 21 10 98 11 22 12
REMARK SMILES IDX 99 13 23 14 18 15 8 16 9 17 10 18 17 19 7 20 4 21 5 22
REMARK SMILES IDX 101 23 6 24 100 25 102 26 3 27 2 28 1 29 11 30 12 31 16 32
REMARK SMILES IDX 13 33 15 34 14 35 30 36 31 37 32 38 33 39 34 41 35 42 36 43
REMARK SMILES IDX 97 44 37 45 96 46 38 47 39 48 40 49 90 50 41 51 95 52 89 53
REMARK SMILES IDX 91 54 42 55 94 56 88 57 87 58 43 60 75 61 55 62 74 63 56 64
REMARK SMILES IDX 59 65 73 66 92 67 57 68 58 69 72 71 93 72 60 73 44 74 45 75
REMARK SMILES IDX 53 76 46 77 52 78 54 79 51 80 47 81 48 82 49 83 50 84 76 85
REMARK SMILES IDX 77 86 85 87 78 88 84 89 86 90 83 91 79 92 80 93 81 94 82 95
REMARK SMILES IDX 61 96 62 97 70 98 63 99 69 100 71 101 68 102 64 103 65 104
REMARK SMILES IDX 66 105 67 106
REMARK H PARENT 28 5 32 40 91 59 59 70
REMARK Flexibility Score: inf
ROOT
ATOM      1  C   UNL A   1      43.601  27.919  36.339  1.00  0.00     0.117 C 
ENDROOT
BRANCH   1   2
ATOM      2  N   UNL A   1      42.377  28.681  36.491  1.00  0.00    -0.354 N 
ATOM      3  C   UNL A   1      41.482  29.074  35.538  1.00  0.00     0.240 C 
ATOM      4  O   UNL A   1      40.338  29.346  35.908  1.00  0.00    -0.273 OA
ATOM      5  H   UNL A   1      42.162  28.954  37.412  1.00  0.00     0.163 HD
BRANCH   3   6
ATOM      6  C   UNL A   1      41.836  29.026  34.045  1.00  0.00     0.227 C 
BRANCH   6   7
ATOM      7  N   UNL A   1      42.253  30.325  33.515  1.00  0.00    -0.283 N 
ATOM      8  C   UNL A   1      41.117  33.451  32.026  1.00  0.00     0.033 C 
ATOM      9  C   UNL A   1      41.823  32.416  32.506  1.00  0.00     0.081 C 
ATOM     10  S   UNL A   1      43.531  32.415  32.712  1.00  0.00    -0.054 SA
ATOM     11  C   UNL A   1      41.268  31.099  32.929  1.00  0.00     0.266 C 
ATOM     12  C   UNL A   1      43.543  30.782  33.380  1.00  0.00     0.148 C 
ATOM     13  O   UNL A   1      40.121  30.731  32.736  1.00  0.00    -0.268 OA
ATOM     14  S   UNL A   1      44.968  29.991  33.735  1.00  0.00    -0.052 S 
BRANCH   8  15
ATOM     15  C   UNL A   1      39.707  33.435  31.842  1.00  0.00     0.022 A 
ATOM     16  C   UNL A   1      38.678  33.726  32.771  1.00  0.00     0.100 A 
ATOM     17  N   UNL A   1      37.489  33.785  32.158  1.00  0.00    -0.167 NA
ATOM     18  N   UNL A   1      37.731  33.402  30.881  1.00  0.00    -0.240 N 
ATOM     19  C   UNL A   1      39.063  33.131  30.668  1.00  0.00     0.123 A 
BRANCH  16  20
ATOM     20  C   UNL A   1      38.771  33.892  34.216  1.00  0.00     0.006 A 
ATOM     21  C   UNL A   1      39.016  34.064  36.998  1.00  0.00     0.154 A 
ATOM     22  C   UNL A   1      39.415  35.137  36.197  1.00  0.00     0.050 A 
ATOM     23  C   UNL A   1      38.445  32.938  36.409  1.00  0.00     0.165 A 
ATOM     24  C   UNL A   1      39.297  35.049  34.804  1.00  0.00     0.014 A 
ATOM     25  C   UNL A   1      38.334  32.839  35.030  1.00  0.00     0.053 A 
ATOM     26  F   UNL A   1      37.982  31.930  37.161  1.00  0.00    -0.203 F 
BRANCH  21  27
ATOM     27  O   UNL A   1      39.088  34.197  38.358  1.00  0.00    -0.491 OA
BRANCH  27  28
ATOM     28  C   UNL A   1      40.394  33.908  38.872  1.00  0.00     0.226 C 
ATOM     29  C   UNL A   1      41.133  35.161  39.315  1.00  0.00     0.049 C 
ENDBRANCH  27  28
ENDBRANCH  21  27
ENDBRANCH  16  20
BRANCH  18  30
ATOM     30  C   UNL A   1      36.670  33.250  29.964  1.00  0.00     0.065 A 
ATOM     31  C   UNL A   1      35.418  33.800  30.266  1.00  0.00     0.028 A 
ATOM     32  C   UNL A   1      36.862  32.524  28.782  1.00  0.00     0.028 A 
ATOM     33  C   UNL A   1      34.357  33.622  29.382  1.00  0.00     0.002 A 
ATOM     34  C   UNL A   1      35.781  32.308  27.929  1.00  0.00     0.002 A 
ATOM     35  C   UNL A   1      34.533  32.853  28.232  1.00  0.00     0.000 A 
ENDBRANCH  18  30
ENDBRANCH   8  15
ENDBRANCH   6   7
ENDBRANCH   3   6
ENDBRANCH   1   2
BRANCH   1  36
ATOM     36  C   UNL A   1      43.873  26.964  37.502  1.00  0.00     0.042 C 
BRANCH  36  37
ATOM     37  C   UNL A   1      43.488  25.530  37.176  1.00  0.00     0.118 C 
BRANCH  37  38
ATOM     38  N   UNL A   1      44.615  24.604  37.273  1.00  0.00    -0.352 N 
ATOM     39  C   UNL A   1      45.241  23.904  36.255  1.00  0.00     0.251 C 
ATOM     40  H   UNL A   1      44.973  24.458  38.179  1.00  0.00     0.163 HD
ATOM     41  O   UNL A   1      45.938  22.939  36.514  1.00  0.00    -0.269 OA
BRANCH  39  42
ATOM     42  C   UNL A   1      45.023  24.338  34.861  1.00  0.00     0.039 A 
ATOM     43  C   UNL A   1      45.525  25.557  34.397  1.00  0.00     0.014 A 
ATOM     44  C   UNL A   1      44.342  23.482  34.002  1.00  0.00     0.014 A 
ATOM     45  C   UNL A   1      45.417  25.858  33.040  1.00  0.00     0.010 A 
ATOM     46  C   UNL A   1      44.377  23.703  32.649  1.00  0.00     0.010 A 
ATOM     47  C   UNL A   1      44.866  24.910  32.163  1.00  0.00    -0.014 A 
BRANCH  47  48
ATOM     48  C   UNL A   1      44.893  25.118  30.718  1.00  0.00     0.031 A 
ATOM     49  C   UNL A   1      46.066  25.878  30.206  1.00  0.00     0.074 A 
ATOM     50  C   UNL A   1      44.066  24.473  29.867  1.00  0.00     0.049 A 
ATOM     51  N   UNL A   1      46.068  27.036  29.637  1.00  0.00    -0.248 NA
ATOM     52  C   UNL A   1      47.415  25.346  30.460  1.00  0.00     0.031 C 
ATOM     53  C   UNL A   1      43.048  23.464  30.173  1.00  0.00     0.029 A 
ATOM     54  N   UNL A   1      44.059  24.494  28.508  1.00  0.00    -0.354 N 
ATOM     55  C   UNL A   1      47.382  27.285  29.256  1.00  0.00     0.074 A 
ATOM     56  C   UNL A   1      48.184  26.309  29.946  1.00  0.00     0.031 C 
ATOM     57  C   UNL A   1      42.712  22.804  29.045  1.00  0.00     0.029 A 
ATOM     58  C   UNL A   1      43.364  23.443  27.917  1.00  0.00     0.049 A 
ATOM     59  H   UNL A   1      44.510  25.197  27.984  1.00  0.00     0.167 HD
ATOM     60  C   UNL A   1      47.677  28.136  28.233  1.00  0.00     0.034 A 
ATOM     61  C   UNL A   1      43.351  23.110  26.598  1.00  0.00     0.034 A 
ATOM     62  C   UNL A   1      46.542  28.965  27.896  1.00  0.00     0.049 A 
ATOM     63  C   UNL A   1      43.690  24.361  25.866  1.00  0.00     0.074 A 
ATOM     64  C   UNL A   1      45.745  29.841  28.610  1.00  0.00     0.029 A 
ATOM     65  N   UNL A   1      45.811  28.645  26.773  1.00  0.00    -0.354 N 
ATOM     66  N   UNL A   1      42.947  25.438  25.906  1.00  0.00    -0.248 NA
ATOM     67  C   UNL A   1      45.083  24.586  25.510  1.00  0.00     0.031 C 
ATOM     68  C   UNL A   1      44.416  29.554  28.176  1.00  0.00     0.029 A 
ATOM     69  C   UNL A   1      44.494  28.595  27.163  1.00  0.00     0.049 A 
ATOM     70  H   UNL A   1      46.162  28.486  25.867  1.00  0.00     0.167 HD
ATOM     71  C   UNL A   1      43.844  26.492  26.009  1.00  0.00     0.074 A 
ATOM     72  C   UNL A   1      45.145  25.912  25.672  1.00  0.00     0.031 C 
ATOM     73  C   UNL A   1      43.515  27.665  26.629  1.00  0.00     0.034 A 
BRANCH  60  74
ATOM     74  C   UNL A   1      48.869  28.007  27.314  1.00  0.00     0.023 A 
ATOM     75  C   UNL A   1      49.736  29.111  27.200  1.00  0.00     0.031 A 
ATOM     76  C   UNL A   1      49.042  26.985  26.353  1.00  0.00     0.131 A 
ATOM     77  C   UNL A   1      50.657  29.201  26.141  1.00  0.00     0.055 A 
ATOM     78  C   UNL A   1      50.005  27.049  25.341  1.00  0.00     0.041 A 
ATOM     79  F   UNL A   1      48.232  25.923  26.275  1.00  0.00    -0.206 F 
ATOM     80  C   UNL A   1      50.801  28.173  25.213  1.00  0.00     0.022 A 
BRANCH  77  81
ATOM     81  S   UNL A   1      51.555  30.757  25.906  1.00  0.00     0.124 S 
ATOM     82  O   UNL A   1      52.808  30.483  26.600  1.00  0.00    -0.237 OA
ATOM     83  O   UNL A   1      51.630  30.843  24.451  1.00  0.00    -0.237 OA
ATOM     84  O   UNL A   1      50.691  31.747  26.543  1.00  0.00    -0.744 OA
ENDBRANCH  77  81
ENDBRANCH  60  74
BRANCH  61  85
ATOM     85  C   UNL A   1      43.327  21.743  25.991  1.00  0.00     0.023 A 
ATOM     86  C   UNL A   1      44.482  21.145  25.437  1.00  0.00     0.031 A 
ATOM     87  C   UNL A   1      42.208  20.890  26.150  1.00  0.00     0.131 A 
ATOM     88  C   UNL A   1      44.487  19.773  25.086  1.00  0.00     0.055 A 
ATOM     89  C   UNL A   1      42.211  19.541  25.779  1.00  0.00     0.041 A 
ATOM     90  F   UNL A   1      41.091  21.303  26.766  1.00  0.00    -0.206 F 
ATOM     91  C   UNL A   1      43.359  18.970  25.265  1.00  0.00     0.022 A 
BRANCH  88  92
ATOM     92  S   UNL A   1      46.011  18.956  24.510  1.00  0.00     0.124 S 
ATOM     93  O   UNL A   1      45.706  18.700  23.107  1.00  0.00    -0.237 OA
ATOM     94  O   UNL A   1      47.037  19.957  24.777  1.00  0.00    -0.237 OA
ATOM     95  O   UNL A   1      46.087  17.763  25.355  1.00  0.00    -0.744 OA
ENDBRANCH  88  92
ENDBRANCH  61  85
BRANCH  73  96
ATOM     96  C   UNL A   1      42.070  27.941  26.994  1.00  0.00     0.023 A 
ATOM     97  C   UNL A   1      41.470  27.626  28.235  1.00  0.00     0.031 A 
ATOM     98  C   UNL A   1      41.334  28.739  26.098  1.00  0.00     0.131 A 
ATOM     99  C   UNL A   1      40.181  28.116  28.539  1.00  0.00     0.055 A 
ATOM    100  C   UNL A   1      40.069  29.237  26.411  1.00  0.00     0.041 A 
ATOM    101  F   UNL A   1      41.864  29.100  24.918  1.00  0.00    -0.206 F 
ATOM    102  C   UNL A   1      39.488  28.928  27.634  1.00  0.00     0.022 A 
BRANCH  99 103
ATOM    103  S   UNL A   1      39.392  27.739  30.141  1.00  0.00     0.124 S 
ATOM    104  O   UNL A   1      40.482  27.909  31.096  1.00  0.00    -0.237 OA
ATOM    105  O   UNL A   1      38.317  28.724  30.212  1.00  0.00    -0.237 OA
ATOM    106  O   UNL A   1      38.935  26.356  29.982  1.00  0.00    -0.744 OA
ENDBRANCH  99 103
ENDBRANCH  73  96
ENDBRANCH  47  48
ENDBRANCH  39  42
ENDBRANCH  37  38
ENDBRANCH  36  37
ENDBRANCH   1  36
TORSDOF 19
ENDMDL
MODEL 3
REMARK VINA RESULT:     -10.2      4.780      9.259
REMARK SMILES CCOc1ccc(-c2nn(-c3ccccc3)cc2/C=C2/SC(=S)N(CC(=O)NCCCNC(=O)c3ccc(-c4c5nc(c(-c6cc(S(=O)(=O)[O-])ccc6F)c6ccc([nH]6)c(-c6cc(S(=O)(=O)[O-])ccc6F)c6nc(c(-c7cc(S(=O)(=O)[O-])ccc7F)c7ccc4[nH]7)C=C6)C=C5)cc3)C2=O)cc1F
REMARK SMILES IDX 29 1 28 2 26 3 27 4 25 6 24 7 19 8 20 9 21 10 98 11 22 12
REMARK SMILES IDX 99 13 23 14 18 15 8 16 9 17 10 18 17 19 7 20 4 21 5 22
REMARK SMILES IDX 101 23 6 24 100 25 102 26 3 27 2 28 1 29 11 30 12 31 16 32
REMARK SMILES IDX 13 33 15 34 14 35 30 36 31 37 32 38 33 39 34 41 35 42 36 43
REMARK SMILES IDX 97 44 37 45 96 46 38 47 39 48 40 49 90 50 41 51 95 52 89 53
REMARK SMILES IDX 91 54 42 55 94 56 88 57 87 58 43 60 75 61 55 62 74 63 56 64
REMARK SMILES IDX 59 65 73 66 92 67 57 68 58 69 72 71 93 72 60 73 44 74 45 75
REMARK SMILES IDX 53 76 46 77 52 78 54 79 51 80 47 81 48 82 49 83 50 84 76 85
REMARK SMILES IDX 77 86 85 87 78 88 84 89 86 90 83 91 79 92 80 93 81 94 82 95
REMARK SMILES IDX 61 96 62 97 70 98 63 99 69 100 71 101 68 102 64 103 65 104
REMARK SMILES IDX 66 105 67 106
REMARK H PARENT 28 5 32 40 91 59 59 70
REMARK Flexibility Score: inf
ROOT
ATOM      1  C   UNL A   1      36.354  33.656  32.575  1.00  0.00     0.117 C 
ENDROOT
BRANCH   1   2
ATOM      2  N   UNL A   1      36.670  32.886  33.763  1.00  0.00    -0.354 N 
ATOM      3  C   UNL A   1      37.404  33.250  34.856  1.00  0.00     0.240 C 
ATOM      4  O   UNL A   1      37.216  32.625  35.903  1.00  0.00    -0.273 OA
ATOM      5  H   UNL A   1      36.304  31.973  33.784  1.00  0.00     0.163 HD
BRANCH   3   6
ATOM      6  C   UNL A   1      38.308  34.490  34.831  1.00  0.00     0.227 C 
BRANCH   6   7
ATOM      7  N   UNL A   1      39.650  34.228  35.353  1.00  0.00    -0.283 N 
ATOM      8  C   UNL A   1      42.032  34.996  38.002  1.00  0.00     0.033 C 
ATOM      9  C   UNL A   1      41.403  34.561  36.900  1.00  0.00     0.081 C 
ATOM     10  S   UNL A   1      42.058  33.418  35.793  1.00  0.00    -0.054 SA
ATOM     11  C   UNL A   1      40.053  34.989  36.436  1.00  0.00     0.266 C 
ATOM     12  C   UNL A   1      40.615  33.435  34.777  1.00  0.00     0.148 C 
ATOM     13  O   UNL A   1      39.415  35.915  36.907  1.00  0.00    -0.268 OA
ATOM     14  S   UNL A   1      40.549  32.599  33.335  1.00  0.00    -0.052 S 
BRANCH   8  15
ATOM     15  C   UNL A   1      41.490  35.955  38.901  1.00  0.00     0.022 A 
ATOM     16  C   UNL A   1      40.675  35.754  40.043  1.00  0.00     0.100 A 
ATOM     17  N   UNL A   1      40.534  36.894  40.731  1.00  0.00    -0.167 NA
ATOM     18  N   UNL A   1      41.133  37.842  39.969  1.00  0.00    -0.240 N 
ATOM     19  C   UNL A   1      41.679  37.313  38.823  1.00  0.00     0.123 A 
BRANCH  16  20
ATOM     20  C   UNL A   1      39.985  34.545  40.472  1.00  0.00     0.006 A 
ATOM     21  C   UNL A   1      38.589  32.217  41.151  1.00  0.00     0.154 A 
ATOM     22  C   UNL A   1      39.952  32.318  41.435  1.00  0.00     0.050 A 
ATOM     23  C   UNL A   1      37.920  33.299  40.582  1.00  0.00     0.165 A 
ATOM     24  C   UNL A   1      40.653  33.481  41.091  1.00  0.00     0.014 A 
ATOM     25  C   UNL A   1      38.608  34.451  40.230  1.00  0.00     0.053 A 
ATOM     26  F   UNL A   1      36.597  33.256  40.374  1.00  0.00    -0.203 F 
BRANCH  21  27
ATOM     27  O   UNL A   1      37.916  31.094  41.549  1.00  0.00    -0.491 OA
BRANCH  27  28
ATOM     28  C   UNL A   1      37.580  31.117  42.942  1.00  0.00     0.226 C 
ATOM     29  C   UNL A   1      36.095  31.347  43.176  1.00  0.00     0.049 C 
ENDBRANCH  27  28
ENDBRANCH  21  27
ENDBRANCH  16  20
BRANCH  18  30
ATOM     30  C   UNL A   1      41.086  39.201  40.345  1.00  0.00     0.065 A 
ATOM     31  C   UNL A   1      39.843  39.833  40.475  1.00  0.00     0.028 A 
ATOM     32  C   UNL A   1      42.273  39.915  40.550  1.00  0.00     0.028 A 
ATOM     33  C   UNL A   1      39.790  41.184  40.811  1.00  0.00     0.002 A 
ATOM     34  C   UNL A   1      42.210  41.278  40.835  1.00  0.00     0.002 A 
ATOM     35  C   UNL A   1      40.972  41.908  40.960  1.00  0.00     0.000 A 
ENDBRANCH  18  30
ENDBRANCH   8  15
ENDBRANCH   6   7
ENDBRANCH   3   6
ENDBRANCH   1   2
BRANCH   1  36
ATOM     36  C   UNL A   1      35.043  33.237  31.909  1.00  0.00     0.042 C 
BRANCH  36  37
ATOM     37  C   UNL A   1      35.182  31.944  31.121  1.00  0.00     0.118 C 
BRANCH  37  38
ATOM     38  N   UNL A   1      34.769  32.084  29.725  1.00  0.00    -0.352 N 
ATOM     39  C   UNL A   1      35.556  32.018  28.587  1.00  0.00     0.251 C 
ATOM     40  H   UNL A   1      33.810  32.247  29.576  1.00  0.00     0.163 HD
ATOM     41  O   UNL A   1      35.146  32.468  27.532  1.00  0.00    -0.269 OA
BRANCH  39  42
ATOM     42  C   UNL A   1      36.901  31.418  28.691  1.00  0.00     0.039 A 
ATOM     43  C   UNL A   1      37.932  32.069  29.375  1.00  0.00     0.014 A 
ATOM     44  C   UNL A   1      37.109  30.162  28.130  1.00  0.00     0.014 A 
ATOM     45  C   UNL A   1      39.140  31.401  29.567  1.00  0.00     0.010 A 
ATOM     46  C   UNL A   1      38.233  29.447  28.455  1.00  0.00     0.010 A 
ATOM     47  C   UNL A   1      39.274  30.074  29.129  1.00  0.00    -0.014 A 
BRANCH  47  48
ATOM     48  C   UNL A   1      40.458  29.288  29.464  1.00  0.00     0.031 A 
ATOM     49  C   UNL A   1      40.690  29.074  30.919  1.00  0.00     0.074 A 
ATOM     50  C   UNL A   1      41.164  28.593  28.545  1.00  0.00     0.049 A 
ATOM     51  N   UNL A   1      41.673  29.508  31.633  1.00  0.00    -0.248 NA
ATOM     52  C   UNL A   1      39.645  28.397  31.706  1.00  0.00     0.031 C 
ATOM     53  C   UNL A   1      40.902  28.451  27.110  1.00  0.00     0.029 A 
ATOM     54  N   UNL A   1      42.209  27.745  28.739  1.00  0.00    -0.354 N 
ATOM     55  C   UNL A   1      41.498  28.976  32.907  1.00  0.00     0.074 A 
ATOM     56  C   UNL A   1      40.153  28.463  32.938  1.00  0.00     0.031 C 
ATOM     57  C   UNL A   1      41.592  27.396  26.627  1.00  0.00     0.029 A 
ATOM     58  C   UNL A   1      42.464  26.890  27.671  1.00  0.00     0.049 A 
ATOM     59  H   UNL A   1      42.742  27.736  29.568  1.00  0.00     0.167 HD
ATOM     60  C   UNL A   1      42.550  28.807  33.757  1.00  0.00     0.034 A 
ATOM     61  C   UNL A   1      43.312  25.826  27.659  1.00  0.00     0.034 A 
ATOM     62  C   UNL A   1      43.704  29.560  33.321  1.00  0.00     0.049 A 
ATOM     63  C   UNL A   1      44.314  26.102  28.725  1.00  0.00     0.074 A 
ATOM     64  C   UNL A   1      43.932  30.895  33.045  1.00  0.00     0.029 A 
ATOM     65  N   UNL A   1      44.728  28.881  32.697  1.00  0.00    -0.354 N 
ATOM     66  N   UNL A   1      45.126  27.127  28.697  1.00  0.00    -0.248 NA
ATOM     67  C   UNL A   1      44.074  25.542  30.047  1.00  0.00     0.031 C 
ATOM     68  C   UNL A   1      44.714  30.887  31.851  1.00  0.00     0.029 A 
ATOM     69  C   UNL A   1      44.992  29.556  31.529  1.00  0.00     0.049 A 
ATOM     70  H   UNL A   1      45.184  28.073  33.025  1.00  0.00     0.167 HD
ATOM     71  C   UNL A   1      45.153  27.604  30.000  1.00  0.00     0.074 A 
ATOM     72  C   UNL A   1      44.556  26.535  30.802  1.00  0.00     0.031 C 
ATOM     73  C   UNL A   1      45.387  28.920  30.286  1.00  0.00     0.034 A 
BRANCH  60  74
ATOM     74  C   UNL A   1      42.657  27.716  34.797  1.00  0.00     0.023 A 
ATOM     75  C   UNL A   1      43.404  26.567  34.471  1.00  0.00     0.031 A 
ATOM     76  C   UNL A   1      41.854  27.621  35.955  1.00  0.00     0.131 A 
ATOM     77  C   UNL A   1      43.282  25.386  35.227  1.00  0.00     0.055 A 
ATOM     78  C   UNL A   1      41.787  26.467  36.741  1.00  0.00     0.041 A 
ATOM     79  F   UNL A   1      41.017  28.595  36.334  1.00  0.00    -0.206 F 
ATOM     80  C   UNL A   1      42.481  25.331  36.364  1.00  0.00     0.022 A 
BRANCH  77  81
ATOM     81  S   UNL A   1      44.067  23.877  34.605  1.00  0.00     0.124 S 
ATOM     82  O   UNL A   1      45.365  23.923  35.269  1.00  0.00    -0.237 OA
ATOM     83  O   UNL A   1      43.143  22.846  35.067  1.00  0.00    -0.237 OA
ATOM     84  O   UNL A   1      44.097  24.080  33.159  1.00  0.00    -0.744 OA
ENDBRANCH  77  81
ENDBRANCH  60  74
BRANCH  61  85
ATOM     85  C   UNL A   1      43.132  24.509  26.974  1.00  0.00     0.023 A 
ATOM     86  C   UNL A   1      44.050  24.029  26.012  1.00  0.00     0.031 A 
ATOM     87  C   UNL A   1      42.163  23.577  27.420  1.00  0.00     0.131 A 
ATOM     88  C   UNL A   1      43.984  22.689  25.556  1.00  0.00     0.055 A 
ATOM     89  C   UNL A   1      42.088  22.263  26.948  1.00  0.00     0.041 A 
ATOM     90  F   UNL A   1      41.309  23.871  28.410  1.00  0.00    -0.206 F 
ATOM     91  C   UNL A   1      43.013  21.805  26.028  1.00  0.00     0.022 A 
BRANCH  88  92
ATOM     92  S   UNL A   1      45.250  22.016  24.431  1.00  0.00     0.124 S 
ATOM     93  O   UNL A   1      45.479  23.138  23.527  1.00  0.00    -0.237 OA
ATOM     94  O   UNL A   1      46.343  21.681  25.335  1.00  0.00    -0.237 OA
ATOM     95  O   UNL A   1      44.579  20.864  23.829  1.00  0.00    -0.744 OA
ENDBRANCH  88  92
ENDBRANCH  61  85
BRANCH  73  96
ATOM     96  C   UNL A   1      45.883  29.848  29.194  1.00  0.00     0.023 A 
ATOM     97  C   UNL A   1      45.055  30.600  28.329  1.00  0.00     0.031 A 
ATOM     98  C   UNL A   1      47.264  30.119  29.174  1.00  0.00     0.131 A 
ATOM     99  C   UNL A   1      45.622  31.586  27.493  1.00  0.00     0.055 A 
ATOM    100  C   UNL A   1      47.817  31.108  28.361  1.00  0.00     0.041 A 
ATOM    101  F   UNL A   1      48.096  29.461  29.998  1.00  0.00    -0.206 F 
ATOM    102  C   UNL A   1      46.998  31.847  27.517  1.00  0.00     0.022 A 
BRANCH  99 103
ATOM    103  S   UNL A   1      44.574  32.584  26.380  1.00  0.00     0.124 S 
ATOM    104  O   UNL A   1      43.944  33.538  27.286  1.00  0.00    -0.237 OA
ATOM    105  O   UNL A   1      45.539  33.136  25.435  1.00  0.00    -0.237 OA
ATOM    106  O   UNL A   1      43.656  31.600  25.800  1.00  0.00    -0.744 OA
ENDBRANCH  99 103
ENDBRANCH  73  96
ENDBRANCH  47  48
ENDBRANCH  39  42
ENDBRANCH  37  38
ENDBRANCH  36  37
ENDBRANCH   1  36
TORSDOF 19
ENDMDL
