MODEL 1
REMARK VINA RESULT:     -14.5      0.000      0.000
REMARK SMILES Cc1cccc(N2C(=O)/C(=C/c3ccc(C(=O)NCCCNC(=O)c4ccc(-c5c6nc(c(-c7cc(S(=O)(=O)[O-])ccc7F)c7ccc([nH]7)c(-c7cc(S(=O)(=O)[O-])ccc7F)c7nc(c(-c8cc(S(=O)(=O)[O-])ccc8F)c8ccc5[nH]8)C=C7)C=C6)cc4)cc3)c3ccccc3C2=O)c1
REMARK SMILES IDX 20 1 19 2 18 3 16 4 17 5 15 7 12 8 13 9 89 10 14 11 88 12
REMARK SMILES IDX 11 13 7 14 8 15 96 16 9 17 10 18 95 19 97 20 90 21 94 22
REMARK SMILES IDX 91 23 93 24 92 25 6 26 1 27 2 28 3 29 98 30 4 31 5 32 21 33
REMARK SMILES IDX 22 34 23 35 24 37 25 38 26 39 87 40 27 41 86 42 28 43 29 44
REMARK SMILES IDX 30 45 80 46 31 47 85 48 79 49 81 50 32 51 84 52 78 53 77 54
REMARK SMILES IDX 33 56 65 57 45 58 64 59 46 60 49 61 63 62 82 63 47 64 48 65
REMARK SMILES IDX 62 67 83 68 50 69 34 70 35 71 43 72 36 73 42 74 44 75 41 76
REMARK SMILES IDX 37 77 38 78 39 79 40 80 66 81 67 82 75 83 68 84 74 85 76 86
REMARK SMILES IDX 73 87 69 88 70 89 71 90 72 91 51 92 52 93 60 94 53 95 59 96
REMARK SMILES IDX 61 97 58 98 54 99 55 100 56 101 57 102
REMARK H PARENT 18 6 22 36 81 55 49 66
REMARK Flexibility Score: inf
ROOT
ATOM      1  C   UNL A   1      34.770  32.776  27.628  1.00  0.00     0.042 C 
ENDROOT
BRANCH   1   2
ATOM      2  C   UNL A   1      33.407  32.387  28.172  1.00  0.00     0.118 C 
BRANCH   2   3
ATOM      3  N   UNL A   1      32.346  32.437  27.171  1.00  0.00    -0.352 N 
ATOM      4  C   UNL A   1      31.797  31.389  26.466  1.00  0.00     0.251 C 
ATOM      5  O   UNL A   1      30.966  31.552  25.579  1.00  0.00    -0.269 OA
ATOM      6  H   UNL A   1      31.977  33.329  26.974  1.00  0.00     0.163 HD
BRANCH   4   7
ATOM      7  C   UNL A   1      32.320  30.033  26.726  1.00  0.00     0.039 A 
ATOM      8  C   UNL A   1      32.912  27.324  26.734  1.00  0.00    -0.025 A 
ATOM      9  C   UNL A   1      31.846  27.808  27.505  1.00  0.00     0.009 A 
ATOM     10  C   UNL A   1      33.776  28.221  26.093  1.00  0.00     0.009 A 
ATOM     11  C   UNL A   1      31.544  29.168  27.499  1.00  0.00     0.014 A 
ATOM     12  C   UNL A   1      33.485  29.584  26.098  1.00  0.00     0.014 A 
BRANCH   8  13
ATOM     13  C   UNL A   1      33.051  25.874  26.569  1.00  0.00     0.022 C 
ATOM     14  N   UNL A   1      33.445  23.029  24.402  1.00  0.00    -0.242 N 
ATOM     15  C   UNL A   1      33.079  23.677  25.599  1.00  0.00     0.265 C 
ATOM     16  C   UNL A   1      33.505  23.716  23.169  1.00  0.00     0.265 C 
ATOM     17  O   UNL A   1      33.068  23.174  26.724  1.00  0.00    -0.268 OA
ATOM     18  C   UNL A   1      32.757  25.140  25.472  1.00  0.00     0.049 C 
ATOM     19  C   UNL A   1      32.708  24.960  23.041  1.00  0.00     0.048 A 
ATOM     20  O   UNL A   1      34.101  23.360  22.153  1.00  0.00    -0.268 OA
ATOM     21  C   UNL A   1      32.260  25.624  24.179  1.00  0.00    -0.000 A 
ATOM     22  C   UNL A   1      32.365  25.420  21.758  1.00  0.00     0.014 A 
ATOM     23  C   UNL A   1      31.359  26.687  24.015  1.00  0.00     0.010 A 
ATOM     24  C   UNL A   1      31.523  26.517  21.608  1.00  0.00     0.001 A 
ATOM     25  C   UNL A   1      31.000  27.133  22.739  1.00  0.00     0.001 A 
BRANCH  14  26
ATOM     26  C   UNL A   1      33.845  21.626  24.463  1.00  0.00     0.053 A 
ATOM     27  C   UNL A   1      32.307  18.164  23.840  1.00  0.00     0.044 C 
ATOM     28  C   UNL A   1      33.304  19.232  24.181  1.00  0.00    -0.049 A 
ATOM     29  C   UNL A   1      34.599  18.883  24.561  1.00  0.00     0.003 A 
ATOM     30  C   UNL A   1      32.952  20.592  24.113  1.00  0.00     0.030 A 
ATOM     31  C   UNL A   1      35.512  19.876  24.888  1.00  0.00     0.002 A 
ATOM     32  C   UNL A   1      35.135  21.224  24.848  1.00  0.00     0.027 A 
ENDBRANCH  14  26
ENDBRANCH   8  13
ENDBRANCH   4   7
ENDBRANCH   2   3
ENDBRANCH   1   2
BRANCH   1  33
ATOM     33  C   UNL A   1      35.896  31.904  28.159  1.00  0.00     0.118 C 
BRANCH  33  34
ATOM     34  N   UNL A   1      36.003  31.959  29.623  1.00  0.00    -0.352 N 
ATOM     35  C   UNL A   1      36.510  31.015  30.500  1.00  0.00     0.251 C 
ATOM     36  H   UNL A   1      35.665  32.784  30.040  1.00  0.00     0.163 HD
ATOM     37  O   UNL A   1      36.606  31.206  31.701  1.00  0.00    -0.269 OA
BRANCH  35  38
ATOM     38  C   UNL A   1      37.060  29.780  29.904  1.00  0.00     0.039 A 
ATOM     39  C   UNL A   1      37.425  28.767  30.794  1.00  0.00     0.014 A 
ATOM     40  C   UNL A   1      37.555  29.821  28.603  1.00  0.00     0.014 A 
ATOM     41  C   UNL A   1      38.501  27.948  30.471  1.00  0.00     0.010 A 
ATOM     42  C   UNL A   1      38.678  29.063  28.317  1.00  0.00     0.010 A 
ATOM     43  C   UNL A   1      39.202  28.197  29.286  1.00  0.00    -0.014 A 
BRANCH  43  44
ATOM     44  C   UNL A   1      40.577  27.734  29.105  1.00  0.00     0.031 A 
ATOM     45  C   UNL A   1      40.854  26.375  28.608  1.00  0.00     0.074 A 
ATOM     46  C   UNL A   1      41.633  28.506  29.456  1.00  0.00     0.049 A 
ATOM     47  N   UNL A   1      41.767  25.603  29.099  1.00  0.00    -0.248 NA
ATOM     48  C   UNL A   1      40.097  25.776  27.515  1.00  0.00     0.031 C 
ATOM     49  C   UNL A   1      43.047  28.201  29.239  1.00  0.00     0.029 A 
ATOM     50  N   UNL A   1      41.659  29.624  30.288  1.00  0.00    -0.354 N 
ATOM     51  C   UNL A   1      41.916  24.557  28.221  1.00  0.00     0.074 A 
ATOM     52  C   UNL A   1      40.797  24.658  27.307  1.00  0.00     0.031 C 
ATOM     53  C   UNL A   1      43.772  28.867  30.151  1.00  0.00     0.029 A 
ATOM     54  C   UNL A   1      42.841  29.545  31.038  1.00  0.00     0.049 A 
ATOM     55  H   UNL A   1      40.977  30.333  30.341  1.00  0.00     0.167 HD
ATOM     56  C   UNL A   1      43.047  23.799  28.216  1.00  0.00     0.034 A 
ATOM     57  C   UNL A   1      42.896  29.555  32.400  1.00  0.00     0.034 A 
ATOM     58  C   UNL A   1      44.052  24.284  29.154  1.00  0.00     0.049 A 
ATOM     59  C   UNL A   1      43.613  28.350  32.971  1.00  0.00     0.074 A 
ATOM     60  C   UNL A   1      45.190  25.053  28.975  1.00  0.00     0.029 A 
ATOM     61  N   UNL A   1      43.828  24.226  30.524  1.00  0.00    -0.354 N 
ATOM     62  N   UNL A   1      43.897  27.278  32.286  1.00  0.00    -0.248 NA
ATOM     63  C   UNL A   1      44.003  28.231  34.373  1.00  0.00     0.031 C 
ATOM     64  C   UNL A   1      45.635  25.486  30.246  1.00  0.00     0.029 A 
ATOM     65  C   UNL A   1      44.780  24.968  31.202  1.00  0.00     0.049 A 
ATOM     66  H   UNL A   1      43.096  23.728  30.953  1.00  0.00     0.167 HD
ATOM     67  C   UNL A   1      44.445  26.329  33.115  1.00  0.00     0.074 A 
ATOM     68  C   UNL A   1      44.518  26.989  34.406  1.00  0.00     0.031 C 
ATOM     69  C   UNL A   1      44.763  25.079  32.655  1.00  0.00     0.034 A 
BRANCH  56  70
ATOM     70  C   UNL A   1      43.343  22.840  27.091  1.00  0.00     0.023 A 
ATOM     71  C   UNL A   1      42.799  21.542  27.103  1.00  0.00     0.031 A 
ATOM     72  C   UNL A   1      44.183  23.147  26.003  1.00  0.00     0.131 A 
ATOM     73  C   UNL A   1      43.173  20.586  26.143  1.00  0.00     0.055 A 
ATOM     74  C   UNL A   1      44.598  22.183  25.076  1.00  0.00     0.041 A 
ATOM     75  F   UNL A   1      44.631  24.398  25.805  1.00  0.00    -0.206 F 
ATOM     76  C   UNL A   1      44.104  20.887  25.153  1.00  0.00     0.022 A 
BRANCH  73  77
ATOM     77  S   UNL A   1      42.422  18.935  26.212  1.00  0.00     0.124 S 
ATOM     78  O   UNL A   1      43.274  18.169  25.309  1.00  0.00    -0.237 OA
ATOM     79  O   UNL A   1      42.528  18.609  27.630  1.00  0.00    -0.237 OA
ATOM     80  O   UNL A   1      41.060  19.163  25.731  1.00  0.00    -0.744 OA
ENDBRANCH  73  77
ENDBRANCH  56  70
BRANCH  57  81
ATOM     81  C   UNL A   1      41.757  30.250  33.059  1.00  0.00     0.023 A 
ATOM     82  C   UNL A   1      41.763  31.661  33.068  1.00  0.00     0.031 A 
ATOM     83  C   UNL A   1      40.546  29.592  33.309  1.00  0.00     0.131 A 
ATOM     84  C   UNL A   1      40.557  32.369  33.177  1.00  0.00     0.055 A 
ATOM     85  C   UNL A   1      39.352  30.305  33.460  1.00  0.00     0.041 A 
ATOM     86  F   UNL A   1      40.473  28.253  33.265  1.00  0.00    -0.206 F 
ATOM     87  C   UNL A   1      39.347  31.695  33.350  1.00  0.00     0.022 A 
BRANCH  84  88
ATOM     88  S   UNL A   1      40.532  34.156  32.843  1.00  0.00     0.124 S 
ATOM     89  O   UNL A   1      40.219  34.204  31.422  1.00  0.00    -0.237 OA
ATOM     90  O   UNL A   1      39.493  34.648  33.742  1.00  0.00    -0.237 OA
ATOM     91  O   UNL A   1      41.883  34.585  33.209  1.00  0.00    -0.744 OA
ENDBRANCH  84  88
ENDBRANCH  57  81
BRANCH  69  92
ATOM     92  C   UNL A   1      45.192  23.887  33.494  1.00  0.00     0.023 A 
ATOM     93  C   UNL A   1      46.506  23.676  33.936  1.00  0.00     0.031 A 
ATOM     94  C   UNL A   1      44.247  22.923  33.932  1.00  0.00     0.131 A 
ATOM     95  C   UNL A   1      46.859  22.530  34.675  1.00  0.00     0.055 A 
ATOM     96  C   UNL A   1      44.584  21.825  34.731  1.00  0.00     0.041 A 
ATOM     97  F   UNL A   1      42.947  23.009  33.613  1.00  0.00    -0.206 F 
ATOM     98  C   UNL A   1      45.902  21.609  35.091  1.00  0.00     0.022 A 
BRANCH  95  99
ATOM     99  S   UNL A   1      48.614  22.237  35.016  1.00  0.00     0.124 S 
ATOM    100  O   UNL A   1      48.794  20.874  34.521  1.00  0.00    -0.237 OA
ATOM    101  O   UNL A   1      49.264  23.284  34.235  1.00  0.00    -0.237 OA
ATOM    102  O   UNL A   1      48.715  22.389  36.466  1.00  0.00    -0.744 OA
ENDBRANCH  95  99
ENDBRANCH  69  92
ENDBRANCH  43  44
ENDBRANCH  35  38
ENDBRANCH  33  34
ENDBRANCH   1  33
TORSDOF 15
ENDMDL
MODEL 2
REMARK VINA RESULT:     -14.4      1.588      2.095
REMARK SMILES Cc1cccc(N2C(=O)/C(=C/c3ccc(C(=O)NCCCNC(=O)c4ccc(-c5c6nc(c(-c7cc(S(=O)(=O)[O-])ccc7F)c7ccc([nH]7)c(-c7cc(S(=O)(=O)[O-])ccc7F)c7nc(c(-c8cc(S(=O)(=O)[O-])ccc8F)c8ccc5[nH]8)C=C7)C=C6)cc4)cc3)c3ccccc3C2=O)c1
REMARK SMILES IDX 20 1 19 2 18 3 16 4 17 5 15 7 12 8 13 9 89 10 14 11 88 12
REMARK SMILES IDX 11 13 7 14 8 15 96 16 9 17 10 18 95 19 97 20 90 21 94 22
REMARK SMILES IDX 91 23 93 24 92 25 6 26 1 27 2 28 3 29 98 30 4 31 5 32 21 33
REMARK SMILES IDX 22 34 23 35 24 37 25 38 26 39 87 40 27 41 86 42 28 43 29 44
REMARK SMILES IDX 30 45 80 46 31 47 85 48 79 49 81 50 32 51 84 52 78 53 77 54
REMARK SMILES IDX 33 56 65 57 45 58 64 59 46 60 49 61 63 62 82 63 47 64 48 65
REMARK SMILES IDX 62 67 83 68 50 69 34 70 35 71 43 72 36 73 42 74 44 75 41 76
REMARK SMILES IDX 37 77 38 78 39 79 40 80 66 81 67 82 75 83 68 84 74 85 76 86
REMARK SMILES IDX 73 87 69 88 70 89 71 90 72 91 51 92 52 93 60 94 53 95 59 96
REMARK SMILES IDX 61 97 58 98 54 99 55 100 56 101 57 102
REMARK H PARENT 18 6 22 36 81 55 49 66
REMARK Flexibility Score: inf
ROOT
ATOM      1  C   UNL A   1      34.195  32.946  27.606  1.00  0.00     0.042 C 
ENDROOT
BRANCH   1   2
ATOM      2  C   UNL A   1      32.815  32.504  28.059  1.00  0.00     0.118 C 
BRANCH   2   3
ATOM      3  N   UNL A   1      31.839  32.443  26.975  1.00  0.00    -0.352 N 
ATOM      4  C   UNL A   1      31.484  31.351  26.216  1.00  0.00     0.251 C 
ATOM      5  O   UNL A   1      30.712  31.429  25.266  1.00  0.00    -0.269 OA
ATOM      6  H   UNL A   1      31.378  33.287  26.760  1.00  0.00     0.163 HD
BRANCH   4   7
ATOM      7  C   UNL A   1      32.150  30.065  26.502  1.00  0.00     0.039 A 
ATOM      8  C   UNL A   1      33.000  27.427  26.593  1.00  0.00    -0.025 A 
ATOM      9  C   UNL A   1      31.942  27.849  27.410  1.00  0.00     0.009 A 
ATOM     10  C   UNL A   1      33.733  28.367  25.856  1.00  0.00     0.009 A 
ATOM     11  C   UNL A   1      31.511  29.172  27.362  1.00  0.00     0.014 A 
ATOM     12  C   UNL A   1      33.313  29.696  25.819  1.00  0.00     0.014 A 
BRANCH   8  13
ATOM     13  C   UNL A   1      33.268  25.990  26.484  1.00  0.00     0.022 C 
ATOM     14  N   UNL A   1      33.874  23.100  24.427  1.00  0.00    -0.242 N 
ATOM     15  C   UNL A   1      33.477  23.764  25.606  1.00  0.00     0.265 C 
ATOM     16  C   UNL A   1      33.842  23.736  23.165  1.00  0.00     0.265 C 
ATOM     17  O   UNL A   1      33.537  23.313  26.750  1.00  0.00    -0.268 OA
ATOM     18  C   UNL A   1      33.019  25.185  25.426  1.00  0.00     0.049 C 
ATOM     19  C   UNL A   1      32.932  24.895  23.007  1.00  0.00     0.048 A 
ATOM     20  O   UNL A   1      34.446  23.392  22.150  1.00  0.00    -0.268 OA
ATOM     21  C   UNL A   1      32.451  25.565  24.128  1.00  0.00    -0.000 A 
ATOM     22  C   UNL A   1      32.520  25.266  21.716  1.00  0.00     0.014 A 
ATOM     23  C   UNL A   1      31.452  26.533  23.944  1.00  0.00     0.010 A 
ATOM     24  C   UNL A   1      31.577  26.274  21.543  1.00  0.00     0.001 A 
ATOM     25  C   UNL A   1      31.025  26.889  22.660  1.00  0.00     0.001 A 
BRANCH  14  26
ATOM     26  C   UNL A   1      34.403  21.744  24.535  1.00  0.00     0.053 A 
ATOM     27  C   UNL A   1      37.805  20.001  24.896  1.00  0.00     0.044 C 
ATOM     28  C   UNL A   1      36.324  20.209  24.776  1.00  0.00    -0.049 A 
ATOM     29  C   UNL A   1      35.464  19.112  24.759  1.00  0.00     0.003 A 
ATOM     30  C   UNL A   1      35.784  21.505  24.690  1.00  0.00     0.030 A 
ATOM     31  C   UNL A   1      34.096  19.312  24.634  1.00  0.00     0.002 A 
ATOM     32  C   UNL A   1      33.578  20.608  24.514  1.00  0.00     0.027 A 
ENDBRANCH  14  26
ENDBRANCH   8  13
ENDBRANCH   4   7
ENDBRANCH   2   3
ENDBRANCH   1   2
BRANCH   1  33
ATOM     33  C   UNL A   1      35.282  31.929  27.920  1.00  0.00     0.118 C 
BRANCH  33  34
ATOM     34  N   UNL A   1      35.999  32.245  29.162  1.00  0.00    -0.352 N 
ATOM     35  C   UNL A   1      36.960  31.505  29.831  1.00  0.00     0.251 C 
ATOM     36  H   UNL A   1      35.762  33.104  29.580  1.00  0.00     0.163 HD
ATOM     37  O   UNL A   1      37.535  31.907  30.828  1.00  0.00    -0.269 OA
BRANCH  35  38
ATOM     38  C   UNL A   1      37.365  30.226  29.211  1.00  0.00     0.039 A 
ATOM     39  C   UNL A   1      37.520  29.137  30.073  1.00  0.00     0.014 A 
ATOM     40  C   UNL A   1      37.947  30.244  27.946  1.00  0.00     0.014 A 
ATOM     41  C   UNL A   1      38.486  28.183  29.777  1.00  0.00     0.010 A 
ATOM     42  C   UNL A   1      38.967  29.341  27.694  1.00  0.00     0.010 A 
ATOM     43  C   UNL A   1      39.295  28.371  28.651  1.00  0.00    -0.014 A 
BRANCH  43  44
ATOM     44  C   UNL A   1      40.598  27.720  28.532  1.00  0.00     0.031 A 
ATOM     45  C   UNL A   1      40.695  26.264  28.329  1.00  0.00     0.074 A 
ATOM     46  C   UNL A   1      41.750  28.416  28.678  1.00  0.00     0.049 A 
ATOM     47  N   UNL A   1      41.542  25.507  28.946  1.00  0.00    -0.248 NA
ATOM     48  C   UNL A   1      39.819  25.545  27.412  1.00  0.00     0.031 C 
ATOM     49  C   UNL A   1      43.108  27.905  28.490  1.00  0.00     0.029 A 
ATOM     50  N   UNL A   1      41.945  29.671  29.252  1.00  0.00    -0.354 N 
ATOM     51  C   UNL A   1      41.527  24.291  28.308  1.00  0.00     0.074 A 
ATOM     52  C   UNL A   1      40.378  24.332  27.427  1.00  0.00     0.031 C 
ATOM     53  C   UNL A   1      43.950  28.655  29.216  1.00  0.00     0.029 A 
ATOM     54  C   UNL A   1      43.150  29.609  29.966  1.00  0.00     0.049 A 
ATOM     55  H   UNL A   1      41.350  30.452  29.172  1.00  0.00     0.167 HD
ATOM     56  C   UNL A   1      42.565  23.419  28.431  1.00  0.00     0.034 A 
ATOM     57  C   UNL A   1      43.280  29.896  31.292  1.00  0.00     0.034 A 
ATOM     58  C   UNL A   1      43.667  23.965  29.214  1.00  0.00     0.049 A 
ATOM     59  C   UNL A   1      43.889  28.760  32.086  1.00  0.00     0.074 A 
ATOM     60  C   UNL A   1      44.872  24.537  28.841  1.00  0.00     0.029 A 
ATOM     61  N   UNL A   1      43.512  24.222  30.570  1.00  0.00    -0.354 N 
ATOM     62  N   UNL A   1      44.015  27.543  31.637  1.00  0.00    -0.248 NA
ATOM     63  C   UNL A   1      44.339  28.891  33.469  1.00  0.00     0.031 C 
ATOM     64  C   UNL A   1      45.430  25.170  29.977  1.00  0.00     0.029 A 
ATOM     65  C   UNL A   1      44.576  24.969  31.046  1.00  0.00     0.049 A 
ATOM     66  H   UNL A   1      42.753  23.915  31.118  1.00  0.00     0.167 HD
ATOM     67  C   UNL A   1      44.498  26.729  32.633  1.00  0.00     0.074 A 
ATOM     68  C   UNL A   1      44.714  27.631  33.751  1.00  0.00     0.031 C 
ATOM     69  C   UNL A   1      44.651  25.382  32.442  1.00  0.00     0.034 A 
BRANCH  56  70
ATOM     70  C   UNL A   1      42.691  22.218  27.529  1.00  0.00     0.023 A 
ATOM     71  C   UNL A   1      43.730  22.147  26.582  1.00  0.00     0.031 A 
ATOM     72  C   UNL A   1      41.793  21.134  27.542  1.00  0.00     0.131 A 
ATOM     73  C   UNL A   1      43.786  21.109  25.637  1.00  0.00     0.055 A 
ATOM     74  C   UNL A   1      41.814  20.126  26.569  1.00  0.00     0.041 A 
ATOM     75  F   UNL A   1      40.860  21.018  28.501  1.00  0.00    -0.206 F 
ATOM     76  C   UNL A   1      42.807  20.119  25.598  1.00  0.00     0.022 A 
BRANCH  73  77
ATOM     77  S   UNL A   1      45.160  21.074  24.453  1.00  0.00     0.124 S 
ATOM     78  O   UNL A   1      44.633  21.858  23.341  1.00  0.00    -0.237 OA
ATOM     79  O   UNL A   1      46.241  21.685  25.219  1.00  0.00    -0.237 OA
ATOM     80  O   UNL A   1      45.331  19.648  24.175  1.00  0.00    -0.744 OA
ENDBRANCH  73  77
ENDBRANCH  56  70
BRANCH  57  81
ATOM     81  C   UNL A   1      42.262  30.846  31.820  1.00  0.00     0.023 A 
ATOM     82  C   UNL A   1      41.082  30.305  32.374  1.00  0.00     0.031 A 
ATOM     83  C   UNL A   1      42.592  32.171  32.129  1.00  0.00     0.131 A 
ATOM     84  C   UNL A   1      40.352  31.036  33.323  1.00  0.00     0.055 A 
ATOM     85  C   UNL A   1      41.835  32.912  33.044  1.00  0.00     0.041 A 
ATOM     86  F   UNL A   1      43.726  32.720  31.669  1.00  0.00    -0.206 F 
ATOM     87  C   UNL A   1      40.737  32.330  33.677  1.00  0.00     0.022 A 
BRANCH  84  88
ATOM     88  S   UNL A   1      39.044  30.210  34.279  1.00  0.00     0.124 S 
ATOM     89  O   UNL A   1      38.031  31.250  34.384  1.00  0.00    -0.237 OA
ATOM     90  O   UNL A   1      38.697  29.064  33.446  1.00  0.00    -0.237 OA
ATOM     91  O   UNL A   1      39.716  29.853  35.529  1.00  0.00    -0.744 OA
ENDBRANCH  84  88
ENDBRANCH  57  81
BRANCH  69  92
ATOM     92  C   UNL A   1      44.989  24.349  33.503  1.00  0.00     0.023 A 
ATOM     93  C   UNL A   1      46.299  23.993  33.856  1.00  0.00     0.031 A 
ATOM     94  C   UNL A   1      43.968  23.708  34.253  1.00  0.00     0.131 A 
ATOM     95  C   UNL A   1      46.557  22.995  34.816  1.00  0.00     0.055 A 
ATOM     96  C   UNL A   1      44.227  22.773  35.261  1.00  0.00     0.041 A 
ATOM     97  F   UNL A   1      42.669  23.970  34.048  1.00  0.00    -0.206 F 
ATOM     98  C   UNL A   1      45.529  22.394  35.536  1.00  0.00     0.022 A 
BRANCH  95  99
ATOM     99  S   UNL A   1      48.271  22.453  35.049  1.00  0.00     0.124 S 
ATOM    100  O   UNL A   1      48.351  22.326  36.502  1.00  0.00    -0.237 OA
ATOM    101  O   UNL A   1      48.307  21.201  34.301  1.00  0.00    -0.237 OA
ATOM    102  O   UNL A   1      49.059  23.543  34.478  1.00  0.00    -0.744 OA
ENDBRANCH  95  99
ENDBRANCH  69  92
ENDBRANCH  43  44
ENDBRANCH  35  38
ENDBRANCH  33  34
ENDBRANCH   1  33
TORSDOF 15
ENDMDL
MODEL 3
REMARK VINA RESULT:     -13.9      3.427      4.915
REMARK SMILES Cc1cccc(N2C(=O)/C(=C/c3ccc(C(=O)NCCCNC(=O)c4ccc(-c5c6nc(c(-c7cc(S(=O)(=O)[O-])ccc7F)c7ccc([nH]7)c(-c7cc(S(=O)(=O)[O-])ccc7F)c7nc(c(-c8cc(S(=O)(=O)[O-])ccc8F)c8ccc5[nH]8)C=C7)C=C6)cc4)cc3)c3ccccc3C2=O)c1
REMARK SMILES IDX 20 1 19 2 18 3 16 4 17 5 15 7 12 8 13 9 89 10 14 11 88 12
REMARK SMILES IDX 11 13 7 14 8 15 96 16 9 17 10 18 95 19 97 20 90 21 94 22
REMARK SMILES IDX 91 23 93 24 92 25 6 26 1 27 2 28 3 29 98 30 4 31 5 32 21 33
REMARK SMILES IDX 22 34 23 35 24 37 25 38 26 39 87 40 27 41 86 42 28 43 29 44
REMARK SMILES IDX 30 45 80 46 31 47 85 48 79 49 81 50 32 51 84 52 78 53 77 54
REMARK SMILES IDX 33 56 65 57 45 58 64 59 46 60 49 61 63 62 82 63 47 64 48 65
REMARK SMILES IDX 62 67 83 68 50 69 34 70 35 71 43 72 36 73 42 74 44 75 41 76
REMARK SMILES IDX 37 77 38 78 39 79 40 80 66 81 67 82 75 83 68 84 74 85 76 86
REMARK SMILES IDX 73 87 69 88 70 89 71 90 72 91 51 92 52 93 60 94 53 95 59 96
REMARK SMILES IDX 61 97 58 98 54 99 55 100 56 101 57 102
REMARK H PARENT 18 6 22 36 81 55 49 66
REMARK Flexibility Score: inf
ROOT
ATOM      1  C   UNL A   1      34.581  33.548  27.962  1.00  0.00     0.042 C 
ENDROOT
BRANCH   1   2
ATOM      2  C   UNL A   1      33.554  32.444  28.137  1.00  0.00     0.118 C 
BRANCH   2   3
ATOM      3  N   UNL A   1      32.453  32.517  27.182  1.00  0.00    -0.352 N 
ATOM      4  C   UNL A   1      31.846  31.480  26.509  1.00  0.00     0.251 C 
ATOM      5  O   UNL A   1      30.983  31.660  25.656  1.00  0.00    -0.269 OA
ATOM      6  H   UNL A   1      32.100  33.417  26.996  1.00  0.00     0.163 HD
BRANCH   4   7
ATOM      7  C   UNL A   1      32.344  30.112  26.755  1.00  0.00     0.039 A 
ATOM      8  C   UNL A   1      32.875  27.390  26.745  1.00  0.00    -0.025 A 
ATOM      9  C   UNL A   1      31.835  27.896  27.537  1.00  0.00     0.009 A 
ATOM     10  C   UNL A   1      33.747  28.270  26.089  1.00  0.00     0.009 A 
ATOM     11  C   UNL A   1      31.564  29.262  27.540  1.00  0.00     0.014 A 
ATOM     12  C   UNL A   1      33.487  29.639  26.104  1.00  0.00     0.014 A 
BRANCH   8  13
ATOM     13  C   UNL A   1      32.978  25.938  26.573  1.00  0.00     0.022 C 
ATOM     14  N   UNL A   1      33.307  23.094  24.394  1.00  0.00    -0.242 N 
ATOM     15  C   UNL A   1      32.955  23.746  25.593  1.00  0.00     0.265 C 
ATOM     16  C   UNL A   1      33.387  23.785  23.164  1.00  0.00     0.265 C 
ATOM     17  O   UNL A   1      32.928  23.239  26.715  1.00  0.00    -0.268 OA
ATOM     18  C   UNL A   1      32.669  25.217  25.471  1.00  0.00     0.049 C 
ATOM     19  C   UNL A   1      32.622  25.049  23.040  1.00  0.00     0.048 A 
ATOM     20  O   UNL A   1      33.976  23.420  22.148  1.00  0.00    -0.268 OA
ATOM     21  C   UNL A   1      32.188  25.719  24.180  1.00  0.00    -0.000 A 
ATOM     22  C   UNL A   1      32.293  25.524  21.758  1.00  0.00     0.014 A 
ATOM     23  C   UNL A   1      31.314  26.805  24.019  1.00  0.00     0.010 A 
ATOM     24  C   UNL A   1      31.478  26.642  21.612  1.00  0.00     0.001 A 
ATOM     25  C   UNL A   1      30.969  27.266  22.744  1.00  0.00     0.001 A 
BRANCH  14  26
ATOM     26  C   UNL A   1      33.672  21.682  24.449  1.00  0.00     0.053 A 
ATOM     27  C   UNL A   1      36.819  19.539  24.945  1.00  0.00     0.044 C 
ATOM     28  C   UNL A   1      35.385  19.923  24.728  1.00  0.00    -0.049 A 
ATOM     29  C   UNL A   1      34.414  18.937  24.572  1.00  0.00     0.003 A 
ATOM     30  C   UNL A   1      35.001  21.276  24.690  1.00  0.00     0.030 A 
ATOM     31  C   UNL A   1      33.092  19.300  24.358  1.00  0.00     0.002 A 
ATOM     32  C   UNL A   1      32.731  20.651  24.288  1.00  0.00     0.027 A 
ENDBRANCH  14  26
ENDBRANCH   8  13
ENDBRANCH   4   7
ENDBRANCH   2   3
ENDBRANCH   1   2
BRANCH   1  33
ATOM     33  C   UNL A   1      35.037  34.156  29.279  1.00  0.00     0.118 C 
BRANCH  33  34
ATOM     34  N   UNL A   1      33.914  34.666  30.077  1.00  0.00    -0.352 N 
ATOM     35  C   UNL A   1      33.743  34.659  31.451  1.00  0.00     0.251 C 
ATOM     36  H   UNL A   1      33.178  35.067  29.562  1.00  0.00     0.163 HD
ATOM     37  O   UNL A   1      32.787  35.177  32.005  1.00  0.00    -0.269 OA
BRANCH  35  38
ATOM     38  C   UNL A   1      34.846  34.097  32.257  1.00  0.00     0.039 A 
ATOM     39  C   UNL A   1      35.943  34.932  32.482  1.00  0.00     0.014 A 
ATOM     40  C   UNL A   1      34.940  32.715  32.401  1.00  0.00     0.014 A 
ATOM     41  C   UNL A   1      37.207  34.363  32.582  1.00  0.00     0.010 A 
ATOM     42  C   UNL A   1      36.207  32.154  32.415  1.00  0.00     0.010 A 
ATOM     43  C   UNL A   1      37.338  32.981  32.412  1.00  0.00    -0.014 A 
BRANCH  43  44
ATOM     44  C   UNL A   1      38.613  32.378  32.028  1.00  0.00     0.031 A 
ATOM     45  C   UNL A   1      38.652  31.084  31.326  1.00  0.00     0.074 A 
ATOM     46  C   UNL A   1      39.793  32.949  32.367  1.00  0.00     0.049 A 
ATOM     47  N   UNL A   1      39.486  30.137  31.611  1.00  0.00    -0.248 NA
ATOM     48  C   UNL A   1      37.728  30.753  30.248  1.00  0.00     0.031 C 
ATOM     49  C   UNL A   1      41.126  32.502  31.965  1.00  0.00     0.029 A 
ATOM     50  N   UNL A   1      40.047  33.920  33.335  1.00  0.00    -0.354 N 
ATOM     51  C   UNL A   1      39.410  29.222  30.590  1.00  0.00     0.074 A 
ATOM     52  C   UNL A   1      38.243  29.598  29.819  1.00  0.00     0.031 C 
ATOM     53  C   UNL A   1      42.013  32.929  32.876  1.00  0.00     0.029 A 
ATOM     54  C   UNL A   1      41.266  33.581  33.939  1.00  0.00     0.049 A 
ATOM     55  H   UNL A   1      39.479  34.694  33.553  1.00  0.00     0.167 HD
ATOM     56  C   UNL A   1      40.419  28.335  30.365  1.00  0.00     0.034 A 
ATOM     57  C   UNL A   1      41.438  33.383  35.277  1.00  0.00     0.034 A 
ATOM     58  C   UNL A   1      41.558  28.544  31.249  1.00  0.00     0.049 A 
ATOM     59  C   UNL A   1      42.024  32.026  35.603  1.00  0.00     0.074 A 
ATOM     60  C   UNL A   1      42.774  29.180  31.057  1.00  0.00     0.029 A 
ATOM     61  N   UNL A   1      41.446  28.314  32.615  1.00  0.00    -0.354 N 
ATOM     62  N   UNL A   1      42.095  31.039  34.754  1.00  0.00    -0.248 NA
ATOM     63  C   UNL A   1      42.512  31.653  36.928  1.00  0.00     0.031 C 
ATOM     64  C   UNL A   1      43.382  29.361  32.322  1.00  0.00     0.029 A 
ATOM     65  C   UNL A   1      42.547  28.821  33.283  1.00  0.00     0.049 A 
ATOM     66  H   UNL A   1      40.690  27.856  33.047  1.00  0.00     0.167 HD
ATOM     67  C   UNL A   1      42.572  29.916  35.386  1.00  0.00     0.074 A 
ATOM     68  C   UNL A   1      42.847  30.364  36.740  1.00  0.00     0.031 C 
ATOM     69  C   UNL A   1      42.670  28.718  34.732  1.00  0.00     0.034 A 
BRANCH  56  70
ATOM     70  C   UNL A   1      40.479  27.522  29.096  1.00  0.00     0.023 A 
ATOM     71  C   UNL A   1      41.381  27.869  28.073  1.00  0.00     0.031 A 
ATOM     72  C   UNL A   1      39.645  26.418  28.836  1.00  0.00     0.131 A 
ATOM     73  C   UNL A   1      41.358  27.216  26.829  1.00  0.00     0.055 A 
ATOM     74  C   UNL A   1      39.583  25.801  27.581  1.00  0.00     0.041 A 
ATOM     75  F   UNL A   1      38.859  25.902  29.795  1.00  0.00    -0.206 F 
ATOM     76  C   UNL A   1      40.433  26.211  26.562  1.00  0.00     0.022 A 
BRANCH  73  77
ATOM     77  S   UNL A   1      42.558  27.707  25.559  1.00  0.00     0.124 S 
ATOM     78  O   UNL A   1      42.573  26.543  24.679  1.00  0.00    -0.237 OA
ATOM     79  O   UNL A   1      41.954  28.919  25.017  1.00  0.00    -0.237 OA
ATOM     80  O   UNL A   1      43.789  27.919  26.322  1.00  0.00    -0.744 OA
ENDBRANCH  73  77
ENDBRANCH  56  70
BRANCH  57  81
ATOM     81  C   UNL A   1      40.469  34.114  36.139  1.00  0.00     0.023 A 
ATOM     82  C   UNL A   1      39.327  33.415  36.585  1.00  0.00     0.031 A 
ATOM     83  C   UNL A   1      40.831  35.288  36.811  1.00  0.00     0.131 A 
ATOM     84  C   UNL A   1      38.672  33.814  37.759  1.00  0.00     0.055 A 
ATOM     85  C   UNL A   1      40.147  35.706  37.958  1.00  0.00     0.041 A 
ATOM     86  F   UNL A   1      41.933  35.966  36.459  1.00  0.00    -0.206 F 
ATOM     87  C   UNL A   1      39.093  34.945  38.461  1.00  0.00     0.022 A 
BRANCH  84  88
ATOM     88  S   UNL A   1      37.430  32.719  38.510  1.00  0.00     0.124 S 
ATOM     89  O   UNL A   1      37.575  33.011  39.929  1.00  0.00    -0.237 OA
ATOM     90  O   UNL A   1      36.183  33.160  37.895  1.00  0.00    -0.237 OA
ATOM     91  O   UNL A   1      37.859  31.385  38.090  1.00  0.00    -0.744 OA
ENDBRANCH  84  88
ENDBRANCH  57  81
BRANCH  69  92
ATOM     92  C   UNL A   1      42.996  27.370  35.354  1.00  0.00     0.023 A 
ATOM     93  C   UNL A   1      44.103  26.590  34.989  1.00  0.00     0.031 A 
ATOM     94  C   UNL A   1      42.204  26.839  36.404  1.00  0.00     0.131 A 
ATOM     95  C   UNL A   1      44.334  25.326  35.566  1.00  0.00     0.055 A 
ATOM     96  C   UNL A   1      42.478  25.618  37.031  1.00  0.00     0.041 A 
ATOM     97  F   UNL A   1      41.131  27.486  36.880  1.00  0.00    -0.206 F 
ATOM     98  C   UNL A   1      43.539  24.841  36.599  1.00  0.00     0.022 A 
BRANCH  95  99
ATOM     99  S   UNL A   1      45.662  24.301  34.881  1.00  0.00     0.124 S 
ATOM    100  O   UNL A   1      46.639  24.309  35.966  1.00  0.00    -0.237 OA
ATOM    101  O   UNL A   1      44.986  23.029  34.647  1.00  0.00    -0.237 OA
ATOM    102  O   UNL A   1      46.068  25.020  33.675  1.00  0.00    -0.744 OA
ENDBRANCH  95  99
ENDBRANCH  69  92
ENDBRANCH  43  44
ENDBRANCH  35  38
ENDBRANCH  33  34
ENDBRANCH   1  33
TORSDOF 15
ENDMDL
