MODEL 1
REMARK VINA RESULT:     -10.6      0.000      0.000
REMARK SMILES Cc1cccc(/C=C(/F)C(=O)NCCCNC(=O)c2ccc(-c3c4nc(c(-c5cc(S(=O)(=O)[O-])ccc5F)c5ccc([nH]5)c(-c5cc(S(=O)(=O)[O-])ccc5F)c5nc(c(-c6cc(S(=O)(=O)[O-])ccc6F)c6ccc3[nH]6)C=C5)C=C4)cc2)c1C
REMARK SMILES IDX 15 1 14 2 13 3 12 4 10 5 11 6 8 8 7 9 9 10 6 11 1 12 2 13
REMARK SMILES IDX 3 14 82 15 4 16 83 17 5 18 16 19 17 20 18 22 19 23 20 24
REMARK SMILES IDX 81 25 21 26 80 27 22 28 23 29 24 30 74 31 25 32 79 33 73 34
REMARK SMILES IDX 75 35 26 36 78 37 72 38 71 39 27 41 59 42 39 43 58 44 40 45
REMARK SMILES IDX 43 46 57 47 76 48 41 49 42 50 56 52 77 53 44 54 28 55 29 56
REMARK SMILES IDX 37 57 30 58 36 59 38 60 35 61 31 62 32 63 33 64 34 65 60 66
REMARK SMILES IDX 61 67 69 68 62 69 68 70 70 71 67 72 63 73 64 74 65 75 66 76
REMARK SMILES IDX 45 77 46 78 54 79 47 80 53 81 55 82 52 83 48 84 49 85 50 86
REMARK SMILES IDX 51 87
REMARK H PARENT 12 7 16 21 75 40 43 51
REMARK Flexibility Score: inf
ROOT
ATOM      1  C   UNL A   1      34.363  33.634  29.170  1.00  0.00     0.118 C 
ENDROOT
BRANCH   1   2
ATOM      2  C   UNL A   1      33.921  35.097  29.162  1.00  0.00     0.042 C 
BRANCH   2   3
ATOM      3  C   UNL A   1      33.176  35.527  30.427  1.00  0.00     0.118 C 
BRANCH   3   4
ATOM      4  N   UNL A   1      34.135  36.001  31.410  1.00  0.00    -0.350 N 
ATOM      5  C   UNL A   1      34.259  35.608  32.713  1.00  0.00     0.280 C 
ATOM      6  O   UNL A   1      34.449  36.453  33.583  1.00  0.00    -0.267 OA
ATOM      7  H   UNL A   1      34.772  36.684  31.101  1.00  0.00     0.163 HD
BRANCH   5   8
ATOM      8  C   UNL A   1      34.391  34.155  32.966  1.00  0.00     0.188 C 
ATOM      9  C   UNL A   1      35.499  33.433  32.744  1.00  0.00     0.053 C 
ATOM     10  F   UNL A   1      33.278  33.523  33.397  1.00  0.00    -0.201 F 
BRANCH   9  11
ATOM     11  C   UNL A   1      36.848  33.829  32.275  1.00  0.00    -0.019 A 
ATOM     12  C   UNL A   1      40.415  34.917  33.223  1.00  0.00     0.044 C 
ATOM     13  C   UNL A   1      39.178  34.578  32.430  1.00  0.00    -0.048 A 
ATOM     14  C   UNL A   1      39.271  34.568  31.031  1.00  0.00     0.004 A 
ATOM     15  C   UNL A   1      37.943  34.267  33.064  1.00  0.00    -0.041 A 
ATOM     16  C   UNL A   1      38.177  34.210  30.256  1.00  0.00     0.001 A 
ATOM     17  C   UNL A   1      37.867  34.398  34.565  1.00  0.00     0.045 C 
ATOM     18  C   UNL A   1      36.989  33.829  30.873  1.00  0.00     0.008 A 
ENDBRANCH   9  11
ENDBRANCH   5   8
ENDBRANCH   3   4
ENDBRANCH   2   3
ENDBRANCH   1   2
BRANCH   1  19
ATOM     19  N   UNL A   1      33.633  32.822  28.209  1.00  0.00    -0.352 N 
ATOM     20  C   UNL A   1      34.014  31.641  27.617  1.00  0.00     0.251 C 
ATOM     21  H   UNL A   1      32.747  33.163  27.948  1.00  0.00     0.163 HD
ATOM     22  O   UNL A   1      33.353  31.181  26.688  1.00  0.00    -0.269 OA
BRANCH  20  23
ATOM     23  C   UNL A   1      35.237  30.951  28.082  1.00  0.00     0.039 A 
ATOM     24  C   UNL A   1      36.473  31.579  27.915  1.00  0.00     0.014 A 
ATOM     25  C   UNL A   1      35.159  29.703  28.706  1.00  0.00     0.014 A 
ATOM     26  C   UNL A   1      37.624  30.991  28.444  1.00  0.00     0.010 A 
ATOM     27  C   UNL A   1      36.296  29.151  29.292  1.00  0.00     0.010 A 
ATOM     28  C   UNL A   1      37.539  29.794  29.175  1.00  0.00    -0.014 A 
BRANCH  28  29
ATOM     29  C   UNL A   1      38.731  29.205  29.840  1.00  0.00     0.031 A 
ATOM     30  C   UNL A   1      39.171  29.710  31.187  1.00  0.00     0.074 A 
ATOM     31  C   UNL A   1      39.464  28.274  29.196  1.00  0.00     0.049 A 
ATOM     32  N   UNL A   1      40.245  29.414  31.873  1.00  0.00    -0.248 NA
ATOM     33  C   UNL A   1      38.297  30.701  31.832  1.00  0.00     0.031 C 
ATOM     34  C   UNL A   1      39.157  27.725  27.873  1.00  0.00     0.029 A 
ATOM     35  N   UNL A   1      40.626  27.638  29.555  1.00  0.00    -0.354 N 
ATOM     36  C   UNL A   1      40.186  30.192  33.024  1.00  0.00     0.074 A 
ATOM     37  C   UNL A   1      38.995  31.009  32.915  1.00  0.00     0.031 C 
ATOM     38  C   UNL A   1      40.099  26.828  27.539  1.00  0.00     0.029 A 
ATOM     39  C   UNL A   1      41.104  26.774  28.597  1.00  0.00     0.049 A 
ATOM     40  H   UNL A   1      41.076  27.787  30.418  1.00  0.00     0.167 HD
ATOM     41  C   UNL A   1      41.036  30.209  34.081  1.00  0.00     0.034 A 
ATOM     42  C   UNL A   1      42.233  26.038  28.562  1.00  0.00     0.034 A 
ATOM     43  C   UNL A   1      42.212  29.379  34.179  1.00  0.00     0.049 A 
ATOM     44  C   UNL A   1      43.184  26.105  29.729  1.00  0.00     0.074 A 
ATOM     45  C   UNL A   1      43.107  29.273  35.231  1.00  0.00     0.029 A 
ATOM     46  N   UNL A   1      42.667  28.522  33.185  1.00  0.00    -0.354 N 
ATOM     47  N   UNL A   1      43.091  26.814  30.830  1.00  0.00    -0.248 NA
ATOM     48  C   UNL A   1      44.390  25.270  29.651  1.00  0.00     0.031 C 
ATOM     49  C   UNL A   1      44.135  28.404  34.848  1.00  0.00     0.029 A 
ATOM     50  C   UNL A   1      43.846  27.910  33.586  1.00  0.00     0.049 A 
ATOM     51  H   UNL A   1      42.219  28.370  32.323  1.00  0.00     0.167 HD
ATOM     52  C   UNL A   1      44.214  26.488  31.586  1.00  0.00     0.074 A 
ATOM     53  C   UNL A   1      44.962  25.512  30.821  1.00  0.00     0.031 C 
ATOM     54  C   UNL A   1      44.590  26.949  32.806  1.00  0.00     0.034 A 
BRANCH  41  55
ATOM     55  C   UNL A   1      40.733  31.177  35.200  1.00  0.00     0.023 A 
ATOM     56  C   UNL A   1      39.650  30.980  36.073  1.00  0.00     0.031 A 
ATOM     57  C   UNL A   1      41.523  32.326  35.380  1.00  0.00     0.131 A 
ATOM     58  C   UNL A   1      39.340  31.951  37.037  1.00  0.00     0.055 A 
ATOM     59  C   UNL A   1      41.258  33.250  36.393  1.00  0.00     0.041 A 
ATOM     60  F   UNL A   1      42.559  32.578  34.565  1.00  0.00    -0.206 F 
ATOM     61  C   UNL A   1      40.151  33.073  37.219  1.00  0.00     0.022 A 
BRANCH  58  62
ATOM     62  S   UNL A   1      37.782  31.798  37.952  1.00  0.00     0.124 S 
ATOM     63  O   UNL A   1      37.403  30.417  37.660  1.00  0.00    -0.237 OA
ATOM     64  O   UNL A   1      38.194  32.070  39.325  1.00  0.00    -0.237 OA
ATOM     65  O   UNL A   1      36.925  32.813  37.344  1.00  0.00    -0.744 OA
ENDBRANCH  58  62
ENDBRANCH  41  55
BRANCH  42  66
ATOM     66  C   UNL A   1      42.547  25.195  27.374  1.00  0.00     0.023 A 
ATOM     67  C   UNL A   1      42.124  23.859  27.305  1.00  0.00     0.031 A 
ATOM     68  C   UNL A   1      43.309  25.703  26.307  1.00  0.00     0.131 A 
ATOM     69  C   UNL A   1      42.501  23.062  26.213  1.00  0.00     0.055 A 
ATOM     70  C   UNL A   1      43.640  24.921  25.199  1.00  0.00     0.041 A 
ATOM     71  F   UNL A   1      43.735  26.977  26.322  1.00  0.00    -0.206 F 
ATOM     72  C   UNL A   1      43.246  23.588  25.154  1.00  0.00     0.022 A 
BRANCH  69  73
ATOM     73  S   UNL A   1      42.069  21.301  26.233  1.00  0.00     0.124 S 
ATOM     74  O   UNL A   1      40.679  21.331  25.794  1.00  0.00    -0.237 OA
ATOM     75  O   UNL A   1      43.029  20.744  25.286  1.00  0.00    -0.237 OA
ATOM     76  O   UNL A   1      42.277  20.915  27.627  1.00  0.00    -0.744 OA
ENDBRANCH  69  73
ENDBRANCH  42  66
BRANCH  54  77
ATOM     77  C   UNL A   1      45.847  26.367  33.401  1.00  0.00     0.023 A 
ATOM     78  C   UNL A   1      45.836  25.154  34.112  1.00  0.00     0.031 A 
ATOM     79  C   UNL A   1      47.073  27.041  33.258  1.00  0.00     0.131 A 
ATOM     80  C   UNL A   1      47.022  24.674  34.691  1.00  0.00     0.055 A 
ATOM     81  C   UNL A   1      48.258  26.532  33.790  1.00  0.00     0.041 A 
ATOM     82  F   UNL A   1      47.138  28.204  32.591  1.00  0.00    -0.206 F 
ATOM     83  C   UNL A   1      48.234  25.347  34.521  1.00  0.00     0.022 A 
BRANCH  80  84
ATOM     84  S   UNL A   1      46.946  23.192  35.734  1.00  0.00     0.124 S 
ATOM     85  O   UNL A   1      47.975  23.469  36.730  1.00  0.00    -0.237 OA
ATOM     86  O   UNL A   1      45.569  23.217  36.215  1.00  0.00    -0.237 OA
ATOM     87  O   UNL A   1      47.257  22.104  34.807  1.00  0.00    -0.744 OA
ENDBRANCH  80  84
ENDBRANCH  54  77
ENDBRANCH  28  29
ENDBRANCH  20  23
ENDBRANCH   1  19
TORSDOF 14
ENDMDL
MODEL 2
REMARK VINA RESULT:     -10.4      1.270      1.640
REMARK SMILES Cc1cccc(/C=C(/F)C(=O)NCCCNC(=O)c2ccc(-c3c4nc(c(-c5cc(S(=O)(=O)[O-])ccc5F)c5ccc([nH]5)c(-c5cc(S(=O)(=O)[O-])ccc5F)c5nc(c(-c6cc(S(=O)(=O)[O-])ccc6F)c6ccc3[nH]6)C=C5)C=C4)cc2)c1C
REMARK SMILES IDX 15 1 14 2 13 3 12 4 10 5 11 6 8 8 7 9 9 10 6 11 1 12 2 13
REMARK SMILES IDX 3 14 82 15 4 16 83 17 5 18 16 19 17 20 18 22 19 23 20 24
REMARK SMILES IDX 81 25 21 26 80 27 22 28 23 29 24 30 74 31 25 32 79 33 73 34
REMARK SMILES IDX 75 35 26 36 78 37 72 38 71 39 27 41 59 42 39 43 58 44 40 45
REMARK SMILES IDX 43 46 57 47 76 48 41 49 42 50 56 52 77 53 44 54 28 55 29 56
REMARK SMILES IDX 37 57 30 58 36 59 38 60 35 61 31 62 32 63 33 64 34 65 60 66
REMARK SMILES IDX 61 67 69 68 62 69 68 70 70 71 67 72 63 73 64 74 65 75 66 76
REMARK SMILES IDX 45 77 46 78 54 79 47 80 53 81 55 82 52 83 48 84 49 85 50 86
REMARK SMILES IDX 51 87
REMARK H PARENT 12 7 16 21 75 40 43 51
REMARK Flexibility Score: inf
ROOT
ATOM      1  C   UNL A   1      34.624  33.447  28.907  1.00  0.00     0.118 C 
ENDROOT
BRANCH   1   2
ATOM      2  C   UNL A   1      33.751  34.701  28.945  1.00  0.00     0.042 C 
BRANCH   2   3
ATOM      3  C   UNL A   1      33.205  35.035  30.334  1.00  0.00     0.118 C 
BRANCH   3   4
ATOM      4  N   UNL A   1      34.271  35.594  31.148  1.00  0.00    -0.350 N 
ATOM      5  C   UNL A   1      34.566  35.307  32.450  1.00  0.00     0.280 C 
ATOM      6  O   UNL A   1      34.849  36.220  33.221  1.00  0.00    -0.267 OA
ATOM      7  H   UNL A   1      34.850  36.257  30.708  1.00  0.00     0.163 HD
BRANCH   5   8
ATOM      8  C   UNL A   1      34.758  33.880  32.796  1.00  0.00     0.188 C 
ATOM      9  C   UNL A   1      35.903  33.198  32.645  1.00  0.00     0.053 C 
ATOM     10  F   UNL A   1      33.664  33.223  33.240  1.00  0.00    -0.201 F 
BRANCH   9  11
ATOM     11  C   UNL A   1      37.244  33.628  32.183  1.00  0.00    -0.019 A 
ATOM     12  C   UNL A   1      40.763  34.852  33.146  1.00  0.00     0.044 C 
ATOM     13  C   UNL A   1      39.547  34.455  32.347  1.00  0.00    -0.048 A 
ATOM     14  C   UNL A   1      39.656  34.419  30.950  1.00  0.00     0.004 A 
ATOM     15  C   UNL A   1      38.315  34.118  32.974  1.00  0.00    -0.041 A 
ATOM     16  C   UNL A   1      38.585  34.009  30.171  1.00  0.00     0.001 A 
ATOM     17  C   UNL A   1      38.216  34.279  34.471  1.00  0.00     0.045 C 
ATOM     18  C   UNL A   1      37.402  33.603  30.782  1.00  0.00     0.008 A 
ENDBRANCH   9  11
ENDBRANCH   5   8
ENDBRANCH   3   4
ENDBRANCH   2   3
ENDBRANCH   1   2
BRANCH   1  19
ATOM     19  N   UNL A   1      34.026  32.371  28.131  1.00  0.00    -0.352 N 
ATOM     20  C   UNL A   1      34.552  31.139  27.824  1.00  0.00     0.251 C 
ATOM     21  H   UNL A   1      33.124  32.549  27.779  1.00  0.00     0.163 HD
ATOM     22  O   UNL A   1      33.986  30.419  27.004  1.00  0.00    -0.269 OA
BRANCH  20  23
ATOM     23  C   UNL A   1      35.815  30.704  28.460  1.00  0.00     0.039 A 
ATOM     24  C   UNL A   1      35.758  29.849  29.563  1.00  0.00     0.014 A 
ATOM     25  C   UNL A   1      37.050  31.115  27.950  1.00  0.00     0.014 A 
ATOM     26  C   UNL A   1      36.940  29.343  30.107  1.00  0.00     0.010 A 
ATOM     27  C   UNL A   1      38.224  30.558  28.452  1.00  0.00     0.010 A 
ATOM     28  C   UNL A   1      38.181  29.659  29.529  1.00  0.00    -0.014 A 
BRANCH  28  29
ATOM     29  C   UNL A   1      39.444  29.049  30.022  1.00  0.00     0.031 A 
ATOM     30  C   UNL A   1      40.190  29.677  31.167  1.00  0.00     0.074 A 
ATOM     31  C   UNL A   1      39.962  27.979  29.385  1.00  0.00     0.049 A 
ATOM     32  N   UNL A   1      41.361  29.370  31.661  1.00  0.00    -0.248 NA
ATOM     33  C   UNL A   1      39.539  30.820  31.824  1.00  0.00     0.031 C 
ATOM     34  C   UNL A   1      39.348  27.298  28.242  1.00  0.00     0.029 A 
ATOM     35  N   UNL A   1      41.128  27.286  29.594  1.00  0.00    -0.354 N 
ATOM     36  C   UNL A   1      41.597  30.289  32.678  1.00  0.00     0.074 A 
ATOM     37  C   UNL A   1      40.467  31.196  32.691  1.00  0.00     0.031 C 
ATOM     38  C   UNL A   1      40.137  26.280  27.861  1.00  0.00     0.029 A 
ATOM     39  C   UNL A   1      41.335  26.265  28.695  1.00  0.00     0.049 A 
ATOM     40  H   UNL A   1      41.758  27.499  30.320  1.00  0.00     0.167 HD
ATOM     41  C   UNL A   1      42.649  30.359  33.531  1.00  0.00     0.034 A 
ATOM     42  C   UNL A   1      42.380  25.428  28.542  1.00  0.00     0.034 A 
ATOM     43  C   UNL A   1      43.762  29.441  33.512  1.00  0.00     0.049 A 
ATOM     44  C   UNL A   1      43.557  25.551  29.475  1.00  0.00     0.074 A 
ATOM     45  C   UNL A   1      44.849  29.385  34.369  1.00  0.00     0.029 A 
ATOM     46  N   UNL A   1      43.940  28.425  32.581  1.00  0.00    -0.354 N 
ATOM     47  N   UNL A   1      43.745  26.400  30.459  1.00  0.00    -0.248 NA
ATOM     48  C   UNL A   1      44.661  24.602  29.279  1.00  0.00     0.031 C 
ATOM     49  C   UNL A   1      45.713  28.380  33.918  1.00  0.00     0.029 A 
ATOM     50  C   UNL A   1      45.133  27.760  32.823  1.00  0.00     0.049 A 
ATOM     51  H   UNL A   1      43.312  28.209  31.856  1.00  0.00     0.167 HD
ATOM     52  C   UNL A   1      44.977  26.067  31.015  1.00  0.00     0.074 A 
ATOM     53  C   UNL A   1      45.481  24.936  30.265  1.00  0.00     0.031 C 
ATOM     54  C   UNL A   1      45.631  26.642  32.057  1.00  0.00     0.034 A 
BRANCH  41  55
ATOM     55  C   UNL A   1      42.653  31.486  34.536  1.00  0.00     0.023 A 
ATOM     56  C   UNL A   1      41.782  31.494  35.639  1.00  0.00     0.031 A 
ATOM     57  C   UNL A   1      43.524  32.579  34.378  1.00  0.00     0.131 A 
ATOM     58  C   UNL A   1      41.745  32.605  36.495  1.00  0.00     0.055 A 
ATOM     59  C   UNL A   1      43.539  33.645  35.279  1.00  0.00     0.041 A 
ATOM     60  F   UNL A   1      44.365  32.637  33.334  1.00  0.00    -0.206 F 
ATOM     61  C   UNL A   1      42.634  33.669  36.337  1.00  0.00     0.022 A 
BRANCH  58  62
ATOM     62  S   UNL A   1      40.423  32.701  37.732  1.00  0.00     0.124 S 
ATOM     63  O   UNL A   1      39.416  31.810  37.159  1.00  0.00    -0.237 OA
ATOM     64  O   UNL A   1      41.085  32.223  38.941  1.00  0.00    -0.237 OA
ATOM     65  O   UNL A   1      40.060  34.117  37.738  1.00  0.00    -0.744 OA
ENDBRANCH  58  62
ENDBRANCH  41  55
BRANCH  42  66
ATOM     66  C   UNL A   1      42.381  24.414  27.449  1.00  0.00     0.023 A 
ATOM     67  C   UNL A   1      41.744  23.175  27.613  1.00  0.00     0.031 A 
ATOM     68  C   UNL A   1      43.053  24.656  26.238  1.00  0.00     0.131 A 
ATOM     69  C   UNL A   1      41.827  22.207  26.600  1.00  0.00     0.055 A 
ATOM     70  C   UNL A   1      43.091  23.709  25.213  1.00  0.00     0.041 A 
ATOM     71  F   UNL A   1      43.675  25.828  26.029  1.00  0.00    -0.206 F 
ATOM     72  C   UNL A   1      42.486  22.471  25.397  1.00  0.00     0.022 A 
BRANCH  69  73
ATOM     73  S   UNL A   1      41.125  20.564  26.910  1.00  0.00     0.124 S 
ATOM     74  O   UNL A   1      40.828  20.631  28.336  1.00  0.00    -0.237 OA
ATOM     75  O   UNL A   1      39.974  20.553  26.014  1.00  0.00    -0.237 OA
ATOM     76  O   UNL A   1      42.209  19.655  26.539  1.00  0.00    -0.744 OA
ENDBRANCH  69  73
ENDBRANCH  42  66
BRANCH  54  77
ATOM     77  C   UNL A   1      46.943  26.023  32.468  1.00  0.00     0.023 A 
ATOM     78  C   UNL A   1      47.009  24.995  33.425  1.00  0.00     0.031 A 
ATOM     79  C   UNL A   1      48.145  26.473  31.895  1.00  0.00     0.131 A 
ATOM     80  C   UNL A   1      48.257  24.482  33.813  1.00  0.00     0.055 A 
ATOM     81  C   UNL A   1      49.378  25.923  32.246  1.00  0.00     0.041 A 
ATOM     82  F   UNL A   1      48.138  27.454  30.978  1.00  0.00    -0.206 F 
ATOM     83  C   UNL A   1      49.439  24.929  33.218  1.00  0.00     0.022 A 
BRANCH  80  84
ATOM     84  S   UNL A   1      48.321  23.271  35.162  1.00  0.00     0.124 S 
ATOM     85  O   UNL A   1      47.004  22.649  35.075  1.00  0.00    -0.237 OA
ATOM     86  O   UNL A   1      49.450  22.431  34.775  1.00  0.00    -0.237 OA
ATOM     87  O   UNL A   1      48.542  24.092  36.352  1.00  0.00    -0.744 OA
ENDBRANCH  80  84
ENDBRANCH  54  77
ENDBRANCH  28  29
ENDBRANCH  20  23
ENDBRANCH   1  19
TORSDOF 14
ENDMDL
MODEL 3
REMARK VINA RESULT:     -10.4      2.054      2.423
REMARK SMILES Cc1cccc(/C=C(/F)C(=O)NCCCNC(=O)c2ccc(-c3c4nc(c(-c5cc(S(=O)(=O)[O-])ccc5F)c5ccc([nH]5)c(-c5cc(S(=O)(=O)[O-])ccc5F)c5nc(c(-c6cc(S(=O)(=O)[O-])ccc6F)c6ccc3[nH]6)C=C5)C=C4)cc2)c1C
REMARK SMILES IDX 15 1 14 2 13 3 12 4 10 5 11 6 8 8 7 9 9 10 6 11 1 12 2 13
REMARK SMILES IDX 3 14 82 15 4 16 83 17 5 18 16 19 17 20 18 22 19 23 20 24
REMARK SMILES IDX 81 25 21 26 80 27 22 28 23 29 24 30 74 31 25 32 79 33 73 34
REMARK SMILES IDX 75 35 26 36 78 37 72 38 71 39 27 41 59 42 39 43 58 44 40 45
REMARK SMILES IDX 43 46 57 47 76 48 41 49 42 50 56 52 77 53 44 54 28 55 29 56
REMARK SMILES IDX 37 57 30 58 36 59 38 60 35 61 31 62 32 63 33 64 34 65 60 66
REMARK SMILES IDX 61 67 69 68 62 69 68 70 70 71 67 72 63 73 64 74 65 75 66 76
REMARK SMILES IDX 45 77 46 78 54 79 47 80 53 81 55 82 52 83 48 84 49 85 50 86
REMARK SMILES IDX 51 87
REMARK H PARENT 12 7 16 21 75 40 43 51
REMARK Flexibility Score: inf
ROOT
ATOM      1  C   UNL A   1      34.614  33.490  29.241  1.00  0.00     0.118 C 
ENDROOT
BRANCH   1   2
ATOM      2  C   UNL A   1      33.833  34.802  29.181  1.00  0.00     0.042 C 
BRANCH   2   3
ATOM      3  C   UNL A   1      33.233  35.229  30.521  1.00  0.00     0.118 C 
BRANCH   3   4
ATOM      4  N   UNL A   1      34.294  35.706  31.392  1.00  0.00    -0.350 N 
ATOM      5  C   UNL A   1      34.574  35.301  32.667  1.00  0.00     0.280 C 
ATOM      6  O   UNL A   1      34.854  36.140  33.519  1.00  0.00    -0.267 OA
ATOM      7  H   UNL A   1      34.882  36.401  31.019  1.00  0.00     0.163 HD
BRANCH   5   8
ATOM      8  C   UNL A   1      34.753  33.848  32.885  1.00  0.00     0.188 C 
ATOM      9  C   UNL A   1      35.899  33.177  32.699  1.00  0.00     0.053 C 
ATOM     10  F   UNL A   1      33.647  33.160  33.242  1.00  0.00    -0.201 F 
BRANCH   9  11
ATOM     11  C   UNL A   1      37.252  33.640  32.309  1.00  0.00    -0.019 A 
ATOM     12  C   UNL A   1      40.701  34.900  33.462  1.00  0.00     0.044 C 
ATOM     13  C   UNL A   1      39.530  34.502  32.598  1.00  0.00    -0.048 A 
ATOM     14  C   UNL A   1      39.704  34.500  31.208  1.00  0.00     0.004 A 
ATOM     15  C   UNL A   1      38.276  34.129  33.160  1.00  0.00    -0.041 A 
ATOM     16  C   UNL A   1      38.676  34.090  30.370  1.00  0.00     0.001 A 
ATOM     17  C   UNL A   1      38.107  34.253  34.654  1.00  0.00     0.045 C 
ATOM     18  C   UNL A   1      37.474  33.650  30.917  1.00  0.00     0.008 A 
ENDBRANCH   9  11
ENDBRANCH   5   8
ENDBRANCH   3   4
ENDBRANCH   2   3
ENDBRANCH   1   2
BRANCH   1  19
ATOM     19  N   UNL A   1      34.049  32.460  28.383  1.00  0.00    -0.352 N 
ATOM     20  C   UNL A   1      34.610  31.270  27.987  1.00  0.00     0.251 C 
ATOM     21  H   UNL A   1      33.143  32.640  28.041  1.00  0.00     0.163 HD
ATOM     22  O   UNL A   1      34.066  30.599  27.111  1.00  0.00    -0.269 OA
BRANCH  20  23
ATOM     23  C   UNL A   1      35.881  30.822  28.595  1.00  0.00     0.039 A 
ATOM     24  C   UNL A   1      35.841  29.924  29.664  1.00  0.00     0.014 A 
ATOM     25  C   UNL A   1      37.108  31.264  28.092  1.00  0.00     0.014 A 
ATOM     26  C   UNL A   1      37.032  29.408  30.178  1.00  0.00     0.010 A 
ATOM     27  C   UNL A   1      38.292  30.699  28.562  1.00  0.00     0.010 A 
ATOM     28  C   UNL A   1      38.266  29.758  29.603  1.00  0.00    -0.014 A 
BRANCH  28  29
ATOM     29  C   UNL A   1      39.538  29.140  30.062  1.00  0.00     0.031 A 
ATOM     30  C   UNL A   1      40.314  29.759  31.192  1.00  0.00     0.074 A 
ATOM     31  C   UNL A   1      40.036  28.072  29.407  1.00  0.00     0.049 A 
ATOM     32  N   UNL A   1      41.496  29.446  31.655  1.00  0.00    -0.248 NA
ATOM     33  C   UNL A   1      39.684  30.901  31.870  1.00  0.00     0.031 C 
ATOM     34  C   UNL A   1      39.392  27.399  28.276  1.00  0.00     0.029 A 
ATOM     35  N   UNL A   1      41.204  27.374  29.583  1.00  0.00    -0.354 N 
ATOM     36  C   UNL A   1      41.761  30.359  32.670  1.00  0.00     0.074 A 
ATOM     37  C   UNL A   1      40.635  31.269  32.716  1.00  0.00     0.031 C 
ATOM     38  C   UNL A   1      40.168  26.381  27.870  1.00  0.00     0.029 A 
ATOM     39  C   UNL A   1      41.386  26.357  28.674  1.00  0.00     0.049 A 
ATOM     40  H   UNL A   1      41.853  27.581  30.295  1.00  0.00     0.167 HD
ATOM     41  C   UNL A   1      42.834  30.420  33.498  1.00  0.00     0.034 A 
ATOM     42  C   UNL A   1      42.423  25.517  28.491  1.00  0.00     0.034 A 
ATOM     43  C   UNL A   1      43.942  29.498  33.446  1.00  0.00     0.049 A 
ATOM     44  C   UNL A   1      43.624  25.631  29.395  1.00  0.00     0.074 A 
ATOM     45  C   UNL A   1      45.049  29.433  34.276  1.00  0.00     0.029 A 
ATOM     46  N   UNL A   1      44.093  28.486  32.506  1.00  0.00    -0.354 N 
ATOM     47  N   UNL A   1      43.839  26.473  30.379  1.00  0.00    -0.248 NA
ATOM     48  C   UNL A   1      44.719  24.679  29.167  1.00  0.00     0.031 C 
ATOM     49  C   UNL A   1      45.898  28.428  33.799  1.00  0.00     0.029 A 
ATOM     50  C   UNL A   1      45.290  27.816  32.715  1.00  0.00     0.049 A 
ATOM     51  H   UNL A   1      43.446  28.276  31.796  1.00  0.00     0.167 HD
ATOM     52  C   UNL A   1      45.083  26.133  30.903  1.00  0.00     0.074 A 
ATOM     53  C   UNL A   1      45.564  25.004  30.135  1.00  0.00     0.031 C 
ATOM     54  C   UNL A   1      45.764  26.700  31.932  1.00  0.00     0.034 A 
BRANCH  41  55
ATOM     55  C   UNL A   1      42.866  31.542  34.509  1.00  0.00     0.023 A 
ATOM     56  C   UNL A   1      42.090  31.502  35.680  1.00  0.00     0.031 A 
ATOM     57  C   UNL A   1      43.667  32.677  34.288  1.00  0.00     0.131 A 
ATOM     58  C   UNL A   1      42.070  32.606  36.546  1.00  0.00     0.055 A 
ATOM     59  C   UNL A   1      43.705  33.738  35.194  1.00  0.00     0.041 A 
ATOM     60  F   UNL A   1      44.415  32.780  33.179  1.00  0.00    -0.206 F 
ATOM     61  C   UNL A   1      42.891  33.714  36.323  1.00  0.00     0.022 A 
BRANCH  58  62
ATOM     62  S   UNL A   1      40.853  32.632  37.888  1.00  0.00     0.124 S 
ATOM     63  O   UNL A   1      41.569  31.930  38.951  1.00  0.00    -0.237 OA
ATOM     64  O   UNL A   1      40.642  34.061  38.096  1.00  0.00    -0.237 OA
ATOM     65  O   UNL A   1      39.712  31.907  37.332  1.00  0.00    -0.744 OA
ENDBRANCH  58  62
ENDBRANCH  41  55
BRANCH  42  66
ATOM     66  C   UNL A   1      42.394  24.509  27.393  1.00  0.00     0.023 A 
ATOM     67  C   UNL A   1      41.643  23.330  27.515  1.00  0.00     0.031 A 
ATOM     68  C   UNL A   1      43.148  24.694  26.221  1.00  0.00     0.131 A 
ATOM     69  C   UNL A   1      41.695  22.360  26.502  1.00  0.00     0.055 A 
ATOM     70  C   UNL A   1      43.157  23.749  25.193  1.00  0.00     0.041 A 
ATOM     71  F   UNL A   1      43.879  25.807  26.052  1.00  0.00    -0.206 F 
ATOM     72  C   UNL A   1      42.437  22.568  25.336  1.00  0.00     0.022 A 
BRANCH  69  73
ATOM     73  S   UNL A   1      40.838  20.784  26.764  1.00  0.00     0.124 S 
ATOM     74  O   UNL A   1      40.795  20.707  28.219  1.00  0.00    -0.237 OA
ATOM     75  O   UNL A   1      39.562  21.019  26.096  1.00  0.00    -0.237 OA
ATOM     76  O   UNL A   1      41.710  19.809  26.111  1.00  0.00    -0.744 OA
ENDBRANCH  69  73
ENDBRANCH  42  66
BRANCH  54  77
ATOM     77  C   UNL A   1      47.084  26.074  32.307  1.00  0.00     0.023 A 
ATOM     78  C   UNL A   1      48.263  26.349  31.591  1.00  0.00     0.031 A 
ATOM     79  C   UNL A   1      47.159  25.187  33.395  1.00  0.00     0.131 A 
ATOM     80  C   UNL A   1      49.459  25.706  31.946  1.00  0.00     0.055 A 
ATOM     81  C   UNL A   1      48.363  24.592  33.776  1.00  0.00     0.041 A 
ATOM     82  F   UNL A   1      46.062  24.889  34.110  1.00  0.00    -0.206 F 
ATOM     83  C   UNL A   1      49.519  24.842  33.042  1.00  0.00     0.022 A 
BRANCH  80  84
ATOM     84  S   UNL A   1      50.926  25.958  30.908  1.00  0.00     0.124 S 
ATOM     85  O   UNL A   1      50.546  25.276  29.675  1.00  0.00    -0.237 OA
ATOM     86  O   UNL A   1      51.010  27.412  30.833  1.00  0.00    -0.237 OA
ATOM     87  O   UNL A   1      51.998  25.315  31.668  1.00  0.00    -0.744 OA
ENDBRANCH  80  84
ENDBRANCH  54  77
ENDBRANCH  28  29
ENDBRANCH  20  23
ENDBRANCH   1  19
TORSDOF 14
ENDMDL
