MODEL 1
REMARK VINA RESULT:     -11.7      0.000      0.000
REMARK SMILES CC(C)C[C@H](C(=O)NCCCNC(=O)c1ccc(-c2c3nc(c(-c4cc(S(=O)(=O)[O-])ccc4F)c4ccc([nH]4)c(-c4cc(S(=O)(=O)[O-])ccc4F)c4nc(c(-c5cc(S(=O)(=O)[O-])ccc5F)c5ccc2[nH]5)C=C4)C=C3)cc1)[C@@H]1CCO[C@]2(CCOC2)C1
REMARK SMILES IDX 10 1 9 2 8 3 6 4 7 5 5 7 4 8 2 9 1 10 3 11 78 12 79 13 87 14
REMARK SMILES IDX 80 15 82 16 81 17 83 18 86 19 84 20 85 21 11 22 12 23 13 24
REMARK SMILES IDX 14 26 15 27 16 28 77 29 17 30 76 31 18 32 19 33 20 34 70 35
REMARK SMILES IDX 21 36 75 37 69 38 71 39 22 40 74 41 68 42 67 43 23 45 55 46
REMARK SMILES IDX 35 47 54 48 36 49 39 50 53 51 72 52 37 53 38 54 52 56 73 57
REMARK SMILES IDX 40 58 24 59 25 60 33 61 26 62 32 63 34 64 31 65 27 66 28 67
REMARK SMILES IDX 29 68 30 69 56 70 57 71 65 72 58 73 64 74 66 75 63 76 59 77
REMARK SMILES IDX 60 78 61 79 62 80 41 81 42 82 50 83 43 84 49 85 51 86 48 87
REMARK SMILES IDX 44 88 45 89 46 90 47 91
REMARK H PARENT 8 6 12 25 71 44 39 55
REMARK Flexibility Score: inf
ROOT
ATOM      1  C   UNL A   1      32.988  28.559  27.249  1.00  0.00     0.042 C 
ENDROOT
BRANCH   1   2
ATOM      2  C   UNL A   1      31.477  28.289  27.480  1.00  0.00     0.117 C 
BRANCH   2   3
ATOM      3  N   UNL A   1      31.005  26.939  27.177  1.00  0.00    -0.356 N 
ATOM      4  C   UNL A   1      31.181  26.025  26.189  1.00  0.00     0.223 C 
ATOM      5  O   UNL A   1      30.978  24.863  26.573  1.00  0.00    -0.275 OA
ATOM      6  H   UNL A   1      30.396  26.605  27.874  1.00  0.00     0.163 HD
BRANCH   4   7
ATOM      7  C   UNL A   1      31.583  26.297  24.716  1.00  0.00     0.082 C 
BRANCH   7   8
ATOM      8  C   UNL A   1      30.829  27.612  24.256  1.00  0.00     0.016 C 
BRANCH   8   9
ATOM      9  C   UNL A   1      29.617  27.438  23.290  1.00  0.00    -0.017 C 
ATOM     10  C   UNL A   1      28.481  26.583  23.864  1.00  0.00     0.007 C 
ATOM     11  C   UNL A   1      29.030  28.804  22.913  1.00  0.00     0.007 C 
ENDBRANCH   8   9
ENDBRANCH   7   8
BRANCH   7  12
ATOM     12  C   UNL A   1      33.084  26.402  24.255  1.00  0.00     0.007 C 
ATOM     13  C   UNL A   1      33.278  26.863  22.810  1.00  0.00     0.033 C 
ATOM     14  C   UNL A   1      34.066  25.239  24.512  1.00  0.00     0.042 C 
ATOM     15  C   UNL A   1      33.080  25.701  21.882  1.00  0.00     0.161 C 
ATOM     16  C   UNL A   1      34.096  24.125  23.448  1.00  0.00     0.094 C 
ATOM     17  O   UNL A   1      33.948  24.611  22.114  1.00  0.00    -0.372 OA
ATOM     18  C   UNL A   1      33.186  22.962  23.821  1.00  0.00     0.066 C 
ATOM     19  C   UNL A   1      35.432  23.366  23.452  1.00  0.00     0.195 C 
ATOM     20  C   UNL A   1      34.037  22.033  24.675  1.00  0.00     0.163 C 
ATOM     21  O   UNL A   1      35.394  22.459  24.552  1.00  0.00    -0.378 OA
ENDBRANCH   7  12
ENDBRANCH   4   7
ENDBRANCH   2   3
ENDBRANCH   1   2
BRANCH   1  22
ATOM     22  C   UNL A   1      33.382  29.658  26.257  1.00  0.00     0.118 C 
BRANCH  22  23
ATOM     23  N   UNL A   1      33.308  30.983  26.841  1.00  0.00    -0.352 N 
ATOM     24  C   UNL A   1      34.108  31.626  27.753  1.00  0.00     0.251 C 
ATOM     25  H   UNL A   1      32.545  31.519  26.527  1.00  0.00     0.163 HD
ATOM     26  O   UNL A   1      33.674  32.666  28.250  1.00  0.00    -0.269 OA
BRANCH  24  27
ATOM     27  C   UNL A   1      35.444  31.125  28.181  1.00  0.00     0.039 A 
ATOM     28  C   UNL A   1      35.485  29.901  28.863  1.00  0.00     0.014 A 
ATOM     29  C   UNL A   1      36.625  31.866  28.064  1.00  0.00     0.014 A 
ATOM     30  C   UNL A   1      36.684  29.421  29.405  1.00  0.00     0.010 A 
ATOM     31  C   UNL A   1      37.841  31.355  28.556  1.00  0.00     0.010 A 
ATOM     32  C   UNL A   1      37.882  30.134  29.250  1.00  0.00    -0.014 A 
BRANCH  32  33
ATOM     33  C   UNL A   1      39.150  29.609  29.847  1.00  0.00     0.031 A 
ATOM     34  C   UNL A   1      39.648  30.110  31.182  1.00  0.00     0.074 A 
ATOM     35  C   UNL A   1      39.853  28.655  29.201  1.00  0.00     0.049 A 
ATOM     36  N   UNL A   1      40.703  29.740  31.867  1.00  0.00    -0.248 NA
ATOM     37  C   UNL A   1      38.865  31.177  31.821  1.00  0.00     0.031 C 
ATOM     38  C   UNL A   1      39.505  28.098  27.892  1.00  0.00     0.029 A 
ATOM     39  N   UNL A   1      40.997  27.980  29.553  1.00  0.00    -0.354 N 
ATOM     40  C   UNL A   1      40.711  30.526  33.017  1.00  0.00     0.074 A 
ATOM     41  C   UNL A   1      39.588  31.436  32.901  1.00  0.00     0.031 C 
ATOM     42  C   UNL A   1      40.399  27.151  27.565  1.00  0.00     0.029 A 
ATOM     43  C   UNL A   1      41.405  27.053  28.619  1.00  0.00     0.049 A 
ATOM     44  H   UNL A   1      41.480  28.143  30.394  1.00  0.00     0.167 HD
ATOM     45  C   UNL A   1      41.554  30.481  34.080  1.00  0.00     0.034 A 
ATOM     46  C   UNL A   1      42.468  26.223  28.605  1.00  0.00     0.034 A 
ATOM     47  C   UNL A   1      42.673  29.573  34.192  1.00  0.00     0.049 A 
ATOM     48  C   UNL A   1      43.407  26.207  29.785  1.00  0.00     0.074 A 
ATOM     49  C   UNL A   1      43.566  29.427  35.240  1.00  0.00     0.029 A 
ATOM     50  N   UNL A   1      43.061  28.661  33.218  1.00  0.00    -0.354 N 
ATOM     51  N   UNL A   1      43.369  26.927  30.882  1.00  0.00    -0.248 NA
ATOM     52  C   UNL A   1      44.523  25.252  29.731  1.00  0.00     0.031 C 
ATOM     53  C   UNL A   1      44.529  28.478  34.875  1.00  0.00     0.029 A 
ATOM     54  C   UNL A   1      44.194  27.972  33.631  1.00  0.00     0.049 A 
ATOM     55  H   UNL A   1      42.599  28.523  32.359  1.00  0.00     0.167 HD
ATOM     56  C   UNL A   1      44.439  26.491  31.659  1.00  0.00     0.074 A 
ATOM     57  C   UNL A   1      45.088  25.431  30.915  1.00  0.00     0.031 C 
ATOM     58  C   UNL A   1      44.849  26.928  32.878  1.00  0.00     0.034 A 
BRANCH  45  59
ATOM     59  C   UNL A   1      41.308  31.464  35.205  1.00  0.00     0.023 A 
ATOM     60  C   UNL A   1      40.176  31.366  36.035  1.00  0.00     0.031 A 
ATOM     61  C   UNL A   1      42.203  32.522  35.441  1.00  0.00     0.131 A 
ATOM     62  C   UNL A   1      39.931  32.348  37.007  1.00  0.00     0.055 A 
ATOM     63  C   UNL A   1      41.996  33.450  36.466  1.00  0.00     0.041 A 
ATOM     64  F   UNL A   1      43.293  32.681  34.674  1.00  0.00    -0.206 F 
ATOM     65  C   UNL A   1      40.845  33.376  37.245  1.00  0.00     0.022 A 
BRANCH  62  66
ATOM     66  S   UNL A   1      38.327  32.341  37.857  1.00  0.00     0.124 S 
ATOM     67  O   UNL A   1      38.737  32.348  39.260  1.00  0.00    -0.237 OA
ATOM     68  O   UNL A   1      37.703  33.558  37.365  1.00  0.00    -0.237 OA
ATOM     69  O   UNL A   1      37.707  31.093  37.406  1.00  0.00    -0.744 OA
ENDBRANCH  62  66
ENDBRANCH  45  59
BRANCH  46  70
ATOM     70  C   UNL A   1      42.720  25.341  27.426  1.00  0.00     0.023 A 
ATOM     71  C   UNL A   1      42.202  24.038  27.363  1.00  0.00     0.031 A 
ATOM     72  C   UNL A   1      43.527  25.780  26.361  1.00  0.00     0.131 A 
ATOM     73  C   UNL A   1      42.535  23.203  26.285  1.00  0.00     0.055 A 
ATOM     74  C   UNL A   1      43.811  24.965  25.264  1.00  0.00     0.041 A 
ATOM     75  F   UNL A   1      44.046  27.019  26.368  1.00  0.00    -0.206 F 
ATOM     76  C   UNL A   1      43.325  23.662  25.229  1.00  0.00     0.022 A 
BRANCH  73  77
ATOM     77  S   UNL A   1      41.992  21.472  26.322  1.00  0.00     0.124 S 
ATOM     78  O   UNL A   1      42.865  20.865  25.324  1.00  0.00    -0.237 OA
ATOM     79  O   UNL A   1      42.251  21.104  27.710  1.00  0.00    -0.237 OA
ATOM     80  O   UNL A   1      40.581  21.551  25.953  1.00  0.00    -0.744 OA
ENDBRANCH  73  77
ENDBRANCH  46  70
BRANCH  58  81
ATOM     81  C   UNL A   1      46.036  26.226  33.495  1.00  0.00     0.023 A 
ATOM     82  C   UNL A   1      45.890  25.054  34.260  1.00  0.00     0.031 A 
ATOM     83  C   UNL A   1      47.331  26.753  33.341  1.00  0.00     0.131 A 
ATOM     84  C   UNL A   1      47.006  24.487  34.896  1.00  0.00     0.055 A 
ATOM     85  C   UNL A   1      48.447  26.149  33.922  1.00  0.00     0.041 A 
ATOM     86  F   UNL A   1      47.533  27.870  32.624  1.00  0.00    -0.206 F 
ATOM     87  C   UNL A   1      48.286  25.019  34.718  1.00  0.00     0.022 A 
BRANCH  84  88
ATOM     88  S   UNL A   1      46.747  23.110  36.048  1.00  0.00     0.124 S 
ATOM     89  O   UNL A   1      45.319  22.851  35.896  1.00  0.00    -0.237 OA
ATOM     90  O   UNL A   1      47.641  22.087  35.516  1.00  0.00    -0.237 OA
ATOM     91  O   UNL A   1      47.143  23.665  37.341  1.00  0.00    -0.744 OA
ENDBRANCH  84  88
ENDBRANCH  58  81
ENDBRANCH  32  33
ENDBRANCH  24  27
ENDBRANCH  22  23
ENDBRANCH   1  22
TORSDOF 16
ENDMDL
MODEL 2
REMARK VINA RESULT:     -11.6      1.238      1.965
REMARK SMILES CC(C)C[C@H](C(=O)NCCCNC(=O)c1ccc(-c2c3nc(c(-c4cc(S(=O)(=O)[O-])ccc4F)c4ccc([nH]4)c(-c4cc(S(=O)(=O)[O-])ccc4F)c4nc(c(-c5cc(S(=O)(=O)[O-])ccc5F)c5ccc2[nH]5)C=C4)C=C3)cc1)[C@@H]1CCO[C@]2(CCOC2)C1
REMARK SMILES IDX 10 1 9 2 8 3 6 4 7 5 5 7 4 8 2 9 1 10 3 11 78 12 79 13 87 14
REMARK SMILES IDX 80 15 82 16 81 17 83 18 86 19 84 20 85 21 11 22 12 23 13 24
REMARK SMILES IDX 14 26 15 27 16 28 77 29 17 30 76 31 18 32 19 33 20 34 70 35
REMARK SMILES IDX 21 36 75 37 69 38 71 39 22 40 74 41 68 42 67 43 23 45 55 46
REMARK SMILES IDX 35 47 54 48 36 49 39 50 53 51 72 52 37 53 38 54 52 56 73 57
REMARK SMILES IDX 40 58 24 59 25 60 33 61 26 62 32 63 34 64 31 65 27 66 28 67
REMARK SMILES IDX 29 68 30 69 56 70 57 71 65 72 58 73 64 74 66 75 63 76 59 77
REMARK SMILES IDX 60 78 61 79 62 80 41 81 42 82 50 83 43 84 49 85 51 86 48 87
REMARK SMILES IDX 44 88 45 89 46 90 47 91
REMARK H PARENT 8 6 12 25 71 44 39 55
REMARK Flexibility Score: inf
ROOT
ATOM      1  C   UNL A   1      32.584  29.328  25.019  1.00  0.00     0.042 C 
ENDROOT
BRANCH   1   2
ATOM      2  C   UNL A   1      32.376  27.848  24.597  1.00  0.00     0.117 C 
BRANCH   2   3
ATOM      3  N   UNL A   1      33.230  27.355  23.518  1.00  0.00    -0.356 N 
ATOM      4  C   UNL A   1      33.342  26.219  22.783  1.00  0.00     0.223 C 
ATOM      5  O   UNL A   1      33.876  26.416  21.681  1.00  0.00    -0.275 OA
ATOM      6  H   UNL A   1      33.902  28.024  23.256  1.00  0.00     0.163 HD
BRANCH   4   7
ATOM      7  C   UNL A   1      32.895  24.790  23.186  1.00  0.00     0.082 C 
BRANCH   7   8
ATOM      8  C   UNL A   1      31.367  24.645  22.794  1.00  0.00     0.016 C 
BRANCH   8   9
ATOM      9  C   UNL A   1      30.324  24.715  23.951  1.00  0.00    -0.017 C 
ATOM     10  C   UNL A   1      30.932  24.545  25.349  1.00  0.00     0.007 C 
ATOM     11  C   UNL A   1      29.580  26.056  23.924  1.00  0.00     0.007 C 
ENDBRANCH   8   9
ENDBRANCH   7   8
BRANCH   7  12
ATOM     12  C   UNL A   1      33.653  23.498  22.701  1.00  0.00     0.007 C 
ATOM     13  C   UNL A   1      32.846  22.205  22.809  1.00  0.00     0.033 C 
ATOM     14  C   UNL A   1      35.086  23.201  23.193  1.00  0.00     0.042 C 
ATOM     15  C   UNL A   1      32.897  21.698  24.220  1.00  0.00     0.161 C 
ATOM     16  C   UNL A   1      35.202  22.443  24.530  1.00  0.00     0.094 C 
ATOM     17  O   UNL A   1      34.199  21.443  24.704  1.00  0.00    -0.372 OA
ATOM     18  C   UNL A   1      35.385  23.394  25.705  1.00  0.00     0.066 C 
ATOM     19  C   UNL A   1      36.539  21.693  24.647  1.00  0.00     0.195 C 
ATOM     20  C   UNL A   1      36.886  23.624  25.818  1.00  0.00     0.163 C 
ATOM     21  O   UNL A   1      37.532  22.660  24.987  1.00  0.00    -0.378 OA
ENDBRANCH   7  12
ENDBRANCH   4   7
ENDBRANCH   2   3
ENDBRANCH   1   2
BRANCH   1  22
ATOM     22  C   UNL A   1      32.875  29.624  26.494  1.00  0.00     0.118 C 
BRANCH  22  23
ATOM     23  N   UNL A   1      32.842  31.042  26.791  1.00  0.00    -0.352 N 
ATOM     24  C   UNL A   1      33.676  31.841  27.532  1.00  0.00     0.251 C 
ATOM     25  H   UNL A   1      32.082  31.520  26.386  1.00  0.00     0.163 HD
ATOM     26  O   UNL A   1      33.276  32.972  27.810  1.00  0.00    -0.269 OA
BRANCH  24  27
ATOM     27  C   UNL A   1      35.012  31.407  28.030  1.00  0.00     0.039 A 
ATOM     28  C   UNL A   1      35.104  30.127  28.595  1.00  0.00     0.014 A 
ATOM     29  C   UNL A   1      36.129  32.246  28.091  1.00  0.00     0.014 A 
ATOM     30  C   UNL A   1      36.292  29.691  29.195  1.00  0.00     0.010 A 
ATOM     31  C   UNL A   1      37.340  31.786  28.640  1.00  0.00     0.010 A 
ATOM     32  C   UNL A   1      37.432  30.509  29.217  1.00  0.00    -0.014 A 
BRANCH  32  33
ATOM     33  C   UNL A   1      38.687  30.027  29.874  1.00  0.00     0.031 A 
ATOM     34  C   UNL A   1      39.086  30.520  31.244  1.00  0.00     0.074 A 
ATOM     35  C   UNL A   1      39.468  29.121  29.249  1.00  0.00     0.049 A 
ATOM     36  N   UNL A   1      40.118  30.184  31.980  1.00  0.00    -0.248 NA
ATOM     37  C   UNL A   1      38.221  31.536  31.859  1.00  0.00     0.031 C 
ATOM     38  C   UNL A   1      39.220  28.579  27.912  1.00  0.00     0.029 A 
ATOM     39  N   UNL A   1      40.621  28.491  29.651  1.00  0.00    -0.354 N 
ATOM     40  C   UNL A   1      40.026  30.943  33.144  1.00  0.00     0.074 A 
ATOM     41  C   UNL A   1      38.871  31.803  32.983  1.00  0.00     0.031 C 
ATOM     42  C   UNL A   1      40.173  27.681  27.617  1.00  0.00     0.029 A 
ATOM     43  C   UNL A   1      41.122  27.605  28.724  1.00  0.00     0.049 A 
ATOM     44  H   UNL A   1      41.048  28.657  30.522  1.00  0.00     0.167 HD
ATOM     45  C   UNL A   1      40.811  30.912  34.252  1.00  0.00     0.034 A 
ATOM     46  C   UNL A   1      42.221  26.823  28.753  1.00  0.00     0.034 A 
ATOM     47  C   UNL A   1      41.962  30.053  34.408  1.00  0.00     0.049 A 
ATOM     48  C   UNL A   1      43.094  26.823  29.984  1.00  0.00     0.074 A 
ATOM     49  C   UNL A   1      42.802  29.924  35.502  1.00  0.00     0.029 A 
ATOM     50  N   UNL A   1      42.445  29.182  33.440  1.00  0.00    -0.354 N 
ATOM     51  N   UNL A   1      42.961  27.516  31.091  1.00  0.00    -0.248 NA
ATOM     52  C   UNL A   1      44.253  25.921  29.973  1.00  0.00     0.031 C 
ATOM     53  C   UNL A   1      43.826  29.028  35.173  1.00  0.00     0.029 A 
ATOM     54  C   UNL A   1      43.584  28.535  33.902  1.00  0.00     0.049 A 
ATOM     55  H   UNL A   1      42.038  29.042  32.554  1.00  0.00     0.167 HD
ATOM     56  C   UNL A   1      44.007  27.111  31.918  1.00  0.00     0.074 A 
ATOM     57  C   UNL A   1      44.743  26.098  31.191  1.00  0.00     0.031 C 
ATOM     58  C   UNL A   1      44.327  27.539  33.167  1.00  0.00     0.034 A 
BRANCH  45  59
ATOM     59  C   UNL A   1      40.457  31.858  35.380  1.00  0.00     0.023 A 
ATOM     60  C   UNL A   1      39.411  31.576  36.278  1.00  0.00     0.031 A 
ATOM     61  C   UNL A   1      41.161  33.063  35.553  1.00  0.00     0.131 A 
ATOM     62  C   UNL A   1      39.050  32.517  37.254  1.00  0.00     0.055 A 
ATOM     63  C   UNL A   1      40.849  33.959  36.579  1.00  0.00     0.041 A 
ATOM     64  F   UNL A   1      42.159  33.398  34.720  1.00  0.00    -0.206 F 
ATOM     65  C   UNL A   1      39.778  33.696  37.427  1.00  0.00     0.022 A 
BRANCH  62  66
ATOM     66  S   UNL A   1      37.525  32.241  38.198  1.00  0.00     0.124 S 
ATOM     67  O   UNL A   1      36.600  33.160  37.538  1.00  0.00    -0.237 OA
ATOM     68  O   UNL A   1      37.277  30.823  37.993  1.00  0.00    -0.237 OA
ATOM     69  O   UNL A   1      37.896  32.621  39.564  1.00  0.00    -0.744 OA
ENDBRANCH  62  66
ENDBRANCH  45  59
BRANCH  46  70
ATOM     70  C   UNL A   1      42.578  25.981  27.572  1.00  0.00     0.023 A 
ATOM     71  C   UNL A   1      42.137  24.653  27.462  1.00  0.00     0.031 A 
ATOM     72  C   UNL A   1      43.411  26.484  26.557  1.00  0.00     0.131 A 
ATOM     73  C   UNL A   1      42.569  23.859  26.387  1.00  0.00     0.055 A 
ATOM     74  C   UNL A   1      43.793  25.709  25.462  1.00  0.00     0.041 A 
ATOM     75  F   UNL A   1      43.859  27.749  26.611  1.00  0.00    -0.206 F 
ATOM     76  C   UNL A   1      43.382  24.382  25.379  1.00  0.00     0.022 A 
BRANCH  73  77
ATOM     77  S   UNL A   1      42.122  22.101  26.368  1.00  0.00     0.124 S 
ATOM     78  O   UNL A   1      42.559  21.668  27.690  1.00  0.00    -0.237 OA
ATOM     79  O   UNL A   1      40.680  22.157  26.155  1.00  0.00    -0.237 OA
ATOM     80  O   UNL A   1      42.894  21.566  25.248  1.00  0.00    -0.744 OA
ENDBRANCH  73  77
ENDBRANCH  46  70
BRANCH  58  81
ATOM     81  C   UNL A   1      45.510  26.877  33.835  1.00  0.00     0.023 A 
ATOM     82  C   UNL A   1      45.368  25.707  34.604  1.00  0.00     0.031 A 
ATOM     83  C   UNL A   1      46.794  27.442  33.727  1.00  0.00     0.131 A 
ATOM     84  C   UNL A   1      46.475  25.179  35.287  1.00  0.00     0.055 A 
ATOM     85  C   UNL A   1      47.904  26.876  34.357  1.00  0.00     0.041 A 
ATOM     86  F   UNL A   1      46.990  28.560  33.010  1.00  0.00    -0.206 F 
ATOM     87  C   UNL A   1      47.745  25.747  35.155  1.00  0.00     0.022 A 
BRANCH  84  88
ATOM     88  S   UNL A   1      46.212  23.803  36.440  1.00  0.00     0.124 S 
ATOM     89  O   UNL A   1      45.909  22.700  35.534  1.00  0.00    -0.237 OA
ATOM     90  O   UNL A   1      47.495  23.726  37.131  1.00  0.00    -0.237 OA
ATOM     91  O   UNL A   1      45.092  24.254  37.264  1.00  0.00    -0.744 OA
ENDBRANCH  84  88
ENDBRANCH  58  81
ENDBRANCH  32  33
ENDBRANCH  24  27
ENDBRANCH  22  23
ENDBRANCH   1  22
TORSDOF 16
ENDMDL
MODEL 3
REMARK VINA RESULT:     -11.6      4.873      9.988
REMARK SMILES CC(C)C[C@H](C(=O)NCCCNC(=O)c1ccc(-c2c3nc(c(-c4cc(S(=O)(=O)[O-])ccc4F)c4ccc([nH]4)c(-c4cc(S(=O)(=O)[O-])ccc4F)c4nc(c(-c5cc(S(=O)(=O)[O-])ccc5F)c5ccc2[nH]5)C=C4)C=C3)cc1)[C@@H]1CCO[C@]2(CCOC2)C1
REMARK SMILES IDX 10 1 9 2 8 3 6 4 7 5 5 7 4 8 2 9 1 10 3 11 78 12 79 13 87 14
REMARK SMILES IDX 80 15 82 16 81 17 83 18 86 19 84 20 85 21 11 22 12 23 13 24
REMARK SMILES IDX 14 26 15 27 16 28 77 29 17 30 76 31 18 32 19 33 20 34 70 35
REMARK SMILES IDX 21 36 75 37 69 38 71 39 22 40 74 41 68 42 67 43 23 45 55 46
REMARK SMILES IDX 35 47 54 48 36 49 39 50 53 51 72 52 37 53 38 54 52 56 73 57
REMARK SMILES IDX 40 58 24 59 25 60 33 61 26 62 32 63 34 64 31 65 27 66 28 67
REMARK SMILES IDX 29 68 30 69 56 70 57 71 65 72 58 73 64 74 66 75 63 76 59 77
REMARK SMILES IDX 60 78 61 79 62 80 41 81 42 82 50 83 43 84 49 85 51 86 48 87
REMARK SMILES IDX 44 88 45 89 46 90 47 91
REMARK H PARENT 8 6 12 25 71 44 39 55
REMARK Flexibility Score: inf
ROOT
ATOM      1  C   UNL A   1      36.070  22.361  25.748  1.00  0.00     0.042 C 
ENDROOT
BRANCH   1   2
ATOM      2  C   UNL A   1      35.627  23.809  26.090  1.00  0.00     0.117 C 
BRANCH   2   3
ATOM      3  N   UNL A   1      34.934  24.543  25.035  1.00  0.00    -0.356 N 
ATOM      4  C   UNL A   1      34.163  25.658  24.943  1.00  0.00     0.223 C 
ATOM      5  O   UNL A   1      34.193  26.165  23.812  1.00  0.00    -0.275 OA
ATOM      6  H   UNL A   1      35.058  24.116  24.157  1.00  0.00     0.163 HD
BRANCH   4   7
ATOM      7  C   UNL A   1      33.303  26.300  26.061  1.00  0.00     0.082 C 
BRANCH   7   8
ATOM      8  C   UNL A   1      33.346  27.869  25.849  1.00  0.00     0.016 C 
BRANCH   8   9
ATOM      9  C   UNL A   1      33.571  28.753  27.114  1.00  0.00    -0.017 C 
ATOM     10  C   UNL A   1      35.011  29.258  27.273  1.00  0.00     0.007 C 
ATOM     11  C   UNL A   1      32.646  29.977  27.086  1.00  0.00     0.007 C 
ENDBRANCH   8   9
ENDBRANCH   7   8
BRANCH   7  12
ATOM     12  C   UNL A   1      31.808  25.879  26.325  1.00  0.00     0.007 C 
ATOM     13  C   UNL A   1      31.540  24.378  26.219  1.00  0.00     0.033 C 
ATOM     14  C   UNL A   1      30.651  26.615  25.617  1.00  0.00     0.042 C 
ATOM     15  C   UNL A   1      31.385  23.996  24.777  1.00  0.00     0.161 C 
ATOM     16  C   UNL A   1      30.269  26.095  24.218  1.00  0.00     0.094 C 
ATOM     17  O   UNL A   1      30.350  24.676  24.098  1.00  0.00    -0.372 OA
ATOM     18  C   UNL A   1      30.962  26.882  23.114  1.00  0.00     0.066 C 
ATOM     19  C   UNL A   1      28.816  26.445  23.855  1.00  0.00     0.195 C 
ATOM     20  C   UNL A   1      30.050  28.064  22.816  1.00  0.00     0.163 C 
ATOM     21  O   UNL A   1      28.803  27.818  23.465  1.00  0.00    -0.378 OA
ENDBRANCH   7  12
ENDBRANCH   4   7
ENDBRANCH   2   3
ENDBRANCH   1   2
BRANCH   1  22
ATOM     22  C   UNL A   1      37.335  22.173  24.904  1.00  0.00     0.118 C 
BRANCH  22  23
ATOM     23  N   UNL A   1      38.238  21.191  25.471  1.00  0.00    -0.352 N 
ATOM     24  C   UNL A   1      39.399  21.325  26.191  1.00  0.00     0.251 C 
ATOM     25  H   UNL A   1      37.969  20.258  25.312  1.00  0.00     0.163 HD
ATOM     26  O   UNL A   1      40.087  20.316  26.344  1.00  0.00    -0.269 OA
BRANCH  24  27
ATOM     27  C   UNL A   1      39.872  22.615  26.768  1.00  0.00     0.039 A 
ATOM     28  C   UNL A   1      39.481  23.793  26.117  1.00  0.00     0.014 A 
ATOM     29  C   UNL A   1      40.785  22.706  27.823  1.00  0.00     0.014 A 
ATOM     30  C   UNL A   1      39.981  25.037  26.522  1.00  0.00     0.010 A 
ATOM     31  C   UNL A   1      41.241  23.961  28.268  1.00  0.00     0.010 A 
ATOM     32  C   UNL A   1      40.860  25.142  27.610  1.00  0.00    -0.014 A 
BRANCH  32  33
ATOM     33  C   UNL A   1      41.391  26.479  28.019  1.00  0.00     0.031 A 
ATOM     34  C   UNL A   1      42.809  26.886  27.694  1.00  0.00     0.074 A 
ATOM     35  C   UNL A   1      40.591  27.352  28.668  1.00  0.00     0.049 A 
ATOM     36  N   UNL A   1      43.425  28.017  27.937  1.00  0.00    -0.248 NA
ATOM     37  C   UNL A   1      43.647  25.882  27.024  1.00  0.00     0.031 C 
ATOM     38  C   UNL A   1      39.209  27.083  29.071  1.00  0.00     0.029 A 
ATOM     39  N   UNL A   1      40.816  28.638  29.097  1.00  0.00    -0.354 N 
ATOM     40  C   UNL A   1      44.721  27.864  27.448  1.00  0.00     0.074 A 
ATOM     41  C   UNL A   1      44.815  26.504  26.954  1.00  0.00     0.031 C 
ATOM     42  C   UNL A   1      38.703  28.177  29.663  1.00  0.00     0.029 A 
ATOM     43  C   UNL A   1      39.729  29.215  29.715  1.00  0.00     0.049 A 
ATOM     44  H   UNL A   1      41.673  29.104  28.972  1.00  0.00     0.167 HD
ATOM     45  C   UNL A   1      45.729  28.771  27.392  1.00  0.00     0.034 A 
ATOM     46  C   UNL A   1      39.572  30.435  30.269  1.00  0.00     0.034 A 
ATOM     47  C   UNL A   1      45.631  30.126  27.886  1.00  0.00     0.049 A 
ATOM     48  C   UNL A   1      40.714  31.420  30.218  1.00  0.00     0.074 A 
ATOM     49  C   UNL A   1      46.583  31.132  27.846  1.00  0.00     0.029 A 
ATOM     50  N   UNL A   1      44.518  30.666  28.519  1.00  0.00    -0.354 N 
ATOM     51  N   UNL A   1      41.915  31.268  29.709  1.00  0.00    -0.248 NA
ATOM     52  C   UNL A   1      40.470  32.747  30.799  1.00  0.00     0.031 C 
ATOM     53  C   UNL A   1      46.073  32.253  28.511  1.00  0.00     0.029 A 
ATOM     54  C   UNL A   1      44.772  31.978  28.898  1.00  0.00     0.049 A 
ATOM     55  H   UNL A   1      43.672  30.188  28.676  1.00  0.00     0.167 HD
ATOM     56  C   UNL A   1      42.558  32.490  29.888  1.00  0.00     0.074 A 
ATOM     57  C   UNL A   1      41.605  33.373  30.527  1.00  0.00     0.031 C 
ATOM     58  C   UNL A   1      43.824  32.849  29.552  1.00  0.00     0.034 A 
BRANCH  45  59
ATOM     59  C   UNL A   1      47.041  28.317  26.788  1.00  0.00     0.023 A 
ATOM     60  C   UNL A   1      47.222  28.236  25.395  1.00  0.00     0.031 A 
ATOM     61  C   UNL A   1      48.117  27.943  27.611  1.00  0.00     0.131 A 
ATOM     62  C   UNL A   1      48.418  27.722  24.871  1.00  0.00     0.055 A 
ATOM     63  C   UNL A   1      49.336  27.510  27.081  1.00  0.00     0.041 A 
ATOM     64  F   UNL A   1      48.003  27.983  28.948  1.00  0.00    -0.206 F 
ATOM     65  C   UNL A   1      49.486  27.381  25.704  1.00  0.00     0.022 A 
BRANCH  62  66
ATOM     66  S   UNL A   1      48.502  27.370  23.093  1.00  0.00     0.124 S 
ATOM     67  O   UNL A   1      47.266  27.984  22.612  1.00  0.00    -0.237 OA
ATOM     68  O   UNL A   1      49.739  28.024  22.698  1.00  0.00    -0.237 OA
ATOM     69  O   UNL A   1      48.522  25.906  23.035  1.00  0.00    -0.744 OA
ENDBRANCH  62  66
ENDBRANCH  45  59
BRANCH  46  70
ATOM     70  C   UNL A   1      38.288  30.799  30.939  1.00  0.00     0.023 A 
ATOM     71  C   UNL A   1      37.291  31.521  30.264  1.00  0.00     0.031 A 
ATOM     72  C   UNL A   1      38.063  30.468  32.287  1.00  0.00     0.131 A 
ATOM     73  C   UNL A   1      36.136  31.929  30.951  1.00  0.00     0.055 A 
ATOM     74  C   UNL A   1      36.889  30.828  32.950  1.00  0.00     0.041 A 
ATOM     75  F   UNL A   1      38.982  29.775  32.979  1.00  0.00    -0.206 F 
ATOM     76  C   UNL A   1      35.922  31.576  32.285  1.00  0.00     0.022 A 
BRANCH  73  77
ATOM     77  S   UNL A   1      34.951  33.007  30.100  1.00  0.00     0.124 S 
ATOM     78  O   UNL A   1      34.129  33.481  31.208  1.00  0.00    -0.237 OA
ATOM     79  O   UNL A   1      35.828  33.996  29.484  1.00  0.00    -0.237 OA
ATOM     80  O   UNL A   1      34.280  32.104  29.167  1.00  0.00    -0.744 OA
ENDBRANCH  73  77
ENDBRANCH  46  70
BRANCH  58  81
ATOM     81  C   UNL A   1      44.231  34.276  29.840  1.00  0.00     0.023 A 
ATOM     82  C   UNL A   1      44.089  35.296  28.881  1.00  0.00     0.031 A 
ATOM     83  C   UNL A   1      44.798  34.615  31.082  1.00  0.00     0.131 A 
ATOM     84  C   UNL A   1      44.568  36.587  29.155  1.00  0.00     0.055 A 
ATOM     85  C   UNL A   1      45.214  35.916  31.372  1.00  0.00     0.041 A 
ATOM     86  F   UNL A   1      44.962  33.684  32.035  1.00  0.00    -0.206 F 
ATOM     87  C   UNL A   1      45.115  36.907  30.400  1.00  0.00     0.022 A 
BRANCH  84  88
ATOM     88  S   UNL A   1      44.567  37.817  27.821  1.00  0.00     0.124 S 
ATOM     89  O   UNL A   1      43.615  37.242  26.877  1.00  0.00    -0.237 OA
ATOM     90  O   UNL A   1      44.129  39.026  28.512  1.00  0.00    -0.237 OA
ATOM     91  O   UNL A   1      45.957  37.834  27.368  1.00  0.00    -0.744 OA
ENDBRANCH  84  88
ENDBRANCH  58  81
ENDBRANCH  32  33
ENDBRANCH  24  27
ENDBRANCH  22  23
ENDBRANCH   1  22
TORSDOF 16
ENDMDL
