MODEL 1
REMARK VINA RESULT:      -9.8      0.000      0.000
REMARK SMILES CC(C)[C@H](NC(=O)[C@H](Cc1ccccc1)n1c(=O)[nH]c2ccccc2c1=O)C(=O)NCCCNC(=O)c1ccc(-c2c3nc(c(-c4cc(S(=O)(=O)[O-])ccc4F)c4ccc([nH]4)c(-c4cc(S(=O)(=O)[O-])ccc4F)c4nc(c(-c5cc(S(=O)(=O)[O-])ccc5F)c5ccc2[nH]5)C=C4)C=C3)cc1
REMARK SMILES IDX 31 1 30 2 28 3 29 4 4 6 2 7 1 8 3 9 5 10 6 11 7 13 8 14
REMARK SMILES IDX 16 15 17 16 26 17 18 18 19 19 25 20 27 21 20 22 24 24 21 25
REMARK SMILES IDX 23 26 22 27 9 28 10 29 11 30 15 31 12 32 14 33 13 34 32 35
REMARK SMILES IDX 33 36 34 37 35 38 36 40 37 41 38 42 99 43 39 44 98 45 40 46
REMARK SMILES IDX 41 47 42 48 92 49 43 50 97 51 91 52 93 53 44 54 96 55 90 56
REMARK SMILES IDX 89 57 45 59 77 60 57 61 76 62 58 63 61 64 75 65 94 66 59 67
REMARK SMILES IDX 60 68 74 70 95 71 62 72 46 73 47 74 55 75 48 76 54 77 56 78
REMARK SMILES IDX 53 79 49 80 50 81 51 82 52 83 78 84 79 85 87 86 80 87 86 88
REMARK SMILES IDX 88 89 85 90 81 91 82 92 83 93 84 94 63 95 64 96 72 97 65 98
REMARK SMILES IDX 71 99 73 100 70 101 66 102 67 103 68 104 69 105
REMARK H PARENT 30 5 5 12 19 23 34 39 93 58 61 69
REMARK Flexibility Score: inf
ROOT
ATOM      1  C   UNL A   1      45.981  40.549  30.277  1.00  0.00     0.117 C 
ENDROOT
BRANCH   1   2
ATOM      2  N   UNL A   1      46.036  41.557  29.249  1.00  0.00    -0.354 N 
ATOM      3  C   UNL A   1      45.116  42.507  28.930  1.00  0.00     0.242 C 
ATOM      4  O   UNL A   1      45.450  43.350  28.091  1.00  0.00    -0.273 OA
ATOM      5  H   UNL A   1      46.854  41.560  28.702  1.00  0.00     0.163 HD
BRANCH   3   6
ATOM      6  C   UNL A   1      43.750  42.638  29.663  1.00  0.00     0.173 C 
BRANCH   6   7
ATOM      7  C   UNL A   1      43.820  43.254  31.060  1.00  0.00     0.015 C 
ATOM      8  C   UNL A   1      44.282  44.710  31.139  1.00  0.00     0.010 C 
ATOM      9  C   UNL A   1      42.457  43.126  31.751  1.00  0.00     0.010 C 
ENDBRANCH   6   7
BRANCH   6  10
ATOM     10  N   UNL A   1      42.879  41.448  29.517  1.00  0.00    -0.342 N 
ATOM     11  C   UNL A   1      42.460  40.518  28.625  1.00  0.00     0.244 C 
ATOM     12  H   UNL A   1      42.448  41.267  30.383  1.00  0.00     0.164 HD
ATOM     13  O   UNL A   1      41.350  40.075  28.958  1.00  0.00    -0.273 OA
BRANCH  11  14
ATOM     14  C   UNL A   1      43.049  40.165  27.219  1.00  0.00     0.189 C 
BRANCH  14  15
ATOM     15  N   UNL A   1      43.766  38.891  27.016  1.00  0.00    -0.247 N 
ATOM     16  C   UNL A   1      45.143  38.906  26.932  1.00  0.00     0.329 A 
ATOM     17  C   UNL A   1      43.024  37.705  27.014  1.00  0.00     0.264 A 
ATOM     18  O   UNL A   1      45.817  39.911  26.730  1.00  0.00    -0.248 OA
ATOM     19  N   UNL A   1      45.785  37.700  27.034  1.00  0.00    -0.307 N 
ATOM     20  C   UNL A   1      43.760  36.461  26.732  1.00  0.00     0.064 A 
ATOM     21  O   UNL A   1      41.808  37.642  27.184  1.00  0.00    -0.268 OA
ATOM     22  C   UNL A   1      45.139  36.479  26.871  1.00  0.00     0.055 A 
ATOM     23  H   UNL A   1      46.749  37.698  27.232  1.00  0.00     0.171 HD
ATOM     24  C   UNL A   1      43.110  35.305  26.290  1.00  0.00     0.016 A 
ATOM     25  C   UNL A   1      45.877  35.308  26.710  1.00  0.00     0.027 A 
ATOM     26  C   UNL A   1      43.856  34.153  26.040  1.00  0.00     0.001 A 
ATOM     27  C   UNL A   1      45.231  34.145  26.288  1.00  0.00     0.002 A 
ENDBRANCH  14  15
BRANCH  14  28
ATOM     28  C   UNL A   1      42.103  40.518  26.018  1.00  0.00     0.071 C 
BRANCH  28  29
ATOM     29  C   UNL A   1      42.519  41.634  25.086  1.00  0.00    -0.045 A 
ATOM     30  C   UNL A   1      41.775  41.888  23.924  1.00  0.00     0.004 A 
ATOM     31  C   UNL A   1      43.669  42.394  25.320  1.00  0.00     0.004 A 
ATOM     32  C   UNL A   1      42.244  42.773  22.953  1.00  0.00     0.000 A 
ATOM     33  C   UNL A   1      44.149  43.268  24.341  1.00  0.00     0.000 A 
ATOM     34  C   UNL A   1      43.449  43.438  23.149  1.00  0.00     0.000 A 
ENDBRANCH  28  29
ENDBRANCH  14  28
ENDBRANCH  11  14
ENDBRANCH   6  10
ENDBRANCH   3   6
ENDBRANCH   1   2
BRANCH   1  35
ATOM     35  C   UNL A   1      46.592  41.036  31.587  1.00  0.00     0.042 C 
BRANCH  35  36
ATOM     36  C   UNL A   1      46.250  40.138  32.766  1.00  0.00     0.118 C 
BRANCH  36  37
ATOM     37  N   UNL A   1      44.910  40.401  33.276  1.00  0.00    -0.352 N 
ATOM     38  C   UNL A   1      43.748  39.687  33.105  1.00  0.00     0.251 C 
ATOM     39  H   UNL A   1      44.825  41.213  33.826  1.00  0.00     0.163 HD
ATOM     40  O   UNL A   1      42.690  40.169  33.475  1.00  0.00    -0.269 OA
BRANCH  38  41
ATOM     41  C   UNL A   1      43.781  38.359  32.447  1.00  0.00     0.039 A 
ATOM     42  C   UNL A   1      43.783  37.216  33.250  1.00  0.00     0.014 A 
ATOM     43  C   UNL A   1      43.813  38.238  31.056  1.00  0.00     0.014 A 
ATOM     44  C   UNL A   1      43.754  35.953  32.654  1.00  0.00     0.010 A 
ATOM     45  C   UNL A   1      43.694  36.983  30.466  1.00  0.00     0.010 A 
ATOM     46  C   UNL A   1      43.670  35.826  31.259  1.00  0.00    -0.014 A 
BRANCH  46  47
ATOM     47  C   UNL A   1      43.565  34.495  30.608  1.00  0.00     0.031 A 
ATOM     48  C   UNL A   1      42.228  33.810  30.513  1.00  0.00     0.074 A 
ATOM     49  C   UNL A   1      44.683  33.876  30.175  1.00  0.00     0.049 A 
ATOM     50  N   UNL A   1      41.940  32.613  30.070  1.00  0.00    -0.248 NA
ATOM     51  C   UNL A   1      41.063  34.556  31.017  1.00  0.00     0.031 C 
ATOM     52  C   UNL A   1      46.040  34.422  30.266  1.00  0.00     0.029 A 
ATOM     53  N   UNL A   1      44.862  32.649  29.587  1.00  0.00    -0.354 N 
ATOM     54  C   UNL A   1      40.573  32.453  30.268  1.00  0.00     0.074 A 
ATOM     55  C   UNL A   1      40.099  33.655  30.917  1.00  0.00     0.031 C 
ATOM     56  C   UNL A   1      46.905  33.543  29.736  1.00  0.00     0.029 A 
ATOM     57  C   UNL A   1      46.177  32.351  29.314  1.00  0.00     0.049 A 
ATOM     58  H   UNL A   1      44.117  32.038  29.379  1.00  0.00     0.167 HD
ATOM     59  C   UNL A   1      39.786  31.404  29.924  1.00  0.00     0.034 A 
ATOM     60  C   UNL A   1      46.736  31.237  28.800  1.00  0.00     0.034 A 
ATOM     61  C   UNL A   1      40.276  30.230  29.245  1.00  0.00     0.049 A 
ATOM     62  C   UNL A   1      45.834  30.091  28.411  1.00  0.00     0.074 A 
ATOM     63  C   UNL A   1      39.554  29.151  28.765  1.00  0.00     0.029 A 
ATOM     64  N   UNL A   1      41.611  29.975  28.958  1.00  0.00    -0.354 N 
ATOM     65  N   UNL A   1      44.529  29.988  28.534  1.00  0.00    -0.248 NA
ATOM     66  C   UNL A   1      46.475  28.919  27.804  1.00  0.00     0.031 C 
ATOM     67  C   UNL A   1      40.457  28.212  28.257  1.00  0.00     0.029 A 
ATOM     68  C   UNL A   1      41.736  28.739  28.341  1.00  0.00     0.049 A 
ATOM     69  H   UNL A   1      42.358  30.583  29.160  1.00  0.00     0.167 HD
ATOM     70  C   UNL A   1      44.194  28.752  27.990  1.00  0.00     0.074 A 
ATOM     71  C   UNL A   1      45.429  28.156  27.521  1.00  0.00     0.031 C 
ATOM     72  C   UNL A   1      42.977  28.160  27.885  1.00  0.00     0.034 A 
BRANCH  59  73
ATOM     73  C   UNL A   1      38.324  31.467  30.296  1.00  0.00     0.023 A 
ATOM     74  C   UNL A   1      37.338  31.880  29.383  1.00  0.00     0.031 A 
ATOM     75  C   UNL A   1      37.910  31.105  31.590  1.00  0.00     0.131 A 
ATOM     76  C   UNL A   1      36.000  31.980  29.794  1.00  0.00     0.055 A 
ATOM     77  C   UNL A   1      36.567  31.132  31.970  1.00  0.00     0.041 A 
ATOM     78  F   UNL A   1      38.807  30.722  32.513  1.00  0.00    -0.206 F 
ATOM     79  C   UNL A   1      35.603  31.582  31.073  1.00  0.00     0.022 A 
BRANCH  76  80
ATOM     80  S   UNL A   1      34.801  32.750  28.670  1.00  0.00     0.124 S 
ATOM     81  O   UNL A   1      34.083  33.644  29.575  1.00  0.00    -0.237 OA
ATOM     82  O   UNL A   1      35.661  33.394  27.684  1.00  0.00    -0.237 OA
ATOM     83  O   UNL A   1      34.020  31.619  28.174  1.00  0.00    -0.744 OA
ENDBRANCH  76  80
ENDBRANCH  59  73
BRANCH  60  84
ATOM     84  C   UNL A   1      48.216  31.131  28.639  1.00  0.00     0.023 A 
ATOM     85  C   UNL A   1      48.889  31.825  27.620  1.00  0.00     0.031 A 
ATOM     86  C   UNL A   1      48.975  30.286  29.470  1.00  0.00     0.131 A 
ATOM     87  C   UNL A   1      50.263  31.615  27.419  1.00  0.00     0.055 A 
ATOM     88  C   UNL A   1      50.352  30.129  29.305  1.00  0.00     0.041 A 
ATOM     89  F   UNL A   1      48.384  29.600  30.461  1.00  0.00    -0.206 F 
ATOM     90  C   UNL A   1      51.001  30.783  28.263  1.00  0.00     0.022 A 
BRANCH  87  91
ATOM     91  S   UNL A   1      51.050  32.362  25.965  1.00  0.00     0.124 S 
ATOM     92  O   UNL A   1      51.344  31.188  25.151  1.00  0.00    -0.237 OA
ATOM     93  O   UNL A   1      49.997  33.239  25.468  1.00  0.00    -0.237 OA
ATOM     94  O   UNL A   1      52.217  33.042  26.522  1.00  0.00    -0.744 OA
ENDBRANCH  87  91
ENDBRANCH  60  84
BRANCH  72  95
ATOM     95  C   UNL A   1      42.924  26.819  27.193  1.00  0.00     0.023 A 
ATOM     96  C   UNL A   1      43.038  25.613  27.906  1.00  0.00     0.031 A 
ATOM     97  C   UNL A   1      42.764  26.752  25.798  1.00  0.00     0.131 A 
ATOM     98  C   UNL A   1      43.048  24.393  27.213  1.00  0.00     0.055 A 
ATOM     99  C   UNL A   1      42.709  25.533  25.122  1.00  0.00     0.041 A 
ATOM    100  F   UNL A   1      42.653  27.874  25.068  1.00  0.00    -0.206 F 
ATOM    101  C   UNL A   1      42.865  24.345  25.829  1.00  0.00     0.022 A 
BRANCH  98 102
ATOM    102  S   UNL A   1      43.399  22.872  28.136  1.00  0.00     0.124 S 
ATOM    103  O   UNL A   1      44.853  22.911  28.244  1.00  0.00    -0.237 OA
ATOM    104  O   UNL A   1      42.661  23.082  29.378  1.00  0.00    -0.237 OA
ATOM    105  O   UNL A   1      42.869  21.817  27.273  1.00  0.00    -0.744 OA
ENDBRANCH  98 102
ENDBRANCH  72  95
ENDBRANCH  46  47
ENDBRANCH  38  41
ENDBRANCH  36  37
ENDBRANCH  35  36
ENDBRANCH   1  35
TORSDOF 19
ENDMDL
MODEL 2
REMARK VINA RESULT:      -9.4      5.527     13.754
REMARK SMILES CC(C)[C@H](NC(=O)[C@H](Cc1ccccc1)n1c(=O)[nH]c2ccccc2c1=O)C(=O)NCCCNC(=O)c1ccc(-c2c3nc(c(-c4cc(S(=O)(=O)[O-])ccc4F)c4ccc([nH]4)c(-c4cc(S(=O)(=O)[O-])ccc4F)c4nc(c(-c5cc(S(=O)(=O)[O-])ccc5F)c5ccc2[nH]5)C=C4)C=C3)cc1
REMARK SMILES IDX 31 1 30 2 28 3 29 4 4 6 2 7 1 8 3 9 5 10 6 11 7 13 8 14
REMARK SMILES IDX 16 15 17 16 26 17 18 18 19 19 25 20 27 21 20 22 24 24 21 25
REMARK SMILES IDX 23 26 22 27 9 28 10 29 11 30 15 31 12 32 14 33 13 34 32 35
REMARK SMILES IDX 33 36 34 37 35 38 36 40 37 41 38 42 99 43 39 44 98 45 40 46
REMARK SMILES IDX 41 47 42 48 92 49 43 50 97 51 91 52 93 53 44 54 96 55 90 56
REMARK SMILES IDX 89 57 45 59 77 60 57 61 76 62 58 63 61 64 75 65 94 66 59 67
REMARK SMILES IDX 60 68 74 70 95 71 62 72 46 73 47 74 55 75 48 76 54 77 56 78
REMARK SMILES IDX 53 79 49 80 50 81 51 82 52 83 78 84 79 85 87 86 80 87 86 88
REMARK SMILES IDX 88 89 85 90 81 91 82 92 83 93 84 94 63 95 64 96 72 97 65 98
REMARK SMILES IDX 71 99 73 100 70 101 66 102 67 103 68 104 69 105
REMARK H PARENT 30 5 5 12 19 23 34 39 93 58 61 69
REMARK Flexibility Score: inf
ROOT
ATOM      1  C   UNL A   1      42.706  21.375  26.507  1.00  0.00     0.117 C 
ENDROOT
BRANCH   1   2
ATOM      2  N   UNL A   1      42.797  21.712  25.109  1.00  0.00    -0.354 N 
ATOM      3  C   UNL A   1      43.684  22.529  24.481  1.00  0.00     0.242 C 
ATOM      4  O   UNL A   1      43.644  22.556  23.246  1.00  0.00    -0.273 OA
ATOM      5  H   UNL A   1      42.122  21.293  24.527  1.00  0.00     0.163 HD
BRANCH   3   6
ATOM      6  C   UNL A   1      44.802  23.302  25.239  1.00  0.00     0.173 C 
BRANCH   6   7
ATOM      7  C   UNL A   1      46.172  22.624  25.243  1.00  0.00     0.015 C 
ATOM      8  C   UNL A   1      46.178  21.104  25.071  1.00  0.00     0.010 C 
ATOM      9  C   UNL A   1      47.062  23.250  24.163  1.00  0.00     0.010 C 
ENDBRANCH   6   7
BRANCH   6  10
ATOM     10  N   UNL A   1      44.355  23.881  26.528  1.00  0.00    -0.342 N 
ATOM     11  C   UNL A   1      44.548  24.924  27.369  1.00  0.00     0.244 C 
ATOM     12  H   UNL A   1      43.667  23.292  26.913  1.00  0.00     0.164 HD
ATOM     13  O   UNL A   1      44.241  24.604  28.528  1.00  0.00    -0.273 OA
BRANCH  11  14
ATOM     14  C   UNL A   1      45.290  26.278  27.107  1.00  0.00     0.189 C 
BRANCH  14  15
ATOM     15  N   UNL A   1      46.666  26.277  26.574  1.00  0.00    -0.247 N 
ATOM     16  C   UNL A   1      46.867  26.597  25.247  1.00  0.00     0.329 A 
ATOM     17  C   UNL A   1      47.721  26.047  27.462  1.00  0.00     0.264 A 
ATOM     18  O   UNL A   1      45.987  26.611  24.393  1.00  0.00    -0.248 OA
ATOM     19  N   UNL A   1      48.153  26.868  24.862  1.00  0.00    -0.307 N 
ATOM     20  C   UNL A   1      49.074  25.978  26.883  1.00  0.00     0.064 A 
ATOM     21  O   UNL A   1      47.590  25.855  28.670  1.00  0.00    -0.268 OA
ATOM     22  C   UNL A   1      49.264  26.512  25.618  1.00  0.00     0.055 A 
ATOM     23  H   UNL A   1      48.297  27.338  24.009  1.00  0.00     0.171 HD
ATOM     24  C   UNL A   1      50.130  25.353  27.552  1.00  0.00     0.016 A 
ATOM     25  C   UNL A   1      50.541  26.560  25.060  1.00  0.00     0.027 A 
ATOM     26  C   UNL A   1      51.392  25.318  26.959  1.00  0.00     0.001 A 
ATOM     27  C   UNL A   1      51.605  25.955  25.733  1.00  0.00     0.002 A 
ENDBRANCH  14  15
BRANCH  14  28
ATOM     28  C   UNL A   1      44.394  27.386  26.450  1.00  0.00     0.071 C 
BRANCH  28  29
ATOM     29  C   UNL A   1      44.462  28.787  27.014  1.00  0.00    -0.045 A 
ATOM     30  C   UNL A   1      45.632  29.230  27.649  1.00  0.00     0.004 A 
ATOM     31  C   UNL A   1      43.360  29.647  26.974  1.00  0.00     0.004 A 
ATOM     32  C   UNL A   1      45.655  30.437  28.347  1.00  0.00     0.000 A 
ATOM     33  C   UNL A   1      43.375  30.849  27.687  1.00  0.00     0.000 A 
ATOM     34  C   UNL A   1      44.514  31.230  28.393  1.00  0.00     0.000 A 
ENDBRANCH  28  29
ENDBRANCH  14  28
ENDBRANCH  11  14
ENDBRANCH   6  10
ENDBRANCH   3   6
ENDBRANCH   1   2
BRANCH   1  35
ATOM     35  C   UNL A   1      41.301  20.922  26.893  1.00  0.00     0.042 C 
BRANCH  35  36
ATOM     36  C   UNL A   1      40.468  22.041  27.499  1.00  0.00     0.118 C 
BRANCH  36  37
ATOM     37  N   UNL A   1      39.416  22.483  26.593  1.00  0.00    -0.352 N 
ATOM     38  C   UNL A   1      38.772  23.696  26.516  1.00  0.00     0.251 C 
ATOM     39  H   UNL A   1      39.121  21.811  25.937  1.00  0.00     0.163 HD
ATOM     40  O   UNL A   1      37.795  23.809  25.794  1.00  0.00    -0.269 OA
BRANCH  38  41
ATOM     41  C   UNL A   1      39.245  24.841  27.331  1.00  0.00     0.039 A 
ATOM     42  C   UNL A   1      40.024  25.822  26.713  1.00  0.00     0.014 A 
ATOM     43  C   UNL A   1      38.927  24.949  28.686  1.00  0.00     0.014 A 
ATOM     44  C   UNL A   1      40.433  26.941  27.443  1.00  0.00     0.010 A 
ATOM     45  C   UNL A   1      39.258  26.105  29.386  1.00  0.00     0.010 A 
ATOM     46  C   UNL A   1      40.021  27.111  28.774  1.00  0.00    -0.014 A 
BRANCH  46  47
ATOM     47  C   UNL A   1      40.383  28.328  29.546  1.00  0.00     0.031 A 
ATOM     48  C   UNL A   1      41.769  28.470  30.114  1.00  0.00     0.074 A 
ATOM     49  C   UNL A   1      39.442  29.260  29.797  1.00  0.00     0.049 A 
ATOM     50  N   UNL A   1      42.254  29.404  30.891  1.00  0.00    -0.248 NA
ATOM     51  C   UNL A   1      42.730  27.400  29.796  1.00  0.00     0.031 C 
ATOM     52  C   UNL A   1      38.050  29.199  29.343  1.00  0.00     0.029 A 
ATOM     53  N   UNL A   1      39.504  30.434  30.506  1.00  0.00    -0.354 N 
ATOM     54  C   UNL A   1      43.561  29.021  31.178  1.00  0.00     0.074 A 
ATOM     55  C   UNL A   1      43.775  27.745  30.532  1.00  0.00     0.031 C 
ATOM     56  C   UNL A   1      37.399  30.294  29.769  1.00  0.00     0.029 A 
ATOM     57  C   UNL A   1      38.307  31.110  30.566  1.00  0.00     0.049 A 
ATOM     58  H   UNL A   1      40.330  30.762  30.932  1.00  0.00     0.167 HD
ATOM     59  C   UNL A   1      44.497  29.685  31.899  1.00  0.00     0.034 A 
ATOM     60  C   UNL A   1      37.974  32.248  31.208  1.00  0.00     0.034 A 
ATOM     61  C   UNL A   1      44.270  30.974  32.504  1.00  0.00     0.049 A 
ATOM     62  C   UNL A   1      39.041  32.973  31.992  1.00  0.00     0.074 A 
ATOM     63  C   UNL A   1      45.174  31.778  33.177  1.00  0.00     0.029 A 
ATOM     64  N   UNL A   1      43.053  31.643  32.521  1.00  0.00    -0.354 N 
ATOM     65  N   UNL A   1      40.296  32.635  32.186  1.00  0.00    -0.248 NA
ATOM     66  C   UNL A   1      38.652  34.237  32.629  1.00  0.00     0.031 C 
ATOM     67  C   UNL A   1      44.487  32.895  33.663  1.00  0.00     0.029 A 
ATOM     68  C   UNL A   1      43.174  32.833  33.223  1.00  0.00     0.049 A 
ATOM     69  H   UNL A   1      42.226  31.321  32.095  1.00  0.00     0.167 HD
ATOM     70  C   UNL A   1      40.851  33.663  32.944  1.00  0.00     0.074 A 
ATOM     71  C   UNL A   1      39.801  34.639  33.152  1.00  0.00     0.031 C 
ATOM     72  C   UNL A   1      42.114  33.791  33.425  1.00  0.00     0.034 A 
BRANCH  59  73
ATOM     73  C   UNL A   1      45.838  29.020  32.094  1.00  0.00     0.023 A 
ATOM     74  C   UNL A   1      46.956  29.349  31.308  1.00  0.00     0.031 A 
ATOM     75  C   UNL A   1      46.001  28.039  33.088  1.00  0.00     0.131 A 
ATOM     76  C   UNL A   1      48.166  28.661  31.487  1.00  0.00     0.055 A 
ATOM     77  C   UNL A   1      47.228  27.413  33.314  1.00  0.00     0.041 A 
ATOM     78  F   UNL A   1      44.964  27.666  33.857  1.00  0.00    -0.206 F 
ATOM     79  C   UNL A   1      48.317  27.714  32.503  1.00  0.00     0.022 A 
BRANCH  76  80
ATOM     80  S   UNL A   1      49.506  28.934  30.295  1.00  0.00     0.124 S 
ATOM     81  O   UNL A   1      50.050  30.211  30.751  1.00  0.00    -0.237 OA
ATOM     82  O   UNL A   1      50.356  27.767  30.500  1.00  0.00    -0.237 OA
ATOM     83  O   UNL A   1      48.814  28.984  29.008  1.00  0.00    -0.744 OA
ENDBRANCH  76  80
ENDBRANCH  59  73
BRANCH  60  84
ATOM     84  C   UNL A   1      36.575  32.767  31.163  1.00  0.00     0.023 A 
ATOM     85  C   UNL A   1      36.015  33.246  29.968  1.00  0.00     0.031 A 
ATOM     86  C   UNL A   1      35.795  32.845  32.331  1.00  0.00     0.131 A 
ATOM     87  C   UNL A   1      34.741  33.836  29.977  1.00  0.00     0.055 A 
ATOM     88  C   UNL A   1      34.504  33.375  32.323  1.00  0.00     0.041 A 
ATOM     89  F   UNL A   1      36.278  32.399  33.502  1.00  0.00    -0.206 F 
ATOM     90  C   UNL A   1      33.977  33.891  31.144  1.00  0.00     0.022 A 
BRANCH  87  91
ATOM     91  S   UNL A   1      34.143  34.634  28.462  1.00  0.00     0.124 S 
ATOM     92  O   UNL A   1      34.547  33.673  27.441  1.00  0.00    -0.237 OA
ATOM     93  O   UNL A   1      32.710  34.733  28.717  1.00  0.00    -0.237 OA
ATOM     94  O   UNL A   1      34.861  35.906  28.440  1.00  0.00    -0.744 OA
ENDBRANCH  87  91
ENDBRANCH  60  84
BRANCH  72  95
ATOM     95  C   UNL A   1      42.435  35.057  34.181  1.00  0.00     0.023 A 
ATOM     96  C   UNL A   1      42.210  35.172  35.563  1.00  0.00     0.031 A 
ATOM     97  C   UNL A   1      42.967  36.168  33.502  1.00  0.00     0.131 A 
ATOM     98  C   UNL A   1      42.463  36.390  36.212  1.00  0.00     0.055 A 
ATOM     99  C   UNL A   1      43.277  37.355  34.164  1.00  0.00     0.041 A 
ATOM    100  F   UNL A   1      43.199  36.114  32.180  1.00  0.00    -0.206 F 
ATOM    101  C   UNL A   1      43.012  37.475  35.525  1.00  0.00     0.022 A 
BRANCH  98 102
ATOM    102  S   UNL A   1      41.974  36.568  37.949  1.00  0.00     0.124 S 
ATOM    103  O   UNL A   1      40.571  36.949  37.832  1.00  0.00    -0.237 OA
ATOM    104  O   UNL A   1      42.230  35.235  38.485  1.00  0.00    -0.237 OA
ATOM    105  O   UNL A   1      42.862  37.616  38.449  1.00  0.00    -0.744 OA
ENDBRANCH  98 102
ENDBRANCH  72  95
ENDBRANCH  46  47
ENDBRANCH  38  41
ENDBRANCH  36  37
ENDBRANCH  35  36
ENDBRANCH   1  35
TORSDOF 19
ENDMDL
MODEL 3
REMARK VINA RESULT:      -9.2      6.168     13.816
REMARK SMILES CC(C)[C@H](NC(=O)[C@H](Cc1ccccc1)n1c(=O)[nH]c2ccccc2c1=O)C(=O)NCCCNC(=O)c1ccc(-c2c3nc(c(-c4cc(S(=O)(=O)[O-])ccc4F)c4ccc([nH]4)c(-c4cc(S(=O)(=O)[O-])ccc4F)c4nc(c(-c5cc(S(=O)(=O)[O-])ccc5F)c5ccc2[nH]5)C=C4)C=C3)cc1
REMARK SMILES IDX 31 1 30 2 28 3 29 4 4 6 2 7 1 8 3 9 5 10 6 11 7 13 8 14
REMARK SMILES IDX 16 15 17 16 26 17 18 18 19 19 25 20 27 21 20 22 24 24 21 25
REMARK SMILES IDX 23 26 22 27 9 28 10 29 11 30 15 31 12 32 14 33 13 34 32 35
REMARK SMILES IDX 33 36 34 37 35 38 36 40 37 41 38 42 99 43 39 44 98 45 40 46
REMARK SMILES IDX 41 47 42 48 92 49 43 50 97 51 91 52 93 53 44 54 96 55 90 56
REMARK SMILES IDX 89 57 45 59 77 60 57 61 76 62 58 63 61 64 75 65 94 66 59 67
REMARK SMILES IDX 60 68 74 70 95 71 62 72 46 73 47 74 55 75 48 76 54 77 56 78
REMARK SMILES IDX 53 79 49 80 50 81 51 82 52 83 78 84 79 85 87 86 80 87 86 88
REMARK SMILES IDX 88 89 85 90 81 91 82 92 83 93 84 94 63 95 64 96 72 97 65 98
REMARK SMILES IDX 71 99 73 100 70 101 66 102 67 103 68 104 69 105
REMARK H PARENT 30 5 5 12 19 23 34 39 93 58 61 69
REMARK Flexibility Score: inf
ROOT
ATOM      1  C   UNL A   1      42.699  21.278  26.389  1.00  0.00     0.117 C 
ENDROOT
BRANCH   1   2
ATOM      2  N   UNL A   1      42.867  21.615  24.998  1.00  0.00    -0.354 N 
ATOM      3  C   UNL A   1      43.724  22.505  24.429  1.00  0.00     0.242 C 
ATOM      4  O   UNL A   1      43.777  22.521  23.195  1.00  0.00    -0.273 OA
ATOM      5  H   UNL A   1      42.280  21.133  24.372  1.00  0.00     0.163 HD
BRANCH   3   6
ATOM      6  C   UNL A   1      44.707  23.380  25.261  1.00  0.00     0.173 C 
BRANCH   6   7
ATOM      7  C   UNL A   1      46.140  22.853  25.335  1.00  0.00     0.015 C 
ATOM      8  C   UNL A   1      46.314  21.338  25.220  1.00  0.00     0.010 C 
ATOM      9  C   UNL A   1      46.997  23.536  24.264  1.00  0.00     0.010 C 
ENDBRANCH   6   7
BRANCH   6  10
ATOM     10  N   UNL A   1      44.127  23.881  26.530  1.00  0.00    -0.342 N 
ATOM     11  C   UNL A   1      44.229  24.872  27.447  1.00  0.00     0.244 C 
ATOM     12  H   UNL A   1      43.406  23.271  26.807  1.00  0.00     0.164 HD
ATOM     13  O   UNL A   1      43.806  24.483  28.547  1.00  0.00    -0.273 OA
BRANCH  11  14
ATOM     14  C   UNL A   1      44.988  26.237  27.344  1.00  0.00     0.189 C 
BRANCH  14  15
ATOM     15  N   UNL A   1      46.312  26.301  26.696  1.00  0.00    -0.247 N 
ATOM     16  C   UNL A   1      46.396  26.751  25.394  1.00  0.00     0.329 A 
ATOM     17  C   UNL A   1      47.441  25.995  27.462  1.00  0.00     0.264 A 
ATOM     18  O   UNL A   1      45.445  26.841  24.625  1.00  0.00    -0.248 OA
ATOM     19  N   UNL A   1      47.644  27.070  24.927  1.00  0.00    -0.307 N 
ATOM     20  C   UNL A   1      48.738  25.995  26.763  1.00  0.00     0.064 A 
ATOM     21  O   UNL A   1      47.416  25.684  28.651  1.00  0.00    -0.268 OA
ATOM     22  C   UNL A   1      48.817  26.652  25.546  1.00  0.00     0.055 A 
ATOM     23  H   UNL A   1      47.712  27.623  24.116  1.00  0.00     0.171 HD
ATOM     24  C   UNL A   1      49.849  25.317  27.273  1.00  0.00     0.016 A 
ATOM     25  C   UNL A   1      50.039  26.765  24.886  1.00  0.00     0.027 A 
ATOM     26  C   UNL A   1      51.055  25.352  26.572  1.00  0.00     0.001 A 
ATOM     27  C   UNL A   1      51.158  26.107  25.401  1.00  0.00     0.002 A 
ENDBRANCH  14  15
BRANCH  14  28
ATOM     28  C   UNL A   1      44.074  27.453  26.961  1.00  0.00     0.071 C 
BRANCH  28  29
ATOM     29  C   UNL A   1      44.271  28.757  27.703  1.00  0.00    -0.045 A 
ATOM     30  C   UNL A   1      45.372  28.916  28.556  1.00  0.00     0.004 A 
ATOM     31  C   UNL A   1      43.345  29.800  27.609  1.00  0.00     0.004 A 
ATOM     32  C   UNL A   1      45.471  30.024  29.398  1.00  0.00     0.000 A 
ATOM     33  C   UNL A   1      43.432  30.902  28.464  1.00  0.00     0.000 A 
ATOM     34  C   UNL A   1      44.482  31.000  29.375  1.00  0.00     0.000 A 
ENDBRANCH  28  29
ENDBRANCH  14  28
ENDBRANCH  11  14
ENDBRANCH   6  10
ENDBRANCH   3   6
ENDBRANCH   1   2
BRANCH   1  35
ATOM     35  C   UNL A   1      41.241  20.988  26.733  1.00  0.00     0.042 C 
BRANCH  35  36
ATOM     36  C   UNL A   1      40.529  22.189  27.338  1.00  0.00     0.118 C 
BRANCH  36  37
ATOM     37  N   UNL A   1      39.493  22.705  26.453  1.00  0.00    -0.352 N 
ATOM     38  C   UNL A   1      38.865  23.928  26.452  1.00  0.00     0.251 C 
ATOM     39  H   UNL A   1      39.197  22.083  25.749  1.00  0.00     0.163 HD
ATOM     40  O   UNL A   1      37.898  24.104  25.729  1.00  0.00    -0.269 OA
BRANCH  38  41
ATOM     41  C   UNL A   1      39.342  25.009  27.348  1.00  0.00     0.039 A 
ATOM     42  C   UNL A   1      40.250  25.942  26.842  1.00  0.00     0.014 A 
ATOM     43  C   UNL A   1      38.904  25.103  28.670  1.00  0.00     0.014 A 
ATOM     44  C   UNL A   1      40.669  27.004  27.647  1.00  0.00     0.010 A 
ATOM     45  C   UNL A   1      39.252  26.209  29.439  1.00  0.00     0.010 A 
ATOM     46  C   UNL A   1      40.145  27.168  28.939  1.00  0.00    -0.014 A 
BRANCH  46  47
ATOM     47  C   UNL A   1      40.521  28.330  29.785  1.00  0.00     0.031 A 
ATOM     48  C   UNL A   1      41.779  28.279  30.611  1.00  0.00     0.074 A 
ATOM     49  C   UNL A   1      39.693  29.392  29.864  1.00  0.00     0.049 A 
ATOM     50  N   UNL A   1      42.233  29.144  31.481  1.00  0.00    -0.248 NA
ATOM     51  C   UNL A   1      42.619  27.079  30.467  1.00  0.00     0.031 C 
ATOM     52  C   UNL A   1      38.421  29.525  29.150  1.00  0.00     0.029 A 
ATOM     53  N   UNL A   1      39.786  30.553  30.590  1.00  0.00    -0.354 N 
ATOM     54  C   UNL A   1      43.392  28.582  32.007  1.00  0.00     0.074 A 
ATOM     55  C   UNL A   1      43.542  27.280  31.395  1.00  0.00     0.031 C 
ATOM     56  C   UNL A   1      37.863  30.707  29.459  1.00  0.00     0.029 A 
ATOM     57  C   UNL A   1      38.708  31.394  30.429  1.00  0.00     0.049 A 
ATOM     58  H   UNL A   1      40.552  30.764  31.171  1.00  0.00     0.167 HD
ATOM     59  C   UNL A   1      44.257  29.113  32.905  1.00  0.00     0.034 A 
ATOM     60  C   UNL A   1      38.424  32.576  31.012  1.00  0.00     0.034 A 
ATOM     61  C   UNL A   1      44.105  30.429  33.475  1.00  0.00     0.049 A 
ATOM     62  C   UNL A   1      39.413  33.151  31.997  1.00  0.00     0.074 A 
ATOM     63  C   UNL A   1      44.968  31.104  34.321  1.00  0.00     0.029 A 
ATOM     64  N   UNL A   1      43.016  31.266  33.268  1.00  0.00    -0.354 N 
ATOM     65  N   UNL A   1      40.546  32.639  32.425  1.00  0.00    -0.248 NA
ATOM     66  C   UNL A   1      39.093  34.465  32.567  1.00  0.00     0.031 C 
ATOM     67  C   UNL A   1      44.367  32.313  34.684  1.00  0.00     0.029 A 
ATOM     68  C   UNL A   1      43.168  32.434  33.998  1.00  0.00     0.049 A 
ATOM     69  H   UNL A   1      42.249  31.061  32.686  1.00  0.00     0.167 HD
ATOM     70  C   UNL A   1      41.085  33.585  33.290  1.00  0.00     0.074 A 
ATOM     71  C   UNL A   1      40.166  34.705  33.308  1.00  0.00     0.031 C 
ATOM     72  C   UNL A   1      42.238  33.537  34.007  1.00  0.00     0.034 A 
BRANCH  59  73
ATOM     73  C   UNL A   1      45.426  28.265  33.345  1.00  0.00     0.023 A 
ATOM     74  C   UNL A   1      45.295  27.261  34.320  1.00  0.00     0.031 A 
ATOM     75  C   UNL A   1      46.695  28.464  32.775  1.00  0.00     0.131 A 
ATOM     76  C   UNL A   1      46.424  26.539  34.739  1.00  0.00     0.055 A 
ATOM     77  C   UNL A   1      47.799  27.691  33.139  1.00  0.00     0.041 A 
ATOM     78  F   UNL A   1      46.888  29.423  31.854  1.00  0.00    -0.206 F 
ATOM     79  C   UNL A   1      47.669  26.728  34.136  1.00  0.00     0.022 A 
BRANCH  76  80
ATOM     80  S   UNL A   1      46.266  25.432  36.168  1.00  0.00     0.124 S 
ATOM     81  O   UNL A   1      47.314  24.452  35.898  1.00  0.00    -0.237 OA
ATOM     82  O   UNL A   1      46.505  26.331  37.291  1.00  0.00    -0.237 OA
ATOM     83  O   UNL A   1      44.901  24.922  36.056  1.00  0.00    -0.744 OA
ENDBRANCH  76  80
ENDBRANCH  59  73
BRANCH  60  84
ATOM     84  C   UNL A   1      37.149  33.289  30.706  1.00  0.00     0.023 A 
ATOM     85  C   UNL A   1      36.224  33.592  31.719  1.00  0.00     0.031 A 
ATOM     86  C   UNL A   1      36.809  33.629  29.384  1.00  0.00     0.131 A 
ATOM     87  C   UNL A   1      34.982  34.157  31.388  1.00  0.00     0.055 A 
ATOM     88  C   UNL A   1      35.599  34.247  29.068  1.00  0.00     0.041 A 
ATOM     89  F   UNL A   1      37.656  33.365  28.376  1.00  0.00    -0.206 F 
ATOM     90  C   UNL A   1      34.669  34.499  30.071  1.00  0.00     0.022 A 
BRANCH  87  91
ATOM     91  S   UNL A   1      33.735  34.335  32.693  1.00  0.00     0.124 S 
ATOM     92  O   UNL A   1      33.485  32.945  33.057  1.00  0.00    -0.237 OA
ATOM     93  O   UNL A   1      34.444  35.139  33.682  1.00  0.00    -0.237 OA
ATOM     94  O   UNL A   1      32.630  35.011  32.017  1.00  0.00    -0.744 OA
ENDBRANCH  87  91
ENDBRANCH  60  84
BRANCH  72  95
ATOM     95  C   UNL A   1      42.585  34.754  34.830  1.00  0.00     0.023 A 
ATOM     96  C   UNL A   1      42.295  34.827  36.203  1.00  0.00     0.031 A 
ATOM     97  C   UNL A   1      43.208  35.860  34.225  1.00  0.00     0.131 A 
ATOM     98  C   UNL A   1      42.577  36.003  36.914  1.00  0.00     0.055 A 
ATOM     99  C   UNL A   1      43.546  37.002  34.951  1.00  0.00     0.041 A 
ATOM    100  F   UNL A   1      43.505  35.845  32.915  1.00  0.00    -0.206 F 
ATOM    101  C   UNL A   1      43.218  37.083  36.301  1.00  0.00     0.022 A 
BRANCH  98 102
ATOM    102  S   UNL A   1      42.010  36.140  38.631  1.00  0.00     0.124 S 
ATOM    103  O   UNL A   1      43.101  35.505  39.363  1.00  0.00    -0.237 OA
ATOM    104  O   UNL A   1      41.881  37.583  38.804  1.00  0.00    -0.237 OA
ATOM    105  O   UNL A   1      40.748  35.401  38.635  1.00  0.00    -0.744 OA
ENDBRANCH  98 102
ENDBRANCH  72  95
ENDBRANCH  46  47
ENDBRANCH  38  41
ENDBRANCH  36  37
ENDBRANCH  35  36
ENDBRANCH   1  35
TORSDOF 19
ENDMDL
