MODEL 1
REMARK VINA RESULT:      -9.8      0.000      0.000
REMARK SMILES C[C@H](CC[NH+](C)C)[NH2+][C@H](C)[C@@H](C)C(=O)NCCCNC(=O)c1ccc(-c2c3nc(c(-c4cc(S(=O)(=O)[O-])ccc4F)c4ccc([nH]4)c(-c4cc(S(=O)(=O)[O-])ccc4F)c4nc(c(-c5cc(S(=O)(=O)[O-])ccc5F)c5ccc2[nH]5)C=C4)C=C3)cc1
REMARK SMILES IDX 13 1 14 2 15 3 11 5 12 6 9 7 10 8 8 9 2 12 1 13 3 14 4 15
REMARK SMILES IDX 5 16 6 17 7 18 16 20 17 21 18 22 19 23 20 24 21 26 22 27
REMARK SMILES IDX 23 28 84 29 24 30 83 31 25 32 26 33 27 34 77 35 28 36 82 37
REMARK SMILES IDX 76 38 78 39 29 40 81 41 75 42 74 43 30 45 62 46 42 47 61 48
REMARK SMILES IDX 43 49 46 50 60 51 79 52 44 53 45 54 59 56 80 57 47 58 31 59
REMARK SMILES IDX 32 60 40 61 33 62 39 63 41 64 38 65 34 66 35 67 36 68 37 69
REMARK SMILES IDX 63 70 64 71 72 72 65 73 71 74 73 75 70 76 66 77 67 78 68 79
REMARK SMILES IDX 69 80 48 81 49 82 57 83 50 84 56 85 58 86 55 87 51 88 52 89
REMARK SMILES IDX 53 90 54 91
REMARK H PARENT 15 4 8 10 8 11 5 19 19 25 78 44 46 55
REMARK Flexibility Score: inf
ROOT
ATOM      1  C   UNL A   1      34.370  24.590  25.717  1.00  0.00     0.228 C 
ATOM      2  O   UNL A   1      35.493  24.426  25.229  1.00  0.00    -0.275 OA
ATOM      3  N   UNL A   1      33.904  25.864  25.749  1.00  0.00    -0.356 N 
ATOM      4  H   UNL A   1      34.547  26.533  25.418  1.00  0.00     0.163 HD
ENDROOT
BRANCH   1   5
ATOM      5  C   UNL A   1      33.540  23.394  26.175  1.00  0.00     0.133 C 
ATOM      6  C   UNL A   1      34.347  22.619  27.231  1.00  0.00     0.024 C 
BRANCH   5   7
ATOM      7  C   UNL A   1      32.972  22.539  25.015  1.00  0.00     0.191 C 
ATOM      8  C   UNL A   1      32.482  21.162  25.499  1.00  0.00     0.076 C 
BRANCH   7   9
ATOM      9  N   UNL A   1      31.874  23.011  24.167  1.00  0.00    -0.341 N 
ATOM     10  H   UNL A   1      31.262  22.203  24.054  1.00  0.00     0.346 HD
ATOM     11  H   UNL A   1      31.606  23.846  24.688  1.00  0.00     0.346 HD
BRANCH   9  12
ATOM     12  C   UNL A   1      31.993  23.586  22.835  1.00  0.00     0.185 C 
ATOM     13  C   UNL A   1      33.384  23.557  22.197  1.00  0.00     0.075 C 
BRANCH  12  14
ATOM     14  C   UNL A   1      31.436  25.048  22.866  1.00  0.00     0.126 C 
BRANCH  14  15
ATOM     15  C   UNL A   1      31.790  26.035  21.722  1.00  0.00     0.268 C 
BRANCH  15  16
ATOM     16  N   UNL A   1      32.221  27.421  22.001  1.00  0.00    -0.340 N 
ATOM     17  C   UNL A   1      31.344  27.988  23.034  1.00  0.00     0.332 C 
ATOM     18  C   UNL A   1      33.604  27.534  22.447  1.00  0.00     0.332 C 
ATOM     19  H   UNL A   1      32.157  27.929  21.119  1.00  0.00     0.347 HD
ENDBRANCH  15  16
ENDBRANCH  14  15
ENDBRANCH  12  14
ENDBRANCH   9  12
ENDBRANCH   7   9
ENDBRANCH   5   7
ENDBRANCH   1   5
BRANCH   3  20
ATOM     20  C   UNL A   1      32.637  26.424  26.179  1.00  0.00     0.117 C 
BRANCH  20  21
ATOM     21  C   UNL A   1      32.800  27.815  26.776  1.00  0.00     0.042 C 
BRANCH  21  22
ATOM     22  C   UNL A   1      33.795  28.690  26.026  1.00  0.00     0.118 C 
BRANCH  22  23
ATOM     23  N   UNL A   1      33.634  30.104  26.337  1.00  0.00    -0.352 N 
ATOM     24  C   UNL A   1      34.291  30.890  27.252  1.00  0.00     0.251 C 
ATOM     25  H   UNL A   1      32.946  30.569  25.808  1.00  0.00     0.163 HD
ATOM     26  O   UNL A   1      33.836  31.995  27.528  1.00  0.00    -0.269 OA
BRANCH  24  27
ATOM     27  C   UNL A   1      35.521  30.399  27.910  1.00  0.00     0.039 A 
ATOM     28  C   UNL A   1      35.430  29.824  29.180  1.00  0.00     0.014 A 
ATOM     29  C   UNL A   1      36.766  30.522  27.287  1.00  0.00     0.014 A 
ATOM     30  C   UNL A   1      36.577  29.316  29.793  1.00  0.00     0.010 A 
ATOM     31  C   UNL A   1      37.887  29.928  27.853  1.00  0.00     0.010 A 
ATOM     32  C   UNL A   1      37.809  29.329  29.119  1.00  0.00    -0.014 A 
BRANCH  32  33
ATOM     33  C   UNL A   1      39.032  28.746  29.727  1.00  0.00     0.031 A 
ATOM     34  C   UNL A   1      39.577  29.312  31.011  1.00  0.00     0.074 A 
ATOM     35  C   UNL A   1      39.685  27.752  29.096  1.00  0.00     0.049 A 
ATOM     36  N   UNL A   1      40.667  28.993  31.662  1.00  0.00    -0.248 NA
ATOM     37  C   UNL A   1      38.811  30.408  31.621  1.00  0.00     0.031 C 
ATOM     38  C   UNL A   1      39.272  27.140  27.831  1.00  0.00     0.029 A 
ATOM     39  N   UNL A   1      40.831  27.077  29.431  1.00  0.00    -0.354 N 
ATOM     40  C   UNL A   1      40.719  29.854  32.754  1.00  0.00     0.074 A 
ATOM     41  C   UNL A   1      39.600  30.762  32.621  1.00  0.00     0.031 C 
ATOM     42  C   UNL A   1      40.127  26.153  27.522  1.00  0.00     0.029 A 
ATOM     43  C   UNL A   1      41.177  26.095  28.533  1.00  0.00     0.049 A 
ATOM     44  H   UNL A   1      41.357  27.278  30.239  1.00  0.00     0.167 HD
ATOM     45  C   UNL A   1      41.596  29.865  33.790  1.00  0.00     0.034 A 
ATOM     46  C   UNL A   1      42.224  25.247  28.524  1.00  0.00     0.034 A 
ATOM     47  C   UNL A   1      42.709  28.953  33.900  1.00  0.00     0.049 A 
ATOM     48  C   UNL A   1      43.227  25.319  29.647  1.00  0.00     0.074 A 
ATOM     49  C   UNL A   1      43.645  28.850  34.915  1.00  0.00     0.029 A 
ATOM     50  N   UNL A   1      43.048  27.992  32.954  1.00  0.00    -0.354 N 
ATOM     51  N   UNL A   1      43.243  26.111  30.694  1.00  0.00    -0.248 NA
ATOM     52  C   UNL A   1      44.348  24.372  29.590  1.00  0.00     0.031 C 
ATOM     53  C   UNL A   1      44.589  27.884  34.547  1.00  0.00     0.029 A 
ATOM     54  C   UNL A   1      44.195  27.318  33.345  1.00  0.00     0.049 A 
ATOM     55  H   UNL A   1      42.545  27.816  32.125  1.00  0.00     0.167 HD
ATOM     56  C   UNL A   1      44.356  25.730  31.440  1.00  0.00     0.074 A 
ATOM     57  C   UNL A   1      44.977  24.634  30.726  1.00  0.00     0.031 C 
ATOM     58  C   UNL A   1      44.816  26.234  32.615  1.00  0.00     0.034 A 
BRANCH  45  59
ATOM     59  C   UNL A   1      41.389  30.919  34.856  1.00  0.00     0.023 A 
ATOM     60  C   UNL A   1      40.187  31.001  35.583  1.00  0.00     0.031 A 
ATOM     61  C   UNL A   1      42.368  31.897  35.101  1.00  0.00     0.131 A 
ATOM     62  C   UNL A   1      39.948  32.097  36.426  1.00  0.00     0.055 A 
ATOM     63  C   UNL A   1      42.166  32.927  36.023  1.00  0.00     0.041 A 
ATOM     64  F   UNL A   1      43.528  31.889  34.427  1.00  0.00    -0.206 F 
ATOM     65  C   UNL A   1      40.941  33.045  36.675  1.00  0.00     0.022 A 
BRANCH  62  66
ATOM     66  S   UNL A   1      38.258  32.368  37.026  1.00  0.00     0.124 S 
ATOM     67  O   UNL A   1      38.286  33.795  37.346  1.00  0.00    -0.237 OA
ATOM     68  O   UNL A   1      37.449  31.987  35.875  1.00  0.00    -0.237 OA
ATOM     69  O   UNL A   1      38.158  31.482  38.183  1.00  0.00    -0.744 OA
ENDBRANCH  62  66
ENDBRANCH  45  59
BRANCH  46  70
ATOM     70  C   UNL A   1      42.374  24.249  27.428  1.00  0.00     0.023 A 
ATOM     71  C   UNL A   1      41.665  23.038  27.462  1.00  0.00     0.031 A 
ATOM     72  C   UNL A   1      43.241  24.476  26.345  1.00  0.00     0.131 A 
ATOM     73  C   UNL A   1      41.864  22.082  26.455  1.00  0.00     0.055 A 
ATOM     74  C   UNL A   1      43.397  23.544  25.318  1.00  0.00     0.041 A 
ATOM     75  F   UNL A   1      43.940  25.619  26.261  1.00  0.00    -0.206 F 
ATOM     76  C   UNL A   1      42.714  22.332  25.375  1.00  0.00     0.022 A 
BRANCH  73  77
ATOM     77  S   UNL A   1      41.048  20.470  26.616  1.00  0.00     0.124 S 
ATOM     78  O   UNL A   1      40.778  20.417  28.047  1.00  0.00    -0.237 OA
ATOM     79  O   UNL A   1      39.886  20.630  25.747  1.00  0.00    -0.237 OA
ATOM     80  O   UNL A   1      42.057  19.529  26.134  1.00  0.00    -0.744 OA
ENDBRANCH  73  77
ENDBRANCH  46  70
BRANCH  58  81
ATOM     81  C   UNL A   1      46.024  25.563  33.225  1.00  0.00     0.023 A 
ATOM     82  C   UNL A   1      45.907  24.467  34.098  1.00  0.00     0.031 A 
ATOM     83  C   UNL A   1      47.316  26.041  32.937  1.00  0.00     0.131 A 
ATOM     84  C   UNL A   1      47.054  23.926  34.700  1.00  0.00     0.055 A 
ATOM     85  C   UNL A   1      48.457  25.454  33.483  1.00  0.00     0.041 A 
ATOM     86  F   UNL A   1      47.489  27.088  32.114  1.00  0.00    -0.206 F 
ATOM     87  C   UNL A   1      48.330  24.400  34.383  1.00  0.00     0.022 A 
BRANCH  84  88
ATOM     88  S   UNL A   1      46.849  22.664  35.987  1.00  0.00     0.124 S 
ATOM     89  O   UNL A   1      45.415  22.730  36.250  1.00  0.00    -0.237 OA
ATOM     90  O   UNL A   1      47.320  21.456  35.318  1.00  0.00    -0.237 OA
ATOM     91  O   UNL A   1      47.701  23.143  37.074  1.00  0.00    -0.744 OA
ENDBRANCH  84  88
ENDBRANCH  58  81
ENDBRANCH  32  33
ENDBRANCH  24  27
ENDBRANCH  22  23
ENDBRANCH  21  22
ENDBRANCH  20  21
ENDBRANCH   3  20
TORSDOF 19
ENDMDL
MODEL 2
REMARK VINA RESULT:      -9.8      5.081      9.998
REMARK SMILES C[C@H](CC[NH+](C)C)[NH2+][C@H](C)[C@@H](C)C(=O)NCCCNC(=O)c1ccc(-c2c3nc(c(-c4cc(S(=O)(=O)[O-])ccc4F)c4ccc([nH]4)c(-c4cc(S(=O)(=O)[O-])ccc4F)c4nc(c(-c5cc(S(=O)(=O)[O-])ccc5F)c5ccc2[nH]5)C=C4)C=C3)cc1
REMARK SMILES IDX 13 1 14 2 15 3 11 5 12 6 9 7 10 8 8 9 2 12 1 13 3 14 4 15
REMARK SMILES IDX 5 16 6 17 7 18 16 20 17 21 18 22 19 23 20 24 21 26 22 27
REMARK SMILES IDX 23 28 84 29 24 30 83 31 25 32 26 33 27 34 77 35 28 36 82 37
REMARK SMILES IDX 76 38 78 39 29 40 81 41 75 42 74 43 30 45 62 46 42 47 61 48
REMARK SMILES IDX 43 49 46 50 60 51 79 52 44 53 45 54 59 56 80 57 47 58 31 59
REMARK SMILES IDX 32 60 40 61 33 62 39 63 41 64 38 65 34 66 35 67 36 68 37 69
REMARK SMILES IDX 63 70 64 71 72 72 65 73 71 74 73 75 70 76 66 77 67 78 68 79
REMARK SMILES IDX 69 80 48 81 49 82 57 83 50 84 56 85 58 86 55 87 51 88 52 89
REMARK SMILES IDX 53 90 54 91
REMARK H PARENT 15 4 8 10 8 11 5 19 19 25 78 44 46 55
REMARK Flexibility Score: inf
ROOT
ATOM      1  C   UNL A   1      32.997  24.249  26.137  1.00  0.00     0.228 C 
ATOM      2  O   UNL A   1      32.537  23.796  27.190  1.00  0.00    -0.275 OA
ATOM      3  N   UNL A   1      34.295  23.956  25.868  1.00  0.00    -0.356 N 
ATOM      4  H   UNL A   1      34.745  23.447  26.581  1.00  0.00     0.163 HD
ENDROOT
BRANCH   1   5
ATOM      5  C   UNL A   1      32.106  25.023  25.170  1.00  0.00     0.133 C 
ATOM      6  C   UNL A   1      31.276  26.033  25.979  1.00  0.00     0.024 C 
BRANCH   5   7
ATOM      7  C   UNL A   1      31.298  24.124  24.200  1.00  0.00     0.191 C 
ATOM      8  C   UNL A   1      31.516  24.521  22.729  1.00  0.00     0.076 C 
BRANCH   7   9
ATOM      9  N   UNL A   1      31.447  22.667  24.185  1.00  0.00    -0.341 N 
ATOM     10  H   UNL A   1      31.555  22.402  25.164  1.00  0.00     0.346 HD
ATOM     11  H   UNL A   1      30.629  22.420  23.627  1.00  0.00     0.346 HD
BRANCH   9  12
ATOM     12  C   UNL A   1      32.463  21.907  23.472  1.00  0.00     0.185 C 
ATOM     13  C   UNL A   1      32.010  21.173  22.207  1.00  0.00     0.075 C 
BRANCH  12  14
ATOM     14  C   UNL A   1      33.138  20.908  24.470  1.00  0.00     0.126 C 
BRANCH  14  15
ATOM     15  C   UNL A   1      32.813  19.392  24.387  1.00  0.00     0.268 C 
BRANCH  15  16
ATOM     16  N   UNL A   1      33.628  18.386  25.097  1.00  0.00    -0.340 N 
ATOM     17  C   UNL A   1      32.732  17.368  25.663  1.00  0.00     0.332 C 
ATOM     18  C   UNL A   1      34.617  17.723  24.258  1.00  0.00     0.332 C 
ATOM     19  H   UNL A   1      34.147  18.887  25.818  1.00  0.00     0.347 HD
ENDBRANCH  15  16
ENDBRANCH  14  15
ENDBRANCH  12  14
ENDBRANCH   9  12
ENDBRANCH   7   9
ENDBRANCH   5   7
ENDBRANCH   1   5
BRANCH   3  20
ATOM     20  C   UNL A   1      35.141  24.252  24.727  1.00  0.00     0.117 C 
BRANCH  20  21
ATOM     21  C   UNL A   1      36.552  23.713  24.908  1.00  0.00     0.042 C 
BRANCH  21  22
ATOM     22  C   UNL A   1      36.798  23.083  26.272  1.00  0.00     0.118 C 
BRANCH  22  23
ATOM     23  N   UNL A   1      37.908  22.141  26.257  1.00  0.00    -0.352 N 
ATOM     24  C   UNL A   1      39.259  22.362  26.372  1.00  0.00     0.251 C 
ATOM     25  H   UNL A   1      37.650  21.197  26.146  1.00  0.00     0.163 HD
ATOM     26  O   UNL A   1      40.039  21.459  26.087  1.00  0.00    -0.269 OA
BRANCH  24  27
ATOM     27  C   UNL A   1      39.764  23.680  26.816  1.00  0.00     0.039 A 
ATOM     28  C   UNL A   1      40.005  24.671  25.862  1.00  0.00     0.014 A 
ATOM     29  C   UNL A   1      40.018  23.932  28.166  1.00  0.00     0.014 A 
ATOM     30  C   UNL A   1      40.440  25.933  26.272  1.00  0.00     0.010 A 
ATOM     31  C   UNL A   1      40.353  25.215  28.581  1.00  0.00     0.010 A 
ATOM     32  C   UNL A   1      40.580  26.228  27.638  1.00  0.00    -0.014 A 
BRANCH  32  33
ATOM     33  C   UNL A   1      40.988  27.579  28.102  1.00  0.00     0.031 A 
ATOM     34  C   UNL A   1      42.441  27.973  28.088  1.00  0.00     0.074 A 
ATOM     35  C   UNL A   1      40.063  28.427  28.590  1.00  0.00     0.049 A 
ATOM     36  N   UNL A   1      43.007  29.072  28.515  1.00  0.00    -0.248 NA
ATOM     37  C   UNL A   1      43.384  26.979  27.555  1.00  0.00     0.031 C 
ATOM     38  C   UNL A   1      38.628  28.148  28.684  1.00  0.00     0.029 A 
ATOM     39  N   UNL A   1      40.188  29.695  29.098  1.00  0.00    -0.354 N 
ATOM     40  C   UNL A   1      44.373  28.898  28.309  1.00  0.00     0.074 A 
ATOM     41  C   UNL A   1      44.548  27.554  27.803  1.00  0.00     0.031 C 
ATOM     42  C   UNL A   1      38.003  29.230  29.174  1.00  0.00     0.029 A 
ATOM     43  C   UNL A   1      38.993  30.257  29.481  1.00  0.00     0.049 A 
ATOM     44  H   UNL A   1      41.052  30.158  29.180  1.00  0.00     0.167 HD
ATOM     45  C   UNL A   1      45.382  29.787  28.490  1.00  0.00     0.034 A 
ATOM     46  C   UNL A   1      38.726  31.462  30.022  1.00  0.00     0.034 A 
ATOM     47  C   UNL A   1      45.185  31.122  29.002  1.00  0.00     0.049 A 
ATOM     48  C   UNL A   1      39.868  32.411  30.280  1.00  0.00     0.074 A 
ATOM     49  C   UNL A   1      46.125  32.119  29.200  1.00  0.00     0.029 A 
ATOM     50  N   UNL A   1      43.963  31.646  29.411  1.00  0.00    -0.354 N 
ATOM     51  N   UNL A   1      41.149  32.250  30.044  1.00  0.00    -0.248 NA
ATOM     52  C   UNL A   1      39.523  33.710  30.869  1.00  0.00     0.031 C 
ATOM     53  C   UNL A   1      45.487  33.212  29.799  1.00  0.00     0.029 A 
ATOM     54  C   UNL A   1      44.132  32.936  29.892  1.00  0.00     0.049 A 
ATOM     55  H   UNL A   1      43.103  31.169  29.365  1.00  0.00     0.167 HD
ATOM     56  C   UNL A   1      41.758  33.444  30.421  1.00  0.00     0.074 A 
ATOM     57  C   UNL A   1      40.701  34.316  30.891  1.00  0.00     0.031 C 
ATOM     58  C   UNL A   1      43.070  33.793  30.373  1.00  0.00     0.034 A 
BRANCH  45  59
ATOM     59  C   UNL A   1      46.781  29.316  28.158  1.00  0.00     0.023 A 
ATOM     60  C   UNL A   1      47.171  29.051  26.833  1.00  0.00     0.031 A 
ATOM     61  C   UNL A   1      47.715  29.059  29.177  1.00  0.00     0.131 A 
ATOM     62  C   UNL A   1      48.406  28.438  26.572  1.00  0.00     0.055 A 
ATOM     63  C   UNL A   1      48.986  28.548  28.900  1.00  0.00     0.041 A 
ATOM     64  F   UNL A   1      47.401  29.272  30.464  1.00  0.00    -0.206 F 
ATOM     65  C   UNL A   1      49.329  28.212  27.593  1.00  0.00     0.022 A 
BRANCH  62  66
ATOM     66  S   UNL A   1      48.696  27.758  24.915  1.00  0.00     0.124 S 
ATOM     67  O   UNL A   1      48.696  26.321  25.183  1.00  0.00    -0.237 OA
ATOM     68  O   UNL A   1      47.557  28.267  24.160  1.00  0.00    -0.237 OA
ATOM     69  O   UNL A   1      49.994  28.313  24.539  1.00  0.00    -0.744 OA
ENDBRANCH  62  66
ENDBRANCH  45  59
BRANCH  46  70
ATOM     70  C   UNL A   1      37.323  31.848  30.343  1.00  0.00     0.023 A 
ATOM     71  C   UNL A   1      36.464  32.320  29.338  1.00  0.00     0.031 A 
ATOM     72  C   UNL A   1      36.826  31.775  31.656  1.00  0.00     0.131 A 
ATOM     73  C   UNL A   1      35.166  32.738  29.667  1.00  0.00     0.055 A 
ATOM     74  C   UNL A   1      35.517  32.144  31.970  1.00  0.00     0.041 A 
ATOM     75  F   UNL A   1      37.604  31.327  32.654  1.00  0.00    -0.206 F 
ATOM     76  C   UNL A   1      34.681  32.640  30.973  1.00  0.00     0.022 A 
BRANCH  73  77
ATOM     77  S   UNL A   1      34.141  33.484  28.371  1.00  0.00     0.124 S 
ATOM     78  O   UNL A   1      33.553  32.306  27.744  1.00  0.00    -0.237 OA
ATOM     79  O   UNL A   1      33.231  34.321  29.146  1.00  0.00    -0.237 OA
ATOM     80  O   UNL A   1      35.107  34.212  27.550  1.00  0.00    -0.744 OA
ENDBRANCH  73  77
ENDBRANCH  46  70
BRANCH  58  81
ATOM     81  C   UNL A   1      43.424  35.200  30.793  1.00  0.00     0.023 A 
ATOM     82  C   UNL A   1      43.394  36.277  29.890  1.00  0.00     0.031 A 
ATOM     83  C   UNL A   1      43.813  35.462  32.120  1.00  0.00     0.131 A 
ATOM     84  C   UNL A   1      43.805  37.552  30.309  1.00  0.00     0.055 A 
ATOM     85  C   UNL A   1      44.152  36.746  32.548  1.00  0.00     0.041 A 
ATOM     86  F   UNL A   1      43.865  34.471  33.025  1.00  0.00    -0.206 F 
ATOM     87  C   UNL A   1      44.165  37.797  31.637  1.00  0.00     0.022 A 
BRANCH  84  88
ATOM     88  S   UNL A   1      43.967  38.867  29.069  1.00  0.00     0.124 S 
ATOM     89  O   UNL A   1      44.515  38.140  27.928  1.00  0.00    -0.237 OA
ATOM     90  O   UNL A   1      42.592  39.334  28.927  1.00  0.00    -0.237 OA
ATOM     91  O   UNL A   1      44.883  39.818  29.695  1.00  0.00    -0.744 OA
ENDBRANCH  84  88
ENDBRANCH  58  81
ENDBRANCH  32  33
ENDBRANCH  24  27
ENDBRANCH  22  23
ENDBRANCH  21  22
ENDBRANCH  20  21
ENDBRANCH   3  20
TORSDOF 19
ENDMDL
MODEL 3
REMARK VINA RESULT:      -9.7      5.873     10.505
REMARK SMILES C[C@H](CC[NH+](C)C)[NH2+][C@H](C)[C@@H](C)C(=O)NCCCNC(=O)c1ccc(-c2c3nc(c(-c4cc(S(=O)(=O)[O-])ccc4F)c4ccc([nH]4)c(-c4cc(S(=O)(=O)[O-])ccc4F)c4nc(c(-c5cc(S(=O)(=O)[O-])ccc5F)c5ccc2[nH]5)C=C4)C=C3)cc1
REMARK SMILES IDX 13 1 14 2 15 3 11 5 12 6 9 7 10 8 8 9 2 12 1 13 3 14 4 15
REMARK SMILES IDX 5 16 6 17 7 18 16 20 17 21 18 22 19 23 20 24 21 26 22 27
REMARK SMILES IDX 23 28 84 29 24 30 83 31 25 32 26 33 27 34 77 35 28 36 82 37
REMARK SMILES IDX 76 38 78 39 29 40 81 41 75 42 74 43 30 45 62 46 42 47 61 48
REMARK SMILES IDX 43 49 46 50 60 51 79 52 44 53 45 54 59 56 80 57 47 58 31 59
REMARK SMILES IDX 32 60 40 61 33 62 39 63 41 64 38 65 34 66 35 67 36 68 37 69
REMARK SMILES IDX 63 70 64 71 72 72 65 73 71 74 73 75 70 76 66 77 67 78 68 79
REMARK SMILES IDX 69 80 48 81 49 82 57 83 50 84 56 85 58 86 55 87 51 88 52 89
REMARK SMILES IDX 53 90 54 91
REMARK H PARENT 15 4 8 10 8 11 5 19 19 25 78 44 46 55
REMARK Flexibility Score: inf
ROOT
ATOM      1  C   UNL A   1      35.550  21.713  25.844  1.00  0.00     0.228 C 
ATOM      2  O   UNL A   1      34.846  21.731  26.859  1.00  0.00    -0.275 OA
ATOM      3  N   UNL A   1      36.393  20.658  25.710  1.00  0.00    -0.356 N 
ATOM      4  H   UNL A   1      36.383  20.039  26.476  1.00  0.00     0.163 HD
ENDROOT
BRANCH   1   5
ATOM      5  C   UNL A   1      35.398  22.791  24.775  1.00  0.00     0.133 C 
ATOM      6  C   UNL A   1      35.823  24.139  25.381  1.00  0.00     0.024 C 
BRANCH   5   7
ATOM      7  C   UNL A   1      34.020  22.787  24.067  1.00  0.00     0.191 C 
ATOM      8  C   UNL A   1      34.082  23.451  22.679  1.00  0.00     0.076 C 
BRANCH   7   9
ATOM      9  N   UNL A   1      33.278  21.549  23.817  1.00  0.00    -0.341 N 
ATOM     10  H   UNL A   1      32.945  21.630  22.857  1.00  0.00     0.346 HD
ATOM     11  H   UNL A   1      33.981  20.870  24.109  1.00  0.00     0.346 HD
BRANCH   9  12
ATOM     12  C   UNL A   1      32.136  21.054  24.573  1.00  0.00     0.185 C 
ATOM     13  C   UNL A   1      31.539  22.005  25.614  1.00  0.00     0.075 C 
BRANCH  12  14
ATOM     14  C   UNL A   1      32.523  19.691  25.237  1.00  0.00     0.126 C 
BRANCH  14  15
ATOM     15  C   UNL A   1      33.558  18.762  24.550  1.00  0.00     0.268 C 
BRANCH  15  16
ATOM     16  N   UNL A   1      33.986  17.489  25.167  1.00  0.00    -0.340 N 
ATOM     17  C   UNL A   1      32.799  16.797  25.688  1.00  0.00     0.332 C 
ATOM     18  C   UNL A   1      34.688  16.594  24.257  1.00  0.00     0.332 C 
ATOM     19  H   UNL A   1      34.647  17.732  25.905  1.00  0.00     0.347 HD
ENDBRANCH  15  16
ENDBRANCH  14  15
ENDBRANCH  12  14
ENDBRANCH   9  12
ENDBRANCH   7   9
ENDBRANCH   5   7
ENDBRANCH   1   5
BRANCH   3  20
ATOM     20  C   UNL A   1      37.305  20.272  24.649  1.00  0.00     0.117 C 
BRANCH  20  21
ATOM     21  C   UNL A   1      38.401  19.342  25.149  1.00  0.00     0.042 C 
BRANCH  21  22
ATOM     22  C   UNL A   1      39.468  20.042  25.979  1.00  0.00     0.118 C 
BRANCH  22  23
ATOM     23  N   UNL A   1      40.698  19.269  26.067  1.00  0.00    -0.352 N 
ATOM     24  C   UNL A   1      42.003  19.689  26.158  1.00  0.00     0.251 C 
ATOM     25  H   UNL A   1      40.577  18.292  26.059  1.00  0.00     0.163 HD
ATOM     26  O   UNL A   1      42.906  18.880  25.973  1.00  0.00    -0.269 OA
BRANCH  24  27
ATOM     27  C   UNL A   1      42.312  21.105  26.456  1.00  0.00     0.039 A 
ATOM     28  C   UNL A   1      42.514  21.491  27.784  1.00  0.00     0.014 A 
ATOM     29  C   UNL A   1      42.383  22.053  25.434  1.00  0.00     0.014 A 
ATOM     30  C   UNL A   1      42.849  22.816  28.074  1.00  0.00     0.010 A 
ATOM     31  C   UNL A   1      42.814  23.344  25.713  1.00  0.00     0.010 A 
ATOM     32  C   UNL A   1      43.040  23.744  27.038  1.00  0.00    -0.014 A 
BRANCH  32  33
ATOM     33  C   UNL A   1      43.451  25.145  27.317  1.00  0.00     0.031 A 
ATOM     34  C   UNL A   1      44.867  25.580  27.053  1.00  0.00     0.074 A 
ATOM     35  C   UNL A   1      42.569  26.004  27.862  1.00  0.00     0.049 A 
ATOM     36  N   UNL A   1      45.440  26.732  27.295  1.00  0.00    -0.248 NA
ATOM     37  C   UNL A   1      45.766  24.572  26.475  1.00  0.00     0.031 C 
ATOM     38  C   UNL A   1      41.177  25.691  28.191  1.00  0.00     0.029 A 
ATOM     39  N   UNL A   1      42.709  27.317  28.233  1.00  0.00    -0.354 N 
ATOM     40  C   UNL A   1      46.767  26.582  26.904  1.00  0.00     0.074 A 
ATOM     41  C   UNL A   1      46.927  25.203  26.496  1.00  0.00     0.031 C 
ATOM     42  C   UNL A   1      40.582  26.793  28.673  1.00  0.00     0.029 A 
ATOM     43  C   UNL A   1      41.559  27.874  28.739  1.00  0.00     0.049 A 
ATOM     44  H   UNL A   1      43.555  27.813  28.145  1.00  0.00     0.167 HD
ATOM     45  C   UNL A   1      47.751  27.516  26.855  1.00  0.00     0.034 A 
ATOM     46  C   UNL A   1      41.320  29.116  29.207  1.00  0.00     0.034 A 
ATOM     47  C   UNL A   1      47.571  28.886  27.273  1.00  0.00     0.049 A 
ATOM     48  C   UNL A   1      42.444  30.120  29.209  1.00  0.00     0.074 A 
ATOM     49  C   UNL A   1      48.484  29.926  27.241  1.00  0.00     0.029 A 
ATOM     50  N   UNL A   1      46.400  29.407  27.811  1.00  0.00    -0.354 N 
ATOM     51  N   UNL A   1      43.683  29.978  28.800  1.00  0.00    -0.248 NA
ATOM     52  C   UNL A   1      42.130  31.457  29.727  1.00  0.00     0.031 C 
ATOM     53  C   UNL A   1      47.892  31.049  27.830  1.00  0.00     0.029 A 
ATOM     54  C   UNL A   1      46.578  30.741  28.147  1.00  0.00     0.049 A 
ATOM     55  H   UNL A   1      45.564  28.900  27.935  1.00  0.00     0.167 HD
ATOM     56  C   UNL A   1      44.286  31.220  28.977  1.00  0.00     0.074 A 
ATOM     57  C   UNL A   1      43.270  32.098  29.521  1.00  0.00     0.031 C 
ATOM     58  C   UNL A   1      45.560  31.604  28.704  1.00  0.00     0.034 A 
BRANCH  45  59
ATOM     59  C   UNL A   1      49.107  27.060  26.361  1.00  0.00     0.023 A 
ATOM     60  C   UNL A   1      49.663  27.566  25.172  1.00  0.00     0.031 A 
ATOM     61  C   UNL A   1      49.822  26.060  27.042  1.00  0.00     0.131 A 
ATOM     62  C   UNL A   1      50.827  26.991  24.640  1.00  0.00     0.055 A 
ATOM     63  C   UNL A   1      51.038  25.566  26.561  1.00  0.00     0.041 A 
ATOM     64  F   UNL A   1      49.339  25.520  28.171  1.00  0.00    -0.206 F 
ATOM     65  C   UNL A   1      51.535  26.015  25.341  1.00  0.00     0.022 A 
BRANCH  62  66
ATOM     66  S   UNL A   1      51.281  27.394  22.930  1.00  0.00     0.124 S 
ATOM     67  O   UNL A   1      50.430  26.477  22.176  1.00  0.00    -0.237 OA
ATOM     68  O   UNL A   1      50.938  28.808  22.837  1.00  0.00    -0.237 OA
ATOM     69  O   UNL A   1      52.710  27.092  22.875  1.00  0.00    -0.744 OA
ENDBRANCH  62  66
ENDBRANCH  45  59
BRANCH  46  70
ATOM     70  C   UNL A   1      39.962  29.485  29.697  1.00  0.00     0.023 A 
ATOM     71  C   UNL A   1      39.689  29.540  31.073  1.00  0.00     0.031 A 
ATOM     72  C   UNL A   1      38.913  29.765  28.804  1.00  0.00     0.131 A 
ATOM     73  C   UNL A   1      38.390  29.828  31.517  1.00  0.00     0.055 A 
ATOM     74  C   UNL A   1      37.635  30.103  29.252  1.00  0.00     0.041 A 
ATOM     75  F   UNL A   1      39.121  29.732  27.479  1.00  0.00    -0.206 F 
ATOM     76  C   UNL A   1      37.365  30.125  30.617  1.00  0.00     0.022 A 
BRANCH  73  77
ATOM     77  S   UNL A   1      38.043  29.738  33.295  1.00  0.00     0.124 S 
ATOM     78  O   UNL A   1      37.126  28.606  33.360  1.00  0.00    -0.237 OA
ATOM     79  O   UNL A   1      39.373  29.521  33.854  1.00  0.00    -0.237 OA
ATOM     80  O   UNL A   1      37.450  31.040  33.591  1.00  0.00    -0.744 OA
ENDBRANCH  73  77
ENDBRANCH  46  70
BRANCH  58  81
ATOM     81  C   UNL A   1      45.908  33.054  28.943  1.00  0.00     0.023 A 
ATOM     82  C   UNL A   1      45.646  34.052  27.987  1.00  0.00     0.031 A 
ATOM     83  C   UNL A   1      46.528  33.441  30.146  1.00  0.00     0.131 A 
ATOM     84  C   UNL A   1      46.057  35.373  28.223  1.00  0.00     0.055 A 
ATOM     85  C   UNL A   1      46.871  34.769  30.404  1.00  0.00     0.041 A 
ATOM     86  F   UNL A   1      46.808  32.532  31.093  1.00  0.00    -0.206 F 
ATOM     87  C   UNL A   1      46.650  35.741  29.434  1.00  0.00     0.022 A 
BRANCH  84  88
ATOM     88  S   UNL A   1      45.904  36.585  26.882  1.00  0.00     0.124 S 
ATOM     89  O   UNL A   1      44.467  36.839  26.866  1.00  0.00    -0.237 OA
ATOM     90  O   UNL A   1      46.741  37.682  27.357  1.00  0.00    -0.237 OA
ATOM     91  O   UNL A   1      46.420  35.872  25.715  1.00  0.00    -0.744 OA
ENDBRANCH  84  88
ENDBRANCH  58  81
ENDBRANCH  32  33
ENDBRANCH  24  27
ENDBRANCH  22  23
ENDBRANCH  21  22
ENDBRANCH  20  21
ENDBRANCH   3  20
TORSDOF 19
ENDMDL
