MODEL 1
REMARK VINA RESULT:     -11.1      0.000      0.000
REMARK SMILES CC(C)[C@@H]1CSC[C@@H](C(=O)NCCCNC(=O)c2ccc(-c3c4nc(c(-c5cc(S(=O)(=O)[O-])ccc5F)c5ccc([nH]5)c(-c5cc(S(=O)(=O)[O-])ccc5F)c5nc(c(-c6cc(S(=O)(=O)[O-])ccc6F)c6ccc3[nH]6)C=C5)C=C4)cc2)[NH2+]1
REMARK SMILES IDX 14 1 13 2 12 3 11 4 9 5 10 6 8 8 4 9 5 10 81 11 6 12 7 15
REMARK SMILES IDX 2 16 1 17 3 18 15 19 16 20 17 22 18 23 19 24 80 25 20 26
REMARK SMILES IDX 79 27 21 28 22 29 23 30 73 31 24 32 78 33 72 34 74 35 25 36
REMARK SMILES IDX 77 37 71 38 70 39 26 41 58 42 38 43 57 44 39 45 42 46 56 47
REMARK SMILES IDX 75 48 40 49 41 50 55 52 76 53 43 54 27 55 28 56 36 57 29 58
REMARK SMILES IDX 35 59 37 60 34 61 30 62 31 63 32 64 33 65 59 66 60 67 68 68
REMARK SMILES IDX 61 69 67 70 69 71 66 72 62 73 63 74 64 75 65 76 44 77 45 78
REMARK SMILES IDX 53 79 46 80 52 81 54 82 51 83 47 84 48 85 49 86 50 87
REMARK H PARENT 11 7 81 13 81 14 15 21 74 40 42 51
REMARK Flexibility Score: inf
ROOT
ATOM      1  C   UNL A   1      34.042  28.681  25.854  1.00  0.00     0.118 C 
ENDROOT
BRANCH   1   2
ATOM      2  C   UNL A   1      33.379  27.593  26.685  1.00  0.00     0.042 C 
BRANCH   2   3
ATOM      3  C   UNL A   1      32.112  27.032  26.062  1.00  0.00     0.118 C 
BRANCH   3   4
ATOM      4  N   UNL A   1      31.569  25.906  26.808  1.00  0.00    -0.351 N 
ATOM      5  C   UNL A   1      31.739  24.568  26.598  1.00  0.00     0.279 C 
ATOM      6  O   UNL A   1      31.163  23.779  27.352  1.00  0.00    -0.268 OA
ATOM      7  H   UNL A   1      30.999  26.145  27.575  1.00  0.00     0.163 HD
BRANCH   5   8
ATOM      8  C   UNL A   1      32.642  24.058  25.457  1.00  0.00     0.282 C 
ATOM      9  C   UNL A   1      34.462  22.435  25.003  1.00  0.00     0.195 C 
ATOM     10  C   UNL A   1      33.635  21.688  23.937  1.00  0.00     0.135 C 
ATOM     11  N   UNL A   1      33.578  23.047  26.015  1.00  0.00    -0.332 N 
ATOM     12  S   UNL A   1      32.559  22.751  22.928  1.00  0.00    -0.149 SA
ATOM     13  H   UNL A   1      34.160  23.502  26.718  1.00  0.00     0.347 HD
ATOM     14  H   UNL A   1      33.008  22.298  26.406  1.00  0.00     0.347 HD
ATOM     15  C   UNL A   1      31.740  23.660  24.272  1.00  0.00     0.145 C 
BRANCH   9  16
ATOM     16  C   UNL A   1      35.582  23.422  24.528  1.00  0.00     0.042 C 
ATOM     17  C   UNL A   1      36.470  23.820  25.718  1.00  0.00     0.014 C 
ATOM     18  C   UNL A   1      36.480  22.928  23.393  1.00  0.00     0.014 C 
ENDBRANCH   9  16
ENDBRANCH   5   8
ENDBRANCH   3   4
ENDBRANCH   2   3
ENDBRANCH   1   2
BRANCH   1  19
ATOM     19  N   UNL A   1      33.719  30.024  26.320  1.00  0.00    -0.352 N 
ATOM     20  C   UNL A   1      34.296  30.781  27.309  1.00  0.00     0.251 C 
ATOM     21  H   UNL A   1      32.967  30.456  25.852  1.00  0.00     0.163 HD
ATOM     22  O   UNL A   1      33.739  31.813  27.678  1.00  0.00    -0.269 OA
BRANCH  20  23
ATOM     23  C   UNL A   1      35.560  30.345  27.942  1.00  0.00     0.039 A 
ATOM     24  C   UNL A   1      35.516  29.744  29.201  1.00  0.00     0.014 A 
ATOM     25  C   UNL A   1      36.787  30.530  27.300  1.00  0.00     0.014 A 
ATOM     26  C   UNL A   1      36.693  29.265  29.781  1.00  0.00     0.010 A 
ATOM     27  C   UNL A   1      37.939  29.961  27.829  1.00  0.00     0.010 A 
ATOM     28  C   UNL A   1      37.908  29.329  29.080  1.00  0.00    -0.014 A 
BRANCH  28  29
ATOM     29  C   UNL A   1      39.159  28.757  29.645  1.00  0.00     0.031 A 
ATOM     30  C   UNL A   1      39.751  29.335  30.904  1.00  0.00     0.074 A 
ATOM     31  C   UNL A   1      39.791  27.760  28.995  1.00  0.00     0.049 A 
ATOM     32  N   UNL A   1      40.865  29.024  31.515  1.00  0.00    -0.248 NA
ATOM     33  C   UNL A   1      39.005  30.432  31.540  1.00  0.00     0.031 C 
ATOM     34  C   UNL A   1      39.338  27.145  27.746  1.00  0.00     0.029 A 
ATOM     35  N   UNL A   1      40.951  27.087  29.291  1.00  0.00    -0.354 N 
ATOM     36  C   UNL A   1      40.960  29.892  32.597  1.00  0.00     0.074 A 
ATOM     37  C   UNL A   1      39.828  30.789  32.514  1.00  0.00     0.031 C 
ATOM     38  C   UNL A   1      40.187  26.163  27.404  1.00  0.00     0.029 A 
ATOM     39  C   UNL A   1      41.274  26.113  28.374  1.00  0.00     0.049 A 
ATOM     40  H   UNL A   1      41.499  27.283  30.085  1.00  0.00     0.167 HD
ATOM     41  C   UNL A   1      41.890  29.921  33.584  1.00  0.00     0.034 A 
ATOM     42  C   UNL A   1      42.334  25.281  28.316  1.00  0.00     0.034 A 
ATOM     43  C   UNL A   1      43.006  29.010  33.655  1.00  0.00     0.049 A 
ATOM     44  C   UNL A   1      43.376  25.356  29.405  1.00  0.00     0.074 A 
ATOM     45  C   UNL A   1      43.978  28.914  34.637  1.00  0.00     0.029 A 
ATOM     46  N   UNL A   1      43.310  28.044  32.703  1.00  0.00    -0.354 N 
ATOM     47  N   UNL A   1      43.422  26.149  30.453  1.00  0.00    -0.248 NA
ATOM     48  C   UNL A   1      44.500  24.418  29.311  1.00  0.00     0.031 C 
ATOM     49  C   UNL A   1      44.909  27.950  34.238  1.00  0.00     0.029 A 
ATOM     50  C   UNL A   1      44.472  27.375  33.055  1.00  0.00     0.049 A 
ATOM     51  H   UNL A   1      42.776  27.861  31.896  1.00  0.00     0.167 HD
ATOM     52  C   UNL A   1      44.563  25.776  31.159  1.00  0.00     0.074 A 
ATOM     53  C   UNL A   1      45.162  24.679  30.426  1.00  0.00     0.031 C 
ATOM     54  C   UNL A   1      45.066  26.288  32.310  1.00  0.00     0.034 A 
BRANCH  41  55
ATOM     55  C   UNL A   1      41.747  30.988  34.645  1.00  0.00     0.023 A 
ATOM     56  C   UNL A   1      40.663  31.003  35.541  1.00  0.00     0.031 A 
ATOM     57  C   UNL A   1      42.694  32.024  34.746  1.00  0.00     0.131 A 
ATOM     58  C   UNL A   1      40.507  32.070  36.437  1.00  0.00     0.055 A 
ATOM     59  C   UNL A   1      42.582  33.034  35.704  1.00  0.00     0.041 A 
ATOM     60  F   UNL A   1      43.739  32.079  33.906  1.00  0.00    -0.206 F 
ATOM     61  C   UNL A   1      41.474  33.072  36.545  1.00  0.00     0.022 A 
BRANCH  58  62
ATOM     62  S   UNL A   1      38.945  32.215  37.346  1.00  0.00     0.124 S 
ATOM     63  O   UNL A   1      38.324  33.360  36.685  1.00  0.00    -0.237 OA
ATOM     64  O   UNL A   1      38.318  30.920  37.105  1.00  0.00    -0.237 OA
ATOM     65  O   UNL A   1      39.370  32.456  38.723  1.00  0.00    -0.744 OA
ENDBRANCH  58  62
ENDBRANCH  41  55
BRANCH  42  66
ATOM     66  C   UNL A   1      42.476  24.310  27.192  1.00  0.00     0.023 A 
ATOM     67  C   UNL A   1      41.885  23.039  27.255  1.00  0.00     0.031 A 
ATOM     68  C   UNL A   1      43.248  24.621  26.057  1.00  0.00     0.131 A 
ATOM     69  C   UNL A   1      42.117  22.106  26.232  1.00  0.00     0.055 A 
ATOM     70  C   UNL A   1      43.425  23.712  25.013  1.00  0.00     0.041 A 
ATOM     71  F   UNL A   1      43.835  25.823  25.942  1.00  0.00    -0.206 F 
ATOM     72  C   UNL A   1      42.870  22.438  25.105  1.00  0.00     0.022 A 
BRANCH  69  73
ATOM     73  S   UNL A   1      41.503  20.413  26.446  1.00  0.00     0.124 S 
ATOM     74  O   UNL A   1      41.925  20.116  27.811  1.00  0.00    -0.237 OA
ATOM     75  O   UNL A   1      40.068  20.583  26.241  1.00  0.00    -0.237 OA
ATOM     76  O   UNL A   1      42.198  19.665  25.401  1.00  0.00    -0.744 OA
ENDBRANCH  69  73
ENDBRANCH  42  66
BRANCH  54  77
ATOM     77  C   UNL A   1      46.303  25.628  32.875  1.00  0.00     0.023 A 
ATOM     78  C   UNL A   1      46.225  24.564  33.790  1.00  0.00     0.031 A 
ATOM     79  C   UNL A   1      47.580  26.082  32.498  1.00  0.00     0.131 A 
ATOM     80  C   UNL A   1      47.399  24.035  34.348  1.00  0.00     0.055 A 
ATOM     81  C   UNL A   1      48.745  25.503  33.001  1.00  0.00     0.041 A 
ATOM     82  F   UNL A   1      47.716  27.098  31.631  1.00  0.00    -0.206 F 
ATOM     83  C   UNL A   1      48.658  24.484  33.944  1.00  0.00     0.022 A 
BRANCH  80  84
ATOM     84  S   UNL A   1      47.255  22.825  35.692  1.00  0.00     0.124 S 
ATOM     85  O   UNL A   1      45.863  22.406  35.576  1.00  0.00    -0.237 OA
ATOM     86  O   UNL A   1      48.254  21.827  35.322  1.00  0.00    -0.237 OA
ATOM     87  O   UNL A   1      47.571  23.604  36.889  1.00  0.00    -0.744 OA
ENDBRANCH  80  84
ENDBRANCH  54  77
ENDBRANCH  28  29
ENDBRANCH  20  23
ENDBRANCH   1  19
TORSDOF 14
ENDMDL
MODEL 2
REMARK VINA RESULT:     -11.0      3.836      9.430
REMARK SMILES CC(C)[C@@H]1CSC[C@@H](C(=O)NCCCNC(=O)c2ccc(-c3c4nc(c(-c5cc(S(=O)(=O)[O-])ccc5F)c5ccc([nH]5)c(-c5cc(S(=O)(=O)[O-])ccc5F)c5nc(c(-c6cc(S(=O)(=O)[O-])ccc6F)c6ccc3[nH]6)C=C5)C=C4)cc2)[NH2+]1
REMARK SMILES IDX 14 1 13 2 12 3 11 4 9 5 10 6 8 8 4 9 5 10 81 11 6 12 7 15
REMARK SMILES IDX 2 16 1 17 3 18 15 19 16 20 17 22 18 23 19 24 80 25 20 26
REMARK SMILES IDX 79 27 21 28 22 29 23 30 73 31 24 32 78 33 72 34 74 35 25 36
REMARK SMILES IDX 77 37 71 38 70 39 26 41 58 42 38 43 57 44 39 45 42 46 56 47
REMARK SMILES IDX 75 48 40 49 41 50 55 52 76 53 43 54 27 55 28 56 36 57 29 58
REMARK SMILES IDX 35 59 37 60 34 61 30 62 31 63 32 64 33 65 59 66 60 67 68 68
REMARK SMILES IDX 61 69 67 70 69 71 66 72 62 73 63 74 64 75 65 76 44 77 45 78
REMARK SMILES IDX 53 79 46 80 52 81 54 82 51 83 47 84 48 85 49 86 50 87
REMARK H PARENT 11 7 81 13 81 14 15 21 74 40 42 51
REMARK Flexibility Score: inf
ROOT
ATOM      1  C   UNL A   1      33.046  32.892  27.216  1.00  0.00     0.118 C 
ENDROOT
BRANCH   1   2
ATOM      2  C   UNL A   1      31.821  32.030  26.954  1.00  0.00     0.042 C 
BRANCH   2   3
ATOM      3  C   UNL A   1      32.048  30.548  27.202  1.00  0.00     0.118 C 
BRANCH   3   4
ATOM      4  N   UNL A   1      33.054  29.978  26.318  1.00  0.00    -0.351 N 
ATOM      5  C   UNL A   1      32.886  29.238  25.183  1.00  0.00     0.279 C 
ATOM      6  O   UNL A   1      33.893  28.836  24.593  1.00  0.00    -0.268 OA
ATOM      7  H   UNL A   1      33.988  30.151  26.576  1.00  0.00     0.163 HD
BRANCH   5   8
ATOM      8  C   UNL A   1      31.476  28.930  24.645  1.00  0.00     0.282 C 
ATOM      9  C   UNL A   1      30.009  29.359  22.690  1.00  0.00     0.195 C 
ATOM     10  C   UNL A   1      29.854  27.857  22.379  1.00  0.00     0.135 C 
ATOM     11  N   UNL A   1      31.307  29.626  23.342  1.00  0.00    -0.332 N 
ATOM     12  S   UNL A   1      29.788  26.781  23.842  1.00  0.00    -0.149 SA
ATOM     13  H   UNL A   1      31.387  30.630  23.502  1.00  0.00     0.347 HD
ATOM     14  H   UNL A   1      32.032  29.272  22.719  1.00  0.00     0.347 HD
ATOM     15  C   UNL A   1      31.261  27.404  24.704  1.00  0.00     0.145 C 
BRANCH   9  16
ATOM     16  C   UNL A   1      28.830  30.103  23.405  1.00  0.00     0.042 C 
ATOM     17  C   UNL A   1      28.970  31.622  23.206  1.00  0.00     0.014 C 
ATOM     18  C   UNL A   1      27.419  29.685  22.991  1.00  0.00     0.014 C 
ENDBRANCH   9  16
ENDBRANCH   5   8
ENDBRANCH   3   4
ENDBRANCH   2   3
ENDBRANCH   1   2
BRANCH   1  19
ATOM     19  N   UNL A   1      32.708  34.225  27.696  1.00  0.00    -0.352 N 
ATOM     20  C   UNL A   1      33.171  34.918  28.787  1.00  0.00     0.251 C 
ATOM     21  H   UNL A   1      32.040  34.705  27.153  1.00  0.00     0.163 HD
ATOM     22  O   UNL A   1      32.604  35.954  29.126  1.00  0.00    -0.269 OA
BRANCH  20  23
ATOM     23  C   UNL A   1      34.324  34.408  29.561  1.00  0.00     0.039 A 
ATOM     24  C   UNL A   1      34.090  33.730  30.759  1.00  0.00     0.014 A 
ATOM     25  C   UNL A   1      35.633  34.598  29.112  1.00  0.00     0.014 A 
ATOM     26  C   UNL A   1      35.163  33.182  31.465  1.00  0.00     0.010 A 
ATOM     27  C   UNL A   1      36.688  33.965  29.759  1.00  0.00     0.010 A 
ATOM     28  C   UNL A   1      36.467  33.256  30.949  1.00  0.00    -0.014 A 
BRANCH  28  29
ATOM     29  C   UNL A   1      37.614  32.615  31.645  1.00  0.00     0.031 A 
ATOM     30  C   UNL A   1      38.342  31.467  30.999  1.00  0.00     0.074 A 
ATOM     31  C   UNL A   1      37.960  33.029  32.881  1.00  0.00     0.049 A 
ATOM     32  N   UNL A   1      39.318  30.734  31.470  1.00  0.00    -0.248 NA
ATOM     33  C   UNL A   1      37.889  31.070  29.657  1.00  0.00     0.031 C 
ATOM     34  C   UNL A   1      37.304  34.104  33.627  1.00  0.00     0.029 A 
ATOM     35  N   UNL A   1      38.947  32.594  33.730  1.00  0.00    -0.354 N 
ATOM     36  C   UNL A   1      39.586  29.784  30.491  1.00  0.00     0.074 A 
ATOM     37  C   UNL A   1      38.620  29.989  29.433  1.00  0.00     0.031 C 
ATOM     38  C   UNL A   1      37.929  34.270  34.803  1.00  0.00     0.029 A 
ATOM     39  C   UNL A   1      38.993  33.279  34.923  1.00  0.00     0.049 A 
ATOM     40  H   UNL A   1      39.565  31.861  33.506  1.00  0.00     0.167 HD
ATOM     41  C   UNL A   1      40.564  28.844  30.463  1.00  0.00     0.034 A 
ATOM     42  C   UNL A   1      39.793  33.119  35.996  1.00  0.00     0.034 A 
ATOM     43  C   UNL A   1      41.524  28.661  31.524  1.00  0.00     0.049 A 
ATOM     44  C   UNL A   1      40.851  32.043  35.958  1.00  0.00     0.074 A 
ATOM     45  C   UNL A   1      42.589  27.778  31.579  1.00  0.00     0.029 A 
ATOM     46  N   UNL A   1      41.533  29.365  32.722  1.00  0.00    -0.354 N 
ATOM     47  N   UNL A   1      41.126  31.187  35.000  1.00  0.00    -0.248 NA
ATOM     48  C   UNL A   1      41.711  31.920  37.140  1.00  0.00     0.031 C 
ATOM     49  C   UNL A   1      43.188  27.891  32.838  1.00  0.00     0.029 A 
ATOM     50  C   UNL A   1      42.559  28.909  33.536  1.00  0.00     0.049 A 
ATOM     51  H   UNL A   1      40.902  30.083  32.959  1.00  0.00     0.167 HD
ATOM     52  C   UNL A   1      42.217  30.449  35.454  1.00  0.00     0.074 A 
ATOM     53  C   UNL A   1      42.555  30.973  36.761  1.00  0.00     0.031 C 
ATOM     54  C   UNL A   1      42.881  29.435  34.844  1.00  0.00     0.034 A 
BRANCH  41  55
ATOM     55  C   UNL A   1      40.620  27.931  29.260  1.00  0.00     0.023 A 
ATOM     56  C   UNL A   1      41.547  28.130  28.221  1.00  0.00     0.031 A 
ATOM     57  C   UNL A   1      39.715  26.862  29.134  1.00  0.00     0.131 A 
ATOM     58  C   UNL A   1      41.495  27.330  27.070  1.00  0.00     0.055 A 
ATOM     59  C   UNL A   1      39.729  26.010  28.027  1.00  0.00     0.041 A 
ATOM     60  F   UNL A   1      38.791  26.633  30.081  1.00  0.00    -0.206 F 
ATOM     61  C   UNL A   1      40.610  26.253  26.978  1.00  0.00     0.022 A 
BRANCH  58  62
ATOM     62  S   UNL A   1      42.487  27.816  25.633  1.00  0.00     0.124 S 
ATOM     63  O   UNL A   1      43.796  28.043  26.240  1.00  0.00    -0.237 OA
ATOM     64  O   UNL A   1      42.379  26.649  24.765  1.00  0.00    -0.237 OA
ATOM     65  O   UNL A   1      41.819  29.021  25.145  1.00  0.00    -0.744 OA
ENDBRANCH  58  62
ENDBRANCH  41  55
BRANCH  42  66
ATOM     66  C   UNL A   1      39.631  33.986  37.200  1.00  0.00     0.023 A 
ATOM     67  C   UNL A   1      39.006  33.502  38.360  1.00  0.00     0.031 A 
ATOM     68  C   UNL A   1      40.055  35.327  37.192  1.00  0.00     0.131 A 
ATOM     69  C   UNL A   1      38.773  34.365  39.442  1.00  0.00     0.055 A 
ATOM     70  C   UNL A   1      39.877  36.164  38.294  1.00  0.00     0.041 A 
ATOM     71  F   UNL A   1      40.662  35.843  36.110  1.00  0.00    -0.206 F 
ATOM     72  C   UNL A   1      39.217  35.688  39.423  1.00  0.00     0.022 A 
BRANCH  69  73
ATOM     73  S   UNL A   1      37.787  33.759  40.838  1.00  0.00     0.124 S 
ATOM     74  O   UNL A   1      37.427  35.004  41.509  1.00  0.00    -0.237 OA
ATOM     75  O   UNL A   1      36.701  33.058  40.160  1.00  0.00    -0.237 OA
ATOM     76  O   UNL A   1      38.721  32.904  41.567  1.00  0.00    -0.744 OA
ENDBRANCH  69  73
ENDBRANCH  42  66
BRANCH  54  77
ATOM     77  C   UNL A   1      44.078  28.863  35.568  1.00  0.00     0.023 A 
ATOM     78  C   UNL A   1      43.965  27.768  36.442  1.00  0.00     0.031 A 
ATOM     79  C   UNL A   1      45.351  29.435  35.388  1.00  0.00     0.131 A 
ATOM     80  C   UNL A   1      45.090  27.322  37.152  1.00  0.00     0.055 A 
ATOM     81  C   UNL A   1      46.479  28.940  36.043  1.00  0.00     0.041 A 
ATOM     82  F   UNL A   1      45.519  30.485  34.569  1.00  0.00    -0.206 F 
ATOM     83  C   UNL A   1      46.349  27.888  36.944  1.00  0.00     0.022 A 
BRANCH  80  84
ATOM     84  S   UNL A   1      44.863  26.062  38.439  1.00  0.00     0.124 S 
ATOM     85  O   UNL A   1      44.059  25.062  37.746  1.00  0.00    -0.237 OA
ATOM     86  O   UNL A   1      46.237  25.676  38.743  1.00  0.00    -0.237 OA
ATOM     87  O   UNL A   1      44.171  26.784  39.506  1.00  0.00    -0.744 OA
ENDBRANCH  80  84
ENDBRANCH  54  77
ENDBRANCH  28  29
ENDBRANCH  20  23
ENDBRANCH   1  19
TORSDOF 14
ENDMDL
MODEL 3
REMARK VINA RESULT:     -11.0      1.987      8.117
REMARK SMILES CC(C)[C@@H]1CSC[C@@H](C(=O)NCCCNC(=O)c2ccc(-c3c4nc(c(-c5cc(S(=O)(=O)[O-])ccc5F)c5ccc([nH]5)c(-c5cc(S(=O)(=O)[O-])ccc5F)c5nc(c(-c6cc(S(=O)(=O)[O-])ccc6F)c6ccc3[nH]6)C=C5)C=C4)cc2)[NH2+]1
REMARK SMILES IDX 14 1 13 2 12 3 11 4 9 5 10 6 8 8 4 9 5 10 81 11 6 12 7 15
REMARK SMILES IDX 2 16 1 17 3 18 15 19 16 20 17 22 18 23 19 24 80 25 20 26
REMARK SMILES IDX 79 27 21 28 22 29 23 30 73 31 24 32 78 33 72 34 74 35 25 36
REMARK SMILES IDX 77 37 71 38 70 39 26 41 58 42 38 43 57 44 39 45 42 46 56 47
REMARK SMILES IDX 75 48 40 49 41 50 55 52 76 53 43 54 27 55 28 56 36 57 29 58
REMARK SMILES IDX 35 59 37 60 34 61 30 62 31 63 32 64 33 65 59 66 60 67 68 68
REMARK SMILES IDX 61 69 67 70 69 71 66 72 62 73 63 74 64 75 65 76 44 77 45 78
REMARK SMILES IDX 53 79 46 80 52 81 54 82 51 83 47 84 48 85 49 86 50 87
REMARK H PARENT 11 7 81 13 81 14 15 21 74 40 42 51
REMARK Flexibility Score: inf
ROOT
ATOM      1  C   UNL A   1      32.720  29.219  25.725  1.00  0.00     0.118 C 
ENDROOT
BRANCH   1   2
ATOM      2  C   UNL A   1      31.747  28.215  26.325  1.00  0.00     0.042 C 
BRANCH   2   3
ATOM      3  C   UNL A   1      31.777  26.854  25.651  1.00  0.00     0.118 C 
BRANCH   3   4
ATOM      4  N   UNL A   1      31.268  25.791  26.506  1.00  0.00    -0.351 N 
ATOM      5  C   UNL A   1      31.463  24.443  26.418  1.00  0.00     0.279 C 
ATOM      6  O   UNL A   1      30.914  23.716  27.251  1.00  0.00    -0.268 OA
ATOM      7  H   UNL A   1      30.703  26.089  27.256  1.00  0.00     0.163 HD
BRANCH   5   8
ATOM      8  C   UNL A   1      32.361  23.848  25.316  1.00  0.00     0.282 C 
ATOM      9  C   UNL A   1      34.256  22.278  24.996  1.00  0.00     0.195 C 
ATOM     10  C   UNL A   1      33.443  21.367  24.056  1.00  0.00     0.135 C 
ATOM     11  N   UNL A   1      33.367  22.961  25.958  1.00  0.00    -0.332 N 
ATOM     12  S   UNL A   1      32.282  22.243  22.965  1.00  0.00    -0.149 SA
ATOM     13  H   UNL A   1      33.942  23.527  26.582  1.00  0.00     0.347 HD
ATOM     14  H   UNL A   1      32.851  22.236  26.455  1.00  0.00     0.347 HD
ATOM     15  C   UNL A   1      31.451  23.263  24.218  1.00  0.00     0.145 C 
BRANCH   9  16
ATOM     16  C   UNL A   1      35.306  23.258  24.370  1.00  0.00     0.042 C 
ATOM     17  C   UNL A   1      35.987  24.077  25.479  1.00  0.00     0.014 C 
ATOM     18  C   UNL A   1      36.389  22.620  23.499  1.00  0.00     0.014 C 
ENDBRANCH   9  16
ENDBRANCH   5   8
ENDBRANCH   3   4
ENDBRANCH   2   3
ENDBRANCH   1   2
BRANCH   1  19
ATOM     19  N   UNL A   1      32.390  30.597  26.063  1.00  0.00    -0.352 N 
ATOM     20  C   UNL A   1      32.963  31.446  26.977  1.00  0.00     0.251 C 
ATOM     21  H   UNL A   1      31.636  30.980  25.557  1.00  0.00     0.163 HD
ATOM     22  O   UNL A   1      32.401  32.505  27.248  1.00  0.00    -0.269 OA
BRANCH  20  23
ATOM     23  C   UNL A   1      34.229  31.078  27.648  1.00  0.00     0.039 A 
ATOM     24  C   UNL A   1      35.152  32.080  27.951  1.00  0.00     0.014 A 
ATOM     25  C   UNL A   1      34.508  29.750  27.977  1.00  0.00     0.014 A 
ATOM     26  C   UNL A   1      36.320  31.758  28.646  1.00  0.00     0.010 A 
ATOM     27  C   UNL A   1      35.617  29.447  28.759  1.00  0.00     0.010 A 
ATOM     28  C   UNL A   1      36.541  30.445  29.095  1.00  0.00    -0.014 A 
BRANCH  28  29
ATOM     29  C   UNL A   1      37.740  30.095  29.903  1.00  0.00     0.031 A 
ATOM     30  C   UNL A   1      38.788  29.175  29.336  1.00  0.00     0.074 A 
ATOM     31  C   UNL A   1      37.855  30.558  31.163  1.00  0.00     0.049 A 
ATOM     32  N   UNL A   1      39.866  28.697  29.903  1.00  0.00    -0.248 NA
ATOM     33  C   UNL A   1      38.577  28.703  27.958  1.00  0.00     0.031 C 
ATOM     34  C   UNL A   1      36.885  31.424  31.838  1.00  0.00     0.029 A 
ATOM     35  N   UNL A   1      38.834  30.365  32.106  1.00  0.00    -0.354 N 
ATOM     36  C   UNL A   1      40.453  27.861  28.959  1.00  0.00     0.074 A 
ATOM     37  C   UNL A   1      39.571  27.841  27.812  1.00  0.00     0.031 C 
ATOM     38  C   UNL A   1      37.335  31.717  33.067  1.00  0.00     0.029 A 
ATOM     39  C   UNL A   1      38.595  31.018  33.294  1.00  0.00     0.049 A 
ATOM     40  H   UNL A   1      39.633  29.812  31.947  1.00  0.00     0.167 HD
ATOM     41  C   UNL A   1      41.632  27.193  29.031  1.00  0.00     0.034 A 
ATOM     42  C   UNL A   1      39.305  31.042  34.440  1.00  0.00     0.034 A 
ATOM     43  C   UNL A   1      42.503  27.234  30.180  1.00  0.00     0.049 A 
ATOM     44  C   UNL A   1      40.595  30.262  34.510  1.00  0.00     0.074 A 
ATOM     45  C   UNL A   1      43.743  26.641  30.342  1.00  0.00     0.029 A 
ATOM     46  N   UNL A   1      42.223  27.896  31.370  1.00  0.00    -0.354 N 
ATOM     47  N   UNL A   1      41.164  29.518  33.588  1.00  0.00    -0.248 NA
ATOM     48  C   UNL A   1      41.343  30.334  35.770  1.00  0.00     0.031 C 
ATOM     49  C   UNL A   1      44.173  26.875  31.652  1.00  0.00     0.029 A 
ATOM     50  C   UNL A   1      43.249  27.694  32.281  1.00  0.00     0.049 A 
ATOM     51  H   UNL A   1      41.414  28.431  31.540  1.00  0.00     0.167 HD
ATOM     52  C   UNL A   1      42.355  29.065  34.148  1.00  0.00     0.074 A 
ATOM     53  C   UNL A   1      42.428  29.632  35.478  1.00  0.00     0.031 C 
ATOM     54  C   UNL A   1      43.305  28.258  33.611  1.00  0.00     0.034 A 
BRANCH  41  55
ATOM     55  C   UNL A   1      42.026  26.345  27.843  1.00  0.00     0.023 A 
ATOM     56  C   UNL A   1      41.644  24.996  27.736  1.00  0.00     0.031 A 
ATOM     57  C   UNL A   1      42.819  26.885  26.814  1.00  0.00     0.131 A 
ATOM     58  C   UNL A   1      42.121  24.213  26.675  1.00  0.00     0.055 A 
ATOM     59  C   UNL A   1      43.214  26.125  25.712  1.00  0.00     0.041 A 
ATOM     60  F   UNL A   1      43.235  28.160  26.869  1.00  0.00    -0.206 F 
ATOM     61  C   UNL A   1      42.881  24.775  25.646  1.00  0.00     0.022 A 
BRANCH  58  62
ATOM     62  S   UNL A   1      41.870  22.419  26.742  1.00  0.00     0.124 S 
ATOM     63  O   UNL A   1      42.207  22.022  25.377  1.00  0.00    -0.237 OA
ATOM     64  O   UNL A   1      42.811  22.007  27.778  1.00  0.00    -0.237 OA
ATOM     65  O   UNL A   1      40.458  22.283  27.091  1.00  0.00    -0.744 OA
ENDBRANCH  58  62
ENDBRANCH  41  55
BRANCH  42  66
ATOM     66  C   UNL A   1      38.820  31.819  35.618  1.00  0.00     0.023 A 
ATOM     67  C   UNL A   1      38.241  31.173  36.721  1.00  0.00     0.031 A 
ATOM     68  C   UNL A   1      38.884  33.224  35.638  1.00  0.00     0.131 A 
ATOM     69  C   UNL A   1      37.699  31.930  37.771  1.00  0.00     0.055 A 
ATOM     70  C   UNL A   1      38.400  33.970  36.713  1.00  0.00     0.041 A 
ATOM     71  F   UNL A   1      39.430  33.895  34.610  1.00  0.00    -0.206 F 
ATOM     72  C   UNL A   1      37.788  33.323  37.783  1.00  0.00     0.022 A 
BRANCH  69  73
ATOM     73  S   UNL A   1      36.783  31.069  39.079  1.00  0.00     0.124 S 
ATOM     74  O   UNL A   1      36.622  29.740  38.500  1.00  0.00    -0.237 OA
ATOM     75  O   UNL A   1      37.701  31.171  40.209  1.00  0.00    -0.237 OA
ATOM     76  O   UNL A   1      35.554  31.850  39.203  1.00  0.00    -0.744 OA
ENDBRANCH  69  73
ENDBRANCH  42  66
BRANCH  54  77
ATOM     77  C   UNL A   1      44.532  27.987  34.449  1.00  0.00     0.023 A 
ATOM     78  C   UNL A   1      44.613  26.880  35.312  1.00  0.00     0.031 A 
ATOM     79  C   UNL A   1      45.634  28.860  34.392  1.00  0.00     0.131 A 
ATOM     80  C   UNL A   1      45.741  26.713  36.131  1.00  0.00     0.055 A 
ATOM     81  C   UNL A   1      46.783  28.648  35.154  1.00  0.00     0.041 A 
ATOM     82  F   UNL A   1      45.612  29.936  33.589  1.00  0.00    -0.206 F 
ATOM     83  C   UNL A   1      46.833  27.578  36.043  1.00  0.00     0.022 A 
BRANCH  80  84
ATOM     84  S   UNL A   1      45.714  25.411  37.394  1.00  0.00     0.124 S 
ATOM     85  O   UNL A   1      44.326  24.966  37.341  1.00  0.00    -0.237 OA
ATOM     86  O   UNL A   1      46.705  24.466  36.889  1.00  0.00    -0.237 OA
ATOM     87  O   UNL A   1      46.095  26.113  38.618  1.00  0.00    -0.744 OA
ENDBRANCH  80  84
ENDBRANCH  54  77
ENDBRANCH  28  29
ENDBRANCH  20  23
ENDBRANCH   1  19
TORSDOF 14
ENDMDL
