MODEL 1
REMARK VINA RESULT:      -9.6      0.000      0.000
REMARK SMILES CC(=O)Oc1ccccc1SCCCCCC(=O)NCCCNC(=O)c1ccc(-c2c3nc(c(-c4cc(S(=O)(=O)[O-])ccc4F)c4ccc([nH]4)c(-c4cc(S(=O)(=O)[O-])ccc4F)c4nc(c(-c5cc(S(=O)(=O)[O-])ccc5F)c5ccc2[nH]5)C=C4)C=C3)cc1
REMARK SMILES IDX 17 1 18 2 19 3 16 5 15 6 14 7 13 8 12 9 11 10 10 11 5 12
REMARK SMILES IDX 6 13 7 14 9 15 8 16 4 17 2 18 1 19 3 20 20 21 21 22 22 23
REMARK SMILES IDX 23 24 24 25 25 27 26 28 27 29 88 30 28 31 87 32 29 33 30 34
REMARK SMILES IDX 31 35 81 36 32 37 86 38 80 39 82 40 33 41 85 42 79 43 78 44
REMARK SMILES IDX 34 46 66 47 46 48 65 49 47 50 50 51 64 52 83 53 48 54 49 55
REMARK SMILES IDX 63 57 84 58 51 59 35 60 36 61 44 62 37 63 43 64 45 65 42 66
REMARK SMILES IDX 38 67 39 68 40 69 41 70 67 71 68 72 76 73 69 74 75 75 77 76
REMARK SMILES IDX 74 77 70 78 71 79 72 80 73 81 52 82 53 83 61 84 54 85 60 86
REMARK SMILES IDX 62 87 59 88 55 89 56 90 57 91 58 92
REMARK H PARENT 19 4 23 26 82 45 50 56
REMARK Flexibility Score: inf
ROOT
ATOM      1  C   UNL A   1      30.560  26.492  26.071  1.00  0.00     0.219 C 
ATOM      2  O   UNL A   1      29.817  25.536  26.290  1.00  0.00    -0.275 OA
ATOM      3  N   UNL A   1      31.107  27.156  27.127  1.00  0.00    -0.356 N 
ATOM      4  H   UNL A   1      30.984  26.736  28.008  1.00  0.00     0.163 HD
ENDROOT
BRANCH   1   5
ATOM      5  C   UNL A   1      30.895  26.920  24.657  1.00  0.00     0.100 C 
BRANCH   5   6
ATOM      6  C   UNL A   1      30.663  25.836  23.608  1.00  0.00     0.010 C 
BRANCH   6   7
ATOM      7  C   UNL A   1      31.422  25.889  22.265  1.00  0.00     0.001 C 
BRANCH   7   8
ATOM      8  C   UNL A   1      32.917  26.234  22.295  1.00  0.00     0.011 C 
BRANCH   8   9
ATOM      9  C   UNL A   1      33.924  25.194  22.839  1.00  0.00     0.075 C 
BRANCH   9  10
ATOM     10  S   UNL A   1      33.608  23.377  22.829  1.00  0.00    -0.122 SA
BRANCH  10  11
ATOM     11  C   UNL A   1      33.175  23.081  24.518  1.00  0.00     0.050 A 
ATOM     12  C   UNL A   1      34.051  23.225  25.601  1.00  0.00     0.144 A 
ATOM     13  C   UNL A   1      33.583  23.087  26.919  1.00  0.00     0.048 A 
ATOM     14  C   UNL A   1      32.240  22.799  27.166  1.00  0.00     0.004 A 
ATOM     15  C   UNL A   1      31.838  22.728  24.788  1.00  0.00     0.019 A 
ATOM     16  C   UNL A   1      31.370  22.601  26.099  1.00  0.00     0.001 A 
BRANCH  12  17
ATOM     17  O   UNL A   1      35.445  23.574  25.547  1.00  0.00    -0.426 OA
BRANCH  17  18
ATOM     18  C   UNL A   1      36.639  22.867  25.755  1.00  0.00     0.308 C 
ATOM     19  C   UNL A   1      37.732  23.816  26.120  1.00  0.00     0.139 C 
ATOM     20  O   UNL A   1      36.871  21.684  25.558  1.00  0.00    -0.252 OA
ENDBRANCH  17  18
ENDBRANCH  12  17
ENDBRANCH  10  11
ENDBRANCH   9  10
ENDBRANCH   8   9
ENDBRANCH   7   8
ENDBRANCH   6   7
ENDBRANCH   5   6
ENDBRANCH   1   5
BRANCH   3  21
ATOM     21  C   UNL A   1      31.849  28.401  27.115  1.00  0.00     0.117 C 
BRANCH  21  22
ATOM     22  C   UNL A   1      33.326  28.123  26.895  1.00  0.00     0.042 C 
BRANCH  22  23
ATOM     23  C   UNL A   1      34.011  29.165  26.037  1.00  0.00     0.118 C 
BRANCH  23  24
ATOM     24  N   UNL A   1      33.838  30.498  26.587  1.00  0.00    -0.352 N 
ATOM     25  C   UNL A   1      34.457  31.108  27.652  1.00  0.00     0.251 C 
ATOM     26  H   UNL A   1      33.171  31.053  26.123  1.00  0.00     0.163 HD
ATOM     27  O   UNL A   1      33.943  32.121  28.123  1.00  0.00    -0.269 OA
BRANCH  25  28
ATOM     28  C   UNL A   1      35.706  30.565  28.246  1.00  0.00     0.039 A 
ATOM     29  C   UNL A   1      36.940  30.980  27.732  1.00  0.00     0.014 A 
ATOM     30  C   UNL A   1      35.682  29.597  29.250  1.00  0.00     0.014 A 
ATOM     31  C   UNL A   1      38.131  30.447  28.241  1.00  0.00     0.010 A 
ATOM     32  C   UNL A   1      36.864  29.170  29.847  1.00  0.00     0.010 A 
ATOM     33  C   UNL A   1      38.104  29.550  29.318  1.00  0.00    -0.014 A 
BRANCH  33  34
ATOM     34  C   UNL A   1      39.337  28.904  29.849  1.00  0.00     0.031 A 
ATOM     35  C   UNL A   1      39.997  29.478  31.080  1.00  0.00     0.074 A 
ATOM     36  C   UNL A   1      39.899  27.864  29.203  1.00  0.00     0.049 A 
ATOM     37  N   UNL A   1      41.155  29.191  31.616  1.00  0.00    -0.248 NA
ATOM     38  C   UNL A   1      39.275  30.560  31.769  1.00  0.00     0.031 C 
ATOM     39  C   UNL A   1      39.375  27.235  27.989  1.00  0.00     0.029 A 
ATOM     40  N   UNL A   1      41.046  27.159  29.470  1.00  0.00    -0.354 N 
ATOM     41  C   UNL A   1      41.316  30.083  32.673  1.00  0.00     0.074 A 
ATOM     42  C   UNL A   1      40.170  30.966  32.653  1.00  0.00     0.031 C 
ATOM     43  C   UNL A   1      40.182  26.222  27.634  1.00  0.00     0.029 A 
ATOM     44  C   UNL A   1      41.309  26.162  28.560  1.00  0.00     0.049 A 
ATOM     45  H   UNL A   1      41.626  27.349  30.244  1.00  0.00     0.167 HD
ATOM     46  C   UNL A   1      42.310  30.144  33.595  1.00  0.00     0.034 A 
ATOM     47  C   UNL A   1      42.349  25.309  28.473  1.00  0.00     0.034 A 
ATOM     48  C   UNL A   1      43.417  29.222  33.628  1.00  0.00     0.049 A 
ATOM     49  C   UNL A   1      43.442  25.387  29.510  1.00  0.00     0.074 A 
ATOM     50  C   UNL A   1      44.450  29.145  34.546  1.00  0.00     0.029 A 
ATOM     51  N   UNL A   1      43.631  28.208  32.704  1.00  0.00    -0.354 N 
ATOM     52  N   UNL A   1      43.567  26.220  30.518  1.00  0.00    -0.248 NA
ATOM     53  C   UNL A   1      44.526  24.402  29.405  1.00  0.00     0.031 C 
ATOM     54  C   UNL A   1      45.319  28.126  34.143  1.00  0.00     0.029 A 
ATOM     55  C   UNL A   1      44.790  27.514  33.018  1.00  0.00     0.049 A 
ATOM     56  H   UNL A   1      43.046  28.010  31.937  1.00  0.00     0.167 HD
ATOM     57  C   UNL A   1      44.726  25.836  31.186  1.00  0.00     0.074 A 
ATOM     58  C   UNL A   1      45.255  24.691  30.473  1.00  0.00     0.031 C 
ATOM     59  C   UNL A   1      45.299  26.374  32.294  1.00  0.00     0.034 A 
BRANCH  46  60
ATOM     60  C   UNL A   1      42.244  31.254  34.620  1.00  0.00     0.023 A 
ATOM     61  C   UNL A   1      42.791  32.526  34.373  1.00  0.00     0.031 A 
ATOM     62  C   UNL A   1      41.666  31.025  35.881  1.00  0.00     0.131 A 
ATOM     63  C   UNL A   1      42.834  33.483  35.397  1.00  0.00     0.055 A 
ATOM     64  C   UNL A   1      41.628  32.016  36.866  1.00  0.00     0.041 A 
ATOM     65  F   UNL A   1      41.144  29.827  36.188  1.00  0.00    -0.206 F 
ATOM     66  C   UNL A   1      42.232  33.248  36.634  1.00  0.00     0.022 A 
BRANCH  63  67
ATOM     67  S   UNL A   1      43.834  34.975  35.143  1.00  0.00     0.124 S 
ATOM     68  O   UNL A   1      45.190  34.438  35.221  1.00  0.00    -0.237 OA
ATOM     69  O   UNL A   1      43.401  35.425  33.825  1.00  0.00    -0.237 OA
ATOM     70  O   UNL A   1      43.449  35.841  36.256  1.00  0.00    -0.744 OA
ENDBRANCH  63  67
ENDBRANCH  46  60
BRANCH  47  71
ATOM     71  C   UNL A   1      42.416  24.310  27.367  1.00  0.00     0.023 A 
ATOM     72  C   UNL A   1      41.730  23.089  27.458  1.00  0.00     0.031 A 
ATOM     73  C   UNL A   1      43.192  24.545  26.219  1.00  0.00     0.131 A 
ATOM     74  C   UNL A   1      41.869  22.130  26.442  1.00  0.00     0.055 A 
ATOM     75  C   UNL A   1      43.286  23.610  25.186  1.00  0.00     0.041 A 
ATOM     76  F   UNL A   1      43.863  25.700  26.078  1.00  0.00    -0.206 F 
ATOM     77  C   UNL A   1      42.632  22.387  25.301  1.00  0.00     0.022 A 
BRANCH  74  78
ATOM     78  S   UNL A   1      41.103  20.502  26.674  1.00  0.00     0.124 S 
ATOM     79  O   UNL A   1      39.847  20.659  25.950  1.00  0.00    -0.237 OA
ATOM     80  O   UNL A   1      42.089  19.615  26.068  1.00  0.00    -0.237 OA
ATOM     81  O   UNL A   1      40.976  20.391  28.126  1.00  0.00    -0.744 OA
ENDBRANCH  74  78
ENDBRANCH  47  71
BRANCH  59  82
ATOM     82  C   UNL A   1      46.529  25.688  32.833  1.00  0.00     0.023 A 
ATOM     83  C   UNL A   1      46.449  24.663  33.790  1.00  0.00     0.031 A 
ATOM     84  C   UNL A   1      47.803  26.071  32.375  1.00  0.00     0.131 A 
ATOM     85  C   UNL A   1      47.624  24.088  34.297  1.00  0.00     0.055 A 
ATOM     86  C   UNL A   1      48.966  25.456  32.840  1.00  0.00     0.041 A 
ATOM     87  F   UNL A   1      47.936  27.047  31.463  1.00  0.00    -0.206 F 
ATOM     88  C   UNL A   1      48.881  24.467  33.815  1.00  0.00     0.022 A 
BRANCH  85  89
ATOM     89  S   UNL A   1      47.494  22.895  35.656  1.00  0.00     0.124 S 
ATOM     90  O   UNL A   1      46.064  22.917  35.944  1.00  0.00    -0.237 OA
ATOM     91  O   UNL A   1      48.003  21.671  35.048  1.00  0.00    -0.237 OA
ATOM     92  O   UNL A   1      48.346  23.468  36.697  1.00  0.00    -0.744 OA
ENDBRANCH  85  89
ENDBRANCH  59  82
ENDBRANCH  33  34
ENDBRANCH  25  28
ENDBRANCH  23  24
ENDBRANCH  22  23
ENDBRANCH  21  22
ENDBRANCH   3  21
TORSDOF 21
ENDMDL
MODEL 2
REMARK VINA RESULT:      -9.6      3.579      8.512
REMARK SMILES CC(=O)Oc1ccccc1SCCCCCC(=O)NCCCNC(=O)c1ccc(-c2c3nc(c(-c4cc(S(=O)(=O)[O-])ccc4F)c4ccc([nH]4)c(-c4cc(S(=O)(=O)[O-])ccc4F)c4nc(c(-c5cc(S(=O)(=O)[O-])ccc5F)c5ccc2[nH]5)C=C4)C=C3)cc1
REMARK SMILES IDX 17 1 18 2 19 3 16 5 15 6 14 7 13 8 12 9 11 10 10 11 5 12
REMARK SMILES IDX 6 13 7 14 9 15 8 16 4 17 2 18 1 19 3 20 20 21 21 22 22 23
REMARK SMILES IDX 23 24 24 25 25 27 26 28 27 29 88 30 28 31 87 32 29 33 30 34
REMARK SMILES IDX 31 35 81 36 32 37 86 38 80 39 82 40 33 41 85 42 79 43 78 44
REMARK SMILES IDX 34 46 66 47 46 48 65 49 47 50 50 51 64 52 83 53 48 54 49 55
REMARK SMILES IDX 63 57 84 58 51 59 35 60 36 61 44 62 37 63 43 64 45 65 42 66
REMARK SMILES IDX 38 67 39 68 40 69 41 70 67 71 68 72 76 73 69 74 75 75 77 76
REMARK SMILES IDX 74 77 70 78 71 79 72 80 73 81 52 82 53 83 61 84 54 85 60 86
REMARK SMILES IDX 62 87 59 88 55 89 56 90 57 91 58 92
REMARK H PARENT 19 4 23 26 82 45 50 56
REMARK Flexibility Score: inf
ROOT
ATOM      1  C   UNL A   1      32.003  28.296  27.225  1.00  0.00     0.219 C 
ATOM      2  O   UNL A   1      31.176  27.906  28.049  1.00  0.00    -0.275 OA
ATOM      3  N   UNL A   1      32.976  29.159  27.628  1.00  0.00    -0.356 N 
ATOM      4  H   UNL A   1      33.042  29.309  28.598  1.00  0.00     0.163 HD
ENDROOT
BRANCH   1   5
ATOM      5  C   UNL A   1      31.973  27.812  25.790  1.00  0.00     0.100 C 
BRANCH   5   6
ATOM      6  C   UNL A   1      32.405  26.358  25.615  1.00  0.00     0.010 C 
BRANCH   6   7
ATOM      7  C   UNL A   1      31.351  25.230  25.672  1.00  0.00     0.001 C 
BRANCH   7   8
ATOM      8  C   UNL A   1      31.625  24.034  26.592  1.00  0.00     0.011 C 
BRANCH   8   9
ATOM      9  C   UNL A   1      32.124  22.705  25.979  1.00  0.00     0.075 C 
BRANCH   9  10
ATOM     10  S   UNL A   1      32.648  22.535  24.219  1.00  0.00    -0.122 SA
BRANCH  10  11
ATOM     11  C   UNL A   1      34.391  22.286  24.389  1.00  0.00     0.050 A 
ATOM     12  C   UNL A   1      34.987  21.085  24.790  1.00  0.00     0.144 A 
ATOM     13  C   UNL A   1      36.386  20.945  24.777  1.00  0.00     0.048 A 
ATOM     14  C   UNL A   1      37.199  22.003  24.370  1.00  0.00     0.004 A 
ATOM     15  C   UNL A   1      35.232  23.362  24.042  1.00  0.00     0.019 A 
ATOM     16  C   UNL A   1      36.623  23.219  24.019  1.00  0.00     0.001 A 
BRANCH  12  17
ATOM     17  O   UNL A   1      34.318  19.875  25.186  1.00  0.00    -0.426 OA
BRANCH  17  18
ATOM     18  C   UNL A   1      33.979  18.684  24.528  1.00  0.00     0.308 C 
ATOM     19  C   UNL A   1      32.497  18.596  24.374  1.00  0.00     0.139 C 
ATOM     20  O   UNL A   1      34.702  17.750  24.218  1.00  0.00    -0.252 OA
ENDBRANCH  17  18
ENDBRANCH  12  17
ENDBRANCH  10  11
ENDBRANCH   9  10
ENDBRANCH   8   9
ENDBRANCH   7   8
ENDBRANCH   6   7
ENDBRANCH   5   6
ENDBRANCH   1   5
BRANCH   3  21
ATOM     21  C   UNL A   1      33.927  29.883  26.808  1.00  0.00     0.117 C 
BRANCH  21  22
ATOM     22  C   UNL A   1      33.916  31.356  27.180  1.00  0.00     0.042 C 
BRANCH  22  23
ATOM     23  C   UNL A   1      32.536  31.877  27.520  1.00  0.00     0.118 C 
BRANCH  23  24
ATOM     24  N   UNL A   1      32.523  33.328  27.597  1.00  0.00    -0.352 N 
ATOM     25  C   UNL A   1      33.212  34.181  28.427  1.00  0.00     0.251 C 
ATOM     26  H   UNL A   1      31.926  33.770  26.953  1.00  0.00     0.163 HD
ATOM     27  O   UNL A   1      32.822  35.343  28.521  1.00  0.00    -0.269 OA
BRANCH  25  28
ATOM     28  C   UNL A   1      34.388  33.726  29.213  1.00  0.00     0.039 A 
ATOM     29  C   UNL A   1      35.663  34.177  28.851  1.00  0.00     0.014 A 
ATOM     30  C   UNL A   1      34.267  32.804  30.252  1.00  0.00     0.014 A 
ATOM     31  C   UNL A   1      36.793  33.726  29.545  1.00  0.00     0.010 A 
ATOM     32  C   UNL A   1      35.371  32.463  31.026  1.00  0.00     0.010 A 
ATOM     33  C   UNL A   1      36.656  32.879  30.653  1.00  0.00    -0.014 A 
BRANCH  33  34
ATOM     34  C   UNL A   1      37.829  32.318  31.378  1.00  0.00     0.031 A 
ATOM     35  C   UNL A   1      38.614  31.191  30.748  1.00  0.00     0.074 A 
ATOM     36  C   UNL A   1      38.148  32.757  32.611  1.00  0.00     0.049 A 
ATOM     37  N   UNL A   1      39.555  30.442  31.261  1.00  0.00    -0.248 NA
ATOM     38  C   UNL A   1      38.250  30.828  29.368  1.00  0.00     0.031 C 
ATOM     39  C   UNL A   1      37.452  33.819  33.340  1.00  0.00     0.029 A 
ATOM     40  N   UNL A   1      39.134  32.354  33.477  1.00  0.00    -0.354 N 
ATOM     41  C   UNL A   1      39.861  29.496  30.285  1.00  0.00     0.074 A 
ATOM     42  C   UNL A   1      38.954  29.725  29.182  1.00  0.00     0.031 C 
ATOM     43  C   UNL A   1      38.050  34.001  34.529  1.00  0.00     0.029 A 
ATOM     44  C   UNL A   1      39.135  33.036  34.672  1.00  0.00     0.049 A 
ATOM     45  H   UNL A   1      39.781  31.643  33.262  1.00  0.00     0.167 HD
ATOM     46  C   UNL A   1      40.829  28.545  30.292  1.00  0.00     0.034 A 
ATOM     47  C   UNL A   1      39.911  32.886  35.764  1.00  0.00     0.034 A 
ATOM     48  C   UNL A   1      41.757  28.367  31.381  1.00  0.00     0.049 A 
ATOM     49  C   UNL A   1      40.986  31.827  35.751  1.00  0.00     0.074 A 
ATOM     50  C   UNL A   1      42.815  27.482  31.477  1.00  0.00     0.029 A 
ATOM     51  N   UNL A   1      41.743  29.098  32.562  1.00  0.00    -0.354 N 
ATOM     52  N   UNL A   1      41.279  30.958  34.812  1.00  0.00    -0.248 NA
ATOM     53  C   UNL A   1      41.842  31.739  36.941  1.00  0.00     0.031 C 
ATOM     54  C   UNL A   1      43.402  27.635  32.738  1.00  0.00     0.029 A 
ATOM     55  C   UNL A   1      42.760  28.670  33.400  1.00  0.00     0.049 A 
ATOM     56  H   UNL A   1      41.103  29.816  32.773  1.00  0.00     0.167 HD
ATOM     57  C   UNL A   1      42.376  30.243  35.285  1.00  0.00     0.074 A 
ATOM     58  C   UNL A   1      42.697  30.790  36.587  1.00  0.00     0.031 C 
ATOM     59  C   UNL A   1      43.062  29.231  34.695  1.00  0.00     0.034 A 
BRANCH  46  60
ATOM     60  C   UNL A   1      40.910  27.623  29.097  1.00  0.00     0.023 A 
ATOM     61  C   UNL A   1      41.859  27.814  28.076  1.00  0.00     0.031 A 
ATOM     62  C   UNL A   1      39.998  26.563  28.951  1.00  0.00     0.131 A 
ATOM     63  C   UNL A   1      41.814  27.024  26.918  1.00  0.00     0.055 A 
ATOM     64  C   UNL A   1      40.019  25.719  27.837  1.00  0.00     0.041 A 
ATOM     65  F   UNL A   1      39.056  26.339  29.880  1.00  0.00    -0.206 F 
ATOM     66  C   UNL A   1      40.918  25.959  26.803  1.00  0.00     0.022 A 
BRANCH  63  67
ATOM     67  S   UNL A   1      42.830  27.514  25.498  1.00  0.00     0.124 S 
ATOM     68  O   UNL A   1      44.056  27.962  26.154  1.00  0.00    -0.237 OA
ATOM     69  O   UNL A   1      42.930  26.275  24.737  1.00  0.00    -0.237 OA
ATOM     70  O   UNL A   1      42.048  28.575  24.865  1.00  0.00    -0.744 OA
ENDBRANCH  63  67
ENDBRANCH  46  60
BRANCH  47  71
ATOM     71  C   UNL A   1      39.706  33.751  36.960  1.00  0.00     0.023 A 
ATOM     72  C   UNL A   1      39.062  33.256  38.106  1.00  0.00     0.031 A 
ATOM     73  C   UNL A   1      40.117  35.096  36.966  1.00  0.00     0.131 A 
ATOM     74  C   UNL A   1      38.808  34.110  39.191  1.00  0.00     0.055 A 
ATOM     75  C   UNL A   1      39.910  35.927  38.069  1.00  0.00     0.041 A 
ATOM     76  F   UNL A   1      40.744  35.619  35.900  1.00  0.00    -0.206 F 
ATOM     77  C   UNL A   1      39.239  35.438  39.185  1.00  0.00     0.022 A 
BRANCH  74  78
ATOM     78  S   UNL A   1      37.829  33.478  40.581  1.00  0.00     0.124 S 
ATOM     79  O   UNL A   1      37.627  34.684  41.375  1.00  0.00    -0.237 OA
ATOM     80  O   UNL A   1      36.649  32.950  39.904  1.00  0.00    -0.237 OA
ATOM     81  O   UNL A   1      38.702  32.473  41.182  1.00  0.00    -0.744 OA
ENDBRANCH  74  78
ENDBRANCH  47  71
BRANCH  59  82
ATOM     82  C   UNL A   1      44.265  28.695  35.432  1.00  0.00     0.023 A 
ATOM     83  C   UNL A   1      44.170  27.610  36.320  1.00  0.00     0.031 A 
ATOM     84  C   UNL A   1      45.527  29.285  35.236  1.00  0.00     0.131 A 
ATOM     85  C   UNL A   1      45.307  27.179  37.018  1.00  0.00     0.055 A 
ATOM     86  C   UNL A   1      46.666  28.814  35.890  1.00  0.00     0.041 A 
ATOM     87  F   UNL A   1      45.673  30.325  34.400  1.00  0.00    -0.206 F 
ATOM     88  C   UNL A   1      46.558  27.764  36.796  1.00  0.00     0.022 A 
BRANCH  85  89
ATOM     89  S   UNL A   1      45.117  25.897  38.286  1.00  0.00     0.124 S 
ATOM     90  O   UNL A   1      46.409  25.223  38.234  1.00  0.00    -0.237 OA
ATOM     91  O   UNL A   1      44.855  26.682  39.488  1.00  0.00    -0.237 OA
ATOM     92  O   UNL A   1      43.984  25.106  37.806  1.00  0.00    -0.744 OA
ENDBRANCH  85  89
ENDBRANCH  59  82
ENDBRANCH  33  34
ENDBRANCH  25  28
ENDBRANCH  23  24
ENDBRANCH  22  23
ENDBRANCH  21  22
ENDBRANCH   3  21
TORSDOF 21
ENDMDL
MODEL 3
REMARK VINA RESULT:      -9.4      2.864      3.913
REMARK SMILES CC(=O)Oc1ccccc1SCCCCCC(=O)NCCCNC(=O)c1ccc(-c2c3nc(c(-c4cc(S(=O)(=O)[O-])ccc4F)c4ccc([nH]4)c(-c4cc(S(=O)(=O)[O-])ccc4F)c4nc(c(-c5cc(S(=O)(=O)[O-])ccc5F)c5ccc2[nH]5)C=C4)C=C3)cc1
REMARK SMILES IDX 17 1 18 2 19 3 16 5 15 6 14 7 13 8 12 9 11 10 10 11 5 12
REMARK SMILES IDX 6 13 7 14 9 15 8 16 4 17 2 18 1 19 3 20 20 21 21 22 22 23
REMARK SMILES IDX 23 24 24 25 25 27 26 28 27 29 88 30 28 31 87 32 29 33 30 34
REMARK SMILES IDX 31 35 81 36 32 37 86 38 80 39 82 40 33 41 85 42 79 43 78 44
REMARK SMILES IDX 34 46 66 47 46 48 65 49 47 50 50 51 64 52 83 53 48 54 49 55
REMARK SMILES IDX 63 57 84 58 51 59 35 60 36 61 44 62 37 63 43 64 45 65 42 66
REMARK SMILES IDX 38 67 39 68 40 69 41 70 67 71 68 72 76 73 69 74 75 75 77 76
REMARK SMILES IDX 74 77 70 78 71 79 72 80 73 81 52 82 53 83 61 84 54 85 60 86
REMARK SMILES IDX 62 87 59 88 55 89 56 90 57 91 58 92
REMARK H PARENT 19 4 23 26 82 45 50 56
REMARK Flexibility Score: inf
ROOT
ATOM      1  C   UNL A   1      33.727  29.166  27.195  1.00  0.00     0.219 C 
ATOM      2  O   UNL A   1      34.925  29.039  27.447  1.00  0.00    -0.275 OA
ATOM      3  N   UNL A   1      33.220  30.419  27.029  1.00  0.00    -0.356 N 
ATOM      4  H   UNL A   1      33.880  31.147  26.982  1.00  0.00     0.163 HD
ENDROOT
BRANCH   1   5
ATOM      5  C   UNL A   1      32.823  27.961  27.039  1.00  0.00     0.100 C 
BRANCH   5   6
ATOM      6  C   UNL A   1      32.999  27.218  25.717  1.00  0.00     0.010 C 
BRANCH   6   7
ATOM      7  C   UNL A   1      32.941  25.676  25.686  1.00  0.00     0.001 C 
BRANCH   7   8
ATOM      8  C   UNL A   1      31.627  25.011  25.255  1.00  0.00     0.011 C 
BRANCH   8   9
ATOM      9  C   UNL A   1      31.622  23.510  24.887  1.00  0.00     0.075 C 
BRANCH   9  10
ATOM     10  S   UNL A   1      32.408  22.839  23.359  1.00  0.00    -0.122 SA
BRANCH  10  11
ATOM     11  C   UNL A   1      34.010  22.381  23.954  1.00  0.00     0.050 A 
ATOM     12  C   UNL A   1      34.264  21.293  24.797  1.00  0.00     0.144 A 
ATOM     13  C   UNL A   1      35.584  20.934  25.118  1.00  0.00     0.048 A 
ATOM     14  C   UNL A   1      36.660  21.660  24.605  1.00  0.00     0.004 A 
ATOM     15  C   UNL A   1      35.107  23.139  23.498  1.00  0.00     0.019 A 
ATOM     16  C   UNL A   1      36.421  22.774  23.809  1.00  0.00     0.001 A 
BRANCH  12  17
ATOM     17  O   UNL A   1      33.296  20.399  25.374  1.00  0.00    -0.426 OA
BRANCH  17  18
ATOM     18  C   UNL A   1      32.817  19.125  25.034  1.00  0.00     0.308 C 
ATOM     19  C   UNL A   1      32.551  19.060  23.567  1.00  0.00     0.139 C 
ATOM     20  O   UNL A   1      32.506  18.204  25.773  1.00  0.00    -0.252 OA
ENDBRANCH  17  18
ENDBRANCH  12  17
ENDBRANCH  10  11
ENDBRANCH   9  10
ENDBRANCH   8   9
ENDBRANCH   7   8
ENDBRANCH   6   7
ENDBRANCH   5   6
ENDBRANCH   1   5
BRANCH   3  21
ATOM     21  C   UNL A   1      31.830  30.814  26.912  1.00  0.00     0.117 C 
BRANCH  21  22
ATOM     22  C   UNL A   1      31.723  32.330  26.878  1.00  0.00     0.042 C 
BRANCH  22  23
ATOM     23  C   UNL A   1      33.032  33.029  27.177  1.00  0.00     0.118 C 
BRANCH  23  24
ATOM     24  N   UNL A   1      32.828  34.197  28.015  1.00  0.00    -0.352 N 
ATOM     25  C   UNL A   1      33.360  34.516  29.242  1.00  0.00     0.251 C 
ATOM     26  H   UNL A   1      32.210  34.867  27.646  1.00  0.00     0.163 HD
ATOM     27  O   UNL A   1      32.818  35.404  29.899  1.00  0.00    -0.269 OA
BRANCH  25  28
ATOM     28  C   UNL A   1      34.546  33.808  29.787  1.00  0.00     0.039 A 
ATOM     29  C   UNL A   1      35.824  34.203  29.373  1.00  0.00     0.014 A 
ATOM     30  C   UNL A   1      34.421  32.712  30.641  1.00  0.00     0.014 A 
ATOM     31  C   UNL A   1      36.957  33.521  29.835  1.00  0.00     0.010 A 
ATOM     32  C   UNL A   1      35.548  32.123  31.204  1.00  0.00     0.010 A 
ATOM     33  C   UNL A   1      36.830  32.485  30.771  1.00  0.00    -0.014 A 
BRANCH  33  34
ATOM     34  C   UNL A   1      37.996  31.685  31.238  1.00  0.00     0.031 A 
ATOM     35  C   UNL A   1      38.610  31.995  32.583  1.00  0.00     0.074 A 
ATOM     36  C   UNL A   1      38.545  30.744  30.445  1.00  0.00     0.049 A 
ATOM     37  N   UNL A   1      39.719  31.551  33.116  1.00  0.00    -0.248 NA
ATOM     38  C   UNL A   1      37.901  32.979  33.418  1.00  0.00     0.031 C 
ATOM     39  C   UNL A   1      38.064  30.370  29.114  1.00  0.00     0.029 A 
ATOM     40  N   UNL A   1      39.638  29.938  30.639  1.00  0.00    -0.354 N 
ATOM     41  C   UNL A   1      39.859  32.233  34.323  1.00  0.00     0.074 A 
ATOM     42  C   UNL A   1      38.760  33.171  34.403  1.00  0.00     0.031 C 
ATOM     43  C   UNL A   1      38.841  29.391  28.625  1.00  0.00     0.029 A 
ATOM     44  C   UNL A   1      39.907  29.103  29.579  1.00  0.00     0.049 A 
ATOM     45  H   UNL A   1      40.181  29.955  31.462  1.00  0.00     0.167 HD
ATOM     46  C   UNL A   1      40.798  32.073  35.289  1.00  0.00     0.034 A 
ATOM     47  C   UNL A   1      40.908  28.220  29.393  1.00  0.00     0.034 A 
ATOM     48  C   UNL A   1      41.856  31.097  35.212  1.00  0.00     0.049 A 
ATOM     49  C   UNL A   1      41.939  28.051  30.480  1.00  0.00     0.074 A 
ATOM     50  C   UNL A   1      42.827  30.800  36.151  1.00  0.00     0.029 A 
ATOM     51  N   UNL A   1      42.075  30.250  34.133  1.00  0.00    -0.354 N 
ATOM     52  N   UNL A   1      42.045  28.685  31.626  1.00  0.00    -0.248 NA
ATOM     53  C   UNL A   1      42.979  27.039  30.256  1.00  0.00     0.031 C 
ATOM     54  C   UNL A   1      43.668  29.819  35.617  1.00  0.00     0.029 A 
ATOM     55  C   UNL A   1      43.178  29.446  34.375  1.00  0.00     0.049 A 
ATOM     56  H   UNL A   1      41.528  30.225  33.315  1.00  0.00     0.167 HD
ATOM     57  C   UNL A   1      43.142  28.123  32.272  1.00  0.00     0.074 A 
ATOM     58  C   UNL A   1      43.657  27.093  31.393  1.00  0.00     0.031 C 
ATOM     59  C   UNL A   1      43.674  28.424  33.485  1.00  0.00     0.034 A 
BRANCH  46  60
ATOM     60  C   UNL A   1      40.725  32.987  36.491  1.00  0.00     0.023 A 
ATOM     61  C   UNL A   1      40.106  32.588  37.690  1.00  0.00     0.031 A 
ATOM     62  C   UNL A   1      41.242  34.293  36.426  1.00  0.00     0.131 A 
ATOM     63  C   UNL A   1      39.935  33.510  38.733  1.00  0.00     0.055 A 
ATOM     64  C   UNL A   1      41.152  35.176  37.505  1.00  0.00     0.041 A 
ATOM     65  F   UNL A   1      41.828  34.742  35.306  1.00  0.00    -0.206 F 
ATOM     66  C   UNL A   1      40.478  34.794  38.661  1.00  0.00     0.022 A 
BRANCH  63  67
ATOM     67  S   UNL A   1      38.850  33.058  40.115  1.00  0.00     0.124 S 
ATOM     68  O   UNL A   1      39.819  32.654  41.130  1.00  0.00    -0.237 OA
ATOM     69  O   UNL A   1      38.134  34.301  40.374  1.00  0.00    -0.237 OA
ATOM     70  O   UNL A   1      38.037  31.971  39.572  1.00  0.00    -0.744 OA
ENDBRANCH  63  67
ENDBRANCH  46  60
BRANCH  47  71
ATOM     71  C   UNL A   1      40.992  27.429  28.132  1.00  0.00     0.023 A 
ATOM     72  C   UNL A   1      40.656  26.066  28.112  1.00  0.00     0.031 A 
ATOM     73  C   UNL A   1      41.441  28.013  26.934  1.00  0.00     0.131 A 
ATOM     74  C   UNL A   1      40.817  25.321  26.933  1.00  0.00     0.055 A 
ATOM     75  C   UNL A   1      41.550  27.281  25.750  1.00  0.00     0.041 A 
ATOM     76  F   UNL A   1      41.769  29.314  26.895  1.00  0.00    -0.206 F 
ATOM     77  C   UNL A   1      41.249  25.922  25.749  1.00  0.00     0.022 A 
BRANCH  74  78
ATOM     78  S   UNL A   1      40.531  23.531  26.992  1.00  0.00     0.124 S 
ATOM     79  O   UNL A   1      41.471  23.047  25.988  1.00  0.00    -0.237 OA
ATOM     80  O   UNL A   1      40.856  23.219  28.380  1.00  0.00    -0.237 OA
ATOM     81  O   UNL A   1      39.119  23.401  26.640  1.00  0.00    -0.744 OA
ENDBRANCH  74  78
ENDBRANCH  47  71
BRANCH  59  82
ATOM     82  C   UNL A   1      44.835  27.583  33.953  1.00  0.00     0.023 A 
ATOM     83  C   UNL A   1      44.647  26.363  34.624  1.00  0.00     0.031 A 
ATOM     84  C   UNL A   1      46.154  28.016  33.720  1.00  0.00     0.131 A 
ATOM     85  C   UNL A   1      45.759  25.641  35.083  1.00  0.00     0.055 A 
ATOM     86  C   UNL A   1      47.256  27.265  34.127  1.00  0.00     0.041 A 
ATOM     87  F   UNL A   1      46.389  29.175  33.085  1.00  0.00    -0.206 F 
ATOM     88  C   UNL A   1      47.062  26.076  34.824  1.00  0.00     0.022 A 
BRANCH  85  89
ATOM     89  S   UNL A   1      45.479  24.164  36.098  1.00  0.00     0.124 S 
ATOM     90  O   UNL A   1      44.204  23.678  35.583  1.00  0.00    -0.237 OA
ATOM     91  O   UNL A   1      46.646  23.346  35.788  1.00  0.00    -0.237 OA
ATOM     92  O   UNL A   1      45.438  24.689  37.462  1.00  0.00    -0.744 OA
ENDBRANCH  85  89
ENDBRANCH  59  82
ENDBRANCH  33  34
ENDBRANCH  25  28
ENDBRANCH  23  24
ENDBRANCH  22  23
ENDBRANCH  21  22
ENDBRANCH   3  21
TORSDOF 21
ENDMDL
