MODEL 1
REMARK VINA RESULT:     -11.2      0.000      0.000
REMARK SMILES O=C(CCNC(=O)N[C@@H]1CCOC1)NCCCNC(=O)c1ccc(-c2c3nc(c(-c4cc(S(=O)(=O)[O-])ccc4F)c4ccc([nH]4)c(-c4cc(S(=O)(=O)[O-])ccc4F)c4nc(c(-c5cc(S(=O)(=O)[O-])ccc5F)c5ccc2[nH]5)C=C4)C=C3)cc1
REMARK SMILES IDX 16 1 15 2 14 3 1 4 2 5 3 7 4 8 5 9 6 10 7 12 8 13 9 15 10 16
REMARK SMILES IDX 13 17 11 18 12 19 17 20 18 21 19 22 20 24 21 25 22 26 83 27
REMARK SMILES IDX 23 28 82 29 24 30 25 31 26 32 76 33 27 34 81 35 75 36 77 37
REMARK SMILES IDX 28 38 80 39 74 40 73 41 29 43 61 44 41 45 60 46 42 47 45 48
REMARK SMILES IDX 59 49 78 50 43 51 44 52 58 54 79 55 46 56 30 57 31 58 39 59
REMARK SMILES IDX 32 60 38 61 40 62 37 63 33 64 34 65 35 66 36 67 62 68 63 69
REMARK SMILES IDX 71 70 64 71 70 72 72 73 69 74 65 75 66 76 67 77 68 78 47 79
REMARK SMILES IDX 48 80 56 81 49 82 55 83 57 84 54 85 50 86 51 87 52 88 53 89
REMARK H PARENT 14 6 5 11 8 14 18 23 77 42 45 53
REMARK Flexibility Score: inf
ROOT
ATOM      1  C   UNL A   1      31.916  28.787  27.247  1.00  0.00     0.042 C 
ENDROOT
BRANCH   1   2
ATOM      2  C   UNL A   1      31.664  27.392  26.689  1.00  0.00     0.117 C 
BRANCH   2   3
ATOM      3  N   UNL A   1      31.605  27.384  25.242  1.00  0.00    -0.356 N 
ATOM      4  O   UNL A   1      29.577  26.306  25.055  1.00  0.00    -0.275 OA
ATOM      5  C   UNL A   1      30.556  26.842  24.542  1.00  0.00     0.221 C 
ATOM      6  H   UNL A   1      32.350  27.784  24.738  1.00  0.00     0.163 HD
BRANCH   5   7
ATOM      7  C   UNL A   1      30.719  26.940  23.047  1.00  0.00     0.121 C 
BRANCH   7   8
ATOM      8  C   UNL A   1      29.784  27.980  22.441  1.00  0.00     0.127 C 
BRANCH   8   9
ATOM      9  N   UNL A   1      28.487  28.075  23.099  1.00  0.00    -0.338 N 
ATOM     10  C   UNL A   1      27.424  28.883  22.972  1.00  0.00     0.315 C 
ATOM     11  H   UNL A   1      28.362  27.389  23.795  1.00  0.00     0.165 HD
ATOM     12  O   UNL A   1      26.369  28.523  23.494  1.00  0.00    -0.249 OA
ATOM     13  N   UNL A   1      27.442  30.059  22.330  1.00  0.00    -0.333 N 
ATOM     14  H   UNL A   1      26.548  30.456  22.215  1.00  0.00     0.165 HD
BRANCH  13  15
ATOM     15  C   UNL A   1      28.514  30.868  21.769  1.00  0.00     0.112 C 
ATOM     16  C   UNL A   1      29.176  31.711  22.833  1.00  0.00     0.056 C 
ATOM     17  C   UNL A   1      28.024  31.914  20.765  1.00  0.00     0.185 C 
ATOM     18  C   UNL A   1      28.470  33.042  22.749  1.00  0.00     0.162 C 
ATOM     19  O   UNL A   1      28.007  33.194  21.409  1.00  0.00    -0.379 OA
ENDBRANCH  13  15
ENDBRANCH   8   9
ENDBRANCH   7   8
ENDBRANCH   5   7
ENDBRANCH   2   3
ENDBRANCH   1   2
BRANCH   1  20
ATOM     20  C   UNL A   1      33.029  29.563  26.547  1.00  0.00     0.118 C 
BRANCH  20  21
ATOM     21  N   UNL A   1      33.002  30.986  26.843  1.00  0.00    -0.352 N 
ATOM     22  C   UNL A   1      33.833  31.749  27.625  1.00  0.00     0.251 C 
ATOM     23  H   UNL A   1      32.268  31.483  26.413  1.00  0.00     0.163 HD
ATOM     24  O   UNL A   1      33.500  32.902  27.889  1.00  0.00    -0.269 OA
BRANCH  22  25
ATOM     25  C   UNL A   1      35.095  31.195  28.165  1.00  0.00     0.039 A 
ATOM     26  C   UNL A   1      36.242  31.993  28.133  1.00  0.00     0.014 A 
ATOM     27  C   UNL A   1      35.171  29.894  28.668  1.00  0.00     0.014 A 
ATOM     28  C   UNL A   1      37.443  31.506  28.652  1.00  0.00     0.010 A 
ATOM     29  C   UNL A   1      36.346  29.443  29.267  1.00  0.00     0.010 A 
ATOM     30  C   UNL A   1      37.501  30.239  29.255  1.00  0.00    -0.014 A 
BRANCH  30  31
ATOM     31  C   UNL A   1      38.768  29.736  29.853  1.00  0.00     0.031 A 
ATOM     32  C   UNL A   1      39.240  30.253  31.187  1.00  0.00     0.074 A 
ATOM     33  C   UNL A   1      39.511  28.833  29.180  1.00  0.00     0.049 A 
ATOM     34  N   UNL A   1      40.322  29.950  31.858  1.00  0.00    -0.248 NA
ATOM     35  C   UNL A   1      38.395  31.265  31.840  1.00  0.00     0.031 C 
ATOM     36  C   UNL A   1      39.184  28.287  27.861  1.00  0.00     0.029 A 
ATOM     37  N   UNL A   1      40.689  28.211  29.510  1.00  0.00    -0.354 N 
ATOM     38  C   UNL A   1      40.291  30.736  33.006  1.00  0.00     0.074 A 
ATOM     39  C   UNL A   1      39.121  31.581  32.902  1.00  0.00     0.031 C 
ATOM     40  C   UNL A   1      40.115  27.385  27.514  1.00  0.00     0.029 A 
ATOM     41  C   UNL A   1      41.131  27.321  28.559  1.00  0.00     0.049 A 
ATOM     42  H   UNL A   1      41.173  28.386  30.351  1.00  0.00     0.167 HD
ATOM     43  C   UNL A   1      41.144  30.734  34.062  1.00  0.00     0.034 A 
ATOM     44  C   UNL A   1      42.233  26.545  28.527  1.00  0.00     0.034 A 
ATOM     45  C   UNL A   1      42.305  29.881  34.154  1.00  0.00     0.049 A 
ATOM     46  C   UNL A   1      43.179  26.578  29.703  1.00  0.00     0.074 A 
ATOM     47  C   UNL A   1      43.212  29.768  35.193  1.00  0.00     0.029 A 
ATOM     48  N   UNL A   1      42.726  28.997  33.167  1.00  0.00    -0.354 N 
ATOM     49  N   UNL A   1      43.109  27.292  30.802  1.00  0.00    -0.248 NA
ATOM     50  C   UNL A   1      44.342  25.684  29.637  1.00  0.00     0.031 C 
ATOM     51  C   UNL A   1      44.220  28.879  34.805  1.00  0.00     0.029 A 
ATOM     52  C   UNL A   1      43.895  28.361  33.562  1.00  0.00     0.049 A 
ATOM     53  H   UNL A   1      42.262  28.844  32.313  1.00  0.00     0.167 HD
ATOM     54  C   UNL A   1      44.199  26.902  31.577  1.00  0.00     0.074 A 
ATOM     55  C   UNL A   1      44.894  25.878  30.825  1.00  0.00     0.031 C 
ATOM     56  C   UNL A   1      44.588  27.347  32.800  1.00  0.00     0.034 A 
BRANCH  43  57
ATOM     57  C   UNL A   1      40.862  31.706  35.186  1.00  0.00     0.023 A 
ATOM     58  C   UNL A   1      39.820  31.492  36.107  1.00  0.00     0.031 A 
ATOM     59  C   UNL A   1      41.628  32.877  35.327  1.00  0.00     0.131 A 
ATOM     60  C   UNL A   1      39.522  32.467  37.070  1.00  0.00     0.055 A 
ATOM     61  C   UNL A   1      41.384  33.801  36.345  1.00  0.00     0.041 A 
ATOM     62  F   UNL A   1      42.622  33.151  34.467  1.00  0.00    -0.206 F 
ATOM     63  C   UNL A   1      40.315  33.607  37.215  1.00  0.00     0.022 A 
BRANCH  60  64
ATOM     64  S   UNL A   1      37.991  32.299  38.028  1.00  0.00     0.124 S 
ATOM     65  O   UNL A   1      37.547  30.961  37.643  1.00  0.00    -0.237 OA
ATOM     66  O   UNL A   1      38.460  32.446  39.402  1.00  0.00    -0.237 OA
ATOM     67  O   UNL A   1      37.155  33.391  37.534  1.00  0.00    -0.744 OA
ENDBRANCH  60  64
ENDBRANCH  43  57
BRANCH  44  68
ATOM     68  C   UNL A   1      42.511  25.669  27.351  1.00  0.00     0.023 A 
ATOM     69  C   UNL A   1      42.050  24.344  27.306  1.00  0.00     0.031 A 
ATOM     70  C   UNL A   1      43.292  26.130  26.275  1.00  0.00     0.131 A 
ATOM     71  C   UNL A   1      42.418  23.509  26.239  1.00  0.00     0.055 A 
ATOM     72  C   UNL A   1      43.603  25.315  25.185  1.00  0.00     0.041 A 
ATOM     73  F   UNL A   1      43.757  27.389  26.264  1.00  0.00    -0.206 F 
ATOM     74  C   UNL A   1      43.178  23.990  25.171  1.00  0.00     0.022 A 
BRANCH  71  75
ATOM     75  S   UNL A   1      41.972  21.752  26.316  1.00  0.00     0.124 S 
ATOM     76  O   UNL A   1      42.238  21.441  27.716  1.00  0.00    -0.237 OA
ATOM     77  O   UNL A   1      40.568  21.779  25.918  1.00  0.00    -0.237 OA
ATOM     78  O   UNL A   1      42.879  21.129  25.354  1.00  0.00    -0.744 OA
ENDBRANCH  71  75
ENDBRANCH  44  68
BRANCH  56  79
ATOM     79  C   UNL A   1      45.796  26.679  33.420  1.00  0.00     0.023 A 
ATOM     80  C   UNL A   1      45.680  25.534  34.228  1.00  0.00     0.031 A 
ATOM     81  C   UNL A   1      47.079  27.226  33.231  1.00  0.00     0.131 A 
ATOM     82  C   UNL A   1      46.812  25.025  34.884  1.00  0.00     0.055 A 
ATOM     83  C   UNL A   1      48.212  26.666  33.824  1.00  0.00     0.041 A 
ATOM     84  F   UNL A   1      47.253  28.320  32.473  1.00  0.00    -0.206 F 
ATOM     85  C   UNL A   1      48.079  25.571  34.672  1.00  0.00     0.022 A 
BRANCH  82  86
ATOM     86  S   UNL A   1      46.581  23.726  36.130  1.00  0.00     0.124 S 
ATOM     87  O   UNL A   1      47.946  23.500  36.591  1.00  0.00    -0.237 OA
ATOM     88  O   UNL A   1      45.682  24.368  37.085  1.00  0.00    -0.237 OA
ATOM     89  O   UNL A   1      45.992  22.624  35.370  1.00  0.00    -0.744 OA
ENDBRANCH  82  86
ENDBRANCH  56  79
ENDBRANCH  30  31
ENDBRANCH  22  25
ENDBRANCH  20  21
ENDBRANCH   1  20
TORSDOF 16
ENDMDL
MODEL 2
REMARK VINA RESULT:     -11.1      6.168     11.195
REMARK SMILES O=C(CCNC(=O)N[C@@H]1CCOC1)NCCCNC(=O)c1ccc(-c2c3nc(c(-c4cc(S(=O)(=O)[O-])ccc4F)c4ccc([nH]4)c(-c4cc(S(=O)(=O)[O-])ccc4F)c4nc(c(-c5cc(S(=O)(=O)[O-])ccc5F)c5ccc2[nH]5)C=C4)C=C3)cc1
REMARK SMILES IDX 16 1 15 2 14 3 1 4 2 5 3 7 4 8 5 9 6 10 7 12 8 13 9 15 10 16
REMARK SMILES IDX 13 17 11 18 12 19 17 20 18 21 19 22 20 24 21 25 22 26 83 27
REMARK SMILES IDX 23 28 82 29 24 30 25 31 26 32 76 33 27 34 81 35 75 36 77 37
REMARK SMILES IDX 28 38 80 39 74 40 73 41 29 43 61 44 41 45 60 46 42 47 45 48
REMARK SMILES IDX 59 49 78 50 43 51 44 52 58 54 79 55 46 56 30 57 31 58 39 59
REMARK SMILES IDX 32 60 38 61 40 62 37 63 33 64 34 65 35 66 36 67 62 68 63 69
REMARK SMILES IDX 71 70 64 71 70 72 72 73 69 74 65 75 66 76 67 77 68 78 47 79
REMARK SMILES IDX 48 80 56 81 49 82 55 83 57 84 54 85 50 86 51 87 52 88 53 89
REMARK H PARENT 14 6 5 11 8 14 18 23 77 42 45 53
REMARK Flexibility Score: inf
ROOT
ATOM      1  C   UNL A   1      36.605  22.291  24.114  1.00  0.00     0.042 C 
ENDROOT
BRANCH   1   2
ATOM      2  C   UNL A   1      35.306  23.018  23.792  1.00  0.00     0.117 C 
BRANCH   2   3
ATOM      3  N   UNL A   1      34.145  22.169  23.969  1.00  0.00    -0.356 N 
ATOM      4  O   UNL A   1      33.309  23.233  25.833  1.00  0.00    -0.275 OA
ATOM      5  C   UNL A   1      33.234  22.353  24.979  1.00  0.00     0.221 C 
ATOM      6  H   UNL A   1      34.004  21.428  23.337  1.00  0.00     0.163 HD
BRANCH   5   7
ATOM      7  C   UNL A   1      32.117  21.342  24.970  1.00  0.00     0.121 C 
BRANCH   7   8
ATOM      8  C   UNL A   1      32.643  19.916  24.866  1.00  0.00     0.127 C 
BRANCH   8   9
ATOM      9  N   UNL A   1      32.666  19.383  23.510  1.00  0.00    -0.338 N 
ATOM     10  C   UNL A   1      32.505  18.163  22.976  1.00  0.00     0.315 C 
ATOM     11  H   UNL A   1      32.837  20.075  22.831  1.00  0.00     0.165 HD
ATOM     12  O   UNL A   1      32.308  18.094  21.762  1.00  0.00    -0.249 OA
ATOM     13  N   UNL A   1      32.561  17.019  23.672  1.00  0.00    -0.333 N 
ATOM     14  H   UNL A   1      32.287  16.230  23.151  1.00  0.00     0.165 HD
BRANCH  13  15
ATOM     15  C   UNL A   1      32.945  16.709  25.042  1.00  0.00     0.112 C 
ATOM     16  C   UNL A   1      34.439  16.822  25.228  1.00  0.00     0.056 C 
ATOM     17  C   UNL A   1      32.663  15.257  25.437  1.00  0.00     0.185 C 
ATOM     18  C   UNL A   1      34.948  15.416  25.035  1.00  0.00     0.162 C 
ATOM     19  O   UNL A   1      33.896  14.527  25.405  1.00  0.00    -0.379 OA
ENDBRANCH  13  15
ENDBRANCH   8   9
ENDBRANCH   7   8
ENDBRANCH   5   7
ENDBRANCH   2   3
ENDBRANCH   1   2
BRANCH   1  20
ATOM     20  C   UNL A   1      36.960  22.246  25.598  1.00  0.00     0.118 C 
BRANCH  20  21
ATOM     21  N   UNL A   1      38.013  21.290  25.901  1.00  0.00    -0.352 N 
ATOM     22  C   UNL A   1      39.302  21.490  26.326  1.00  0.00     0.251 C 
ATOM     23  H   UNL A   1      37.759  20.346  25.781  1.00  0.00     0.163 HD
ATOM     24  O   UNL A   1      40.078  20.536  26.328  1.00  0.00    -0.269 OA
BRANCH  22  25
ATOM     25  C   UNL A   1      39.768  22.829  26.751  1.00  0.00     0.039 A 
ATOM     26  C   UNL A   1      40.633  22.920  27.845  1.00  0.00     0.014 A 
ATOM     27  C   UNL A   1      39.337  23.995  26.112  1.00  0.00     0.014 A 
ATOM     28  C   UNL A   1      41.104  24.167  28.259  1.00  0.00     0.010 A 
ATOM     29  C   UNL A   1      39.877  25.229  26.469  1.00  0.00     0.010 A 
ATOM     30  C   UNL A   1      40.758  25.332  27.555  1.00  0.00    -0.014 A 
BRANCH  30  31
ATOM     31  C   UNL A   1      41.298  26.658  27.964  1.00  0.00     0.031 A 
ATOM     32  C   UNL A   1      42.725  27.028  27.657  1.00  0.00     0.074 A 
ATOM     33  C   UNL A   1      40.509  27.520  28.639  1.00  0.00     0.049 A 
ATOM     34  N   UNL A   1      43.378  28.125  27.948  1.00  0.00    -0.248 NA
ATOM     35  C   UNL A   1      43.533  26.020  26.954  1.00  0.00     0.031 C 
ATOM     36  C   UNL A   1      39.122  27.261  29.033  1.00  0.00     0.029 A 
ATOM     37  N   UNL A   1      40.753  28.786  29.108  1.00  0.00    -0.354 N 
ATOM     38  C   UNL A   1      44.671  27.937  27.470  1.00  0.00     0.074 A 
ATOM     39  C   UNL A   1      44.727  26.593  26.938  1.00  0.00     0.031 C 
ATOM     40  C   UNL A   1      38.628  28.348  29.648  1.00  0.00     0.029 A 
ATOM     41  C   UNL A   1      39.674  29.363  29.736  1.00  0.00     0.049 A 
ATOM     42  H   UNL A   1      41.622  29.240  29.005  1.00  0.00     0.167 HD
ATOM     43  C   UNL A   1      45.708  28.813  27.451  1.00  0.00     0.034 A 
ATOM     44  C   UNL A   1      39.540  30.569  30.322  1.00  0.00     0.034 A 
ATOM     45  C   UNL A   1      45.635  30.154  27.982  1.00  0.00     0.049 A 
ATOM     46  C   UNL A   1      40.714  31.517  30.310  1.00  0.00     0.074 A 
ATOM     47  C   UNL A   1      46.609  31.137  27.979  1.00  0.00     0.029 A 
ATOM     48  N   UNL A   1      44.526  30.701  28.618  1.00  0.00    -0.354 N 
ATOM     49  N   UNL A   1      41.916  31.341  29.811  1.00  0.00    -0.248 NA
ATOM     50  C   UNL A   1      40.504  32.833  30.925  1.00  0.00     0.031 C 
ATOM     51  C   UNL A   1      46.120  32.245  28.680  1.00  0.00     0.029 A 
ATOM     52  C   UNL A   1      44.805  31.994  29.037  1.00  0.00     0.049 A 
ATOM     53  H   UNL A   1      43.667  30.238  28.751  1.00  0.00     0.167 HD
ATOM     54  C   UNL A   1      42.591  32.541  30.018  1.00  0.00     0.074 A 
ATOM     55  C   UNL A   1      41.655  33.435  30.667  1.00  0.00     0.031 C 
ATOM     56  C   UNL A   1      43.868  32.876  29.696  1.00  0.00     0.034 A 
BRANCH  43  57
ATOM     57  C   UNL A   1      47.015  28.333  26.862  1.00  0.00     0.023 A 
ATOM     58  C   UNL A   1      47.223  28.273  25.471  1.00  0.00     0.031 A 
ATOM     59  C   UNL A   1      48.061  27.902  27.698  1.00  0.00     0.131 A 
ATOM     60  C   UNL A   1      48.408  27.723  24.961  1.00  0.00     0.055 A 
ATOM     61  C   UNL A   1      49.274  27.439  27.184  1.00  0.00     0.041 A 
ATOM     62  F   UNL A   1      47.917  27.911  29.032  1.00  0.00    -0.206 F 
ATOM     63  C   UNL A   1      49.448  27.332  25.807  1.00  0.00     0.022 A 
BRANCH  60  64
ATOM     64  S   UNL A   1      48.509  27.382  23.182  1.00  0.00     0.124 S 
ATOM     65  O   UNL A   1      47.361  28.129  22.673  1.00  0.00    -0.237 OA
ATOM     66  O   UNL A   1      49.822  27.911  22.832  1.00  0.00    -0.237 OA
ATOM     67  O   UNL A   1      48.380  25.928  23.104  1.00  0.00    -0.744 OA
ENDBRANCH  60  64
ENDBRANCH  43  57
BRANCH  44  68
ATOM     68  C   UNL A   1      38.253  30.960  30.971  1.00  0.00     0.023 A 
ATOM     69  C   UNL A   1      37.236  31.596  30.243  1.00  0.00     0.031 A 
ATOM     70  C   UNL A   1      38.045  30.751  32.346  1.00  0.00     0.131 A 
ATOM     71  C   UNL A   1      36.082  32.050  30.900  1.00  0.00     0.055 A 
ATOM     72  C   UNL A   1      36.869  31.148  32.985  1.00  0.00     0.041 A 
ATOM     73  F   UNL A   1      38.983  30.144  33.091  1.00  0.00    -0.206 F 
ATOM     74  C   UNL A   1      35.884  31.816  32.263  1.00  0.00     0.022 A 
BRANCH  71  75
ATOM     75  S   UNL A   1      34.883  33.042  29.968  1.00  0.00     0.124 S 
ATOM     76  O   UNL A   1      33.986  33.494  31.026  1.00  0.00    -0.237 OA
ATOM     77  O   UNL A   1      35.736  34.063  29.369  1.00  0.00    -0.237 OA
ATOM     78  O   UNL A   1      34.306  32.084  29.028  1.00  0.00    -0.744 OA
ENDBRANCH  71  75
ENDBRANCH  44  68
BRANCH  56  79
ATOM     79  C   UNL A   1      44.301  34.294  29.997  1.00  0.00     0.023 A 
ATOM     80  C   UNL A   1      44.215  35.318  29.037  1.00  0.00     0.031 A 
ATOM     81  C   UNL A   1      44.849  34.612  31.253  1.00  0.00     0.131 A 
ATOM     82  C   UNL A   1      44.746  36.587  29.320  1.00  0.00     0.055 A 
ATOM     83  C   UNL A   1      45.303  35.898  31.554  1.00  0.00     0.041 A 
ATOM     84  F   UNL A   1      44.960  33.676  32.209  1.00  0.00    -0.206 F 
ATOM     85  C   UNL A   1      45.271  36.889  30.577  1.00  0.00     0.022 A 
BRANCH  82  86
ATOM     86  S   UNL A   1      44.869  37.795  27.971  1.00  0.00     0.124 S 
ATOM     87  O   UNL A   1      45.715  37.094  27.011  1.00  0.00    -0.237 OA
ATOM     88  O   UNL A   1      43.473  37.970  27.582  1.00  0.00    -0.237 OA
ATOM     89  O   UNL A   1      45.485  38.958  28.608  1.00  0.00    -0.744 OA
ENDBRANCH  82  86
ENDBRANCH  56  79
ENDBRANCH  30  31
ENDBRANCH  22  25
ENDBRANCH  20  21
ENDBRANCH   1  20
TORSDOF 16
ENDMDL
MODEL 3
REMARK VINA RESULT:     -11.0      3.729      6.113
REMARK SMILES O=C(CCNC(=O)N[C@@H]1CCOC1)NCCCNC(=O)c1ccc(-c2c3nc(c(-c4cc(S(=O)(=O)[O-])ccc4F)c4ccc([nH]4)c(-c4cc(S(=O)(=O)[O-])ccc4F)c4nc(c(-c5cc(S(=O)(=O)[O-])ccc5F)c5ccc2[nH]5)C=C4)C=C3)cc1
REMARK SMILES IDX 16 1 15 2 14 3 1 4 2 5 3 7 4 8 5 9 6 10 7 12 8 13 9 15 10 16
REMARK SMILES IDX 13 17 11 18 12 19 17 20 18 21 19 22 20 24 21 25 22 26 83 27
REMARK SMILES IDX 23 28 82 29 24 30 25 31 26 32 76 33 27 34 81 35 75 36 77 37
REMARK SMILES IDX 28 38 80 39 74 40 73 41 29 43 61 44 41 45 60 46 42 47 45 48
REMARK SMILES IDX 59 49 78 50 43 51 44 52 58 54 79 55 46 56 30 57 31 58 39 59
REMARK SMILES IDX 32 60 38 61 40 62 37 63 33 64 34 65 35 66 36 67 62 68 63 69
REMARK SMILES IDX 71 70 64 71 70 72 72 73 69 74 65 75 66 76 67 77 68 78 47 79
REMARK SMILES IDX 48 80 56 81 49 82 55 83 57 84 54 85 50 86 51 87 52 88 53 89
REMARK H PARENT 14 6 5 11 8 14 18 23 77 42 45 53
REMARK Flexibility Score: inf
ROOT
ATOM      1  C   UNL A   1      35.333  33.923  28.322  1.00  0.00     0.042 C 
ENDROOT
BRANCH   1   2
ATOM      2  C   UNL A   1      36.782  33.739  28.754  1.00  0.00     0.117 C 
BRANCH   2   3
ATOM      3  N   UNL A   1      36.954  33.914  30.182  1.00  0.00    -0.356 N 
ATOM      4  O   UNL A   1      39.212  34.367  30.133  1.00  0.00    -0.275 OA
ATOM      5  C   UNL A   1      38.164  34.221  30.755  1.00  0.00     0.221 C 
ATOM      6  H   UNL A   1      36.170  33.808  30.767  1.00  0.00     0.163 HD
BRANCH   5   7
ATOM      7  C   UNL A   1      38.101  34.344  32.256  1.00  0.00     0.121 C 
BRANCH   7   8
ATOM      8  C   UNL A   1      37.188  33.292  32.873  1.00  0.00     0.127 C 
BRANCH   8   9
ATOM      9  N   UNL A   1      36.888  33.513  34.282  1.00  0.00    -0.338 N 
ATOM     10  C   UNL A   1      35.860  34.057  34.951  1.00  0.00     0.315 C 
ATOM     11  H   UNL A   1      37.600  33.187  34.879  1.00  0.00     0.165 HD
ATOM     12  O   UNL A   1      35.789  33.839  36.161  1.00  0.00    -0.249 OA
ATOM     13  N   UNL A   1      34.920  34.832  34.393  1.00  0.00    -0.333 N 
ATOM     14  H   UNL A   1      34.169  35.033  34.997  1.00  0.00     0.165 HD
BRANCH  13  15
ATOM     15  C   UNL A   1      34.785  35.435  33.075  1.00  0.00     0.112 C 
ATOM     16  C   UNL A   1      34.067  36.761  33.153  1.00  0.00     0.056 C 
ATOM     17  C   UNL A   1      33.899  34.626  32.125  1.00  0.00     0.185 C 
ATOM     18  C   UNL A   1      32.625  36.424  32.868  1.00  0.00     0.162 C 
ATOM     19  O   UNL A   1      32.615  35.258  32.048  1.00  0.00    -0.379 OA
ENDBRANCH  13  15
ENDBRANCH   8   9
ENDBRANCH   7   8
ENDBRANCH   5   7
ENDBRANCH   2   3
ENDBRANCH   1   2
BRANCH   1  20
ATOM     20  C   UNL A   1      34.349  32.940  28.953  1.00  0.00     0.118 C 
BRANCH  20  21
ATOM     21  N   UNL A   1      33.803  31.992  27.996  1.00  0.00    -0.352 N 
ATOM     22  C   UNL A   1      34.345  30.848  27.466  1.00  0.00     0.251 C 
ATOM     23  H   UNL A   1      32.896  32.206  27.676  1.00  0.00     0.163 HD
ATOM     24  O   UNL A   1      33.776  30.308  26.520  1.00  0.00    -0.269 OA
BRANCH  22  25
ATOM     25  C   UNL A   1      35.604  30.282  27.999  1.00  0.00     0.039 A 
ATOM     26  C   UNL A   1      36.753  30.347  27.207  1.00  0.00     0.014 A 
ATOM     27  C   UNL A   1      35.660  29.660  29.249  1.00  0.00     0.014 A 
ATOM     28  C   UNL A   1      37.962  29.838  27.688  1.00  0.00     0.010 A 
ATOM     29  C   UNL A   1      36.883  29.234  29.765  1.00  0.00     0.010 A 
ATOM     30  C   UNL A   1      38.047  29.307  28.986  1.00  0.00    -0.014 A 
BRANCH  30  31
ATOM     31  C   UNL A   1      39.344  28.808  29.521  1.00  0.00     0.031 A 
ATOM     32  C   UNL A   1      39.985  29.473  30.711  1.00  0.00     0.074 A 
ATOM     33  C   UNL A   1      39.961  27.771  28.916  1.00  0.00     0.049 A 
ATOM     34  N   UNL A   1      41.116  29.194  31.307  1.00  0.00    -0.248 NA
ATOM     35  C   UNL A   1      39.271  30.622  31.289  1.00  0.00     0.031 C 
ATOM     36  C   UNL A   1      39.463  27.070  27.730  1.00  0.00     0.029 A 
ATOM     37  N   UNL A   1      41.133  27.123  29.214  1.00  0.00    -0.354 N 
ATOM     38  C   UNL A   1      41.252  30.134  32.324  1.00  0.00     0.074 A 
ATOM     39  C   UNL A   1      40.124  31.033  32.215  1.00  0.00     0.031 C 
ATOM     40  C   UNL A   1      40.302  26.066  27.427  1.00  0.00     0.029 A 
ATOM     41  C   UNL A   1      41.422  26.081  28.364  1.00  0.00     0.049 A 
ATOM     42  H   UNL A   1      41.714  27.380  29.967  1.00  0.00     0.167 HD
ATOM     43  C   UNL A   1      42.214  30.222  33.279  1.00  0.00     0.034 A 
ATOM     44  C   UNL A   1      42.471  25.234  28.336  1.00  0.00     0.034 A 
ATOM     45  C   UNL A   1      43.331  29.313  33.378  1.00  0.00     0.049 A 
ATOM     46  C   UNL A   1      43.539  25.367  29.393  1.00  0.00     0.074 A 
ATOM     47  C   UNL A   1      44.339  29.286  34.326  1.00  0.00     0.029 A 
ATOM     48  N   UNL A   1      43.595  28.273  32.494  1.00  0.00    -0.354 N 
ATOM     49  N   UNL A   1      43.628  26.232  30.378  1.00  0.00    -0.248 NA
ATOM     50  C   UNL A   1      44.639  24.396  29.343  1.00  0.00     0.031 C 
ATOM     51  C   UNL A   1      45.250  28.285  33.973  1.00  0.00     0.029 A 
ATOM     52  C   UNL A   1      44.764  27.621  32.858  1.00  0.00     0.049 A 
ATOM     53  H   UNL A   1      43.033  28.034  31.722  1.00  0.00     0.167 HD
ATOM     54  C   UNL A   1      44.774  25.881  31.088  1.00  0.00     0.074 A 
ATOM     55  C   UNL A   1      45.327  24.717  30.428  1.00  0.00     0.031 C 
ATOM     56  C   UNL A   1      45.316  26.466  32.187  1.00  0.00     0.034 A 
BRANCH  43  57
ATOM     57  C   UNL A   1      42.108  31.358  34.271  1.00  0.00     0.023 A 
ATOM     58  C   UNL A   1      41.059  31.430  35.206  1.00  0.00     0.031 A 
ATOM     59  C   UNL A   1      43.052  32.401  34.267  1.00  0.00     0.131 A 
ATOM     60  C   UNL A   1      40.935  32.552  36.039  1.00  0.00     0.055 A 
ATOM     61  C   UNL A   1      42.974  33.472  35.160  1.00  0.00     0.041 A 
ATOM     62  F   UNL A   1      44.063  32.404  33.384  1.00  0.00    -0.206 F 
ATOM     63  C   UNL A   1      41.902  33.561  36.043  1.00  0.00     0.022 A 
BRANCH  60  64
ATOM     64  S   UNL A   1      39.412  32.751  37.004  1.00  0.00     0.124 S 
ATOM     65  O   UNL A   1      39.091  34.156  36.762  1.00  0.00    -0.237 OA
ATOM     66  O   UNL A   1      38.519  31.776  36.389  1.00  0.00    -0.237 OA
ATOM     67  O   UNL A   1      39.829  32.442  38.370  1.00  0.00    -0.744 OA
ENDBRANCH  60  64
ENDBRANCH  43  57
BRANCH  44  68
ATOM     68  C   UNL A   1      42.572  24.186  27.278  1.00  0.00     0.023 A 
ATOM     69  C   UNL A   1      41.939  22.942  27.426  1.00  0.00     0.031 A 
ATOM     70  C   UNL A   1      43.353  24.394  26.127  1.00  0.00     0.131 A 
ATOM     71  C   UNL A   1      42.140  21.935  26.468  1.00  0.00     0.055 A 
ATOM     72  C   UNL A   1      43.500  23.412  25.146  1.00  0.00     0.041 A 
ATOM     73  F   UNL A   1      43.979  25.566  25.933  1.00  0.00    -0.206 F 
ATOM     74  C   UNL A   1      42.903  22.166  25.322  1.00  0.00     0.022 A 
BRANCH  71  75
ATOM     75  S   UNL A   1      41.471  20.280  26.792  1.00  0.00     0.124 S 
ATOM     76  O   UNL A   1      40.120  20.592  27.248  1.00  0.00    -0.237 OA
ATOM     77  O   UNL A   1      41.577  19.649  25.481  1.00  0.00    -0.237 OA
ATOM     78  O   UNL A   1      42.367  19.745  27.814  1.00  0.00    -0.744 OA
ENDBRANCH  71  75
ENDBRANCH  44  68
BRANCH  56  79
ATOM     79  C   UNL A   1      46.547  25.811  32.774  1.00  0.00     0.023 A 
ATOM     80  C   UNL A   1      47.836  26.067  32.275  1.00  0.00     0.031 A 
ATOM     81  C   UNL A   1      46.420  24.883  33.824  1.00  0.00     0.131 A 
ATOM     82  C   UNL A   1      48.933  25.341  32.766  1.00  0.00     0.055 A 
ATOM     83  C   UNL A   1      47.527  24.223  34.362  1.00  0.00     0.041 A 
ATOM     84  F   UNL A   1      45.215  24.594  34.341  1.00  0.00    -0.206 F 
ATOM     85  C   UNL A   1      48.790  24.436  33.819  1.00  0.00     0.022 A 
BRANCH  82  86
ATOM     86  S   UNL A   1      50.527  25.495  31.912  1.00  0.00     0.124 S 
ATOM     87  O   UNL A   1      50.694  24.164  31.338  1.00  0.00    -0.237 OA
ATOM     88  O   UNL A   1      50.268  26.572  30.962  1.00  0.00    -0.237 OA
ATOM     89  O   UNL A   1      51.461  25.828  32.987  1.00  0.00    -0.744 OA
ENDBRANCH  82  86
ENDBRANCH  56  79
ENDBRANCH  30  31
ENDBRANCH  22  25
ENDBRANCH  20  21
ENDBRANCH   1  20
TORSDOF 16
ENDMDL
