MODEL 1
REMARK VINA RESULT:     -12.1      0.000      0.000
REMARK SMILES CC(=O)[C@]1(C)CC[C@@H](C(=O)NCCCNC(=O)c2ccc(-c3c4nc(c(-c5cc(S(=O)(=O)[O-])ccc5F)c5ccc([nH]5)c(-c5cc(S(=O)(=O)[O-])ccc5F)c5nc(c(-c6cc(S(=O)(=O)[O-])ccc6F)c6ccc3[nH]6)C=C5)C=C4)cc2)C1(C)C
REMARK SMILES IDX 14 1 13 2 12 3 11 4 9 5 10 6 8 8 4 9 6 10 81 11 5 12 7 13
REMARK SMILES IDX 82 14 83 15 2 16 1 17 3 18 15 19 16 20 17 22 18 23 19 24
REMARK SMILES IDX 80 25 20 26 79 27 21 28 22 29 23 30 73 31 24 32 78 33 72 34
REMARK SMILES IDX 74 35 25 36 77 37 71 38 70 39 26 41 58 42 38 43 57 44 39 45
REMARK SMILES IDX 42 46 56 47 75 48 40 49 41 50 55 52 76 53 43 54 27 55 28 56
REMARK SMILES IDX 36 57 29 58 35 59 37 60 34 61 30 62 31 63 32 64 33 65 59 66
REMARK SMILES IDX 60 67 68 68 61 69 67 70 69 71 66 72 62 73 63 74 64 75 65 76
REMARK SMILES IDX 44 77 45 78 53 79 46 80 52 81 54 82 51 83 47 84 48 85 49 86
REMARK SMILES IDX 50 87
REMARK H PARENT 11 7 15 21 74 40 42 51
REMARK Flexibility Score: inf
ROOT
ATOM      1  C   UNL A   1      36.378  22.132  25.232  1.00  0.00     0.118 C 
ENDROOT
BRANCH   1   2
ATOM      2  C   UNL A   1      35.169  22.040  26.153  1.00  0.00     0.042 C 
BRANCH   2   3
ATOM      3  C   UNL A   1      33.826  22.218  25.448  1.00  0.00     0.117 C 
BRANCH   3   4
ATOM      4  N   UNL A   1      32.759  22.649  26.332  1.00  0.00    -0.356 N 
ATOM      5  C   UNL A   1      32.038  23.790  26.431  1.00  0.00     0.223 C 
ATOM      6  O   UNL A   1      31.166  23.803  27.308  1.00  0.00    -0.275 OA
ATOM      7  H   UNL A   1      32.506  21.970  26.999  1.00  0.00     0.163 HD
BRANCH   5   8
ATOM      8  C   UNL A   1      32.230  25.038  25.557  1.00  0.00     0.085 C 
ATOM      9  C   UNL A   1      30.698  26.515  24.204  1.00  0.00     0.032 C 
ATOM     10  C   UNL A   1      30.902  27.096  25.628  1.00  0.00     0.016 C 
ATOM     11  C   UNL A   1      31.509  25.133  24.171  1.00  0.00    -0.012 C 
ATOM     12  C   UNL A   1      29.169  26.295  24.007  1.00  0.00     0.020 C 
ATOM     13  C   UNL A   1      32.070  26.374  26.268  1.00  0.00     0.015 C 
ATOM     14  C   UNL A   1      30.633  23.890  23.888  1.00  0.00     0.013 C 
ATOM     15  C   UNL A   1      32.590  25.017  23.071  1.00  0.00     0.013 C 
BRANCH   9  16
ATOM     16  C   UNL A   1      31.040  27.696  23.238  1.00  0.00     0.136 C 
ATOM     17  C   UNL A   1      31.772  28.922  23.699  1.00  0.00     0.088 C 
ATOM     18  O   UNL A   1      30.613  27.703  22.075  1.00  0.00    -0.299 OA
ENDBRANCH   9  16
ENDBRANCH   5   8
ENDBRANCH   3   4
ENDBRANCH   2   3
ENDBRANCH   1   2
BRANCH   1  19
ATOM     19  N   UNL A   1      37.293  21.019  25.421  1.00  0.00    -0.352 N 
ATOM     20  C   UNL A   1      38.615  21.029  25.797  1.00  0.00     0.251 C 
ATOM     21  H   UNL A   1      36.911  20.127  25.256  1.00  0.00     0.163 HD
ATOM     22  O   UNL A   1      39.288  20.005  25.652  1.00  0.00    -0.269 OA
BRANCH  20  23
ATOM     23  C   UNL A   1      39.243  22.258  26.338  1.00  0.00     0.039 A 
ATOM     24  C   UNL A   1      40.358  22.144  27.173  1.00  0.00     0.014 A 
ATOM     25  C   UNL A   1      38.731  23.523  26.039  1.00  0.00     0.014 A 
ATOM     26  C   UNL A   1      41.004  23.295  27.636  1.00  0.00     0.010 A 
ATOM     27  C   UNL A   1      39.425  24.667  26.426  1.00  0.00     0.010 A 
ATOM     28  C   UNL A   1      40.574  24.567  27.226  1.00  0.00    -0.014 A 
BRANCH  28  29
ATOM     29  C   UNL A   1      41.309  25.805  27.605  1.00  0.00     0.031 A 
ATOM     30  C   UNL A   1      40.618  26.882  28.401  1.00  0.00     0.074 A 
ATOM     31  C   UNL A   1      42.567  25.999  27.159  1.00  0.00     0.049 A 
ATOM     32  N   UNL A   1      41.042  28.079  28.716  1.00  0.00    -0.248 NA
ATOM     33  C   UNL A   1      39.262  26.579  28.879  1.00  0.00     0.031 C 
ATOM     34  C   UNL A   1      43.332  25.047  26.350  1.00  0.00     0.029 A 
ATOM     35  N   UNL A   1      43.419  27.066  27.303  1.00  0.00    -0.354 N 
ATOM     36  C   UNL A   1      39.997  28.681  29.410  1.00  0.00     0.074 A 
ATOM     37  C   UNL A   1      38.903  27.733  29.422  1.00  0.00     0.031 C 
ATOM     38  C   UNL A   1      44.541  25.566  26.084  1.00  0.00     0.029 A 
ATOM     39  C   UNL A   1      44.620  26.909  26.650  1.00  0.00     0.049 A 
ATOM     40  H   UNL A   1      43.191  27.870  27.825  1.00  0.00     0.167 HD
ATOM     41  C   UNL A   1      39.962  29.902  30.000  1.00  0.00     0.034 A 
ATOM     42  C   UNL A   1      45.658  27.757  26.498  1.00  0.00     0.034 A 
ATOM     43  C   UNL A   1      41.069  30.827  29.997  1.00  0.00     0.049 A 
ATOM     44  C   UNL A   1      45.577  29.126  27.123  1.00  0.00     0.074 A 
ATOM     45  C   UNL A   1      41.171  32.052  30.634  1.00  0.00     0.029 A 
ATOM     46  N   UNL A   1      42.261  30.638  29.311  1.00  0.00    -0.354 N 
ATOM     47  N   UNL A   1      44.604  29.655  27.828  1.00  0.00    -0.248 NA
ATOM     48  C   UNL A   1      46.732  30.013  26.931  1.00  0.00     0.031 C 
ATOM     49  C   UNL A   1      42.391  32.634  30.275  1.00  0.00     0.029 A 
ATOM     50  C   UNL A   1      43.084  31.744  29.471  1.00  0.00     0.049 A 
ATOM     51  H   UNL A   1      42.490  29.837  28.786  1.00  0.00     0.167 HD
ATOM     52  C   UNL A   1      45.038  30.932  28.176  1.00  0.00     0.074 A 
ATOM     53  C   UNL A   1      46.367  31.084  27.621  1.00  0.00     0.031 C 
ATOM     54  C   UNL A   1      44.397  31.891  28.890  1.00  0.00     0.034 A 
BRANCH  41  55
ATOM     55  C   UNL A   1      38.676  30.315  30.677  1.00  0.00     0.023 A 
ATOM     56  C   UNL A   1      37.648  30.968  29.976  1.00  0.00     0.031 A 
ATOM     57  C   UNL A   1      38.482  30.063  32.047  1.00  0.00     0.131 A 
ATOM     58  C   UNL A   1      36.505  31.410  30.661  1.00  0.00     0.055 A 
ATOM     59  C   UNL A   1      37.308  30.435  32.705  1.00  0.00     0.041 A 
ATOM     60  F   UNL A   1      39.436  29.459  32.773  1.00  0.00    -0.206 F 
ATOM     61  C   UNL A   1      36.316  31.127  32.014  1.00  0.00     0.022 A 
BRANCH  58  62
ATOM     62  S   UNL A   1      35.332  32.481  29.784  1.00  0.00     0.124 S 
ATOM     63  O   UNL A   1      36.208  33.549  29.306  1.00  0.00    -0.237 OA
ATOM     64  O   UNL A   1      34.795  31.590  28.763  1.00  0.00    -0.237 OA
ATOM     65  O   UNL A   1      34.387  32.879  30.825  1.00  0.00    -0.744 OA
ENDBRANCH  58  62
ENDBRANCH  41  55
BRANCH  42  66
ATOM     66  C   UNL A   1      46.848  27.359  25.691  1.00  0.00     0.023 A 
ATOM     67  C   UNL A   1      47.008  27.807  24.370  1.00  0.00     0.031 A 
ATOM     68  C   UNL A   1      47.822  26.492  26.216  1.00  0.00     0.131 A 
ATOM     69  C   UNL A   1      48.095  27.354  23.606  1.00  0.00     0.055 A 
ATOM     70  C   UNL A   1      48.928  26.086  25.469  1.00  0.00     0.041 A 
ATOM     71  F   UNL A   1      47.717  26.035  27.475  1.00  0.00    -0.206 F 
ATOM     72  C   UNL A   1      49.063  26.508  24.150  1.00  0.00     0.022 A 
BRANCH  69  73
ATOM     73  S   UNL A   1      48.179  27.822  21.855  1.00  0.00     0.124 S 
ATOM     74  O   UNL A   1      48.332  26.524  21.208  1.00  0.00    -0.237 OA
ATOM     75  O   UNL A   1      46.897  28.490  21.659  1.00  0.00    -0.237 OA
ATOM     76  O   UNL A   1      49.351  28.693  21.792  1.00  0.00    -0.744 OA
ENDBRANCH  69  73
ENDBRANCH  42  66
BRANCH  54  77
ATOM     77  C   UNL A   1      45.140  33.182  29.122  1.00  0.00     0.023 A 
ATOM     78  C   UNL A   1      45.090  34.235  28.192  1.00  0.00     0.031 A 
ATOM     79  C   UNL A   1      45.905  33.362  30.287  1.00  0.00     0.131 A 
ATOM     80  C   UNL A   1      45.828  35.405  28.422  1.00  0.00     0.055 A 
ATOM     81  C   UNL A   1      46.593  34.551  30.538  1.00  0.00     0.041 A 
ATOM     82  F   UNL A   1      45.989  32.388  31.207  1.00  0.00    -0.206 F 
ATOM     83  C   UNL A   1      46.565  35.577  29.597  1.00  0.00     0.022 A 
BRANCH  80  84
ATOM     84  S   UNL A   1      45.868  36.679  27.132  1.00  0.00     0.124 S 
ATOM     85  O   UNL A   1      46.751  37.680  27.722  1.00  0.00    -0.237 OA
ATOM     86  O   UNL A   1      46.406  35.951  25.987  1.00  0.00    -0.237 OA
ATOM     87  O   UNL A   1      44.469  37.084  27.005  1.00  0.00    -0.744 OA
ENDBRANCH  80  84
ENDBRANCH  54  77
ENDBRANCH  28  29
ENDBRANCH  20  23
ENDBRANCH   1  19
TORSDOF 14
ENDMDL
MODEL 2
REMARK VINA RESULT:     -12.1      0.970      1.721
REMARK SMILES CC(=O)[C@]1(C)CC[C@@H](C(=O)NCCCNC(=O)c2ccc(-c3c4nc(c(-c5cc(S(=O)(=O)[O-])ccc5F)c5ccc([nH]5)c(-c5cc(S(=O)(=O)[O-])ccc5F)c5nc(c(-c6cc(S(=O)(=O)[O-])ccc6F)c6ccc3[nH]6)C=C5)C=C4)cc2)C1(C)C
REMARK SMILES IDX 14 1 13 2 12 3 11 4 9 5 10 6 8 8 4 9 6 10 81 11 5 12 7 13
REMARK SMILES IDX 82 14 83 15 2 16 1 17 3 18 15 19 16 20 17 22 18 23 19 24
REMARK SMILES IDX 80 25 20 26 79 27 21 28 22 29 23 30 73 31 24 32 78 33 72 34
REMARK SMILES IDX 74 35 25 36 77 37 71 38 70 39 26 41 58 42 38 43 57 44 39 45
REMARK SMILES IDX 42 46 56 47 75 48 40 49 41 50 55 52 76 53 43 54 27 55 28 56
REMARK SMILES IDX 36 57 29 58 35 59 37 60 34 61 30 62 31 63 32 64 33 65 59 66
REMARK SMILES IDX 60 67 68 68 61 69 67 70 69 71 66 72 62 73 63 74 64 75 65 76
REMARK SMILES IDX 44 77 45 78 53 79 46 80 52 81 54 82 51 83 47 84 48 85 49 86
REMARK SMILES IDX 50 87
REMARK H PARENT 11 7 15 21 74 40 42 51
REMARK Flexibility Score: inf
ROOT
ATOM      1  C   UNL A   1      36.771  21.858  25.629  1.00  0.00     0.118 C 
ENDROOT
BRANCH   1   2
ATOM      2  C   UNL A   1      36.174  21.909  24.230  1.00  0.00     0.042 C 
BRANCH   2   3
ATOM      3  C   UNL A   1      34.693  22.282  24.191  1.00  0.00     0.117 C 
BRANCH   3   4
ATOM      4  N   UNL A   1      33.809  21.184  24.537  1.00  0.00    -0.356 N 
ATOM      5  C   UNL A   1      32.486  21.109  24.814  1.00  0.00     0.223 C 
ATOM      6  O   UNL A   1      32.048  19.975  25.047  1.00  0.00    -0.275 OA
ATOM      7  H   UNL A   1      34.266  20.313  24.579  1.00  0.00     0.163 HD
BRANCH   5   8
ATOM      8  C   UNL A   1      31.522  22.302  24.864  1.00  0.00     0.085 C 
ATOM      9  C   UNL A   1      31.730  24.734  25.502  1.00  0.00     0.032 C 
ATOM     10  C   UNL A   1      31.920  24.550  23.973  1.00  0.00     0.016 C 
ATOM     11  C   UNL A   1      31.536  23.260  26.102  1.00  0.00    -0.012 C 
ATOM     12  C   UNL A   1      33.017  25.418  26.050  1.00  0.00     0.020 C 
ATOM     13  C   UNL A   1      31.457  23.155  23.606  1.00  0.00     0.015 C 
ATOM     14  C   UNL A   1      32.611  22.851  27.138  1.00  0.00     0.013 C 
ATOM     15  C   UNL A   1      30.228  23.025  26.893  1.00  0.00     0.013 C 
BRANCH   9  16
ATOM     16  C   UNL A   1      30.626  25.831  25.638  1.00  0.00     0.136 C 
ATOM     17  C   UNL A   1      29.785  26.271  24.476  1.00  0.00     0.088 C 
ATOM     18  O   UNL A   1      30.488  26.459  26.698  1.00  0.00    -0.299 OA
ENDBRANCH   9  16
ENDBRANCH   5   8
ENDBRANCH   3   4
ENDBRANCH   2   3
ENDBRANCH   1   2
BRANCH   1  19
ATOM     19  N   UNL A   1      37.782  20.821  25.753  1.00  0.00    -0.352 N 
ATOM     20  C   UNL A   1      39.120  20.935  26.048  1.00  0.00     0.251 C 
ATOM     21  H   UNL A   1      37.462  19.902  25.604  1.00  0.00     0.163 HD
ATOM     22  O   UNL A   1      39.861  19.969  25.853  1.00  0.00    -0.269 OA
BRANCH  20  23
ATOM     23  C   UNL A   1      39.680  22.209  26.558  1.00  0.00     0.039 A 
ATOM     24  C   UNL A   1      40.672  22.172  27.542  1.00  0.00     0.014 A 
ATOM     25  C   UNL A   1      39.223  23.441  26.084  1.00  0.00     0.014 A 
ATOM     26  C   UNL A   1      41.260  23.362  27.986  1.00  0.00     0.010 A 
ATOM     27  C   UNL A   1      39.869  24.617  26.460  1.00  0.00     0.010 A 
ATOM     28  C   UNL A   1      40.900  24.591  27.412  1.00  0.00    -0.014 A 
BRANCH  28  29
ATOM     29  C   UNL A   1      41.588  25.860  27.778  1.00  0.00     0.031 A 
ATOM     30  C   UNL A   1      40.845  26.935  28.529  1.00  0.00     0.074 A 
ATOM     31  C   UNL A   1      42.850  26.081  27.358  1.00  0.00     0.049 A 
ATOM     32  N   UNL A   1      41.225  28.152  28.823  1.00  0.00    -0.248 NA
ATOM     33  C   UNL A   1      39.487  26.603  28.981  1.00  0.00     0.031 C 
ATOM     34  C   UNL A   1      43.664  25.133  26.592  1.00  0.00     0.029 A 
ATOM     35  N   UNL A   1      43.666  27.177  27.495  1.00  0.00    -0.354 N 
ATOM     36  C   UNL A   1      40.145  28.739  29.476  1.00  0.00     0.074 A 
ATOM     37  C   UNL A   1      39.080  27.759  29.486  1.00  0.00     0.031 C 
ATOM     38  C   UNL A   1      44.862  25.682  26.342  1.00  0.00     0.029 A 
ATOM     39  C   UNL A   1      44.888  27.040  26.876  1.00  0.00     0.049 A 
ATOM     40  H   UNL A   1      43.401  27.986  27.990  1.00  0.00     0.167 HD
ATOM     41  C   UNL A   1      40.059  29.973  30.033  1.00  0.00     0.034 A 
ATOM     42  C   UNL A   1      45.903  27.915  26.728  1.00  0.00     0.034 A 
ATOM     43  C   UNL A   1      41.138  30.931  30.033  1.00  0.00     0.049 A 
ATOM     44  C   UNL A   1      45.766  29.296  27.315  1.00  0.00     0.074 A 
ATOM     45  C   UNL A   1      41.187  32.173  30.641  1.00  0.00     0.029 A 
ATOM     46  N   UNL A   1      42.352  30.761  29.381  1.00  0.00    -0.354 N 
ATOM     47  N   UNL A   1      44.760  29.813  27.983  1.00  0.00    -0.248 NA
ATOM     48  C   UNL A   1      46.898  30.213  27.129  1.00  0.00     0.031 C 
ATOM     49  C   UNL A   1      42.398  32.783  30.298  1.00  0.00     0.029 A 
ATOM     50  C   UNL A   1      43.137  31.895  29.534  1.00  0.00     0.049 A 
ATOM     51  H   UNL A   1      42.618  29.954  28.884  1.00  0.00     0.167 HD
ATOM     52  C   UNL A   1      45.147  31.110  28.308  1.00  0.00     0.074 A 
ATOM     53  C   UNL A   1      46.485  31.289  27.782  1.00  0.00     0.031 C 
ATOM     54  C   UNL A   1      44.460  32.067  28.981  1.00  0.00     0.034 A 
BRANCH  41  55
ATOM     55  C   UNL A   1      38.745  30.363  30.667  1.00  0.00     0.023 A 
ATOM     56  C   UNL A   1      37.763  31.074  29.957  1.00  0.00     0.031 A 
ATOM     57  C   UNL A   1      38.476  30.029  32.008  1.00  0.00     0.131 A 
ATOM     58  C   UNL A   1      36.591  31.492  30.608  1.00  0.00     0.055 A 
ATOM     59  C   UNL A   1      37.274  30.378  32.626  1.00  0.00     0.041 A 
ATOM     60  F   UNL A   1      39.383  29.367  32.742  1.00  0.00    -0.206 F 
ATOM     61  C   UNL A   1      36.329  31.127  31.930  1.00  0.00     0.022 A 
BRANCH  58  62
ATOM     62  S   UNL A   1      35.480  32.633  29.742  1.00  0.00     0.124 S 
ATOM     63  O   UNL A   1      34.285  32.576  30.582  1.00  0.00    -0.237 OA
ATOM     64  O   UNL A   1      36.225  33.885  29.775  1.00  0.00    -0.237 OA
ATOM     65  O   UNL A   1      35.331  32.029  28.419  1.00  0.00    -0.744 OA
ENDBRANCH  58  62
ENDBRANCH  41  55
BRANCH  42  66
ATOM     66  C   UNL A   1      47.124  27.534  25.961  1.00  0.00     0.023 A 
ATOM     67  C   UNL A   1      47.240  27.828  24.593  1.00  0.00     0.031 A 
ATOM     68  C   UNL A   1      48.177  26.833  26.576  1.00  0.00     0.131 A 
ATOM     69  C   UNL A   1      48.363  27.387  23.876  1.00  0.00     0.055 A 
ATOM     70  C   UNL A   1      49.316  26.443  25.870  1.00  0.00     0.041 A 
ATOM     71  F   UNL A   1      48.118  26.528  27.882  1.00  0.00    -0.206 F 
ATOM     72  C   UNL A   1      49.408  26.709  24.508  1.00  0.00     0.022 A 
BRANCH  69  73
ATOM     73  S   UNL A   1      48.401  27.640  22.080  1.00  0.00     0.124 S 
ATOM     74  O   UNL A   1      47.106  28.268  21.842  1.00  0.00    -0.237 OA
ATOM     75  O   UNL A   1      49.569  28.499  21.920  1.00  0.00    -0.237 OA
ATOM     76  O   UNL A   1      48.546  26.287  21.548  1.00  0.00    -0.744 OA
ENDBRANCH  69  73
ENDBRANCH  42  66
BRANCH  54  77
ATOM     77  C   UNL A   1      45.158  33.386  29.198  1.00  0.00     0.023 A 
ATOM     78  C   UNL A   1      45.033  34.442  28.279  1.00  0.00     0.031 A 
ATOM     79  C   UNL A   1      45.956  33.589  30.338  1.00  0.00     0.131 A 
ATOM     80  C   UNL A   1      45.731  35.639  28.493  1.00  0.00     0.055 A 
ATOM     81  C   UNL A   1      46.603  34.802  30.574  1.00  0.00     0.041 A 
ATOM     82  F   UNL A   1      46.111  32.612  31.246  1.00  0.00    -0.206 F 
ATOM     83  C   UNL A   1      46.502  35.833  29.643  1.00  0.00     0.022 A 
BRANCH  80  84
ATOM     84  S   UNL A   1      45.675  36.923  27.213  1.00  0.00     0.124 S 
ATOM     85  O   UNL A   1      46.360  38.033  27.867  1.00  0.00    -0.237 OA
ATOM     86  O   UNL A   1      46.391  36.296  26.107  1.00  0.00    -0.237 OA
ATOM     87  O   UNL A   1      44.243  37.123  26.989  1.00  0.00    -0.744 OA
ENDBRANCH  80  84
ENDBRANCH  54  77
ENDBRANCH  28  29
ENDBRANCH  20  23
ENDBRANCH   1  19
TORSDOF 14
ENDMDL
MODEL 3
REMARK VINA RESULT:     -12.0      5.245     10.172
REMARK SMILES CC(=O)[C@]1(C)CC[C@@H](C(=O)NCCCNC(=O)c2ccc(-c3c4nc(c(-c5cc(S(=O)(=O)[O-])ccc5F)c5ccc([nH]5)c(-c5cc(S(=O)(=O)[O-])ccc5F)c5nc(c(-c6cc(S(=O)(=O)[O-])ccc6F)c6ccc3[nH]6)C=C5)C=C4)cc2)C1(C)C
REMARK SMILES IDX 14 1 13 2 12 3 11 4 9 5 10 6 8 8 4 9 6 10 81 11 5 12 7 13
REMARK SMILES IDX 82 14 83 15 2 16 1 17 3 18 15 19 16 20 17 22 18 23 19 24
REMARK SMILES IDX 80 25 20 26 79 27 21 28 22 29 23 30 73 31 24 32 78 33 72 34
REMARK SMILES IDX 74 35 25 36 77 37 71 38 70 39 26 41 58 42 38 43 57 44 39 45
REMARK SMILES IDX 42 46 56 47 75 48 40 49 41 50 55 52 76 53 43 54 27 55 28 56
REMARK SMILES IDX 36 57 29 58 35 59 37 60 34 61 30 62 31 63 32 64 33 65 59 66
REMARK SMILES IDX 60 67 68 68 61 69 67 70 69 71 66 72 62 73 63 74 64 75 65 76
REMARK SMILES IDX 44 77 45 78 53 79 46 80 52 81 54 82 51 83 47 84 48 85 49 86
REMARK SMILES IDX 50 87
REMARK H PARENT 11 7 15 21 74 40 42 51
REMARK Flexibility Score: inf
ROOT
ATOM      1  C   UNL A   1      32.646  29.451  25.894  1.00  0.00     0.118 C 
ENDROOT
BRANCH   1   2
ATOM      2  C   UNL A   1      33.264  29.268  24.514  1.00  0.00     0.042 C 
BRANCH   2   3
ATOM      3  C   UNL A   1      32.334  28.621  23.490  1.00  0.00     0.117 C 
BRANCH   3   4
ATOM      4  N   UNL A   1      32.967  27.570  22.714  1.00  0.00    -0.356 N 
ATOM      5  C   UNL A   1      33.431  26.337  23.025  1.00  0.00     0.223 C 
ATOM      6  O   UNL A   1      33.898  25.684  22.083  1.00  0.00    -0.275 OA
ATOM      7  H   UNL A   1      33.083  27.802  21.764  1.00  0.00     0.163 HD
BRANCH   5   8
ATOM      8  C   UNL A   1      33.426  25.715  24.428  1.00  0.00     0.085 C 
ATOM      9  C   UNL A   1      32.582  23.551  25.412  1.00  0.00     0.032 C 
ATOM     10  C   UNL A   1      34.079  23.429  25.022  1.00  0.00     0.016 C 
ATOM     11  C   UNL A   1      32.129  25.022  24.964  1.00  0.00    -0.012 C 
ATOM     12  C   UNL A   1      31.809  22.444  24.636  1.00  0.00     0.020 C 
ATOM     13  C   UNL A   1      34.612  24.823  24.762  1.00  0.00     0.015 C 
ATOM     14  C   UNL A   1      30.987  25.043  23.920  1.00  0.00     0.013 C 
ATOM     15  C   UNL A   1      31.549  25.915  26.087  1.00  0.00     0.013 C 
BRANCH   9  16
ATOM     16  C   UNL A   1      32.519  23.086  26.903  1.00  0.00     0.136 C 
ATOM     17  C   UNL A   1      33.715  22.539  27.624  1.00  0.00     0.088 C 
ATOM     18  O   UNL A   1      31.437  23.051  27.507  1.00  0.00    -0.299 OA
ENDBRANCH   9  16
ENDBRANCH   5   8
ENDBRANCH   3   4
ENDBRANCH   2   3
ENDBRANCH   1   2
BRANCH   1  19
ATOM     19  N   UNL A   1      32.383  30.849  26.192  1.00  0.00    -0.352 N 
ATOM     20  C   UNL A   1      33.035  31.696  27.057  1.00  0.00     0.251 C 
ATOM     21  H   UNL A   1      31.627  31.248  25.705  1.00  0.00     0.163 HD
ATOM     22  O   UNL A   1      32.504  32.766  27.362  1.00  0.00    -0.269 OA
BRANCH  20  23
ATOM     23  C   UNL A   1      34.342  31.321  27.647  1.00  0.00     0.039 A 
ATOM     24  C   UNL A   1      35.317  32.306  27.826  1.00  0.00     0.014 A 
ATOM     25  C   UNL A   1      34.618  30.001  28.013  1.00  0.00     0.014 A 
ATOM     26  C   UNL A   1      36.530  31.983  28.444  1.00  0.00     0.010 A 
ATOM     27  C   UNL A   1      35.787  29.699  28.708  1.00  0.00     0.010 A 
ATOM     28  C   UNL A   1      36.756  30.689  28.937  1.00  0.00    -0.014 A 
BRANCH  28  29
ATOM     29  C   UNL A   1      37.986  30.343  29.702  1.00  0.00     0.031 A 
ATOM     30  C   UNL A   1      38.978  29.360  29.138  1.00  0.00     0.074 A 
ATOM     31  C   UNL A   1      38.165  30.844  30.941  1.00  0.00     0.049 A 
ATOM     32  N   UNL A   1      40.035  28.833  29.702  1.00  0.00    -0.248 NA
ATOM     33  C   UNL A   1      38.729  28.886  27.769  1.00  0.00     0.031 C 
ATOM     34  C   UNL A   1      37.258  31.778  31.614  1.00  0.00     0.029 A 
ATOM     35  N   UNL A   1      39.156  30.627  31.866  1.00  0.00    -0.354 N 
ATOM     36  C   UNL A   1      40.565  27.951  28.766  1.00  0.00     0.074 A 
ATOM     37  C   UNL A   1      39.681  27.977  27.620  1.00  0.00     0.031 C 
ATOM     38  C   UNL A   1      37.742  32.063  32.832  1.00  0.00     0.029 A 
ATOM     39  C   UNL A   1      38.961  31.292  33.056  1.00  0.00     0.049 A 
ATOM     40  H   UNL A   1      39.935  30.050  31.694  1.00  0.00     0.167 HD
ATOM     41  C   UNL A   1      41.696  27.205  28.848  1.00  0.00     0.034 A 
ATOM     42  C   UNL A   1      39.664  31.264  34.206  1.00  0.00     0.034 A 
ATOM     43  C   UNL A   1      42.577  27.206  29.990  1.00  0.00     0.049 A 
ATOM     44  C   UNL A   1      40.890  30.392  34.289  1.00  0.00     0.074 A 
ATOM     45  C   UNL A   1      43.789  26.556  30.143  1.00  0.00     0.029 A 
ATOM     46  N   UNL A   1      42.336  27.879  31.181  1.00  0.00    -0.354 N 
ATOM     47  N   UNL A   1      41.411  29.610  33.371  1.00  0.00    -0.248 NA
ATOM     48  C   UNL A   1      41.623  30.396  35.562  1.00  0.00     0.031 C 
ATOM     49  C   UNL A   1      44.244  26.775  31.448  1.00  0.00     0.029 A 
ATOM     50  C   UNL A   1      43.352  27.621  32.088  1.00  0.00     0.049 A 
ATOM     51  H   UNL A   1      41.557  28.456  31.355  1.00  0.00     0.167 HD
ATOM     52  C   UNL A   1      42.541  29.042  33.953  1.00  0.00     0.074 A 
ATOM     53  C   UNL A   1      42.637  29.587  35.292  1.00  0.00     0.031 C 
ATOM     54  C   UNL A   1      43.420  28.151  33.429  1.00  0.00     0.034 A 
BRANCH  41  55
ATOM     55  C   UNL A   1      42.027  26.308  27.679  1.00  0.00     0.023 A 
ATOM     56  C   UNL A   1      41.598  24.971  27.627  1.00  0.00     0.031 A 
ATOM     57  C   UNL A   1      42.795  26.795  26.605  1.00  0.00     0.131 A 
ATOM     58  C   UNL A   1      42.000  24.147  26.564  1.00  0.00     0.055 A 
ATOM     59  C   UNL A   1      43.124  25.992  25.511  1.00  0.00     0.041 A 
ATOM     60  F   UNL A   1      43.248  28.059  26.607  1.00  0.00    -0.206 F 
ATOM     61  C   UNL A   1      42.738  24.654  25.493  1.00  0.00     0.022 A 
BRANCH  58  62
ATOM     62  S   UNL A   1      41.656  22.369  26.670  1.00  0.00     0.124 S 
ATOM     63  O   UNL A   1      40.195  22.353  26.708  1.00  0.00    -0.237 OA
ATOM     64  O   UNL A   1      42.269  21.857  25.450  1.00  0.00    -0.237 OA
ATOM     65  O   UNL A   1      42.310  21.967  27.913  1.00  0.00    -0.744 OA
ENDBRANCH  58  62
ENDBRANCH  41  55
BRANCH  42  66
ATOM     66  C   UNL A   1      39.211  32.053  35.388  1.00  0.00     0.023 A 
ATOM     67  C   UNL A   1      39.650  33.372  35.588  1.00  0.00     0.031 A 
ATOM     68  C   UNL A   1      38.365  31.486  36.357  1.00  0.00     0.131 A 
ATOM     69  C   UNL A   1      39.274  34.065  36.749  1.00  0.00     0.055 A 
ATOM     70  C   UNL A   1      37.952  32.198  37.484  1.00  0.00     0.041 A 
ATOM     71  F   UNL A   1      37.915  30.229  36.214  1.00  0.00    -0.206 F 
ATOM     72  C   UNL A   1      38.417  33.492  37.692  1.00  0.00     0.022 A 
BRANCH  69  73
ATOM     73  S   UNL A   1      39.992  35.702  37.053  1.00  0.00     0.124 S 
ATOM     74  O   UNL A   1      39.288  36.115  38.262  1.00  0.00    -0.237 OA
ATOM     75  O   UNL A   1      41.408  35.387  37.211  1.00  0.00    -0.237 OA
ATOM     76  O   UNL A   1      39.652  36.452  35.846  1.00  0.00    -0.744 OA
ENDBRANCH  69  73
ENDBRANCH  42  66
BRANCH  54  77
ATOM     77  C   UNL A   1      44.571  27.729  34.307  1.00  0.00     0.023 A 
ATOM     78  C   UNL A   1      44.487  26.594  35.132  1.00  0.00     0.031 A 
ATOM     79  C   UNL A   1      45.767  28.469  34.317  1.00  0.00     0.131 A 
ATOM     80  C   UNL A   1      45.562  26.256  35.966  1.00  0.00     0.055 A 
ATOM     81  C   UNL A   1      46.855  28.096  35.107  1.00  0.00     0.041 A 
ATOM     82  F   UNL A   1      45.899  29.563  33.549  1.00  0.00    -0.206 F 
ATOM     83  C   UNL A   1      46.752  26.989  35.946  1.00  0.00     0.022 A 
BRANCH  80  84
ATOM     84  S   UNL A   1      45.364  24.881  37.131  1.00  0.00     0.124 S 
ATOM     85  O   UNL A   1      44.092  25.206  37.770  1.00  0.00    -0.237 OA
ATOM     86  O   UNL A   1      45.354  23.719  36.248  1.00  0.00    -0.237 OA
ATOM     87  O   UNL A   1      46.538  24.990  37.996  1.00  0.00    -0.744 OA
ENDBRANCH  80  84
ENDBRANCH  54  77
ENDBRANCH  28  29
ENDBRANCH  20  23
ENDBRANCH   1  19
TORSDOF 14
ENDMDL
