MODEL 1
REMARK VINA RESULT:     -11.4      0.000      0.000
REMARK SMILES O=C(NCCCNC(=O)[C@H](CO)NS(=O)(=O)c1c(Cl)cc(Cl)cc1Cl)c1ccc(-c2c3nc(c(-c4cc(S(=O)(=O)[O-])ccc4F)c4ccc([nH]4)c(-c4cc(S(=O)(=O)[O-])ccc4F)c4nc(c(-c5cc(S(=O)(=O)[O-])ccc5F)c5ccc2[nH]5)C=C4)C=C3)cc1
REMARK SMILES IDX 5 1 4 2 3 3 1 4 2 5 26 7 27 8 88 9 28 10 87 11 29 12 30 13
REMARK SMILES IDX 31 14 81 15 32 16 86 17 80 18 82 19 33 20 85 21 79 22 78 23
REMARK SMILES IDX 34 25 66 26 46 27 65 28 47 29 50 30 64 31 83 32 48 33 49 34
REMARK SMILES IDX 63 36 84 37 51 38 35 39 36 40 44 41 37 42 43 43 45 44 42 45
REMARK SMILES IDX 38 46 39 47 40 48 41 49 67 50 68 51 76 52 69 53 75 54 77 55
REMARK SMILES IDX 74 56 70 57 71 58 72 59 73 60 52 61 53 62 61 63 54 64 60 65
REMARK SMILES IDX 62 66 59 67 55 68 56 69 57 70 58 71 6 72 7 73 8 74 9 76
REMARK SMILES IDX 10 77 13 78 14 80 15 81 16 82 17 83 18 84 24 85 19 86 20 87
REMARK SMILES IDX 23 88 25 89 21 90 22 91 11 92 12 93
REMARK H PARENT 3 6 82 24 50 35 7 75 13 79 12 94
REMARK Flexibility Score: inf
ROOT
ATOM      1  C   UNL A   1      31.521  32.234  26.688  1.00  0.00     0.042 C 
ENDROOT
BRANCH   1   2
ATOM      2  C   UNL A   1      32.747  32.878  27.322  1.00  0.00     0.118 C 
BRANCH   2   3
ATOM      3  N   UNL A   1      32.519  34.246  27.774  1.00  0.00    -0.352 N 
ATOM      4  O   UNL A   1      32.689  36.057  29.103  1.00  0.00    -0.269 OA
ATOM      5  C   UNL A   1      33.116  34.947  28.798  1.00  0.00     0.251 C 
ATOM      6  H   UNL A   1      31.835  34.744  27.271  1.00  0.00     0.163 HD
BRANCH   5   7
ATOM      7  C   UNL A   1      34.247  34.352  29.542  1.00  0.00     0.039 A 
ATOM      8  C   UNL A   1      35.560  34.554  29.116  1.00  0.00     0.014 A 
ATOM      9  C   UNL A   1      33.992  33.577  30.677  1.00  0.00     0.014 A 
ATOM     10  C   UNL A   1      36.594  33.840  29.705  1.00  0.00     0.010 A 
ATOM     11  C   UNL A   1      35.051  32.947  31.339  1.00  0.00     0.010 A 
ATOM     12  C   UNL A   1      36.359  33.047  30.839  1.00  0.00    -0.014 A 
BRANCH  12  13
ATOM     13  C   UNL A   1      37.510  32.393  31.516  1.00  0.00     0.031 A 
ATOM     14  C   UNL A   1      38.272  31.275  30.859  1.00  0.00     0.074 A 
ATOM     15  C   UNL A   1      37.885  32.849  32.729  1.00  0.00     0.049 A 
ATOM     16  N   UNL A   1      39.295  30.596  31.316  1.00  0.00    -0.248 NA
ATOM     17  C   UNL A   1      37.823  30.855  29.524  1.00  0.00     0.031 C 
ATOM     18  C   UNL A   1      37.221  33.935  33.458  1.00  0.00     0.029 A 
ATOM     19  N   UNL A   1      38.915  32.480  33.555  1.00  0.00    -0.354 N 
ATOM     20  C   UNL A   1      39.605  29.662  30.333  1.00  0.00     0.074 A 
ATOM     21  C   UNL A   1      38.637  29.839  29.270  1.00  0.00     0.031 C 
ATOM     22  C   UNL A   1      37.889  34.175  34.594  1.00  0.00     0.029 A 
ATOM     23  C   UNL A   1      38.971  33.207  34.721  1.00  0.00     0.049 A 
ATOM     24  H   UNL A   1      39.553  31.763  33.334  1.00  0.00     0.167 HD
ATOM     25  C   UNL A   1      40.610  28.749  30.321  1.00  0.00     0.034 A 
ATOM     26  C   UNL A   1      39.779  33.090  35.792  1.00  0.00     0.034 A 
ATOM     27  C   UNL A   1      41.564  28.590  31.395  1.00  0.00     0.049 A 
ATOM     28  C   UNL A   1      40.841  32.025  35.779  1.00  0.00     0.074 A 
ATOM     29  C   UNL A   1      42.636  27.717  31.472  1.00  0.00     0.029 A 
ATOM     30  N   UNL A   1      41.558  29.308  32.585  1.00  0.00    -0.354 N 
ATOM     31  N   UNL A   1      41.131  31.160  34.834  1.00  0.00    -0.248 NA
ATOM     32  C   UNL A   1      41.690  31.923  36.972  1.00  0.00     0.031 C 
ATOM     33  C   UNL A   1      43.222  27.846  32.736  1.00  0.00     0.029 A 
ATOM     34  C   UNL A   1      42.579  28.869  33.415  1.00  0.00     0.049 A 
ATOM     35  H   UNL A   1      40.919  30.024  32.808  1.00  0.00     0.167 HD
ATOM     36  C   UNL A   1      42.216  30.431  35.311  1.00  0.00     0.074 A 
ATOM     37  C   UNL A   1      42.538  30.972  36.614  1.00  0.00     0.031 C 
ATOM     38  C   UNL A   1      42.886  29.408  34.720  1.00  0.00     0.034 A 
BRANCH  25  39
ATOM     39  C   UNL A   1      40.702  27.819  29.132  1.00  0.00     0.023 A 
ATOM     40  C   UNL A   1      41.629  28.023  28.096  1.00  0.00     0.031 A 
ATOM     41  C   UNL A   1      39.846  26.706  29.037  1.00  0.00     0.131 A 
ATOM     42  C   UNL A   1      41.635  27.168  26.982  1.00  0.00     0.055 A 
ATOM     43  C   UNL A   1      39.911  25.813  27.966  1.00  0.00     0.041 A 
ATOM     44  F   UNL A   1      38.923  26.469  29.983  1.00  0.00    -0.206 F 
ATOM     45  C   UNL A   1      40.801  26.048  26.923  1.00  0.00     0.022 A 
BRANCH  42  46
ATOM     46  S   UNL A   1      42.650  27.617  25.548  1.00  0.00     0.124 S 
ATOM     47  O   UNL A   1      43.959  27.825  26.164  1.00  0.00    -0.237 OA
ATOM     48  O   UNL A   1      42.526  26.443  24.692  1.00  0.00    -0.237 OA
ATOM     49  O   UNL A   1      42.010  28.830  25.040  1.00  0.00    -0.744 OA
ENDBRANCH  42  46
ENDBRANCH  25  39
BRANCH  26  50
ATOM     50  C   UNL A   1      39.585  33.971  36.980  1.00  0.00     0.023 A 
ATOM     51  C   UNL A   1      39.010  33.480  38.161  1.00  0.00     0.031 A 
ATOM     52  C   UNL A   1      39.938  35.333  36.934  1.00  0.00     0.131 A 
ATOM     53  C   UNL A   1      38.754  34.355  39.228  1.00  0.00     0.055 A 
ATOM     54  C   UNL A   1      39.745  36.183  38.023  1.00  0.00     0.041 A 
ATOM     55  F   UNL A   1      40.492  35.856  35.829  1.00  0.00    -0.206 F 
ATOM     56  C   UNL A   1      39.135  35.698  39.175  1.00  0.00     0.022 A 
BRANCH  53  57
ATOM     57  S   UNL A   1      37.815  33.735  40.650  1.00  0.00     0.124 S 
ATOM     58  O   UNL A   1      38.792  32.859  41.289  1.00  0.00    -0.237 OA
ATOM     59  O   UNL A   1      37.496  34.967  41.363  1.00  0.00    -0.237 OA
ATOM     60  O   UNL A   1      36.676  33.057  40.034  1.00  0.00    -0.744 OA
ENDBRANCH  53  57
ENDBRANCH  26  50
BRANCH  38  61
ATOM     61  C   UNL A   1      44.072  28.846  35.468  1.00  0.00     0.023 A 
ATOM     62  C   UNL A   1      43.947  27.767  36.360  1.00  0.00     0.031 A 
ATOM     63  C   UNL A   1      45.346  29.418  35.300  1.00  0.00     0.131 A 
ATOM     64  C   UNL A   1      45.061  27.334  37.093  1.00  0.00     0.055 A 
ATOM     65  C   UNL A   1      46.465  28.938  35.980  1.00  0.00     0.041 A 
ATOM     66  F   UNL A   1      45.524  30.457  34.467  1.00  0.00    -0.206 F 
ATOM     67  C   UNL A   1      46.324  27.899  36.894  1.00  0.00     0.022 A 
BRANCH  64  68
ATOM     68  S   UNL A   1      44.820  26.091  38.393  1.00  0.00     0.124 S 
ATOM     69  O   UNL A   1      43.950  25.124  37.730  1.00  0.00    -0.237 OA
ATOM     70  O   UNL A   1      46.185  25.643  38.655  1.00  0.00    -0.237 OA
ATOM     71  O   UNL A   1      44.196  26.845  39.478  1.00  0.00    -0.744 OA
ENDBRANCH  64  68
ENDBRANCH  38  61
ENDBRANCH  12  13
ENDBRANCH   5   7
ENDBRANCH   2   3
ENDBRANCH   1   2
BRANCH   1  72
ATOM     72  C   UNL A   1      31.670  30.756  26.374  1.00  0.00     0.117 C 
BRANCH  72  73
ATOM     73  N   UNL A   1      31.273  30.414  25.024  1.00  0.00    -0.355 N 
ATOM     74  C   UNL A   1      31.370  29.239  24.347  1.00  0.00     0.240 C 
ATOM     75  H   UNL A   1      30.866  31.151  24.513  1.00  0.00     0.163 HD
ATOM     76  O   UNL A   1      30.704  29.120  23.313  1.00  0.00    -0.273 OA
BRANCH  74  77
ATOM     77  C   UNL A   1      32.177  28.064  24.880  1.00  0.00     0.184 C 
BRANCH  77  78
ATOM     78  N   UNL A   1      31.871  26.737  24.317  1.00  0.00    -0.196 NA
ATOM     79  H   UNL A   1      32.629  26.513  23.672  1.00  0.00     0.142 HD
BRANCH  78  80
ATOM     80  S   UNL A   1      31.681  25.404  25.316  1.00  0.00     0.244 S 
ATOM     81  O   UNL A   1      31.671  25.878  26.676  1.00  0.00    -0.207 OA
ATOM     82  O   UNL A   1      30.521  24.700  24.818  1.00  0.00    -0.207 OA
BRANCH  80  83
ATOM     83  C   UNL A   1      33.133  24.430  24.977  1.00  0.00     0.119 A 
ATOM     84  C   UNL A   1      33.845  24.573  23.772  1.00  0.00     0.064 A 
ATOM     85  C   UNL A   1      33.604  23.498  25.921  1.00  0.00     0.064 A 
ATOM     86  Cl  UNL A   1      33.456  25.653  22.484  1.00  0.00    -0.083 Cl
ATOM     87  C   UNL A   1      34.971  23.775  23.510  1.00  0.00     0.042 A 
ATOM     88  C   UNL A   1      34.754  22.732  25.659  1.00  0.00     0.042 A 
ATOM     89  Cl  UNL A   1      32.836  23.124  27.425  1.00  0.00    -0.083 Cl
ATOM     90  C   UNL A   1      35.423  22.865  24.452  1.00  0.00     0.044 A 
ATOM     91  Cl  UNL A   1      36.797  21.891  24.112  1.00  0.00    -0.084 Cl
ENDBRANCH  80  83
ENDBRANCH  78  80
ENDBRANCH  77  78
BRANCH  77  92
ATOM     92  C   UNL A   1      33.679  28.390  24.777  1.00  0.00     0.186 C 
BRANCH  92  93
ATOM     93  O   UNL A   1      33.928  29.355  23.751  1.00  0.00    -0.394 OA
ATOM     94  H   UNL A   1      34.375  30.127  24.135  1.00  0.00     0.210 HD
ENDBRANCH  92  93
ENDBRANCH  77  92
ENDBRANCH  74  77
ENDBRANCH  72  73
ENDBRANCH   1  72
TORSDOF 18
ENDMDL
MODEL 2
REMARK VINA RESULT:     -11.4      1.657      1.941
REMARK SMILES O=C(NCCCNC(=O)[C@H](CO)NS(=O)(=O)c1c(Cl)cc(Cl)cc1Cl)c1ccc(-c2c3nc(c(-c4cc(S(=O)(=O)[O-])ccc4F)c4ccc([nH]4)c(-c4cc(S(=O)(=O)[O-])ccc4F)c4nc(c(-c5cc(S(=O)(=O)[O-])ccc5F)c5ccc2[nH]5)C=C4)C=C3)cc1
REMARK SMILES IDX 5 1 4 2 3 3 1 4 2 5 26 7 27 8 88 9 28 10 87 11 29 12 30 13
REMARK SMILES IDX 31 14 81 15 32 16 86 17 80 18 82 19 33 20 85 21 79 22 78 23
REMARK SMILES IDX 34 25 66 26 46 27 65 28 47 29 50 30 64 31 83 32 48 33 49 34
REMARK SMILES IDX 63 36 84 37 51 38 35 39 36 40 44 41 37 42 43 43 45 44 42 45
REMARK SMILES IDX 38 46 39 47 40 48 41 49 67 50 68 51 76 52 69 53 75 54 77 55
REMARK SMILES IDX 74 56 70 57 71 58 72 59 73 60 52 61 53 62 61 63 54 64 60 65
REMARK SMILES IDX 62 66 59 67 55 68 56 69 57 70 58 71 6 72 7 73 8 74 9 76
REMARK SMILES IDX 10 77 13 78 14 80 15 81 16 82 17 83 18 84 24 85 19 86 20 87
REMARK SMILES IDX 23 88 25 89 21 90 22 91 11 92 12 93
REMARK H PARENT 3 6 82 24 50 35 7 75 13 79 12 94
REMARK Flexibility Score: inf
ROOT
ATOM      1  C   UNL A   1      31.297  32.026  26.497  1.00  0.00     0.042 C 
ENDROOT
BRANCH   1   2
ATOM      2  C   UNL A   1      32.621  32.652  26.914  1.00  0.00     0.118 C 
BRANCH   2   3
ATOM      3  N   UNL A   1      32.476  33.960  27.545  1.00  0.00    -0.352 N 
ATOM      4  O   UNL A   1      32.818  35.593  29.058  1.00  0.00    -0.269 OA
ATOM      5  C   UNL A   1      33.182  34.521  28.585  1.00  0.00     0.251 C 
ATOM      6  H   UNL A   1      31.764  34.527  27.169  1.00  0.00     0.163 HD
BRANCH   5   7
ATOM      7  C   UNL A   1      34.357  33.819  29.145  1.00  0.00     0.039 A 
ATOM      8  C   UNL A   1      34.191  32.764  30.042  1.00  0.00     0.014 A 
ATOM      9  C   UNL A   1      35.643  34.225  28.774  1.00  0.00     0.014 A 
ATOM     10  C   UNL A   1      35.294  32.240  30.704  1.00  0.00     0.010 A 
ATOM     11  C   UNL A   1      36.758  33.617  29.360  1.00  0.00     0.010 A 
ATOM     12  C   UNL A   1      36.593  32.642  30.355  1.00  0.00    -0.014 A 
BRANCH  12  13
ATOM     13  C   UNL A   1      37.754  31.973  31.000  1.00  0.00     0.031 A 
ATOM     14  C   UNL A   1      38.573  30.947  30.265  1.00  0.00     0.074 A 
ATOM     15  C   UNL A   1      38.085  32.331  32.257  1.00  0.00     0.049 A 
ATOM     16  N   UNL A   1      39.611  30.268  30.684  1.00  0.00    -0.248 NA
ATOM     17  C   UNL A   1      38.170  30.634  28.887  1.00  0.00     0.031 C 
ATOM     18  C   UNL A   1      37.363  33.321  33.064  1.00  0.00     0.029 A 
ATOM     19  N   UNL A   1      39.110  31.927  33.073  1.00  0.00    -0.354 N 
ATOM     20  C   UNL A   1      39.979  29.438  29.630  1.00  0.00     0.074 A 
ATOM     21  C   UNL A   1      39.028  29.675  28.564  1.00  0.00     0.031 C 
ATOM     22  C   UNL A   1      37.996  33.482  34.233  1.00  0.00     0.029 A 
ATOM     23  C   UNL A   1      39.112  32.547  34.300  1.00  0.00     0.049 A 
ATOM     24  H   UNL A   1      39.780  31.257  32.805  1.00  0.00     0.167 HD
ATOM     25  C   UNL A   1      41.018  28.569  29.562  1.00  0.00     0.034 A 
ATOM     26  C   UNL A   1      39.900  32.364  35.376  1.00  0.00     0.034 A 
ATOM     27  C   UNL A   1      41.955  28.348  30.641  1.00  0.00     0.049 A 
ATOM     28  C   UNL A   1      41.004  31.345  35.295  1.00  0.00     0.074 A 
ATOM     29  C   UNL A   1      43.058  27.512  30.666  1.00  0.00     0.029 A 
ATOM     30  N   UNL A   1      41.895  28.955  31.890  1.00  0.00    -0.354 N 
ATOM     31  N   UNL A   1      41.347  30.579  34.284  1.00  0.00    -0.248 NA
ATOM     32  C   UNL A   1      41.830  31.167  36.494  1.00  0.00     0.031 C 
ATOM     33  C   UNL A   1      43.611  27.548  31.951  1.00  0.00     0.029 A 
ATOM     34  C   UNL A   1      42.914  28.481  32.702  1.00  0.00     0.049 A 
ATOM     35  H   UNL A   1      41.223  29.624  32.160  1.00  0.00     0.167 HD
ATOM     36  C   UNL A   1      42.449  29.850  34.720  1.00  0.00     0.074 A 
ATOM     37  C   UNL A   1      42.722  30.283  36.075  1.00  0.00     0.031 C 
ATOM     38  C   UNL A   1      43.171  28.910  34.058  1.00  0.00     0.034 A 
BRANCH  25  39
ATOM     39  C   UNL A   1      41.172  27.754  28.297  1.00  0.00     0.023 A 
ATOM     40  C   UNL A   1      40.808  26.398  28.234  1.00  0.00     0.031 A 
ATOM     41  C   UNL A   1      41.691  28.348  27.131  1.00  0.00     0.131 A 
ATOM     42  C   UNL A   1      41.027  25.667  27.055  1.00  0.00     0.055 A 
ATOM     43  C   UNL A   1      41.830  27.637  25.938  1.00  0.00     0.041 A 
ATOM     44  F   UNL A   1      42.077  29.634  27.132  1.00  0.00    -0.206 F 
ATOM     45  C   UNL A   1      41.509  26.284  25.898  1.00  0.00     0.022 A 
BRANCH  42  46
ATOM     46  S   UNL A   1      40.802  23.868  27.095  1.00  0.00     0.124 S 
ATOM     47  O   UNL A   1      41.628  23.440  25.968  1.00  0.00    -0.237 OA
ATOM     48  O   UNL A   1      41.298  23.517  28.420  1.00  0.00    -0.237 OA
ATOM     49  O   UNL A   1      39.363  23.697  26.902  1.00  0.00    -0.744 OA
ENDBRANCH  42  46
ENDBRANCH  25  39
BRANCH  26  50
ATOM     50  C   UNL A   1      39.647  33.126  36.633  1.00  0.00     0.023 A 
ATOM     51  C   UNL A   1      38.816  32.612  37.638  1.00  0.00     0.031 A 
ATOM     52  C   UNL A   1      40.204  34.404  36.827  1.00  0.00     0.131 A 
ATOM     53  C   UNL A   1      38.521  33.393  38.767  1.00  0.00     0.055 A 
ATOM     54  C   UNL A   1      39.963  35.147  37.983  1.00  0.00     0.041 A 
ATOM     55  F   UNL A   1      41.008  34.945  35.898  1.00  0.00    -0.206 F 
ATOM     56  C   UNL A   1      39.104  34.648  38.955  1.00  0.00     0.022 A 
BRANCH  53  57
ATOM     57  S   UNL A   1      37.276  32.786  39.937  1.00  0.00     0.124 S 
ATOM     58  O   UNL A   1      37.863  31.520  40.363  1.00  0.00    -0.237 OA
ATOM     59  O   UNL A   1      37.254  33.851  40.935  1.00  0.00    -0.237 OA
ATOM     60  O   UNL A   1      36.069  32.673  39.120  1.00  0.00    -0.744 OA
ENDBRANCH  53  57
ENDBRANCH  26  50
BRANCH  38  61
ATOM     61  C   UNL A   1      44.362  28.328  34.782  1.00  0.00     0.023 A 
ATOM     62  C   UNL A   1      44.219  27.355  35.787  1.00  0.00     0.031 A 
ATOM     63  C   UNL A   1      45.660  28.772  34.473  1.00  0.00     0.131 A 
ATOM     64  C   UNL A   1      45.347  26.904  36.488  1.00  0.00     0.055 A 
ATOM     65  C   UNL A   1      46.785  28.268  35.127  1.00  0.00     0.041 A 
ATOM     66  F   UNL A   1      45.857  29.706  33.528  1.00  0.00    -0.206 F 
ATOM     67  C   UNL A   1      46.632  27.340  36.151  1.00  0.00     0.022 A 
BRANCH  64  68
ATOM     68  S   UNL A   1      45.106  25.819  37.922  1.00  0.00     0.124 S 
ATOM     69  O   UNL A   1      44.010  26.481  38.622  1.00  0.00    -0.237 OA
ATOM     70  O   UNL A   1      44.782  24.541  37.296  1.00  0.00    -0.237 OA
ATOM     71  O   UNL A   1      46.397  25.865  38.607  1.00  0.00    -0.744 OA
ENDBRANCH  64  68
ENDBRANCH  38  61
ENDBRANCH  12  13
ENDBRANCH   5   7
ENDBRANCH   2   3
ENDBRANCH   1   2
BRANCH   1  72
ATOM     72  C   UNL A   1      31.414  30.649  25.870  1.00  0.00     0.117 C 
BRANCH  72  73
ATOM     73  N   UNL A   1      30.625  30.498  24.665  1.00  0.00    -0.355 N 
ATOM     74  C   UNL A   1      30.419  29.410  23.877  1.00  0.00     0.240 C 
ATOM     75  H   UNL A   1      30.163  31.315  24.369  1.00  0.00     0.163 HD
ATOM     76  O   UNL A   1      29.483  29.459  23.072  1.00  0.00    -0.273 OA
BRANCH  74  77
ATOM     77  C   UNL A   1      31.229  28.132  24.036  1.00  0.00     0.184 C 
BRANCH  77  78
ATOM     78  N   UNL A   1      30.505  26.942  24.519  1.00  0.00    -0.196 NA
ATOM     79  H   UNL A   1      30.672  26.202  23.837  1.00  0.00     0.142 HD
BRANCH  78  80
ATOM     80  S   UNL A   1      30.841  26.287  26.027  1.00  0.00     0.244 S 
ATOM     81  O   UNL A   1      31.122  27.380  26.922  1.00  0.00    -0.207 OA
ATOM     82  O   UNL A   1      29.733  25.409  26.330  1.00  0.00    -0.207 OA
BRANCH  80  83
ATOM     83  C   UNL A   1      32.291  25.299  25.728  1.00  0.00     0.119 A 
ATOM     84  C   UNL A   1      33.582  25.853  25.799  1.00  0.00     0.064 A 
ATOM     85  C   UNL A   1      32.172  23.931  25.420  1.00  0.00     0.064 A 
ATOM     86  Cl  UNL A   1      33.964  27.496  26.166  1.00  0.00    -0.083 Cl
ATOM     87  C   UNL A   1      34.713  25.064  25.532  1.00  0.00     0.042 A 
ATOM     88  C   UNL A   1      33.315  23.146  25.191  1.00  0.00     0.042 A 
ATOM     89  Cl  UNL A   1      30.680  23.079  25.217  1.00  0.00    -0.083 Cl
ATOM     90  C   UNL A   1      34.577  23.719  25.235  1.00  0.00     0.044 A 
ATOM     91  Cl  UNL A   1      35.970  22.769  24.902  1.00  0.00    -0.084 Cl
ENDBRANCH  80  83
ENDBRANCH  78  80
ENDBRANCH  77  78
BRANCH  77  92
ATOM     92  C   UNL A   1      31.983  27.841  22.725  1.00  0.00     0.186 C 
BRANCH  92  93
ATOM     93  O   UNL A   1      31.082  27.439  21.689  1.00  0.00    -0.394 OA
ATOM     94  H   UNL A   1      31.099  26.472  21.603  1.00  0.00     0.210 HD
ENDBRANCH  92  93
ENDBRANCH  77  92
ENDBRANCH  74  77
ENDBRANCH  72  73
ENDBRANCH   1  72
TORSDOF 18
ENDMDL
MODEL 3
REMARK VINA RESULT:     -11.4      2.442      3.221
REMARK SMILES O=C(NCCCNC(=O)[C@H](CO)NS(=O)(=O)c1c(Cl)cc(Cl)cc1Cl)c1ccc(-c2c3nc(c(-c4cc(S(=O)(=O)[O-])ccc4F)c4ccc([nH]4)c(-c4cc(S(=O)(=O)[O-])ccc4F)c4nc(c(-c5cc(S(=O)(=O)[O-])ccc5F)c5ccc2[nH]5)C=C4)C=C3)cc1
REMARK SMILES IDX 5 1 4 2 3 3 1 4 2 5 26 7 27 8 88 9 28 10 87 11 29 12 30 13
REMARK SMILES IDX 31 14 81 15 32 16 86 17 80 18 82 19 33 20 85 21 79 22 78 23
REMARK SMILES IDX 34 25 66 26 46 27 65 28 47 29 50 30 64 31 83 32 48 33 49 34
REMARK SMILES IDX 63 36 84 37 51 38 35 39 36 40 44 41 37 42 43 43 45 44 42 45
REMARK SMILES IDX 38 46 39 47 40 48 41 49 67 50 68 51 76 52 69 53 75 54 77 55
REMARK SMILES IDX 74 56 70 57 71 58 72 59 73 60 52 61 53 62 61 63 54 64 60 65
REMARK SMILES IDX 62 66 59 67 55 68 56 69 57 70 58 71 6 72 7 73 8 74 9 76
REMARK SMILES IDX 10 77 13 78 14 80 15 81 16 82 17 83 18 84 24 85 19 86 20 87
REMARK SMILES IDX 23 88 25 89 21 90 22 91 11 92 12 93
REMARK H PARENT 3 6 82 24 50 35 7 75 13 79 12 94
REMARK Flexibility Score: inf
ROOT
ATOM      1  C   UNL A   1      33.962  29.342  23.901  1.00  0.00     0.042 C 
ENDROOT
BRANCH   1   2
ATOM      2  C   UNL A   1      33.050  29.174  25.108  1.00  0.00     0.118 C 
BRANCH   2   3
ATOM      3  N   UNL A   1      32.523  30.433  25.622  1.00  0.00    -0.352 N 
ATOM      4  O   UNL A   1      32.288  32.174  27.032  1.00  0.00    -0.269 OA
ATOM      5  C   UNL A   1      32.952  31.204  26.679  1.00  0.00     0.251 C 
ATOM      6  H   UNL A   1      31.740  30.786  25.139  1.00  0.00     0.163 HD
BRANCH   5   7
ATOM      7  C   UNL A   1      34.193  30.846  27.399  1.00  0.00     0.039 A 
ATOM      8  C   UNL A   1      34.398  29.545  27.855  1.00  0.00     0.014 A 
ATOM      9  C   UNL A   1      35.162  31.828  27.628  1.00  0.00     0.014 A 
ATOM     10  C   UNL A   1      35.471  29.266  28.691  1.00  0.00     0.010 A 
ATOM     11  C   UNL A   1      36.302  31.515  28.377  1.00  0.00     0.010 A 
ATOM     12  C   UNL A   1      36.451  30.240  28.943  1.00  0.00    -0.014 A 
BRANCH  12  13
ATOM     13  C   UNL A   1      37.649  29.870  29.743  1.00  0.00     0.031 A 
ATOM     14  C   UNL A   1      38.723  28.983  29.178  1.00  0.00     0.074 A 
ATOM     15  C   UNL A   1      37.772  30.379  30.986  1.00  0.00     0.049 A 
ATOM     16  N   UNL A   1      39.826  28.562  29.745  1.00  0.00    -0.248 NA
ATOM     17  C   UNL A   1      38.533  28.494  27.805  1.00  0.00     0.031 C 
ATOM     18  C   UNL A   1      36.792  31.257  31.634  1.00  0.00     0.029 A 
ATOM     19  N   UNL A   1      38.768  30.253  31.920  1.00  0.00    -0.354 N 
ATOM     20  C   UNL A   1      40.456  27.751  28.807  1.00  0.00     0.074 A 
ATOM     21  C   UNL A   1      39.590  27.710  27.646  1.00  0.00     0.031 C 
ATOM     22  C   UNL A   1      37.258  31.628  32.833  1.00  0.00     0.029 A 
ATOM     23  C   UNL A   1      38.523  30.948  33.081  1.00  0.00     0.049 A 
ATOM     24  H   UNL A   1      39.580  29.716  31.772  1.00  0.00     0.167 HD
ATOM     25  C   UNL A   1      41.647  27.109  28.908  1.00  0.00     0.034 A 
ATOM     26  C   UNL A   1      39.217  31.008  34.233  1.00  0.00     0.034 A 
ATOM     27  C   UNL A   1      42.493  27.163  30.079  1.00  0.00     0.049 A 
ATOM     28  C   UNL A   1      40.502  30.232  34.340  1.00  0.00     0.074 A 
ATOM     29  C   UNL A   1      43.730  26.573  30.275  1.00  0.00     0.029 A 
ATOM     30  N   UNL A   1      42.187  27.833  31.257  1.00  0.00    -0.354 N 
ATOM     31  N   UNL A   1      41.090  29.482  33.436  1.00  0.00    -0.248 NA
ATOM     32  C   UNL A   1      41.219  30.314  35.617  1.00  0.00     0.031 C 
ATOM     33  C   UNL A   1      44.130  26.815  31.594  1.00  0.00     0.029 A 
ATOM     34  C   UNL A   1      43.191  27.638  32.194  1.00  0.00     0.049 A 
ATOM     35  H   UNL A   1      41.374  28.370  31.406  1.00  0.00     0.167 HD
ATOM     36  C   UNL A   1      42.263  29.027  34.030  1.00  0.00     0.074 A 
ATOM     37  C   UNL A   1      42.306  29.603  35.358  1.00  0.00     0.031 C 
ATOM     38  C   UNL A   1      43.220  28.208  33.521  1.00  0.00     0.034 A 
BRANCH  25  39
ATOM     39  C   UNL A   1      42.086  26.252  27.741  1.00  0.00     0.023 A 
ATOM     40  C   UNL A   1      41.694  24.909  27.613  1.00  0.00     0.031 A 
ATOM     41  C   UNL A   1      42.909  26.794  26.737  1.00  0.00     0.131 A 
ATOM     42  C   UNL A   1      42.178  24.136  26.544  1.00  0.00     0.055 A 
ATOM     43  C   UNL A   1      43.321  26.044  25.633  1.00  0.00     0.041 A 
ATOM     44  F   UNL A   1      43.335  28.065  26.813  1.00  0.00    -0.206 F 
ATOM     45  C   UNL A   1      42.965  24.702  25.538  1.00  0.00     0.022 A 
BRANCH  42  46
ATOM     46  S   UNL A   1      41.876  22.348  26.559  1.00  0.00     0.124 S 
ATOM     47  O   UNL A   1      42.320  21.984  27.903  1.00  0.00    -0.237 OA
ATOM     48  O   UNL A   1      40.441  22.267  26.316  1.00  0.00    -0.237 OA
ATOM     49  O   UNL A   1      42.722  21.848  25.476  1.00  0.00    -0.744 OA
ENDBRANCH  42  46
ENDBRANCH  25  39
BRANCH  26  50
ATOM     50  C   UNL A   1      38.693  31.792  35.388  1.00  0.00     0.023 A 
ATOM     51  C   UNL A   1      38.212  31.153  36.540  1.00  0.00     0.031 A 
ATOM     52  C   UNL A   1      38.626  33.197  35.337  1.00  0.00     0.131 A 
ATOM     53  C   UNL A   1      37.638  31.912  37.571  1.00  0.00     0.055 A 
ATOM     54  C   UNL A   1      38.117  33.952  36.394  1.00  0.00     0.041 A 
ATOM     55  F   UNL A   1      39.071  33.861  34.259  1.00  0.00    -0.206 F 
ATOM     56  C   UNL A   1      37.604  33.307  37.514  1.00  0.00     0.022 A 
BRANCH  53  57
ATOM     57  S   UNL A   1      36.834  31.041  38.943  1.00  0.00     0.124 S 
ATOM     58  O   UNL A   1      36.752  29.681  38.421  1.00  0.00    -0.237 OA
ATOM     59  O   UNL A   1      37.781  31.253  40.033  1.00  0.00    -0.237 OA
ATOM     60  O   UNL A   1      35.556  31.735  39.084  1.00  0.00    -0.744 OA
ENDBRANCH  53  57
ENDBRANCH  26  50
BRANCH  38  61
ATOM     61  C   UNL A   1      44.421  27.935  34.395  1.00  0.00     0.023 A 
ATOM     62  C   UNL A   1      44.478  26.824  35.256  1.00  0.00     0.031 A 
ATOM     63  C   UNL A   1      45.517  28.815  34.380  1.00  0.00     0.131 A 
ATOM     64  C   UNL A   1      45.580  26.658  36.108  1.00  0.00     0.055 A 
ATOM     65  C   UNL A   1      46.641  28.606  35.180  1.00  0.00     0.041 A 
ATOM     66  F   UNL A   1      45.514  29.897  33.583  1.00  0.00    -0.206 F 
ATOM     67  C   UNL A   1      46.671  27.530  36.061  1.00  0.00     0.022 A 
BRANCH  64  68
ATOM     68  S   UNL A   1      45.524  25.345  37.358  1.00  0.00     0.124 S 
ATOM     69  O   UNL A   1      44.634  24.370  36.734  1.00  0.00    -0.237 OA
ATOM     70  O   UNL A   1      46.925  24.951  37.462  1.00  0.00    -0.237 OA
ATOM     71  O   UNL A   1      44.979  26.016  38.537  1.00  0.00    -0.744 OA
ENDBRANCH  64  68
ENDBRANCH  38  61
ENDBRANCH  12  13
ENDBRANCH   5   7
ENDBRANCH   2   3
ENDBRANCH   1   2
BRANCH   1  72
ATOM     72  C   UNL A   1      33.663  28.409  22.742  1.00  0.00     0.117 C 
BRANCH  72  73
ATOM     73  N   UNL A   1      32.246  28.209  22.517  1.00  0.00    -0.355 N 
ATOM     74  C   UNL A   1      31.505  27.070  22.514  1.00  0.00     0.240 C 
ATOM     75  H   UNL A   1      31.737  29.032  22.337  1.00  0.00     0.163 HD
ATOM     76  O   UNL A   1      30.277  27.188  22.581  1.00  0.00    -0.273 OA
BRANCH  74  77
ATOM     77  C   UNL A   1      32.146  25.690  22.537  1.00  0.00     0.184 C 
BRANCH  77  78
ATOM     78  N   UNL A   1      31.356  24.599  23.136  1.00  0.00    -0.196 NA
ATOM     79  H   UNL A   1      31.516  23.773  22.560  1.00  0.00     0.142 HD
BRANCH  78  80
ATOM     80  S   UNL A   1      31.608  24.131  24.727  1.00  0.00     0.244 S 
ATOM     81  O   UNL A   1      31.563  25.318  25.542  1.00  0.00    -0.207 OA
ATOM     82  O   UNL A   1      30.653  23.077  24.983  1.00  0.00    -0.207 OA
BRANCH  80  83
ATOM     83  C   UNL A   1      33.244  23.428  24.690  1.00  0.00     0.119 A 
ATOM     84  C   UNL A   1      33.462  22.105  24.267  1.00  0.00     0.064 A 
ATOM     85  C   UNL A   1      34.359  24.195  25.078  1.00  0.00     0.064 A 
ATOM     86  Cl  UNL A   1      32.252  20.993  23.743  1.00  0.00    -0.083 Cl
ATOM     87  C   UNL A   1      34.757  21.559  24.273  1.00  0.00     0.042 A 
ATOM     88  C   UNL A   1      35.652  23.646  25.044  1.00  0.00     0.042 A 
ATOM     89  Cl  UNL A   1      34.295  25.811  25.693  1.00  0.00    -0.083 Cl
ATOM     90  C   UNL A   1      35.843  22.329  24.654  1.00  0.00     0.044 A 
ATOM     91  Cl  UNL A   1      37.418  21.644  24.663  1.00  0.00    -0.084 Cl
ENDBRANCH  80  83
ENDBRANCH  78  80
ENDBRANCH  77  78
BRANCH  77  92
ATOM     92  C   UNL A   1      32.624  25.328  21.118  1.00  0.00     0.186 C 
BRANCH  92  93
ATOM     93  O   UNL A   1      31.777  25.911  20.123  1.00  0.00    -0.394 OA
ATOM     94  H   UNL A   1      32.283  26.560  19.609  1.00  0.00     0.210 HD
ENDBRANCH  92  93
ENDBRANCH  77  92
ENDBRANCH  74  77
ENDBRANCH  72  73
ENDBRANCH   1  72
TORSDOF 18
ENDMDL
