MODEL 1
REMARK VINA RESULT:     -13.4      0.000      0.000
REMARK SMILES O=C(NCCCNC(=O)c1ccc(-c2c3nc(c(-c4cc(S(=O)(=O)[O-])ccc4F)c4ccc([nH]4)c(-c4cc(S(=O)(=O)[O-])ccc4F)c4nc(c(-c5cc(S(=O)(=O)[O-])ccc5F)c5ccc2[nH]5)C=C4)C=C3)cc1)C1=NN(c2cc(F)ccc2F)[C@@H](c2ccccc2)C1
REMARK SMILES IDX 6 1 5 2 4 3 3 4 1 5 2 6 73 8 74 9 91 10 75 11 84 12 76 13
REMARK SMILES IDX 77 14 82 15 78 16 81 17 83 18 79 19 80 20 85 21 86 22 90 23
REMARK SMILES IDX 87 24 89 25 88 26 7 27 8 28 9 30 10 31 11 32 72 33 12 34
REMARK SMILES IDX 71 35 13 36 14 37 15 38 65 39 16 40 70 41 64 42 66 43 17 44
REMARK SMILES IDX 69 45 63 46 62 47 18 49 50 50 30 51 49 52 31 53 34 54 48 55
REMARK SMILES IDX 67 56 32 57 33 58 47 60 68 61 35 62 19 63 20 64 28 65 21 66
REMARK SMILES IDX 27 67 29 68 26 69 22 70 23 71 24 72 25 73 51 74 52 75 60 76
REMARK SMILES IDX 53 77 59 78 61 79 58 80 54 81 55 82 56 83 57 84 36 85 37 86
REMARK SMILES IDX 45 87 38 88 44 89 46 90 43 91 39 92 40 93 41 94 42 95
REMARK H PARENT 3 7 7 29 66 48 34 59
REMARK Flexibility Score: inf
ROOT
ATOM      1  C   UNL A   1      32.820  28.588  25.772  1.00  0.00     0.118 C 
ENDROOT
BRANCH   1   2
ATOM      2  C   UNL A   1      31.682  27.646  25.394  1.00  0.00     0.042 C 
BRANCH   2   3
ATOM      3  C   UNL A   1      31.923  26.195  25.794  1.00  0.00     0.118 C 
BRANCH   3   4
ATOM      4  N   UNL A   1      30.758  25.581  26.417  1.00  0.00    -0.351 N 
ATOM      5  O   UNL A   1      29.522  23.867  27.271  1.00  0.00    -0.268 OA
ATOM      6  C   UNL A   1      30.555  24.261  26.742  1.00  0.00     0.267 C 
ATOM      7  H   UNL A   1      30.017  26.193  26.634  1.00  0.00     0.163 HD
BRANCH   6   8
ATOM      8  C   UNL A   1      31.611  23.249  26.397  1.00  0.00     0.128 C 
ATOM      9  N   UNL A   1      31.399  22.248  25.601  1.00  0.00    -0.171 NA
ATOM     10  C   UNL A   1      32.973  23.363  27.001  1.00  0.00     0.096 C 
ATOM     11  N   UNL A   1      32.517  21.482  25.675  1.00  0.00    -0.254 N 
ATOM     12  C   UNL A   1      33.631  22.122  26.385  1.00  0.00     0.144 C 
BRANCH  11  13
ATOM     13  C   UNL A   1      32.605  20.272  24.995  1.00  0.00     0.099 A 
ATOM     14  C   UNL A   1      32.832  19.080  25.698  1.00  0.00     0.070 A 
ATOM     15  C   UNL A   1      32.460  20.180  23.600  1.00  0.00     0.148 A 
ATOM     16  C   UNL A   1      32.859  17.858  25.033  1.00  0.00     0.125 A 
ATOM     17  C   UNL A   1      32.515  18.957  22.929  1.00  0.00     0.044 A 
ATOM     18  F   UNL A   1      32.288  21.287  22.860  1.00  0.00    -0.205 F 
ATOM     19  F   UNL A   1      33.021  16.728  25.735  1.00  0.00    -0.207 F 
ATOM     20  C   UNL A   1      32.704  17.785  23.654  1.00  0.00     0.042 A 
ENDBRANCH  11  13
BRANCH  12  21
ATOM     21  C   UNL A   1      34.751  22.397  25.388  1.00  0.00    -0.023 A 
ATOM     22  C   UNL A   1      34.565  23.236  24.276  1.00  0.00     0.006 A 
ATOM     23  C   UNL A   1      35.945  21.659  25.475  1.00  0.00     0.006 A 
ATOM     24  C   UNL A   1      35.533  23.317  23.273  1.00  0.00     0.000 A 
ATOM     25  C   UNL A   1      36.908  21.736  24.468  1.00  0.00     0.000 A 
ATOM     26  C   UNL A   1      36.699  22.559  23.364  1.00  0.00     0.000 A 
ENDBRANCH  12  21
ENDBRANCH   6   8
ENDBRANCH   3   4
ENDBRANCH   2   3
ENDBRANCH   1   2
BRANCH   1  27
ATOM     27  N   UNL A   1      32.356  29.938  26.072  1.00  0.00    -0.352 N 
ATOM     28  C   UNL A   1      32.900  30.902  26.888  1.00  0.00     0.251 C 
ATOM     29  H   UNL A   1      31.522  30.199  25.620  1.00  0.00     0.163 HD
ATOM     30  O   UNL A   1      32.253  31.916  27.137  1.00  0.00    -0.269 OA
BRANCH  28  31
ATOM     31  C   UNL A   1      34.241  30.710  27.482  1.00  0.00     0.039 A 
ATOM     32  C   UNL A   1      35.097  31.811  27.594  1.00  0.00     0.014 A 
ATOM     33  C   UNL A   1      34.660  29.451  27.917  1.00  0.00     0.014 A 
ATOM     34  C   UNL A   1      36.338  31.667  28.222  1.00  0.00     0.010 A 
ATOM     35  C   UNL A   1      35.866  29.323  28.599  1.00  0.00     0.010 A 
ATOM     36  C   UNL A   1      36.713  30.430  28.768  1.00  0.00    -0.014 A 
BRANCH  36  37
ATOM     37  C   UNL A   1      37.977  30.251  29.526  1.00  0.00     0.031 A 
ATOM     38  C   UNL A   1      39.050  29.353  28.979  1.00  0.00     0.074 A 
ATOM     39  C   UNL A   1      38.111  30.799  30.749  1.00  0.00     0.049 A 
ATOM     40  N   UNL A   1      40.116  28.876  29.568  1.00  0.00    -0.248 NA
ATOM     41  C   UNL A   1      38.874  28.903  27.590  1.00  0.00     0.031 C 
ATOM     42  C   UNL A   1      37.135  31.677  31.398  1.00  0.00     0.029 A 
ATOM     43  N   UNL A   1      39.113  30.674  31.678  1.00  0.00    -0.354 N 
ATOM     44  C   UNL A   1      40.722  28.042  28.635  1.00  0.00     0.074 A 
ATOM     45  C   UNL A   1      39.880  28.054  27.456  1.00  0.00     0.031 C 
ATOM     46  C   UNL A   1      37.588  32.014  32.616  1.00  0.00     0.029 A 
ATOM     47  C   UNL A   1      38.857  31.334  32.856  1.00  0.00     0.049 A 
ATOM     48  H   UNL A   1      39.937  30.160  31.516  1.00  0.00     0.167 HD
ATOM     49  C   UNL A   1      41.877  27.339  28.749  1.00  0.00     0.034 A 
ATOM     50  C   UNL A   1      39.549  31.363  34.012  1.00  0.00     0.034 A 
ATOM     51  C   UNL A   1      42.715  27.356  29.923  1.00  0.00     0.049 A 
ATOM     52  C   UNL A   1      40.821  30.566  34.124  1.00  0.00     0.074 A 
ATOM     53  C   UNL A   1      43.922  26.711  30.137  1.00  0.00     0.029 A 
ATOM     54  N   UNL A   1      42.434  28.061  31.087  1.00  0.00    -0.354 N 
ATOM     55  N   UNL A   1      41.376  29.772  33.239  1.00  0.00    -0.248 NA
ATOM     56  C   UNL A   1      41.556  30.668  35.392  1.00  0.00     0.031 C 
ATOM     57  C   UNL A   1      44.348  26.993  31.441  1.00  0.00     0.029 A 
ATOM     58  C   UNL A   1      43.434  27.856  32.024  1.00  0.00     0.049 A 
ATOM     59  H   UNL A   1      41.638  28.624  31.226  1.00  0.00     0.167 HD
ATOM     60  C   UNL A   1      42.541  29.300  33.835  1.00  0.00     0.074 A 
ATOM     61  C   UNL A   1      42.608  29.897  35.153  1.00  0.00     0.031 C 
ATOM     62  C   UNL A   1      43.477  28.455  33.334  1.00  0.00     0.034 A 
BRANCH  49  63
ATOM     63  C   UNL A   1      42.267  26.468  27.581  1.00  0.00     0.023 A 
ATOM     64  C   UNL A   1      41.789  25.153  27.451  1.00  0.00     0.031 A 
ATOM     65  C   UNL A   1      43.176  26.938  26.616  1.00  0.00     0.131 A 
ATOM     66  C   UNL A   1      42.288  24.324  26.437  1.00  0.00     0.055 A 
ATOM     67  C   UNL A   1      43.606  26.133  25.559  1.00  0.00     0.041 A 
ATOM     68  F   UNL A   1      43.681  28.179  26.698  1.00  0.00    -0.206 F 
ATOM     69  C   UNL A   1      43.177  24.811  25.475  1.00  0.00     0.022 A 
BRANCH  66  70
ATOM     70  S   UNL A   1      41.883  22.557  26.488  1.00  0.00     0.124 S 
ATOM     71  O   UNL A   1      40.422  22.591  26.517  1.00  0.00    -0.237 OA
ATOM     72  O   UNL A   1      42.486  22.060  25.257  1.00  0.00    -0.237 OA
ATOM     73  O   UNL A   1      42.514  22.096  27.723  1.00  0.00    -0.744 OA
ENDBRANCH  66  70
ENDBRANCH  49  63
BRANCH  50  74
ATOM     74  C   UNL A   1      39.043  32.149  35.169  1.00  0.00     0.023 A 
ATOM     75  C   UNL A   1      38.457  31.508  36.270  1.00  0.00     0.031 A 
ATOM     76  C   UNL A   1      39.122  33.552  35.180  1.00  0.00     0.131 A 
ATOM     77  C   UNL A   1      37.937  32.272  37.326  1.00  0.00     0.055 A 
ATOM     78  C   UNL A   1      38.636  34.306  36.250  1.00  0.00     0.041 A 
ATOM     79  F   UNL A   1      39.685  34.209  34.154  1.00  0.00    -0.206 F 
ATOM     80  C   UNL A   1      38.030  33.665  37.327  1.00  0.00     0.022 A 
BRANCH  77  81
ATOM     81  S   UNL A   1      37.088  31.416  38.680  1.00  0.00     0.124 S 
ATOM     82  O   UNL A   1      36.981  30.060  38.155  1.00  0.00    -0.237 OA
ATOM     83  O   UNL A   1      38.019  31.604  39.787  1.00  0.00    -0.237 OA
ATOM     84  O   UNL A   1      35.825  32.141  38.801  1.00  0.00    -0.744 OA
ENDBRANCH  77  81
ENDBRANCH  50  74
BRANCH  62  85
ATOM     85  C   UNL A   1      44.676  28.183  34.202  1.00  0.00     0.023 A 
ATOM     86  C   UNL A   1      44.689  27.131  35.134  1.00  0.00     0.031 A 
ATOM     87  C   UNL A   1      45.815  28.999  34.098  1.00  0.00     0.131 A 
ATOM     88  C   UNL A   1      45.810  26.947  35.957  1.00  0.00     0.055 A 
ATOM     89  C   UNL A   1      46.942  28.787  34.891  1.00  0.00     0.041 A 
ATOM     90  F   UNL A   1      45.847  30.017  33.223  1.00  0.00    -0.206 F 
ATOM     91  C   UNL A   1      46.942  27.761  35.833  1.00  0.00     0.022 A 
BRANCH  88  92
ATOM     92  S   UNL A   1      45.757  25.658  37.232  1.00  0.00     0.124 S 
ATOM     93  O   UNL A   1      44.717  26.158  38.125  1.00  0.00    -0.237 OA
ATOM     94  O   UNL A   1      45.415  24.467  36.459  1.00  0.00    -0.237 OA
ATOM     95  O   UNL A   1      47.109  25.667  37.786  1.00  0.00    -0.744 OA
ENDBRANCH  88  92
ENDBRANCH  62  85
ENDBRANCH  36  37
ENDBRANCH  28  31
ENDBRANCH   1  27
TORSDOF 15
ENDMDL
MODEL 2
REMARK VINA RESULT:     -13.3      1.360      1.600
REMARK SMILES O=C(NCCCNC(=O)c1ccc(-c2c3nc(c(-c4cc(S(=O)(=O)[O-])ccc4F)c4ccc([nH]4)c(-c4cc(S(=O)(=O)[O-])ccc4F)c4nc(c(-c5cc(S(=O)(=O)[O-])ccc5F)c5ccc2[nH]5)C=C4)C=C3)cc1)C1=NN(c2cc(F)ccc2F)[C@@H](c2ccccc2)C1
REMARK SMILES IDX 6 1 5 2 4 3 3 4 1 5 2 6 73 8 74 9 91 10 75 11 84 12 76 13
REMARK SMILES IDX 77 14 82 15 78 16 81 17 83 18 79 19 80 20 85 21 86 22 90 23
REMARK SMILES IDX 87 24 89 25 88 26 7 27 8 28 9 30 10 31 11 32 72 33 12 34
REMARK SMILES IDX 71 35 13 36 14 37 15 38 65 39 16 40 70 41 64 42 66 43 17 44
REMARK SMILES IDX 69 45 63 46 62 47 18 49 50 50 30 51 49 52 31 53 34 54 48 55
REMARK SMILES IDX 67 56 32 57 33 58 47 60 68 61 35 62 19 63 20 64 28 65 21 66
REMARK SMILES IDX 27 67 29 68 26 69 22 70 23 71 24 72 25 73 51 74 52 75 60 76
REMARK SMILES IDX 53 77 59 78 61 79 58 80 54 81 55 82 56 83 57 84 36 85 37 86
REMARK SMILES IDX 45 87 38 88 44 89 46 90 43 91 39 92 40 93 41 94 42 95
REMARK H PARENT 3 7 7 29 66 48 34 59
REMARK Flexibility Score: inf
ROOT
ATOM      1  C   UNL A   1      32.975  28.529  25.739  1.00  0.00     0.118 C 
ENDROOT
BRANCH   1   2
ATOM      2  C   UNL A   1      32.363  27.467  26.645  1.00  0.00     0.042 C 
BRANCH   2   3
ATOM      3  C   UNL A   1      31.963  26.189  25.918  1.00  0.00     0.118 C 
BRANCH   3   4
ATOM      4  N   UNL A   1      30.772  25.567  26.484  1.00  0.00    -0.351 N 
ATOM      5  O   UNL A   1      29.498  23.841  27.251  1.00  0.00    -0.268 OA
ATOM      6  C   UNL A   1      30.552  24.241  26.769  1.00  0.00     0.267 C 
ATOM      7  H   UNL A   1      30.028  26.178  26.689  1.00  0.00     0.163 HD
BRANCH   6   8
ATOM      8  C   UNL A   1      31.614  23.231  26.437  1.00  0.00     0.128 C 
ATOM      9  N   UNL A   1      31.417  22.234  25.632  1.00  0.00    -0.171 NA
ATOM     10  C   UNL A   1      32.965  23.343  27.064  1.00  0.00     0.096 C 
ATOM     11  N   UNL A   1      32.533  21.468  25.721  1.00  0.00    -0.254 N 
ATOM     12  C   UNL A   1      33.635  22.105  26.454  1.00  0.00     0.144 C 
BRANCH  11  13
ATOM     13  C   UNL A   1      32.634  20.262  25.036  1.00  0.00     0.099 A 
ATOM     14  C   UNL A   1      32.903  19.074  25.731  1.00  0.00     0.070 A 
ATOM     15  C   UNL A   1      32.460  20.169  23.645  1.00  0.00     0.148 A 
ATOM     16  C   UNL A   1      32.943  17.854  25.063  1.00  0.00     0.125 A 
ATOM     17  C   UNL A   1      32.528  18.949  22.970  1.00  0.00     0.044 A 
ATOM     18  F   UNL A   1      32.246  21.273  22.912  1.00  0.00    -0.205 F 
ATOM     19  F   UNL A   1      33.147  16.727  25.759  1.00  0.00    -0.207 F 
ATOM     20  C   UNL A   1      32.760  17.780  23.688  1.00  0.00     0.042 A 
ENDBRANCH  11  13
BRANCH  12  21
ATOM     21  C   UNL A   1      34.772  22.386  25.477  1.00  0.00    -0.023 A 
ATOM     22  C   UNL A   1      34.608  23.241  24.374  1.00  0.00     0.006 A 
ATOM     23  C   UNL A   1      35.958  21.639  25.572  1.00  0.00     0.006 A 
ATOM     24  C   UNL A   1      35.592  23.329  23.387  1.00  0.00     0.000 A 
ATOM     25  C   UNL A   1      36.937  21.722  24.580  1.00  0.00     0.000 A 
ATOM     26  C   UNL A   1      36.750  22.562  23.485  1.00  0.00     0.000 A 
ENDBRANCH  12  21
ENDBRANCH   6   8
ENDBRANCH   3   4
ENDBRANCH   2   3
ENDBRANCH   1   2
BRANCH   1  27
ATOM     27  N   UNL A   1      32.516  29.875  26.059  1.00  0.00    -0.352 N 
ATOM     28  C   UNL A   1      33.058  30.822  26.896  1.00  0.00     0.251 C 
ATOM     29  H   UNL A   1      31.686  30.149  25.605  1.00  0.00     0.163 HD
ATOM     30  O   UNL A   1      32.414  31.835  27.158  1.00  0.00    -0.269 OA
BRANCH  28  31
ATOM     31  C   UNL A   1      34.394  30.614  27.496  1.00  0.00     0.039 A 
ATOM     32  C   UNL A   1      35.257  31.706  27.626  1.00  0.00     0.014 A 
ATOM     33  C   UNL A   1      34.800  29.346  27.919  1.00  0.00     0.014 A 
ATOM     34  C   UNL A   1      36.494  31.545  28.260  1.00  0.00     0.010 A 
ATOM     35  C   UNL A   1      36.001  29.201  28.608  1.00  0.00     0.010 A 
ATOM     36  C   UNL A   1      36.855  30.300  28.795  1.00  0.00    -0.014 A 
BRANCH  36  37
ATOM     37  C   UNL A   1      38.113  30.102  29.559  1.00  0.00     0.031 A 
ATOM     38  C   UNL A   1      39.164  29.167  29.031  1.00  0.00     0.074 A 
ATOM     39  C   UNL A   1      38.260  30.669  30.772  1.00  0.00     0.049 A 
ATOM     40  N   UNL A   1      40.216  28.674  29.630  1.00  0.00    -0.248 NA
ATOM     41  C   UNL A   1      38.978  28.697  27.650  1.00  0.00     0.031 C 
ATOM     42  C   UNL A   1      37.305  31.584  31.402  1.00  0.00     0.029 A 
ATOM     43  N   UNL A   1      39.257  30.535  31.705  1.00  0.00    -0.354 N 
ATOM     44  C   UNL A   1      40.802  27.807  28.714  1.00  0.00     0.074 A 
ATOM     45  C   UNL A   1      39.962  27.819  27.533  1.00  0.00     0.031 C 
ATOM     46  C   UNL A   1      37.764  31.931  32.614  1.00  0.00     0.029 A 
ATOM     47  C   UNL A   1      39.015  31.224  32.870  1.00  0.00     0.049 A 
ATOM     48  H   UNL A   1      40.067  29.999  31.554  1.00  0.00     0.167 HD
ATOM     49  C   UNL A   1      41.938  27.078  28.844  1.00  0.00     0.034 A 
ATOM     50  C   UNL A   1      39.706  31.256  34.027  1.00  0.00     0.034 A 
ATOM     51  C   UNL A   1      42.774  27.095  30.019  1.00  0.00     0.049 A 
ATOM     52  C   UNL A   1      40.957  30.429  34.155  1.00  0.00     0.074 A 
ATOM     53  C   UNL A   1      43.964  26.423  30.247  1.00  0.00     0.029 A 
ATOM     54  N   UNL A   1      42.510  27.828  31.169  1.00  0.00    -0.354 N 
ATOM     55  N   UNL A   1      41.492  29.605  33.287  1.00  0.00    -0.248 NA
ATOM     56  C   UNL A   1      41.692  30.536  35.423  1.00  0.00     0.031 C 
ATOM     57  C   UNL A   1      44.396  26.718  31.546  1.00  0.00     0.029 A 
ATOM     58  C   UNL A   1      43.503  27.615  32.112  1.00  0.00     0.049 A 
ATOM     59  H   UNL A   1      41.728  28.414  31.296  1.00  0.00     0.167 HD
ATOM     60  C   UNL A   1      42.644  29.115  33.894  1.00  0.00     0.074 A 
ATOM     61  C   UNL A   1      42.724  29.735  35.201  1.00  0.00     0.031 C 
ATOM     62  C   UNL A   1      43.559  28.237  33.411  1.00  0.00     0.034 A 
BRANCH  49  63
ATOM     63  C   UNL A   1      42.307  26.176  27.692  1.00  0.00     0.023 A 
ATOM     64  C   UNL A   1      41.794  24.872  27.584  1.00  0.00     0.031 A 
ATOM     65  C   UNL A   1      43.231  26.603  26.722  1.00  0.00     0.131 A 
ATOM     66  C   UNL A   1      42.274  24.011  26.587  1.00  0.00     0.055 A 
ATOM     67  C   UNL A   1      43.643  25.767  25.681  1.00  0.00     0.041 A 
ATOM     68  F   UNL A   1      43.770  27.831  26.784  1.00  0.00    -0.206 F 
ATOM     69  C   UNL A   1      43.178  24.457  25.620  1.00  0.00     0.022 A 
BRANCH  66  70
ATOM     70  S   UNL A   1      41.821  22.257  26.669  1.00  0.00     0.124 S 
ATOM     71  O   UNL A   1      42.297  21.770  25.376  1.00  0.00    -0.237 OA
ATOM     72  O   UNL A   1      42.560  21.795  27.837  1.00  0.00    -0.237 OA
ATOM     73  O   UNL A   1      40.368  22.285  26.819  1.00  0.00    -0.744 OA
ENDBRANCH  66  70
ENDBRANCH  49  63
BRANCH  50  74
ATOM     74  C   UNL A   1      39.218  32.077  35.167  1.00  0.00     0.023 A 
ATOM     75  C   UNL A   1      39.702  33.377  35.373  1.00  0.00     0.031 A 
ATOM     76  C   UNL A   1      38.278  31.564  36.078  1.00  0.00     0.131 A 
ATOM     77  C   UNL A   1      39.268  34.113  36.487  1.00  0.00     0.055 A 
ATOM     78  C   UNL A   1      37.823  32.314  37.163  1.00  0.00     0.041 A 
ATOM     79  F   UNL A   1      37.779  30.329  35.914  1.00  0.00    -0.206 F 
ATOM     80  C   UNL A   1      38.326  33.594  37.378  1.00  0.00     0.022 A 
BRANCH  77  81
ATOM     81  S   UNL A   1      39.996  35.747  36.782  1.00  0.00     0.124 S 
ATOM     82  O   UNL A   1      39.653  36.454  35.553  1.00  0.00    -0.237 OA
ATOM     83  O   UNL A   1      39.294  36.177  37.987  1.00  0.00    -0.237 OA
ATOM     84  O   UNL A   1      41.418  35.459  36.961  1.00  0.00    -0.744 OA
ENDBRANCH  77  81
ENDBRANCH  50  74
BRANCH  62  85
ATOM     85  C   UNL A   1      44.749  27.950  34.286  1.00  0.00     0.023 A 
ATOM     86  C   UNL A   1      44.753  26.883  35.200  1.00  0.00     0.031 A 
ATOM     87  C   UNL A   1      45.889  28.769  34.208  1.00  0.00     0.131 A 
ATOM     88  C   UNL A   1      45.866  26.685  36.031  1.00  0.00     0.055 A 
ATOM     89  C   UNL A   1      47.008  28.543  35.008  1.00  0.00     0.041 A 
ATOM     90  F   UNL A   1      45.929  29.801  33.351  1.00  0.00    -0.206 F 
ATOM     91  C   UNL A   1      46.998  27.501  35.933  1.00  0.00     0.022 A 
BRANCH  88  92
ATOM     92  S   UNL A   1      45.800  25.374  37.282  1.00  0.00     0.124 S 
ATOM     93  O   UNL A   1      44.505  24.760  37.011  1.00  0.00    -0.237 OA
ATOM     94  O   UNL A   1      46.970  24.566  36.952  1.00  0.00    -0.237 OA
ATOM     95  O   UNL A   1      45.890  26.101  38.547  1.00  0.00    -0.744 OA
ENDBRANCH  88  92
ENDBRANCH  62  85
ENDBRANCH  36  37
ENDBRANCH  28  31
ENDBRANCH   1  27
TORSDOF 15
ENDMDL
MODEL 3
REMARK VINA RESULT:     -13.3      1.279      1.532
REMARK SMILES O=C(NCCCNC(=O)c1ccc(-c2c3nc(c(-c4cc(S(=O)(=O)[O-])ccc4F)c4ccc([nH]4)c(-c4cc(S(=O)(=O)[O-])ccc4F)c4nc(c(-c5cc(S(=O)(=O)[O-])ccc5F)c5ccc2[nH]5)C=C4)C=C3)cc1)C1=NN(c2cc(F)ccc2F)[C@@H](c2ccccc2)C1
REMARK SMILES IDX 6 1 5 2 4 3 3 4 1 5 2 6 73 8 74 9 91 10 75 11 84 12 76 13
REMARK SMILES IDX 77 14 82 15 78 16 81 17 83 18 79 19 80 20 85 21 86 22 90 23
REMARK SMILES IDX 87 24 89 25 88 26 7 27 8 28 9 30 10 31 11 32 72 33 12 34
REMARK SMILES IDX 71 35 13 36 14 37 15 38 65 39 16 40 70 41 64 42 66 43 17 44
REMARK SMILES IDX 69 45 63 46 62 47 18 49 50 50 30 51 49 52 31 53 34 54 48 55
REMARK SMILES IDX 67 56 32 57 33 58 47 60 68 61 35 62 19 63 20 64 28 65 21 66
REMARK SMILES IDX 27 67 29 68 26 69 22 70 23 71 24 72 25 73 51 74 52 75 60 76
REMARK SMILES IDX 53 77 59 78 61 79 58 80 54 81 55 82 56 83 57 84 36 85 37 86
REMARK SMILES IDX 45 87 38 88 44 89 46 90 43 91 39 92 40 93 41 94 42 95
REMARK H PARENT 3 7 7 29 66 48 34 59
REMARK Flexibility Score: inf
ROOT
ATOM      1  C   UNL A   1      32.809  28.552  25.731  1.00  0.00     0.118 C 
ENDROOT
BRANCH   1   2
ATOM      2  C   UNL A   1      31.679  27.586  25.395  1.00  0.00     0.042 C 
BRANCH   2   3
ATOM      3  C   UNL A   1      31.937  26.152  25.843  1.00  0.00     0.118 C 
BRANCH   3   4
ATOM      4  N   UNL A   1      30.770  25.536  26.461  1.00  0.00    -0.351 N 
ATOM      5  O   UNL A   1      29.527  23.816  27.290  1.00  0.00    -0.268 OA
ATOM      6  C   UNL A   1      30.560  24.212  26.763  1.00  0.00     0.267 C 
ATOM      7  H   UNL A   1      30.036  26.149  26.693  1.00  0.00     0.163 HD
BRANCH   6   8
ATOM      8  C   UNL A   1      31.606  23.199  26.394  1.00  0.00     0.128 C 
ATOM      9  N   UNL A   1      31.389  22.226  25.564  1.00  0.00    -0.171 NA
ATOM     10  C   UNL A   1      32.965  23.277  27.011  1.00  0.00     0.096 C 
ATOM     11  N   UNL A   1      32.497  21.444  25.623  1.00  0.00    -0.254 N 
ATOM     12  C   UNL A   1      33.613  22.048  26.361  1.00  0.00     0.144 C 
BRANCH  11  13
ATOM     13  C   UNL A   1      32.577  20.256  24.904  1.00  0.00     0.099 A 
ATOM     14  C   UNL A   1      32.839  19.047  25.565  1.00  0.00     0.070 A 
ATOM     15  C   UNL A   1      32.386  20.202  23.513  1.00  0.00     0.148 A 
ATOM     16  C   UNL A   1      32.858  17.845  24.864  1.00  0.00     0.125 A 
ATOM     17  C   UNL A   1      32.433  18.999  22.806  1.00  0.00     0.044 A 
ATOM     18  F   UNL A   1      32.177  21.327  22.812  1.00  0.00    -0.205 F 
ATOM     19  F   UNL A   1      33.057  16.697  25.527  1.00  0.00    -0.207 F 
ATOM     20  C   UNL A   1      32.659  17.810  23.489  1.00  0.00     0.042 A 
ENDBRANCH  11  13
BRANCH  12  21
ATOM     21  C   UNL A   1      34.744  22.341  25.381  1.00  0.00    -0.023 A 
ATOM     22  C   UNL A   1      34.583  23.232  24.306  1.00  0.00     0.006 A 
ATOM     23  C   UNL A   1      35.921  21.574  25.441  1.00  0.00     0.006 A 
ATOM     24  C   UNL A   1      35.557  23.334  23.312  1.00  0.00     0.000 A 
ATOM     25  C   UNL A   1      36.891  21.672  24.442  1.00  0.00     0.000 A 
ATOM     26  C   UNL A   1      36.705  22.548  23.375  1.00  0.00     0.000 A 
ENDBRANCH  12  21
ENDBRANCH   6   8
ENDBRANCH   3   4
ENDBRANCH   2   3
ENDBRANCH   1   2
BRANCH   1  27
ATOM     27  N   UNL A   1      32.330  29.894  26.041  1.00  0.00    -0.352 N 
ATOM     28  C   UNL A   1      32.865  30.860  26.860  1.00  0.00     0.251 C 
ATOM     29  H   UNL A   1      31.491  30.148  25.593  1.00  0.00     0.163 HD
ATOM     30  O   UNL A   1      32.206  31.864  27.117  1.00  0.00    -0.269 OA
BRANCH  28  31
ATOM     31  C   UNL A   1      34.211  30.682  27.448  1.00  0.00     0.039 A 
ATOM     32  C   UNL A   1      35.030  31.803  27.618  1.00  0.00     0.014 A 
ATOM     33  C   UNL A   1      34.670  29.417  27.819  1.00  0.00     0.014 A 
ATOM     34  C   UNL A   1      36.275  31.667  28.242  1.00  0.00     0.010 A 
ATOM     35  C   UNL A   1      35.879  29.293  28.498  1.00  0.00     0.010 A 
ATOM     36  C   UNL A   1      36.688  30.417  28.726  1.00  0.00    -0.014 A 
BRANCH  36  37
ATOM     37  C   UNL A   1      37.957  30.241  29.477  1.00  0.00     0.031 A 
ATOM     38  C   UNL A   1      39.029  29.345  28.925  1.00  0.00     0.074 A 
ATOM     39  C   UNL A   1      38.096  30.789  30.700  1.00  0.00     0.049 A 
ATOM     40  N   UNL A   1      40.099  28.870  29.509  1.00  0.00    -0.248 NA
ATOM     41  C   UNL A   1      38.847  28.895  27.537  1.00  0.00     0.031 C 
ATOM     42  C   UNL A   1      37.121  31.665  31.353  1.00  0.00     0.029 A 
ATOM     43  N   UNL A   1      39.103  30.666  31.624  1.00  0.00    -0.354 N 
ATOM     44  C   UNL A   1      40.702  28.038  28.573  1.00  0.00     0.074 A 
ATOM     45  C   UNL A   1      39.854  28.048  27.397  1.00  0.00     0.031 C 
ATOM     46  C   UNL A   1      37.579  32.003  32.569  1.00  0.00     0.029 A 
ATOM     47  C   UNL A   1      38.850  31.326  32.803  1.00  0.00     0.049 A 
ATOM     48  H   UNL A   1      39.927  30.155  31.458  1.00  0.00     0.167 HD
ATOM     49  C   UNL A   1      41.859  27.337  28.681  1.00  0.00     0.034 A 
ATOM     50  C   UNL A   1      39.549  31.356  33.956  1.00  0.00     0.034 A 
ATOM     51  C   UNL A   1      42.703  27.356  29.851  1.00  0.00     0.049 A 
ATOM     52  C   UNL A   1      40.822  30.562  34.061  1.00  0.00     0.074 A 
ATOM     53  C   UNL A   1      43.912  26.714  30.059  1.00  0.00     0.029 A 
ATOM     54  N   UNL A   1      42.426  28.060  31.016  1.00  0.00    -0.354 N 
ATOM     55  N   UNL A   1      41.375  29.769  33.174  1.00  0.00    -0.248 NA
ATOM     56  C   UNL A   1      41.563  30.666  35.326  1.00  0.00     0.031 C 
ATOM     57  C   UNL A   1      44.345  26.996  31.361  1.00  0.00     0.029 A 
ATOM     58  C   UNL A   1      43.431  27.858  31.949  1.00  0.00     0.049 A 
ATOM     59  H   UNL A   1      41.629  28.622  31.159  1.00  0.00     0.167 HD
ATOM     60  C   UNL A   1      42.544  29.300  33.764  1.00  0.00     0.074 A 
ATOM     61  C   UNL A   1      42.616  29.897  35.082  1.00  0.00     0.031 C 
ATOM     62  C   UNL A   1      43.479  28.457  33.258  1.00  0.00     0.034 A 
BRANCH  49  63
ATOM     63  C   UNL A   1      42.245  26.468  27.511  1.00  0.00     0.023 A 
ATOM     64  C   UNL A   1      41.794  25.141  27.399  1.00  0.00     0.031 A 
ATOM     65  C   UNL A   1      43.124  26.950  26.525  1.00  0.00     0.131 A 
ATOM     66  C   UNL A   1      42.292  24.316  26.381  1.00  0.00     0.055 A 
ATOM     67  C   UNL A   1      43.551  26.148  25.465  1.00  0.00     0.041 A 
ATOM     68  F   UNL A   1      43.602  28.203  26.589  1.00  0.00    -0.206 F 
ATOM     69  C   UNL A   1      43.151  24.817  25.398  1.00  0.00     0.022 A 
BRANCH  66  70
ATOM     70  S   UNL A   1      41.928  22.541  26.451  1.00  0.00     0.124 S 
ATOM     71  O   UNL A   1      42.543  22.165  27.722  1.00  0.00    -0.237 OA
ATOM     72  O   UNL A   1      40.470  22.517  26.415  1.00  0.00    -0.237 OA
ATOM     73  O   UNL A   1      42.591  22.007  25.264  1.00  0.00    -0.744 OA
ENDBRANCH  66  70
ENDBRANCH  49  63
BRANCH  50  74
ATOM     74  C   UNL A   1      39.046  32.141  35.115  1.00  0.00     0.023 A 
ATOM     75  C   UNL A   1      38.472  31.498  36.221  1.00  0.00     0.031 A 
ATOM     76  C   UNL A   1      39.116  33.545  35.123  1.00  0.00     0.131 A 
ATOM     77  C   UNL A   1      37.956  32.261  37.280  1.00  0.00     0.055 A 
ATOM     78  C   UNL A   1      38.635  34.297  36.195  1.00  0.00     0.041 A 
ATOM     79  F   UNL A   1      39.668  34.203  34.091  1.00  0.00    -0.206 F 
ATOM     80  C   UNL A   1      38.041  33.655  37.278  1.00  0.00     0.022 A 
BRANCH  77  81
ATOM     81  S   UNL A   1      37.123  31.402  38.642  1.00  0.00     0.124 S 
ATOM     82  O   UNL A   1      36.995  30.051  38.109  1.00  0.00    -0.237 OA
ATOM     83  O   UNL A   1      38.074  31.574  39.735  1.00  0.00    -0.237 OA
ATOM     84  O   UNL A   1      35.868  32.137  38.790  1.00  0.00    -0.744 OA
ENDBRANCH  77  81
ENDBRANCH  50  74
BRANCH  62  85
ATOM     85  C   UNL A   1      44.683  28.187  34.120  1.00  0.00     0.023 A 
ATOM     86  C   UNL A   1      45.832  28.994  34.058  1.00  0.00     0.031 A 
ATOM     87  C   UNL A   1      44.679  27.096  35.006  1.00  0.00     0.131 A 
ATOM     88  C   UNL A   1      46.948  28.673  34.844  1.00  0.00     0.055 A 
ATOM     89  C   UNL A   1      45.778  26.805  35.814  1.00  0.00     0.041 A 
ATOM     90  F   UNL A   1      43.605  26.295  35.097  1.00  0.00    -0.206 F 
ATOM     91  C   UNL A   1      46.925  27.590  35.730  1.00  0.00     0.022 A 
BRANCH  88  92
ATOM     92  S   UNL A   1      48.459  29.660  34.660  1.00  0.00     0.124 S 
ATOM     93  O   UNL A   1      49.322  29.088  35.689  1.00  0.00    -0.237 OA
ATOM     94  O   UNL A   1      48.846  29.386  33.279  1.00  0.00    -0.237 OA
ATOM     95  O   UNL A   1      48.010  31.027  34.915  1.00  0.00    -0.744 OA
ENDBRANCH  88  92
ENDBRANCH  62  85
ENDBRANCH  36  37
ENDBRANCH  28  31
ENDBRANCH   1  27
TORSDOF 15
ENDMDL
