MODEL 1
REMARK VINA RESULT:     -10.9      0.000      0.000
REMARK SMILES C[C@H](C(=O)NCCCNC(=O)c1ccc(-c2c3nc(c(-c4cc(S(=O)(=O)[O-])ccc4F)c4ccc([nH]4)c(-c4cc(S(=O)(=O)[O-])ccc4F)c4nc(c(-c5cc(S(=O)(=O)[O-])ccc5F)c5ccc2[nH]5)C=C4)C=C3)cc1)[N@@H+](C)C[C@@H]1CCC[N@H+]1C
REMARK SMILES IDX 7 1 6 2 5 3 3 4 4 5 2 7 1 8 75 9 76 10 77 12 78 13 79 14
REMARK SMILES IDX 82 15 80 16 81 17 83 18 8 20 9 21 10 22 11 24 12 25 13 26
REMARK SMILES IDX 74 27 14 28 73 29 15 30 16 31 17 32 67 33 18 34 72 35 66 36
REMARK SMILES IDX 68 37 19 38 71 39 65 40 64 41 20 43 52 44 32 45 51 46 33 47
REMARK SMILES IDX 36 48 50 49 69 50 34 51 35 52 49 54 70 55 37 56 21 57 22 58
REMARK SMILES IDX 30 59 23 60 29 61 31 62 28 63 24 64 25 65 26 66 27 67 53 68
REMARK SMILES IDX 54 69 62 70 55 71 61 72 63 73 60 74 56 75 57 76 58 77 59 78
REMARK SMILES IDX 38 79 39 80 47 81 40 82 46 83 48 84 45 85 41 86 42 87 43 88
REMARK SMILES IDX 44 89
REMARK H PARENT 5 6 75 11 82 19 9 23 68 42 36 53
REMARK Flexibility Score: inf
ROOT
ATOM      1  C   UNL A   1      35.180  21.631  26.183  1.00  0.00     0.042 C 
ENDROOT
BRANCH   1   2
ATOM      2  C   UNL A   1      34.147  21.418  25.087  1.00  0.00     0.118 C 
BRANCH   2   3
ATOM      3  N   UNL A   1      34.563  22.096  23.878  1.00  0.00    -0.351 N 
ATOM      4  C   UNL A   1      33.973  23.175  23.293  1.00  0.00     0.278 C 
ATOM      5  O   UNL A   1      34.162  23.355  22.087  1.00  0.00    -0.268 OA
ATOM      6  H   UNL A   1      35.361  21.737  23.428  1.00  0.00     0.163 HD
BRANCH   4   7
ATOM      7  C   UNL A   1      33.216  24.168  24.189  1.00  0.00     0.270 C 
ATOM      8  C   UNL A   1      34.330  25.094  24.696  1.00  0.00     0.086 C 
BRANCH   7   9
ATOM      9  N   UNL A   1      32.059  24.676  23.449  1.00  0.00    -0.322 N 
ATOM     10  C   UNL A   1      30.820  23.933  23.465  1.00  0.00     0.333 C 
ATOM     11  H   UNL A   1      32.426  24.344  22.556  1.00  0.00     0.348 HD
BRANCH   9  12
ATOM     12  C   UNL A   1      31.972  26.095  23.151  1.00  0.00     0.328 C 
BRANCH  12  13
ATOM     13  C   UNL A   1      31.141  27.009  24.107  1.00  0.00     0.239 C 
ATOM     14  C   UNL A   1      29.999  27.663  23.305  1.00  0.00     0.077 C 
ATOM     15  N   UNL A   1      31.874  28.145  24.692  1.00  0.00    -0.330 N 
ATOM     16  C   UNL A   1      30.362  29.136  23.248  1.00  0.00     0.068 C 
ATOM     17  C   UNL A   1      31.077  29.354  24.562  1.00  0.00     0.262 C 
ATOM     18  C   UNL A   1      32.404  27.944  26.027  1.00  0.00     0.333 C 
ATOM     19  H   UNL A   1      32.729  28.244  24.145  1.00  0.00     0.348 HD
ENDBRANCH  12  13
ENDBRANCH   9  12
ENDBRANCH   7   9
ENDBRANCH   4   7
ENDBRANCH   2   3
ENDBRANCH   1   2
BRANCH   1  20
ATOM     20  C   UNL A   1      36.536  22.061  25.635  1.00  0.00     0.118 C 
BRANCH  20  21
ATOM     21  N   UNL A   1      37.537  21.009  25.767  1.00  0.00    -0.352 N 
ATOM     22  C   UNL A   1      38.881  21.111  26.010  1.00  0.00     0.251 C 
ATOM     23  H   UNL A   1      37.197  20.091  25.666  1.00  0.00     0.163 HD
ATOM     24  O   UNL A   1      39.610  20.146  25.825  1.00  0.00    -0.269 OA
BRANCH  22  25
ATOM     25  C   UNL A   1      39.426  22.398  26.478  1.00  0.00     0.039 A 
ATOM     26  C   UNL A   1      40.441  22.392  27.434  1.00  0.00     0.014 A 
ATOM     27  C   UNL A   1      38.942  23.602  25.960  1.00  0.00     0.014 A 
ATOM     28  C   UNL A   1      41.004  23.601  27.834  1.00  0.00     0.010 A 
ATOM     29  C   UNL A   1      39.575  24.795  26.281  1.00  0.00     0.010 A 
ATOM     30  C   UNL A   1      40.600  24.808  27.234  1.00  0.00    -0.014 A 
BRANCH  30  31
ATOM     31  C   UNL A   1      41.242  26.089  27.615  1.00  0.00     0.031 A 
ATOM     32  C   UNL A   1      42.643  26.395  27.162  1.00  0.00     0.074 A 
ATOM     33  C   UNL A   1      40.563  26.960  28.387  1.00  0.00     0.049 A 
ATOM     34  N   UNL A   1      43.367  27.462  27.384  1.00  0.00    -0.248 NA
ATOM     35  C   UNL A   1      43.332  25.354  26.384  1.00  0.00     0.031 C 
ATOM     36  C   UNL A   1      39.221  26.736  28.931  1.00  0.00     0.029 A 
ATOM     37  N   UNL A   1      40.900  28.208  28.842  1.00  0.00    -0.354 N 
ATOM     38  C   UNL A   1      44.592  27.222  26.772  1.00  0.00     0.074 A 
ATOM     39  C   UNL A   1      44.541  25.876  26.245  1.00  0.00     0.031 C 
ATOM     40  C   UNL A   1      38.831  27.829  29.604  1.00  0.00     0.029 A 
ATOM     41  C   UNL A   1      39.910  28.810  29.583  1.00  0.00     0.049 A 
ATOM     42  H   UNL A   1      41.767  28.633  28.655  1.00  0.00     0.167 HD
ATOM     43  C   UNL A   1      45.648  28.060  26.633  1.00  0.00     0.034 A 
ATOM     44  C   UNL A   1      39.879  30.017  30.182  1.00  0.00     0.034 A 
ATOM     45  C   UNL A   1      45.676  29.399  27.168  1.00  0.00     0.049 A 
ATOM     46  C   UNL A   1      41.075  30.923  30.033  1.00  0.00     0.074 A 
ATOM     47  C   UNL A   1      46.673  30.351  27.059  1.00  0.00     0.029 A 
ATOM     48  N   UNL A   1      44.661  29.974  27.925  1.00  0.00    -0.354 N 
ATOM     49  N   UNL A   1      42.205  30.704  29.398  1.00  0.00    -0.248 NA
ATOM     50  C   UNL A   1      40.984  32.243  30.666  1.00  0.00     0.031 C 
ATOM     51  C   UNL A   1      46.297  31.469  27.810  1.00  0.00     0.029 A 
ATOM     52  C   UNL A   1      45.023  31.255  28.314  1.00  0.00     0.049 A 
ATOM     53  H   UNL A   1      43.808  29.536  28.151  1.00  0.00     0.167 HD
ATOM     54  C   UNL A   1      42.947  31.874  29.534  1.00  0.00     0.074 A 
ATOM     55  C   UNL A   1      42.123  32.799  30.285  1.00  0.00     0.031 C 
ATOM     56  C   UNL A   1      44.197  32.160  29.081  1.00  0.00     0.034 A 
BRANCH  43  57
ATOM     57  C   UNL A   1      46.856  27.537  25.891  1.00  0.00     0.023 A 
ATOM     58  C   UNL A   1      47.135  27.927  24.568  1.00  0.00     0.031 A 
ATOM     59  C   UNL A   1      47.727  26.617  26.500  1.00  0.00     0.131 A 
ATOM     60  C   UNL A   1      48.205  27.342  23.874  1.00  0.00     0.055 A 
ATOM     61  C   UNL A   1      48.842  26.104  25.832  1.00  0.00     0.041 A 
ATOM     62  F   UNL A   1      47.501  26.185  27.751  1.00  0.00    -0.206 F 
ATOM     63  C   UNL A   1      49.077  26.454  24.506  1.00  0.00     0.022 A 
BRANCH  60  64
ATOM     64  S   UNL A   1      48.347  27.642  22.090  1.00  0.00     0.124 S 
ATOM     65  O   UNL A   1      48.577  26.291  21.582  1.00  0.00    -0.237 OA
ATOM     66  O   UNL A   1      47.056  28.236  21.766  1.00  0.00    -0.237 OA
ATOM     67  O   UNL A   1      49.494  28.542  21.984  1.00  0.00    -0.744 OA
ENDBRANCH  60  64
ENDBRANCH  43  57
BRANCH  44  68
ATOM     68  C   UNL A   1      38.688  30.438  30.975  1.00  0.00     0.023 A 
ATOM     69  C   UNL A   1      37.609  31.104  30.371  1.00  0.00     0.031 A 
ATOM     70  C   UNL A   1      38.631  30.217  32.363  1.00  0.00     0.131 A 
ATOM     71  C   UNL A   1      36.546  31.572  31.159  1.00  0.00     0.055 A 
ATOM     72  C   UNL A   1      37.542  30.629  33.132  1.00  0.00     0.041 A 
ATOM     73  F   UNL A   1      39.633  29.581  32.991  1.00  0.00    -0.206 F 
ATOM     74  C   UNL A   1      36.499  31.325  32.533  1.00  0.00     0.022 A 
BRANCH  71  75
ATOM     75  S   UNL A   1      35.271  32.598  30.377  1.00  0.00     0.124 S 
ATOM     76  O   UNL A   1      34.844  31.748  29.271  1.00  0.00    -0.237 OA
ATOM     77  O   UNL A   1      34.312  32.769  31.463  1.00  0.00    -0.237 OA
ATOM     78  O   UNL A   1      35.997  33.807  29.992  1.00  0.00    -0.744 OA
ENDBRANCH  71  75
ENDBRANCH  44  68
BRANCH  56  79
ATOM     79  C   UNL A   1      44.722  33.548  29.361  1.00  0.00     0.023 A 
ATOM     80  C   UNL A   1      44.384  34.644  28.549  1.00  0.00     0.031 A 
ATOM     81  C   UNL A   1      45.599  33.769  30.438  1.00  0.00     0.131 A 
ATOM     82  C   UNL A   1      44.984  35.891  28.775  1.00  0.00     0.055 A 
ATOM     83  C   UNL A   1      46.131  35.032  30.705  1.00  0.00     0.041 A 
ATOM     84  F   UNL A   1      45.961  32.760  31.246  1.00  0.00    -0.206 F 
ATOM     85  C   UNL A   1      45.839  36.098  29.860  1.00  0.00     0.022 A 
BRANCH  82  86
ATOM     86  S   UNL A   1      44.733  37.208  27.552  1.00  0.00     0.124 S 
ATOM     87  O   UNL A   1      44.634  38.392  28.398  1.00  0.00    -0.237 OA
ATOM     88  O   UNL A   1      45.937  37.107  26.734  1.00  0.00    -0.237 OA
ATOM     89  O   UNL A   1      43.493  36.821  26.881  1.00  0.00    -0.744 OA
ENDBRANCH  82  86
ENDBRANCH  56  79
ENDBRANCH  30  31
ENDBRANCH  22  25
ENDBRANCH  20  21
ENDBRANCH   1  20
TORSDOF 16
ENDMDL
MODEL 2
REMARK VINA RESULT:     -10.8      4.973     10.043
REMARK SMILES C[C@H](C(=O)NCCCNC(=O)c1ccc(-c2c3nc(c(-c4cc(S(=O)(=O)[O-])ccc4F)c4ccc([nH]4)c(-c4cc(S(=O)(=O)[O-])ccc4F)c4nc(c(-c5cc(S(=O)(=O)[O-])ccc5F)c5ccc2[nH]5)C=C4)C=C3)cc1)[N@@H+](C)C[C@@H]1CCC[N@H+]1C
REMARK SMILES IDX 7 1 6 2 5 3 3 4 4 5 2 7 1 8 75 9 76 10 77 12 78 13 79 14
REMARK SMILES IDX 82 15 80 16 81 17 83 18 8 20 9 21 10 22 11 24 12 25 13 26
REMARK SMILES IDX 74 27 14 28 73 29 15 30 16 31 17 32 67 33 18 34 72 35 66 36
REMARK SMILES IDX 68 37 19 38 71 39 65 40 64 41 20 43 52 44 32 45 51 46 33 47
REMARK SMILES IDX 36 48 50 49 69 50 34 51 35 52 49 54 70 55 37 56 21 57 22 58
REMARK SMILES IDX 30 59 23 60 29 61 31 62 28 63 24 64 25 65 26 66 27 67 53 68
REMARK SMILES IDX 54 69 62 70 55 71 61 72 63 73 60 74 56 75 57 76 58 77 59 78
REMARK SMILES IDX 38 79 39 80 47 81 40 82 46 83 48 84 45 85 41 86 42 87 43 88
REMARK SMILES IDX 44 89
REMARK H PARENT 5 6 75 11 82 19 9 23 68 42 36 53
REMARK Flexibility Score: inf
ROOT
ATOM      1  C   UNL A   1      33.822  28.536  24.828  1.00  0.00     0.042 C 
ENDROOT
BRANCH   1   2
ATOM      2  C   UNL A   1      32.783  27.452  24.584  1.00  0.00     0.118 C 
BRANCH   2   3
ATOM      3  N   UNL A   1      33.178  26.637  23.455  1.00  0.00    -0.351 N 
ATOM      4  C   UNL A   1      33.264  25.279  23.409  1.00  0.00     0.278 C 
ATOM      5  O   UNL A   1      34.009  24.774  22.565  1.00  0.00    -0.268 OA
ATOM      6  H   UNL A   1      33.411  27.117  22.629  1.00  0.00     0.163 HD
BRANCH   4   7
ATOM      7  C   UNL A   1      32.339  24.457  24.321  1.00  0.00     0.270 C 
ATOM      8  C   UNL A   1      31.247  23.973  23.358  1.00  0.00     0.086 C 
BRANCH   7   9
ATOM      9  N   UNL A   1      33.158  23.526  25.099  1.00  0.00    -0.322 N 
ATOM     10  C   UNL A   1      34.017  24.034  26.145  1.00  0.00     0.333 C 
ATOM     11  H   UNL A   1      33.853  23.443  24.357  1.00  0.00     0.348 HD
BRANCH   9  12
ATOM     12  C   UNL A   1      32.755  22.134  25.198  1.00  0.00     0.328 C 
BRANCH  12  13
ATOM     13  C   UNL A   1      33.505  21.076  24.328  1.00  0.00     0.239 C 
ATOM     14  C   UNL A   1      32.471  20.121  23.701  1.00  0.00     0.077 C 
ATOM     15  N   UNL A   1      34.423  20.188  25.064  1.00  0.00    -0.330 N 
ATOM     16  C   UNL A   1      32.708  18.789  24.389  1.00  0.00     0.068 C 
ATOM     17  C   UNL A   1      34.196  18.811  24.656  1.00  0.00     0.262 C 
ATOM     18  C   UNL A   1      35.822  20.569  25.058  1.00  0.00     0.333 C 
ATOM     19  H   UNL A   1      34.187  20.290  26.051  1.00  0.00     0.348 HD
ENDBRANCH  12  13
ENDBRANCH   9  12
ENDBRANCH   7   9
ENDBRANCH   4   7
ENDBRANCH   2   3
ENDBRANCH   1   2
BRANCH   1  20
ATOM     20  C   UNL A   1      34.073  28.784  26.311  1.00  0.00     0.118 C 
BRANCH  20  21
ATOM     21  N   UNL A   1      33.772  30.159  26.694  1.00  0.00    -0.352 N 
ATOM     22  C   UNL A   1      34.369  30.951  27.639  1.00  0.00     0.251 C 
ATOM     23  H   UNL A   1      33.031  30.580  26.202  1.00  0.00     0.163 HD
ATOM     24  O   UNL A   1      33.819  31.979  28.010  1.00  0.00    -0.269 OA
BRANCH  22  25
ATOM     25  C   UNL A   1      35.665  30.533  28.205  1.00  0.00     0.039 A 
ATOM     26  C   UNL A   1      35.674  29.715  29.334  1.00  0.00     0.014 A 
ATOM     27  C   UNL A   1      36.861  30.941  27.609  1.00  0.00     0.014 A 
ATOM     28  C   UNL A   1      36.893  29.265  29.835  1.00  0.00     0.010 A 
ATOM     29  C   UNL A   1      38.066  30.407  28.046  1.00  0.00     0.010 A 
ATOM     30  C   UNL A   1      38.095  29.578  29.174  1.00  0.00    -0.014 A 
BRANCH  30  31
ATOM     31  C   UNL A   1      39.388  29.050  29.672  1.00  0.00     0.031 A 
ATOM     32  C   UNL A   1      40.063  29.696  30.849  1.00  0.00     0.074 A 
ATOM     33  C   UNL A   1      39.957  28.004  29.042  1.00  0.00     0.049 A 
ATOM     34  N   UNL A   1      41.187  29.374  31.435  1.00  0.00    -0.248 NA
ATOM     35  C   UNL A   1      39.405  30.878  31.428  1.00  0.00     0.031 C 
ATOM     36  C   UNL A   1      39.416  27.340  27.852  1.00  0.00     0.029 A 
ATOM     37  N   UNL A   1      41.106  27.308  29.314  1.00  0.00    -0.354 N 
ATOM     38  C   UNL A   1      41.369  30.308  32.448  1.00  0.00     0.074 A 
ATOM     39  C   UNL A   1      40.283  31.258  32.342  1.00  0.00     0.031 C 
ATOM     40  C   UNL A   1      40.207  26.306  27.528  1.00  0.00     0.029 A 
ATOM     41  C   UNL A   1      41.335  26.262  28.452  1.00  0.00     0.049 A 
ATOM     42  H   UNL A   1      41.710  27.537  30.057  1.00  0.00     0.167 HD
ATOM     43  C   UNL A   1      42.332  30.349  33.401  1.00  0.00     0.034 A 
ATOM     44  C   UNL A   1      42.343  25.369  28.410  1.00  0.00     0.034 A 
ATOM     45  C   UNL A   1      43.407  29.389  33.486  1.00  0.00     0.049 A 
ATOM     46  C   UNL A   1      43.416  25.449  29.466  1.00  0.00     0.074 A 
ATOM     47  C   UNL A   1      44.416  29.308  34.427  1.00  0.00     0.029 A 
ATOM     48  N   UNL A   1      43.616  28.348  32.589  1.00  0.00    -0.354 N 
ATOM     49  N   UNL A   1      43.541  26.304  30.456  1.00  0.00    -0.248 NA
ATOM     50  C   UNL A   1      44.474  24.434  29.407  1.00  0.00     0.031 C 
ATOM     51  C   UNL A   1      45.277  28.269  34.058  1.00  0.00     0.029 A 
ATOM     52  C   UNL A   1      44.756  27.640  32.938  1.00  0.00     0.049 A 
ATOM     53  H   UNL A   1      43.038  28.142  31.819  1.00  0.00     0.167 HD
ATOM     54  C   UNL A   1      44.678  25.909  31.155  1.00  0.00     0.074 A 
ATOM     55  C   UNL A   1      45.181  24.726  30.487  1.00  0.00     0.031 C 
ATOM     56  C   UNL A   1      45.256  26.472  32.249  1.00  0.00     0.034 A 
BRANCH  43  57
ATOM     57  C   UNL A   1      42.270  31.477  34.403  1.00  0.00     0.023 A 
ATOM     58  C   UNL A   1      41.356  31.464  35.473  1.00  0.00     0.031 A 
ATOM     59  C   UNL A   1      43.113  32.595  34.277  1.00  0.00     0.131 A 
ATOM     60  C   UNL A   1      41.252  32.575  36.323  1.00  0.00     0.055 A 
ATOM     61  C   UNL A   1      43.066  33.660  35.180  1.00  0.00     0.041 A 
ATOM     62  F   UNL A   1      43.990  32.680  33.263  1.00  0.00    -0.206 F 
ATOM     63  C   UNL A   1      42.121  33.661  36.201  1.00  0.00     0.022 A 
BRANCH  60  64
ATOM     64  S   UNL A   1      39.867  32.646  37.492  1.00  0.00     0.124 S 
ATOM     65  O   UNL A   1      40.548  32.444  38.769  1.00  0.00    -0.237 OA
ATOM     66  O   UNL A   1      39.326  33.981  37.260  1.00  0.00    -0.237 OA
ATOM     67  O   UNL A   1      39.006  31.542  37.071  1.00  0.00    -0.744 OA
ENDBRANCH  60  64
ENDBRANCH  43  57
BRANCH  44  68
ATOM     68  C   UNL A   1      42.392  24.332  27.339  1.00  0.00     0.023 A 
ATOM     69  C   UNL A   1      41.593  23.179  27.404  1.00  0.00     0.031 A 
ATOM     70  C   UNL A   1      43.274  24.461  26.250  1.00  0.00     0.131 A 
ATOM     71  C   UNL A   1      41.731  22.177  26.431  1.00  0.00     0.055 A 
ATOM     72  C   UNL A   1      43.361  23.490  25.251  1.00  0.00     0.041 A 
ATOM     73  F   UNL A   1      44.057  25.545  26.135  1.00  0.00    -0.206 F 
ATOM     74  C   UNL A   1      42.598  22.332  25.348  1.00  0.00     0.022 A 
BRANCH  71  75
ATOM     75  S   UNL A   1      40.830  20.618  26.656  1.00  0.00     0.124 S 
ATOM     76  O   UNL A   1      40.855  20.468  28.107  1.00  0.00    -0.237 OA
ATOM     77  O   UNL A   1      39.533  20.930  26.064  1.00  0.00    -0.237 OA
ATOM     78  O   UNL A   1      41.636  19.651  25.914  1.00  0.00    -0.744 OA
ENDBRANCH  71  75
ENDBRANCH  44  68
BRANCH  56  79
ATOM     79  C   UNL A   1      46.479  25.780  32.805  1.00  0.00     0.023 A 
ATOM     80  C   UNL A   1      46.376  24.722  33.723  1.00  0.00     0.031 A 
ATOM     81  C   UNL A   1      47.766  26.211  32.434  1.00  0.00     0.131 A 
ATOM     82  C   UNL A   1      47.535  24.184  34.302  1.00  0.00     0.055 A 
ATOM     83  C   UNL A   1      48.917  25.618  32.954  1.00  0.00     0.041 A 
ATOM     84  F   UNL A   1      47.926  27.219  31.563  1.00  0.00    -0.206 F 
ATOM     85  C   UNL A   1      48.806  24.611  33.908  1.00  0.00     0.022 A 
BRANCH  82  86
ATOM     86  S   UNL A   1      47.355  23.012  35.674  1.00  0.00     0.124 S 
ATOM     87  O   UNL A   1      48.564  23.266  36.450  1.00  0.00    -0.237 OA
ATOM     88  O   UNL A   1      46.102  23.439  36.288  1.00  0.00    -0.237 OA
ATOM     89  O   UNL A   1      47.309  21.710  35.009  1.00  0.00    -0.744 OA
ENDBRANCH  82  86
ENDBRANCH  56  79
ENDBRANCH  30  31
ENDBRANCH  22  25
ENDBRANCH  20  21
ENDBRANCH   1  20
TORSDOF 16
ENDMDL
MODEL 3
REMARK VINA RESULT:     -10.8      4.791      9.880
REMARK SMILES C[C@H](C(=O)NCCCNC(=O)c1ccc(-c2c3nc(c(-c4cc(S(=O)(=O)[O-])ccc4F)c4ccc([nH]4)c(-c4cc(S(=O)(=O)[O-])ccc4F)c4nc(c(-c5cc(S(=O)(=O)[O-])ccc5F)c5ccc2[nH]5)C=C4)C=C3)cc1)[N@@H+](C)C[C@@H]1CCC[N@H+]1C
REMARK SMILES IDX 7 1 6 2 5 3 3 4 4 5 2 7 1 8 75 9 76 10 77 12 78 13 79 14
REMARK SMILES IDX 82 15 80 16 81 17 83 18 8 20 9 21 10 22 11 24 12 25 13 26
REMARK SMILES IDX 74 27 14 28 73 29 15 30 16 31 17 32 67 33 18 34 72 35 66 36
REMARK SMILES IDX 68 37 19 38 71 39 65 40 64 41 20 43 52 44 32 45 51 46 33 47
REMARK SMILES IDX 36 48 50 49 69 50 34 51 35 52 49 54 70 55 37 56 21 57 22 58
REMARK SMILES IDX 30 59 23 60 29 61 31 62 28 63 24 64 25 65 26 66 27 67 53 68
REMARK SMILES IDX 54 69 62 70 55 71 61 72 63 73 60 74 56 75 57 76 58 77 59 78
REMARK SMILES IDX 38 79 39 80 47 81 40 82 46 83 48 84 45 85 41 86 42 87 43 88
REMARK SMILES IDX 44 89
REMARK H PARENT 5 6 75 11 82 19 9 23 68 42 36 53
REMARK Flexibility Score: inf
ROOT
ATOM      1  C   UNL A   1      33.908  27.824  26.147  1.00  0.00     0.042 C 
ENDROOT
BRANCH   1   2
ATOM      2  C   UNL A   1      33.014  26.783  25.489  1.00  0.00     0.118 C 
BRANCH   2   3
ATOM      3  N   UNL A   1      32.342  25.999  26.503  1.00  0.00    -0.351 N 
ATOM      4  C   UNL A   1      32.264  24.642  26.579  1.00  0.00     0.278 C 
ATOM      5  O   UNL A   1      31.327  24.151  27.213  1.00  0.00    -0.268 OA
ATOM      6  H   UNL A   1      31.890  26.504  27.217  1.00  0.00     0.163 HD
BRANCH   4   7
ATOM      7  C   UNL A   1      33.411  23.811  25.982  1.00  0.00     0.270 C 
ATOM      8  C   UNL A   1      33.926  23.017  27.189  1.00  0.00     0.086 C 
BRANCH   7   9
ATOM      9  N   UNL A   1      32.926  23.151  24.768  1.00  0.00    -0.322 N 
ATOM     10  C   UNL A   1      33.354  23.635  23.475  1.00  0.00     0.333 C 
ATOM     11  H   UNL A   1      32.022  23.623  24.816  1.00  0.00     0.348 HD
BRANCH   9  12
ATOM     12  C   UNL A   1      32.473  21.773  24.838  1.00  0.00     0.328 C 
BRANCH  12  13
ATOM     13  C   UNL A   1      33.311  20.674  24.109  1.00  0.00     0.239 C 
ATOM     14  C   UNL A   1      32.349  19.630  23.509  1.00  0.00     0.077 C 
ATOM     15  N   UNL A   1      34.211  19.889  24.971  1.00  0.00    -0.330 N 
ATOM     16  C   UNL A   1      32.589  18.372  24.324  1.00  0.00     0.068 C 
ATOM     17  C   UNL A   1      34.056  18.475  24.673  1.00  0.00     0.262 C 
ATOM     18  C   UNL A   1      35.594  20.323  25.013  1.00  0.00     0.333 C 
ATOM     19  H   UNL A   1      33.911  20.066  25.930  1.00  0.00     0.348 HD
ENDBRANCH  12  13
ENDBRANCH   9  12
ENDBRANCH   7   9
ENDBRANCH   4   7
ENDBRANCH   2   3
ENDBRANCH   1   2
BRANCH   1  20
ATOM     20  C   UNL A   1      33.236  28.510  27.330  1.00  0.00     0.118 C 
BRANCH  20  21
ATOM     21  N   UNL A   1      33.349  29.962  27.255  1.00  0.00    -0.352 N 
ATOM     22  C   UNL A   1      34.322  30.788  27.754  1.00  0.00     0.251 C 
ATOM     23  H   UNL A   1      32.618  30.417  26.778  1.00  0.00     0.163 HD
ATOM     24  O   UNL A   1      34.121  31.992  27.830  1.00  0.00    -0.269 OA
BRANCH  22  25
ATOM     25  C   UNL A   1      35.595  30.198  28.206  1.00  0.00     0.039 A 
ATOM     26  C   UNL A   1      36.685  30.200  27.336  1.00  0.00     0.014 A 
ATOM     27  C   UNL A   1      35.709  29.660  29.491  1.00  0.00     0.014 A 
ATOM     28  C   UNL A   1      37.908  29.702  27.780  1.00  0.00     0.010 A 
ATOM     29  C   UNL A   1      36.951  29.262  29.964  1.00  0.00     0.010 A 
ATOM     30  C   UNL A   1      38.059  29.264  29.108  1.00  0.00    -0.014 A 
BRANCH  30  31
ATOM     31  C   UNL A   1      39.376  28.790  29.599  1.00  0.00     0.031 A 
ATOM     32  C   UNL A   1      40.034  29.472  30.766  1.00  0.00     0.074 A 
ATOM     33  C   UNL A   1      39.980  27.762  28.973  1.00  0.00     0.049 A 
ATOM     34  N   UNL A   1      41.175  29.198  31.345  1.00  0.00    -0.248 NA
ATOM     35  C   UNL A   1      39.334  30.632  31.341  1.00  0.00     0.031 C 
ATOM     36  C   UNL A   1      39.456  27.069  27.793  1.00  0.00     0.029 A 
ATOM     37  N   UNL A   1      41.158  27.115  29.241  1.00  0.00    -0.354 N 
ATOM     38  C   UNL A   1      41.327  30.147  32.350  1.00  0.00     0.074 A 
ATOM     39  C   UNL A   1      40.205  31.053  32.245  1.00  0.00     0.031 C 
ATOM     40  C   UNL A   1      40.285  26.064  27.470  1.00  0.00     0.029 A 
ATOM     41  C   UNL A   1      41.420  26.071  28.385  1.00  0.00     0.049 A 
ATOM     42  H   UNL A   1      41.758  27.372  29.977  1.00  0.00     0.167 HD
ATOM     43  C   UNL A   1      42.295  30.233  33.294  1.00  0.00     0.034 A 
ATOM     44  C   UNL A   1      42.463  25.218  28.342  1.00  0.00     0.034 A 
ATOM     45  C   UNL A   1      43.407  29.317  33.379  1.00  0.00     0.049 A 
ATOM     46  C   UNL A   1      43.540  25.348  29.389  1.00  0.00     0.074 A 
ATOM     47  C   UNL A   1      44.427  29.283  34.312  1.00  0.00     0.029 A 
ATOM     48  N   UNL A   1      43.650  28.277  32.488  1.00  0.00    -0.354 N 
ATOM     49  N   UNL A   1      43.639  26.215  30.371  1.00  0.00    -0.248 NA
ATOM     50  C   UNL A   1      44.636  24.374  29.329  1.00  0.00     0.031 C 
ATOM     51  C   UNL A   1      45.324  28.275  33.944  1.00  0.00     0.029 A 
ATOM     52  C   UNL A   1      44.820  27.617  32.833  1.00  0.00     0.049 A 
ATOM     53  H   UNL A   1      43.075  28.043  31.724  1.00  0.00     0.167 HD
ATOM     54  C   UNL A   1      44.796  25.870  31.064  1.00  0.00     0.074 A 
ATOM     55  C   UNL A   1      45.339  24.702  30.402  1.00  0.00     0.031 C 
ATOM     56  C   UNL A   1      45.360  26.464  32.149  1.00  0.00     0.034 A 
BRANCH  43  57
ATOM     57  C   UNL A   1      42.197  31.366  34.289  1.00  0.00     0.023 A 
ATOM     58  C   UNL A   1      41.261  31.346  35.340  1.00  0.00     0.031 A 
ATOM     59  C   UNL A   1      43.027  32.495  34.173  1.00  0.00     0.131 A 
ATOM     60  C   UNL A   1      41.125  32.460  36.181  1.00  0.00     0.055 A 
ATOM     61  C   UNL A   1      42.946  33.564  35.068  1.00  0.00     0.041 A 
ATOM     62  F   UNL A   1      43.922  32.587  33.176  1.00  0.00    -0.206 F 
ATOM     63  C   UNL A   1      41.981  33.558  36.070  1.00  0.00     0.022 A 
BRANCH  60  64
ATOM     64  S   UNL A   1      39.715  32.518  37.321  1.00  0.00     0.124 S 
ATOM     65  O   UNL A   1      40.385  32.501  38.619  1.00  0.00    -0.237 OA
ATOM     66  O   UNL A   1      39.064  33.770  36.954  1.00  0.00    -0.237 OA
ATOM     67  O   UNL A   1      38.965  31.306  37.000  1.00  0.00    -0.744 OA
ENDBRANCH  60  64
ENDBRANCH  43  57
BRANCH  44  68
ATOM     68  C   UNL A   1      42.544  24.175  27.278  1.00  0.00     0.023 A 
ATOM     69  C   UNL A   1      41.926  22.924  27.436  1.00  0.00     0.031 A 
ATOM     70  C   UNL A   1      43.280  24.402  26.101  1.00  0.00     0.131 A 
ATOM     71  C   UNL A   1      42.100  21.930  26.460  1.00  0.00     0.055 A 
ATOM     72  C   UNL A   1      43.397  23.431  25.105  1.00  0.00     0.041 A 
ATOM     73  F   UNL A   1      43.887  25.581  25.896  1.00  0.00    -0.206 F 
ATOM     74  C   UNL A   1      42.818  22.181  25.290  1.00  0.00     0.022 A 
BRANCH  71  75
ATOM     75  S   UNL A   1      41.455  20.267  26.791  1.00  0.00     0.124 S 
ATOM     76  O   UNL A   1      42.357  19.802  27.838  1.00  0.00    -0.237 OA
ATOM     77  O   UNL A   1      40.084  20.550  27.202  1.00  0.00    -0.237 OA
ATOM     78  O   UNL A   1      41.589  19.589  25.502  1.00  0.00    -0.744 OA
ENDBRANCH  71  75
ENDBRANCH  44  68
BRANCH  56  79
ATOM     79  C   UNL A   1      46.613  25.825  32.700  1.00  0.00     0.023 A 
ATOM     80  C   UNL A   1      47.876  26.065  32.133  1.00  0.00     0.031 A 
ATOM     81  C   UNL A   1      46.536  24.937  33.788  1.00  0.00     0.131 A 
ATOM     82  C   UNL A   1      48.997  25.364  32.600  1.00  0.00     0.055 A 
ATOM     83  C   UNL A   1      47.668  24.302  34.301  1.00  0.00     0.041 A 
ATOM     84  F   UNL A   1      45.356  24.666  34.369  1.00  0.00    -0.206 F 
ATOM     85  C   UNL A   1      48.905  24.500  33.694  1.00  0.00     0.022 A 
BRANCH  82  86
ATOM     86  S   UNL A   1      50.551  25.497  31.675  1.00  0.00     0.124 S 
ATOM     87  O   UNL A   1      51.423  26.157  32.641  1.00  0.00    -0.237 OA
ATOM     88  O   UNL A   1      50.863  24.101  31.386  1.00  0.00    -0.237 OA
ATOM     89  O   UNL A   1      50.190  26.306  30.512  1.00  0.00    -0.744 OA
ENDBRANCH  82  86
ENDBRANCH  56  79
ENDBRANCH  30  31
ENDBRANCH  22  25
ENDBRANCH  20  21
ENDBRANCH   1  20
TORSDOF 16
ENDMDL
