MODEL 1
REMARK VINA RESULT:     -11.5      0.000      0.000
REMARK SMILES C[NH2+][C@]1(C(=O)NCCCNC(=O)c2ccc(-c3c4nc(c(-c5cc(S(=O)(=O)[O-])ccc5F)c5ccc([nH]5)c(-c5cc(S(=O)(=O)[O-])ccc5F)c5nc(c(-c6cc(S(=O)(=O)[O-])ccc6F)c6ccc3[nH]6)C=C5)C=C4)cc2)CCC[C@@H](Sc2nccn2C)C1
REMARK SMILES IDX 8 1 7 2 6 3 4 4 5 5 3 7 76 8 87 9 77 10 79 11 78 12 2 13
REMARK SMILES IDX 1 14 80 17 81 18 82 19 85 20 83 21 84 22 86 23 9 24 10 25
REMARK SMILES IDX 11 26 12 28 13 29 14 30 75 31 15 32 74 33 16 34 17 35 18 36
REMARK SMILES IDX 68 37 19 38 73 39 67 40 69 41 20 42 72 43 66 44 65 45 21 47
REMARK SMILES IDX 53 48 33 49 52 50 34 51 37 52 51 53 70 54 35 55 36 56 50 58
REMARK SMILES IDX 71 59 38 60 22 61 23 62 31 63 24 64 30 65 32 66 29 67 25 68
REMARK SMILES IDX 26 69 27 70 28 71 54 72 55 73 63 74 56 75 62 76 64 77 61 78
REMARK SMILES IDX 57 79 58 80 59 81 60 82 39 83 40 84 48 85 41 86 47 87 49 88
REMARK SMILES IDX 46 89 42 90 43 91 44 92 45 93
REMARK H PARENT 6 6 2 15 2 16 10 27 69 46 37 57
REMARK Flexibility Score: inf
ROOT
ATOM      1  C   UNL A   1      31.457  32.130  26.871  1.00  0.00     0.042 C 
ENDROOT
BRANCH   1   2
ATOM      2  C   UNL A   1      31.711  30.848  26.088  1.00  0.00     0.118 C 
BRANCH   2   3
ATOM      3  N   UNL A   1      32.891  30.141  26.567  1.00  0.00    -0.351 N 
ATOM      4  C   UNL A   1      33.487  28.985  26.160  1.00  0.00     0.281 C 
ATOM      5  O   UNL A   1      34.562  28.704  26.706  1.00  0.00    -0.268 OA
ATOM      6  H   UNL A   1      33.341  30.578  27.325  1.00  0.00     0.163 HD
BRANCH   4   7
ATOM      7  C   UNL A   1      32.897  28.091  25.011  1.00  0.00     0.176 C 
ATOM      8  C   UNL A   1      33.055  28.752  23.620  1.00  0.00     0.079 C 
ATOM      9  C   UNL A   1      33.604  26.709  25.104  1.00  0.00     0.094 C 
ATOM     10  C   UNL A   1      32.753  27.804  22.466  1.00  0.00     0.008 C 
ATOM     11  C   UNL A   1      33.458  25.830  23.858  1.00  0.00     0.061 C 
ATOM     12  C   UNL A   1      33.661  26.583  22.541  1.00  0.00     0.015 C 
BRANCH   7  13
ATOM     13  N   UNL A   1      31.449  27.797  25.305  1.00  0.00    -0.336 N 
ATOM     14  C   UNL A   1      31.212  26.960  26.480  1.00  0.00     0.331 C 
ATOM     15  H   UNL A   1      30.971  28.686  25.449  1.00  0.00     0.346 HD
ATOM     16  H   UNL A   1      31.100  27.270  24.506  1.00  0.00     0.346 HD
ENDBRANCH   7  13
BRANCH  11  17
ATOM     17  S   UNL A   1      34.524  24.334  23.936  1.00  0.00    -0.084 SA
BRANCH  17  18
ATOM     18  C   UNL A   1      33.587  23.220  24.879  1.00  0.00     0.167 A 
ATOM     19  N   UNL A   1      33.587  23.155  26.192  1.00  0.00    -0.231 NA
ATOM     20  N   UNL A   1      32.705  22.324  24.336  1.00  0.00    -0.329 N 
ATOM     21  C   UNL A   1      32.666  22.192  26.514  1.00  0.00     0.132 A 
ATOM     22  C   UNL A   1      32.107  21.658  25.378  1.00  0.00     0.108 A 
ATOM     23  C   UNL A   1      32.411  22.060  22.950  1.00  0.00     0.152 C 
ENDBRANCH  17  18
ENDBRANCH  11  17
ENDBRANCH   4   7
ENDBRANCH   2   3
ENDBRANCH   1   2
BRANCH   1  24
ATOM     24  C   UNL A   1      32.728  32.770  27.409  1.00  0.00     0.118 C 
BRANCH  24  25
ATOM     25  N   UNL A   1      32.544  34.180  27.721  1.00  0.00    -0.352 N 
ATOM     26  C   UNL A   1      33.129  34.946  28.699  1.00  0.00     0.251 C 
ATOM     27  H   UNL A   1      31.905  34.657  27.143  1.00  0.00     0.163 HD
ATOM     28  O   UNL A   1      32.663  36.057  28.952  1.00  0.00    -0.269 OA
BRANCH  26  29
ATOM     29  C   UNL A   1      34.288  34.431  29.458  1.00  0.00     0.039 A 
ATOM     30  C   UNL A   1      34.073  33.828  30.700  1.00  0.00     0.014 A 
ATOM     31  C   UNL A   1      35.587  34.547  28.955  1.00  0.00     0.014 A 
ATOM     32  C   UNL A   1      35.150  33.284  31.401  1.00  0.00     0.010 A 
ATOM     33  C   UNL A   1      36.644  33.922  29.608  1.00  0.00     0.010 A 
ATOM     34  C   UNL A   1      36.440  33.290  30.844  1.00  0.00    -0.014 A 
BRANCH  34  35
ATOM     35  C   UNL A   1      37.586  32.650  31.539  1.00  0.00     0.031 A 
ATOM     36  C   UNL A   1      38.308  31.496  30.895  1.00  0.00     0.074 A 
ATOM     37  C   UNL A   1      37.937  33.067  32.772  1.00  0.00     0.049 A 
ATOM     38  N   UNL A   1      39.276  30.755  31.371  1.00  0.00    -0.248 NA
ATOM     39  C   UNL A   1      37.860  31.105  29.549  1.00  0.00     0.031 C 
ATOM     40  C   UNL A   1      37.288  34.151  33.513  1.00  0.00     0.029 A 
ATOM     41  N   UNL A   1      38.920  32.628  33.623  1.00  0.00    -0.354 N 
ATOM     42  C   UNL A   1      39.544  29.806  30.391  1.00  0.00     0.074 A 
ATOM     43  C   UNL A   1      38.590  30.023  29.324  1.00  0.00     0.031 C 
ATOM     44  C   UNL A   1      37.909  34.312  34.692  1.00  0.00     0.029 A 
ATOM     45  C   UNL A   1      38.962  33.310  34.819  1.00  0.00     0.049 A 
ATOM     46  H   UNL A   1      39.537  31.895  33.400  1.00  0.00     0.167 HD
ATOM     47  C   UNL A   1      40.512  28.856  30.371  1.00  0.00     0.034 A 
ATOM     48  C   UNL A   1      39.748  33.137  35.900  1.00  0.00     0.034 A 
ATOM     49  C   UNL A   1      41.460  28.660  31.441  1.00  0.00     0.049 A 
ATOM     50  C   UNL A   1      40.794  32.049  35.871  1.00  0.00     0.074 A 
ATOM     51  C   UNL A   1      42.512  27.763  31.505  1.00  0.00     0.029 A 
ATOM     52  N   UNL A   1      41.468  29.365  32.638  1.00  0.00    -0.354 N 
ATOM     53  N   UNL A   1      41.066  31.190  34.915  1.00  0.00    -0.248 NA
ATOM     54  C   UNL A   1      41.645  31.916  37.059  1.00  0.00     0.031 C 
ATOM     55  C   UNL A   1      43.104  27.871  32.768  1.00  0.00     0.029 A 
ATOM     56  C   UNL A   1      42.483  28.898  33.459  1.00  0.00     0.049 A 
ATOM     57  H   UNL A   1      40.843  30.090  32.870  1.00  0.00     0.167 HD
ATOM     58  C   UNL A   1      42.144  30.440  35.376  1.00  0.00     0.074 A 
ATOM     59  C   UNL A   1      42.479  30.957  36.686  1.00  0.00     0.031 C 
ATOM     60  C   UNL A   1      42.803  29.419  34.768  1.00  0.00     0.034 A 
BRANCH  47  61
ATOM     61  C   UNL A   1      40.571  27.944  29.167  1.00  0.00     0.023 A 
ATOM     62  C   UNL A   1      41.528  28.119  28.153  1.00  0.00     0.031 A 
ATOM     63  C   UNL A   1      39.648  26.893  29.023  1.00  0.00     0.131 A 
ATOM     64  C   UNL A   1      41.492  27.312  27.006  1.00  0.00     0.055 A 
ATOM     65  C   UNL A   1      39.671  26.037  27.920  1.00  0.00     0.041 A 
ATOM     66  F   UNL A   1      38.695  26.688  29.947  1.00  0.00    -0.206 F 
ATOM     67  C   UNL A   1      40.588  26.253  26.895  1.00  0.00     0.022 A 
BRANCH  64  68
ATOM     68  S   UNL A   1      42.543  27.760  25.598  1.00  0.00     0.124 S 
ATOM     69  O   UNL A   1      43.800  28.095  26.264  1.00  0.00    -0.237 OA
ATOM     70  O   UNL A   1      42.548  26.535  24.806  1.00  0.00    -0.237 OA
ATOM     71  O   UNL A   1      41.845  28.892  24.994  1.00  0.00    -0.744 OA
ENDBRANCH  64  68
ENDBRANCH  47  61
BRANCH  48  72
ATOM     72  C   UNL A   1      39.577  33.997  37.107  1.00  0.00     0.023 A 
ATOM     73  C   UNL A   1      38.969  33.501  38.271  1.00  0.00     0.031 A 
ATOM     74  C   UNL A   1      39.974  35.347  37.098  1.00  0.00     0.131 A 
ATOM     75  C   UNL A   1      38.727  34.358  39.355  1.00  0.00     0.055 A 
ATOM     76  C   UNL A   1      39.787  36.180  38.202  1.00  0.00     0.041 A 
ATOM     77  F   UNL A   1      40.563  35.876  36.012  1.00  0.00    -0.206 F 
ATOM     78  C   UNL A   1      39.146  35.690  39.335  1.00  0.00     0.022 A 
BRANCH  75  79
ATOM     79  S   UNL A   1      37.763  33.732  40.758  1.00  0.00     0.124 S 
ATOM     80  O   UNL A   1      36.651  33.073  40.084  1.00  0.00    -0.237 OA
ATOM     81  O   UNL A   1      38.725  32.855  41.418  1.00  0.00    -0.237 OA
ATOM     82  O   UNL A   1      37.416  34.943  41.499  1.00  0.00    -0.744 OA
ENDBRANCH  75  79
ENDBRANCH  48  72
BRANCH  60  83
ATOM     83  C   UNL A   1      43.990  28.835  35.496  1.00  0.00     0.023 A 
ATOM     84  C   UNL A   1      43.862  27.744  36.374  1.00  0.00     0.031 A 
ATOM     85  C   UNL A   1      45.271  29.384  35.308  1.00  0.00     0.131 A 
ATOM     86  C   UNL A   1      44.985  27.277  37.075  1.00  0.00     0.055 A 
ATOM     87  C   UNL A   1      46.395  28.872  35.956  1.00  0.00     0.041 A 
ATOM     88  F   UNL A   1      45.452  30.430  34.486  1.00  0.00    -0.206 F 
ATOM     89  C   UNL A   1      46.254  27.820  36.857  1.00  0.00     0.022 A 
BRANCH  86  90
ATOM     90  S   UNL A   1      44.749  26.012  38.354  1.00  0.00     0.124 S 
ATOM     91  O   UNL A   1      44.006  24.984  37.630  1.00  0.00    -0.237 OA
ATOM     92  O   UNL A   1      46.122  25.672  38.714  1.00  0.00    -0.237 OA
ATOM     93  O   UNL A   1      43.990  26.710  39.391  1.00  0.00    -0.744 OA
ENDBRANCH  86  90
ENDBRANCH  60  83
ENDBRANCH  34  35
ENDBRANCH  26  29
ENDBRANCH  24  25
ENDBRANCH   1  24
TORSDOF 16
ENDMDL
MODEL 2
REMARK VINA RESULT:     -11.4      2.840      8.673
REMARK SMILES C[NH2+][C@]1(C(=O)NCCCNC(=O)c2ccc(-c3c4nc(c(-c5cc(S(=O)(=O)[O-])ccc5F)c5ccc([nH]5)c(-c5cc(S(=O)(=O)[O-])ccc5F)c5nc(c(-c6cc(S(=O)(=O)[O-])ccc6F)c6ccc3[nH]6)C=C5)C=C4)cc2)CCC[C@@H](Sc2nccn2C)C1
REMARK SMILES IDX 8 1 7 2 6 3 4 4 5 5 3 7 76 8 87 9 77 10 79 11 78 12 2 13
REMARK SMILES IDX 1 14 80 17 81 18 82 19 85 20 83 21 84 22 86 23 9 24 10 25
REMARK SMILES IDX 11 26 12 28 13 29 14 30 75 31 15 32 74 33 16 34 17 35 18 36
REMARK SMILES IDX 68 37 19 38 73 39 67 40 69 41 20 42 72 43 66 44 65 45 21 47
REMARK SMILES IDX 53 48 33 49 52 50 34 51 37 52 51 53 70 54 35 55 36 56 50 58
REMARK SMILES IDX 71 59 38 60 22 61 23 62 31 63 24 64 30 65 32 66 29 67 25 68
REMARK SMILES IDX 26 69 27 70 28 71 54 72 55 73 63 74 56 75 62 76 64 77 61 78
REMARK SMILES IDX 57 79 58 80 59 81 60 82 39 83 40 84 48 85 41 86 47 87 49 88
REMARK SMILES IDX 46 89 42 90 43 91 44 92 45 93
REMARK H PARENT 6 6 2 15 2 16 10 27 69 46 37 57
REMARK Flexibility Score: inf
ROOT
ATOM      1  C   UNL A   1      31.608  31.244  26.310  1.00  0.00     0.042 C 
ENDROOT
BRANCH   1   2
ATOM      2  C   UNL A   1      31.614  29.855  25.686  1.00  0.00     0.118 C 
BRANCH   2   3
ATOM      3  N   UNL A   1      32.694  29.694  24.722  1.00  0.00    -0.351 N 
ATOM      4  C   UNL A   1      32.819  28.904  23.618  1.00  0.00     0.281 C 
ATOM      5  O   UNL A   1      33.833  29.085  22.931  1.00  0.00    -0.268 OA
ATOM      6  H   UNL A   1      33.479  30.260  24.901  1.00  0.00     0.163 HD
BRANCH   4   7
ATOM      7  C   UNL A   1      31.714  27.874  23.188  1.00  0.00     0.176 C 
ATOM      8  C   UNL A   1      31.595  26.697  24.186  1.00  0.00     0.079 C 
ATOM      9  C   UNL A   1      30.387  28.672  23.038  1.00  0.00     0.094 C 
ATOM     10  C   UNL A   1      30.359  25.837  23.956  1.00  0.00     0.008 C 
ATOM     11  C   UNL A   1      29.122  27.809  23.000  1.00  0.00     0.061 C 
ATOM     12  C   UNL A   1      29.101  26.693  24.048  1.00  0.00     0.015 C 
BRANCH   7  13
ATOM     13  N   UNL A   1      32.015  27.375  21.800  1.00  0.00    -0.336 N 
ATOM     14  C   UNL A   1      32.902  26.215  21.735  1.00  0.00     0.331 C 
ATOM     15  H   UNL A   1      31.132  27.122  21.357  1.00  0.00     0.346 HD
ATOM     16  H   UNL A   1      32.506  28.134  21.327  1.00  0.00     0.346 HD
ENDBRANCH   7  13
BRANCH  11  17
ATOM     17  S   UNL A   1      27.590  28.821  23.082  1.00  0.00    -0.084 SA
BRANCH  17  18
ATOM     18  C   UNL A   1      27.960  30.195  22.090  1.00  0.00     0.167 A 
ATOM     19  N   UNL A   1      27.831  30.240  20.783  1.00  0.00    -0.231 NA
ATOM     20  N   UNL A   1      28.379  31.400  22.591  1.00  0.00    -0.329 N 
ATOM     21  C   UNL A   1      28.167  31.520  20.422  1.00  0.00     0.132 A 
ATOM     22  C   UNL A   1      28.516  32.258  21.528  1.00  0.00     0.108 A 
ATOM     23  C   UNL A   1      28.659  31.771  23.955  1.00  0.00     0.152 C 
ENDBRANCH  17  18
ENDBRANCH  11  17
ENDBRANCH   4   7
ENDBRANCH   2   3
ENDBRANCH   1   2
BRANCH   1  24
ATOM     24  C   UNL A   1      32.789  31.496  27.234  1.00  0.00     0.118 C 
BRANCH  24  25
ATOM     25  N   UNL A   1      33.066  32.916  27.399  1.00  0.00    -0.352 N 
ATOM     26  C   UNL A   1      34.068  33.539  28.100  1.00  0.00     0.251 C 
ATOM     27  H   UNL A   1      32.441  33.520  26.938  1.00  0.00     0.163 HD
ATOM     28  O   UNL A   1      33.990  34.749  28.315  1.00  0.00    -0.269 OA
BRANCH  26  29
ATOM     29  C   UNL A   1      35.215  32.761  28.614  1.00  0.00     0.039 A 
ATOM     30  C   UNL A   1      36.511  33.233  28.388  1.00  0.00     0.014 A 
ATOM     31  C   UNL A   1      35.020  31.566  29.311  1.00  0.00     0.014 A 
ATOM     32  C   UNL A   1      37.602  32.542  28.919  1.00  0.00     0.010 A 
ATOM     33  C   UNL A   1      36.099  30.931  29.918  1.00  0.00     0.010 A 
ATOM     34  C   UNL A   1      37.404  31.407  29.723  1.00  0.00    -0.014 A 
BRANCH  34  35
ATOM     35  C   UNL A   1      38.546  30.701  30.359  1.00  0.00     0.031 A 
ATOM     36  C   UNL A   1      38.985  31.079  31.748  1.00  0.00     0.074 A 
ATOM     37  C   UNL A   1      39.222  29.764  29.665  1.00  0.00     0.049 A 
ATOM     38  N   UNL A   1      40.003  30.640  32.444  1.00  0.00    -0.248 NA
ATOM     39  C   UNL A   1      38.191  32.112  32.435  1.00  0.00     0.031 C 
ATOM     40  C   UNL A   1      38.913  29.340  28.297  1.00  0.00     0.029 A 
ATOM     41  N   UNL A   1      40.312  29.004  30.007  1.00  0.00    -0.354 N 
ATOM     42  C   UNL A   1      39.978  31.348  33.640  1.00  0.00     0.074 A 
ATOM     43  C   UNL A   1      38.887  32.293  33.546  1.00  0.00     0.031 C 
ATOM     44  C   UNL A   1      39.772  28.376  27.931  1.00  0.00     0.029 A 
ATOM     45  C   UNL A   1      40.728  28.150  29.010  1.00  0.00     0.049 A 
ATOM     46  H   UNL A   1      40.755  29.063  30.885  1.00  0.00     0.167 HD
ATOM     47  C   UNL A   1      40.778  31.207  34.726  1.00  0.00     0.034 A 
ATOM     48  C   UNL A   1      41.770  27.296  28.964  1.00  0.00     0.034 A 
ATOM     49  C   UNL A   1      41.857  30.252  34.805  1.00  0.00     0.049 A 
ATOM     50  C   UNL A   1      42.669  27.183  30.171  1.00  0.00     0.074 A 
ATOM     51  C   UNL A   1      42.697  29.988  35.873  1.00  0.00     0.029 A 
ATOM     52  N   UNL A   1      42.252  29.409  33.773  1.00  0.00    -0.354 N 
ATOM     53  N   UNL A   1      42.603  27.826  31.315  1.00  0.00    -0.248 NA
ATOM     54  C   UNL A   1      43.773  26.220  30.087  1.00  0.00     0.031 C 
ATOM     55  C   UNL A   1      43.647  29.047  35.462  1.00  0.00     0.029 A 
ATOM     56  C   UNL A   1      43.345  28.653  34.169  1.00  0.00     0.049 A 
ATOM     57  H   UNL A   1      41.820  29.358  32.890  1.00  0.00     0.167 HD
ATOM     58  C   UNL A   1      43.636  27.317  32.096  1.00  0.00     0.074 A 
ATOM     59  C   UNL A   1      44.299  26.306  31.299  1.00  0.00     0.031 C 
ATOM     60  C   UNL A   1      44.001  27.651  33.361  1.00  0.00     0.034 A 
BRANCH  47  61
ATOM     61  C   UNL A   1      40.529  32.124  35.902  1.00  0.00     0.023 A 
ATOM     62  C   UNL A   1      39.464  31.911  36.794  1.00  0.00     0.031 A 
ATOM     63  C   UNL A   1      41.358  33.238  36.124  1.00  0.00     0.131 A 
ATOM     64  C   UNL A   1      39.209  32.837  37.816  1.00  0.00     0.055 A 
ATOM     65  C   UNL A   1      41.151  34.109  37.196  1.00  0.00     0.041 A 
ATOM     66  F   UNL A   1      42.378  33.509  35.294  1.00  0.00    -0.206 F 
ATOM     67  C   UNL A   1      40.062  33.920  38.041  1.00  0.00     0.022 A 
BRANCH  64  68
ATOM     68  S   UNL A   1      37.663  32.689  38.753  1.00  0.00     0.124 S 
ATOM     69  O   UNL A   1      37.696  31.285  39.157  1.00  0.00    -0.237 OA
ATOM     70  O   UNL A   1      37.846  33.665  39.821  1.00  0.00    -0.237 OA
ATOM     71  O   UNL A   1      36.634  33.023  37.771  1.00  0.00    -0.744 OA
ENDBRANCH  64  68
ENDBRANCH  47  61
BRANCH  48  72
ATOM     72  C   UNL A   1      42.035  26.489  27.738  1.00  0.00     0.023 A 
ATOM     73  C   UNL A   1      41.597  25.159  27.636  1.00  0.00     0.031 A 
ATOM     74  C   UNL A   1      42.775  27.021  26.666  1.00  0.00     0.131 A 
ATOM     75  C   UNL A   1      41.948  24.390  26.517  1.00  0.00     0.055 A 
ATOM     76  C   UNL A   1      43.068  26.270  25.526  1.00  0.00     0.041 A 
ATOM     77  F   UNL A   1      43.218  28.288  26.707  1.00  0.00    -0.206 F 
ATOM     78  C   UNL A   1      42.666  24.940  25.454  1.00  0.00     0.022 A 
BRANCH  75  79
ATOM     79  S   UNL A   1      41.535  22.623  26.515  1.00  0.00     0.124 S 
ATOM     80  O   UNL A   1      42.218  22.161  25.313  1.00  0.00    -0.237 OA
ATOM     81  O   UNL A   1      42.098  22.179  27.786  1.00  0.00    -0.237 OA
ATOM     82  O   UNL A   1      40.075  22.616  26.446  1.00  0.00    -0.744 OA
ENDBRANCH  75  79
ENDBRANCH  48  72
BRANCH  60  83
ATOM     83  C   UNL A   1      45.137  26.870  33.979  1.00  0.00     0.023 A 
ATOM     84  C   UNL A   1      44.927  25.650  34.645  1.00  0.00     0.031 A 
ATOM     85  C   UNL A   1      46.453  27.361  33.901  1.00  0.00     0.131 A 
ATOM     86  C   UNL A   1      46.006  24.994  35.257  1.00  0.00     0.055 A 
ATOM     87  C   UNL A   1      47.531  26.670  34.452  1.00  0.00     0.041 A 
ATOM     88  F   UNL A   1      46.713  28.524  33.281  1.00  0.00    -0.206 F 
ATOM     89  C   UNL A   1      47.309  25.485  35.148  1.00  0.00     0.022 A 
BRANCH  86  90
ATOM     90  S   UNL A   1      45.669  23.539  36.286  1.00  0.00     0.124 S 
ATOM     91  O   UNL A   1      47.013  23.017  36.521  1.00  0.00    -0.237 OA
ATOM     92  O   UNL A   1      45.001  24.122  37.445  1.00  0.00    -0.237 OA
ATOM     93  O   UNL A   1      44.821  22.705  35.435  1.00  0.00    -0.744 OA
ENDBRANCH  86  90
ENDBRANCH  60  83
ENDBRANCH  34  35
ENDBRANCH  26  29
ENDBRANCH  24  25
ENDBRANCH   1  24
TORSDOF 16
ENDMDL
MODEL 3
REMARK VINA RESULT:     -11.4      2.485      3.816
REMARK SMILES C[NH2+][C@]1(C(=O)NCCCNC(=O)c2ccc(-c3c4nc(c(-c5cc(S(=O)(=O)[O-])ccc5F)c5ccc([nH]5)c(-c5cc(S(=O)(=O)[O-])ccc5F)c5nc(c(-c6cc(S(=O)(=O)[O-])ccc6F)c6ccc3[nH]6)C=C5)C=C4)cc2)CCC[C@@H](Sc2nccn2C)C1
REMARK SMILES IDX 8 1 7 2 6 3 4 4 5 5 3 7 76 8 87 9 77 10 79 11 78 12 2 13
REMARK SMILES IDX 1 14 80 17 81 18 82 19 85 20 83 21 84 22 86 23 9 24 10 25
REMARK SMILES IDX 11 26 12 28 13 29 14 30 75 31 15 32 74 33 16 34 17 35 18 36
REMARK SMILES IDX 68 37 19 38 73 39 67 40 69 41 20 42 72 43 66 44 65 45 21 47
REMARK SMILES IDX 53 48 33 49 52 50 34 51 37 52 51 53 70 54 35 55 36 56 50 58
REMARK SMILES IDX 71 59 38 60 22 61 23 62 31 63 24 64 30 65 32 66 29 67 25 68
REMARK SMILES IDX 26 69 27 70 28 71 54 72 55 73 63 74 56 75 62 76 64 77 61 78
REMARK SMILES IDX 57 79 58 80 59 81 60 82 39 83 40 84 48 85 41 86 47 87 49 88
REMARK SMILES IDX 46 89 42 90 43 91 44 92 45 93
REMARK H PARENT 6 6 2 15 2 16 10 27 69 46 37 57
REMARK Flexibility Score: inf
ROOT
ATOM      1  C   UNL A   1      31.287  31.527  26.138  1.00  0.00     0.042 C 
ENDROOT
BRANCH   1   2
ATOM      2  C   UNL A   1      31.330  30.093  25.628  1.00  0.00     0.118 C 
BRANCH   2   3
ATOM      3  N   UNL A   1      32.441  29.872  24.712  1.00  0.00    -0.351 N 
ATOM      4  C   UNL A   1      32.587  29.040  23.642  1.00  0.00     0.281 C 
ATOM      5  O   UNL A   1      33.630  29.173  22.988  1.00  0.00    -0.268 OA
ATOM      6  H   UNL A   1      33.232  30.425  24.901  1.00  0.00     0.163 HD
BRANCH   4   7
ATOM      7  C   UNL A   1      31.472  28.024  23.205  1.00  0.00     0.176 C 
ATOM      8  C   UNL A   1      31.277  26.893  24.243  1.00  0.00     0.079 C 
ATOM      9  C   UNL A   1      30.177  28.850  22.964  1.00  0.00     0.094 C 
ATOM     10  C   UNL A   1      30.028  26.057  23.994  1.00  0.00     0.008 C 
ATOM     11  C   UNL A   1      28.890  28.020  22.905  1.00  0.00     0.061 C 
ATOM     12  C   UNL A   1      28.793  26.950  23.996  1.00  0.00     0.015 C 
BRANCH   7  13
ATOM     13  N   UNL A   1      31.819  27.459  21.853  1.00  0.00    -0.336 N 
ATOM     14  C   UNL A   1      32.711  26.302  21.873  1.00  0.00     0.331 C 
ATOM     15  H   UNL A   1      30.951  27.182  21.395  1.00  0.00     0.346 HD
ATOM     16  H   UNL A   1      32.322  28.197  21.359  1.00  0.00     0.346 HD
ENDBRANCH   7  13
BRANCH  11  17
ATOM     17  S   UNL A   1      27.385  29.075  22.879  1.00  0.00    -0.084 SA
BRANCH  17  18
ATOM     18  C   UNL A   1      28.024  30.688  22.857  1.00  0.00     0.167 A 
ATOM     19  N   UNL A   1      28.417  31.359  23.916  1.00  0.00    -0.231 NA
ATOM     20  N   UNL A   1      28.231  31.405  21.708  1.00  0.00    -0.329 N 
ATOM     21  C   UNL A   1      28.907  32.548  23.439  1.00  0.00     0.132 A 
ATOM     22  C   UNL A   1      28.797  32.602  22.071  1.00  0.00     0.108 A 
ATOM     23  C   UNL A   1      27.928  31.048  20.345  1.00  0.00     0.152 C 
ENDBRANCH  17  18
ENDBRANCH  11  17
ENDBRANCH   4   7
ENDBRANCH   2   3
ENDBRANCH   1   2
BRANCH   1  24
ATOM     24  C   UNL A   1      32.448  31.874  27.059  1.00  0.00     0.118 C 
BRANCH  24  25
ATOM     25  N   UNL A   1      32.532  33.304  27.324  1.00  0.00    -0.352 N 
ATOM     26  C   UNL A   1      33.381  33.995  28.151  1.00  0.00     0.251 C 
ATOM     27  H   UNL A   1      31.881  33.858  26.835  1.00  0.00     0.163 HD
ATOM     28  O   UNL A   1      33.136  35.171  28.420  1.00  0.00    -0.269 OA
BRANCH  26  29
ATOM     29  C   UNL A   1      34.563  33.326  28.735  1.00  0.00     0.039 A 
ATOM     30  C   UNL A   1      35.828  33.883  28.528  1.00  0.00     0.014 A 
ATOM     31  C   UNL A   1      34.432  32.150  29.477  1.00  0.00     0.014 A 
ATOM     32  C   UNL A   1      36.948  33.297  29.123  1.00  0.00     0.010 A 
ATOM     33  C   UNL A   1      35.532  31.623  30.146  1.00  0.00     0.010 A 
ATOM     34  C   UNL A   1      36.805  32.185  29.970  1.00  0.00    -0.014 A 
BRANCH  34  35
ATOM     35  C   UNL A   1      37.973  31.593  30.672  1.00  0.00     0.031 A 
ATOM     36  C   UNL A   1      38.804  30.537  29.992  1.00  0.00     0.074 A 
ATOM     37  C   UNL A   1      38.248  31.961  31.939  1.00  0.00     0.049 A 
ATOM     38  N   UNL A   1      39.808  29.844  30.462  1.00  0.00    -0.248 NA
ATOM     39  C   UNL A   1      38.434  30.194  28.609  1.00  0.00     0.031 C 
ATOM     40  C   UNL A   1      37.492  32.948  32.715  1.00  0.00     0.029 A 
ATOM     41  N   UNL A   1      39.232  31.548  32.802  1.00  0.00    -0.354 N 
ATOM     42  C   UNL A   1      40.183  28.977  29.441  1.00  0.00     0.074 A 
ATOM     43  C   UNL A   1      39.252  29.185  28.353  1.00  0.00     0.031 C 
ATOM     44  C   UNL A   1      38.057  33.084  33.924  1.00  0.00     0.029 A 
ATOM     45  C   UNL A   1      39.180  32.159  34.035  1.00  0.00     0.049 A 
ATOM     46  H   UNL A   1      39.911  30.877  32.562  1.00  0.00     0.167 HD
ATOM     47  C   UNL A   1      41.221  28.106  29.406  1.00  0.00     0.034 A 
ATOM     48  C   UNL A   1      39.939  31.981  35.135  1.00  0.00     0.034 A 
ATOM     49  C   UNL A   1      42.145  27.918  30.499  1.00  0.00     0.049 A 
ATOM     50  C   UNL A   1      41.066  30.978  35.084  1.00  0.00     0.074 A 
ATOM     51  C   UNL A   1      43.260  27.101  30.553  1.00  0.00     0.029 A 
ATOM     52  N   UNL A   1      42.056  28.549  31.734  1.00  0.00    -0.354 N 
ATOM     53  N   UNL A   1      41.437  30.201  34.092  1.00  0.00    -0.248 NA
ATOM     54  C   UNL A   1      41.884  30.839  36.295  1.00  0.00     0.031 C 
ATOM     55  C   UNL A   1      43.798  27.177  31.842  1.00  0.00     0.029 A 
ATOM     56  C   UNL A   1      43.076  28.112  32.566  1.00  0.00     0.049 A 
ATOM     57  H   UNL A   1      41.370  29.210  31.981  1.00  0.00     0.167 HD
ATOM     58  C   UNL A   1      42.553  29.507  34.552  1.00  0.00     0.074 A 
ATOM     59  C   UNL A   1      42.802  29.970  35.901  1.00  0.00     0.031 C 
ATOM     60  C   UNL A   1      43.309  28.577  33.914  1.00  0.00     0.034 A 
BRANCH  47  61
ATOM     61  C   UNL A   1      41.392  27.273  28.156  1.00  0.00     0.023 A 
ATOM     62  C   UNL A   1      41.005  25.922  28.108  1.00  0.00     0.031 A 
ATOM     63  C   UNL A   1      41.967  27.832  27.000  1.00  0.00     0.131 A 
ATOM     64  C   UNL A   1      41.267  25.158  26.961  1.00  0.00     0.055 A 
ATOM     65  C   UNL A   1      42.145  27.089  25.832  1.00  0.00     0.041 A 
ATOM     66  F   UNL A   1      42.377  29.111  26.991  1.00  0.00    -0.206 F 
ATOM     67  C   UNL A   1      41.809  25.739  25.812  1.00  0.00     0.022 A 
BRANCH  64  68
ATOM     68  S   UNL A   1      41.029  23.362  27.045  1.00  0.00     0.124 S 
ATOM     69  O   UNL A   1      41.814  22.907  25.899  1.00  0.00    -0.237 OA
ATOM     70  O   UNL A   1      41.569  23.033  28.359  1.00  0.00    -0.237 OA
ATOM     71  O   UNL A   1      39.583  23.201  26.904  1.00  0.00    -0.744 OA
ENDBRANCH  64  68
ENDBRANCH  47  61
BRANCH  48  72
ATOM     72  C   UNL A   1      39.661  32.753  36.380  1.00  0.00     0.023 A 
ATOM     73  C   UNL A   1      38.769  32.268  37.350  1.00  0.00     0.031 A 
ATOM     74  C   UNL A   1      40.245  34.014  36.598  1.00  0.00     0.131 A 
ATOM     75  C   UNL A   1      38.445  33.059  38.462  1.00  0.00     0.055 A 
ATOM     76  C   UNL A   1      39.967  34.771  37.738  1.00  0.00     0.041 A 
ATOM     77  F   UNL A   1      41.107  34.528  35.705  1.00  0.00    -0.206 F 
ATOM     78  C   UNL A   1      39.050  34.300  38.671  1.00  0.00     0.022 A 
BRANCH  75  79
ATOM     79  S   UNL A   1      37.142  32.484  39.586  1.00  0.00     0.124 S 
ATOM     80  O   UNL A   1      37.534  31.098  39.810  1.00  0.00    -0.237 OA
ATOM     81  O   UNL A   1      37.300  33.389  40.720  1.00  0.00    -0.237 OA
ATOM     82  O   UNL A   1      35.918  32.670  38.809  1.00  0.00    -0.744 OA
ENDBRANCH  75  79
ENDBRANCH  48  72
BRANCH  60  83
ATOM     83  C   UNL A   1      44.512  28.041  34.653  1.00  0.00     0.023 A 
ATOM     84  C   UNL A   1      44.443  26.884  35.449  1.00  0.00     0.031 A 
ATOM     85  C   UNL A   1      45.749  28.705  34.560  1.00  0.00     0.131 A 
ATOM     86  C   UNL A   1      45.572  26.462  36.166  1.00  0.00     0.055 A 
ATOM     87  C   UNL A   1      46.885  28.241  35.221  1.00  0.00     0.041 A 
ATOM     88  F   UNL A   1      45.873  29.818  33.818  1.00  0.00    -0.206 F 
ATOM     89  C   UNL A   1      46.798  27.121  36.042  1.00  0.00     0.022 A 
BRANCH  86  90
ATOM     90  S   UNL A   1      45.394  25.095  37.346  1.00  0.00     0.124 S 
ATOM     91  O   UNL A   1      46.785  24.732  37.601  1.00  0.00    -0.237 OA
ATOM     92  O   UNL A   1      44.687  25.729  38.454  1.00  0.00    -0.237 OA
ATOM     93  O   UNL A   1      44.620  24.100  36.604  1.00  0.00    -0.744 OA
ENDBRANCH  86  90
ENDBRANCH  60  83
ENDBRANCH  34  35
ENDBRANCH  26  29
ENDBRANCH  24  25
ENDBRANCH   1  24
TORSDOF 16
ENDMDL
