MODEL 1
REMARK VINA RESULT:     -12.9      0.000      0.000
REMARK SMILES Cc1ccccc1C[C@H](C[C@@H]1Cc2ccccc21)C(=O)NCCCNC(=O)c1ccc(-c2c3nc(c(-c4cc(S(=O)(=O)[O-])ccc4F)c4ccc([nH]4)c(-c4cc(S(=O)(=O)[O-])ccc4F)c4nc(c(-c5cc(S(=O)(=O)[O-])ccc5F)c5ccc2[nH]5)C=C4)C=C3)cc1
REMARK SMILES IDX 23 1 22 2 21 3 19 4 20 5 9 7 8 8 7 9 1 10 2 11 3 12 4 13
REMARK SMILES IDX 6 14 5 15 10 16 11 17 12 18 18 19 13 20 17 21 14 22 16 23
REMARK SMILES IDX 15 24 24 25 25 26 26 27 27 29 28 30 29 31 90 32 30 33 89 34
REMARK SMILES IDX 31 35 32 36 33 37 83 38 34 39 88 40 82 41 84 42 35 43 87 44
REMARK SMILES IDX 81 45 80 46 36 48 68 49 48 50 67 51 49 52 52 53 66 54 85 55
REMARK SMILES IDX 50 56 51 57 65 59 86 60 53 61 37 62 38 63 46 64 39 65 45 66
REMARK SMILES IDX 47 67 44 68 40 69 41 70 42 71 43 72 69 73 70 74 78 75 71 76
REMARK SMILES IDX 77 77 79 78 76 79 72 80 73 81 74 82 75 83 54 84 55 85 63 86
REMARK SMILES IDX 56 87 62 88 64 89 61 90 57 91 58 92 59 93 60 94
REMARK H PARENT 21 6 25 28 84 47 52 58
REMARK Flexibility Score: inf
ROOT
ATOM      1  C   UNL A   1      32.128  30.576  26.538  1.00  0.00     0.042 C 
ENDROOT
BRANCH   1   2
ATOM      2  C   UNL A   1      31.962  29.607  25.379  1.00  0.00     0.117 C 
BRANCH   2   3
ATOM      3  N   UNL A   1      33.021  29.724  24.388  1.00  0.00    -0.356 N 
ATOM      4  C   UNL A   1      33.596  28.754  23.619  1.00  0.00     0.223 C 
ATOM      5  O   UNL A   1      34.340  29.111  22.702  1.00  0.00    -0.275 OA
ATOM      6  H   UNL A   1      33.372  30.634  24.251  1.00  0.00     0.163 HD
BRANCH   4   7
ATOM      7  C   UNL A   1      33.386  27.261  23.901  1.00  0.00     0.083 C 
BRANCH   7   8
ATOM      8  C   UNL A   1      33.691  26.709  25.320  1.00  0.00     0.049 C 
BRANCH   8   9
ATOM      9  C   UNL A   1      34.068  25.291  25.727  1.00  0.00    -0.044 A 
ATOM     10  C   UNL A   1      31.737  24.958  26.763  1.00  0.00     0.044 C 
ATOM     11  C   UNL A   1      33.102  24.462  26.358  1.00  0.00    -0.048 A 
ATOM     12  C   UNL A   1      33.414  23.126  26.687  1.00  0.00     0.004 A 
ATOM     13  C   UNL A   1      34.645  22.575  26.360  1.00  0.00     0.000 A 
ATOM     14  C   UNL A   1      35.302  24.700  25.436  1.00  0.00     0.004 A 
ATOM     15  C   UNL A   1      35.588  23.363  25.730  1.00  0.00     0.000 A 
ENDBRANCH   8   9
ENDBRANCH   7   8
BRANCH   7  16
ATOM     16  C   UNL A   1      33.659  26.371  22.656  1.00  0.00     0.022 C 
BRANCH  16  17
ATOM     17  C   UNL A   1      32.509  25.552  22.053  1.00  0.00     0.025 C 
ATOM     18  C   UNL A   1      31.061  25.446  22.686  1.00  0.00     0.044 C 
ATOM     19  C   UNL A   1      32.638  24.085  22.444  1.00  0.00    -0.041 A 
ATOM     20  C   UNL A   1      31.438  24.059  23.110  1.00  0.00    -0.044 A 
ATOM     21  C   UNL A   1      33.490  23.002  22.443  1.00  0.00     0.004 A 
ATOM     22  C   UNL A   1      31.029  22.971  23.847  1.00  0.00     0.004 A 
ATOM     23  C   UNL A   1      33.095  21.872  23.167  1.00  0.00     0.000 A 
ATOM     24  C   UNL A   1      31.878  21.862  23.876  1.00  0.00     0.000 A 
ENDBRANCH  16  17
ENDBRANCH   7  16
ENDBRANCH   4   7
ENDBRANCH   2   3
ENDBRANCH   1   2
BRANCH   1  25
ATOM     25  C   UNL A   1      33.365  30.274  27.350  1.00  0.00     0.118 C 
BRANCH  25  26
ATOM     26  N   UNL A   1      34.071  31.429  27.891  1.00  0.00    -0.352 N 
ATOM     27  C   UNL A   1      35.258  31.469  28.625  1.00  0.00     0.251 C 
ATOM     28  H   UNL A   1      33.652  32.302  27.716  1.00  0.00     0.163 HD
ATOM     29  O   UNL A   1      35.627  32.489  29.157  1.00  0.00    -0.269 OA
BRANCH  27  30
ATOM     30  C   UNL A   1      36.121  30.253  28.643  1.00  0.00     0.039 A 
ATOM     31  C   UNL A   1      36.452  29.691  29.884  1.00  0.00     0.014 A 
ATOM     32  C   UNL A   1      36.817  29.881  27.506  1.00  0.00     0.014 A 
ATOM     33  C   UNL A   1      37.645  28.982  30.012  1.00  0.00     0.010 A 
ATOM     34  C   UNL A   1      38.085  29.386  27.671  1.00  0.00     0.010 A 
ATOM     35  C   UNL A   1      38.514  28.952  28.927  1.00  0.00    -0.014 A 
BRANCH  35  36
ATOM     36  C   UNL A   1      39.909  28.542  28.972  1.00  0.00     0.031 A 
ATOM     37  C   UNL A   1      40.244  27.114  28.775  1.00  0.00     0.074 A 
ATOM     38  C   UNL A   1      40.882  29.480  28.983  1.00  0.00     0.049 A 
ATOM     39  N   UNL A   1      41.392  26.599  29.037  1.00  0.00    -0.248 NA
ATOM     40  C   UNL A   1      39.287  26.130  28.272  1.00  0.00     0.031 C 
ATOM     41  C   UNL A   1      42.293  29.302  28.647  1.00  0.00     0.029 A 
ATOM     42  N   UNL A   1      40.816  30.766  29.521  1.00  0.00    -0.354 N 
ATOM     43  C   UNL A   1      41.425  25.337  28.492  1.00  0.00     0.074 A 
ATOM     44  C   UNL A   1      40.078  25.078  28.053  1.00  0.00     0.031 C 
ATOM     45  C   UNL A   1      43.004  30.286  29.217  1.00  0.00     0.029 A 
ATOM     46  C   UNL A   1      42.092  31.035  30.060  1.00  0.00     0.049 A 
ATOM     47  H   UNL A   1      40.035  31.366  29.526  1.00  0.00     0.167 HD
ATOM     48  C   UNL A   1      42.624  24.705  28.371  1.00  0.00     0.034 A 
ATOM     49  C   UNL A   1      42.253  31.227  31.402  1.00  0.00     0.034 A 
ATOM     50  C   UNL A   1      43.697  25.505  28.956  1.00  0.00     0.049 A 
ATOM     51  C   UNL A   1      43.144  30.197  32.063  1.00  0.00     0.074 A 
ATOM     52  C   UNL A   1      44.664  26.341  28.423  1.00  0.00     0.029 A 
ATOM     53  N   UNL A   1      43.676  25.751  30.322  1.00  0.00    -0.354 N 
ATOM     54  N   UNL A   1      43.500  29.067  31.514  1.00  0.00    -0.248 NA
ATOM     55  C   UNL A   1      43.705  30.363  33.397  1.00  0.00     0.031 C 
ATOM     56  C   UNL A   1      45.204  27.119  29.485  1.00  0.00     0.029 A 
ATOM     57  C   UNL A   1      44.586  26.731  30.661  1.00  0.00     0.049 A 
ATOM     58  H   UNL A   1      43.090  25.288  30.963  1.00  0.00     0.167 HD
ATOM     59  C   UNL A   1      44.293  28.351  32.382  1.00  0.00     0.074 A 
ATOM     60  C   UNL A   1      44.405  29.223  33.539  1.00  0.00     0.031 C 
ATOM     61  C   UNL A   1      44.763  27.103  32.060  1.00  0.00     0.034 A 
BRANCH  48  62
ATOM     62  C   UNL A   1      42.868  23.490  27.513  1.00  0.00     0.023 A 
ATOM     63  C   UNL A   1      43.819  23.574  26.476  1.00  0.00     0.031 A 
ATOM     64  C   UNL A   1      42.209  22.252  27.628  1.00  0.00     0.131 A 
ATOM     65  C   UNL A   1      44.015  22.519  25.568  1.00  0.00     0.055 A 
ATOM     66  C   UNL A   1      42.361  21.219  26.693  1.00  0.00     0.041 A 
ATOM     67  F   UNL A   1      41.432  21.960  28.680  1.00  0.00    -0.206 F 
ATOM     68  C   UNL A   1      43.262  21.352  25.649  1.00  0.00     0.022 A 
BRANCH  65  69
ATOM     69  S   UNL A   1      45.283  22.694  24.286  1.00  0.00     0.124 S 
ATOM     70  O   UNL A   1      44.593  22.202  23.099  1.00  0.00    -0.237 OA
ATOM     71  O   UNL A   1      45.566  24.124  24.322  1.00  0.00    -0.237 OA
ATOM     72  O   UNL A   1      46.369  21.840  24.766  1.00  0.00    -0.744 OA
ENDBRANCH  65  69
ENDBRANCH  48  62
BRANCH  49  73
ATOM     73  C   UNL A   1      41.088  31.927  32.017  1.00  0.00     0.023 A 
ATOM     74  C   UNL A   1      40.185  31.125  32.750  1.00  0.00     0.031 A 
ATOM     75  C   UNL A   1      41.115  33.302  32.289  1.00  0.00     0.131 A 
ATOM     76  C   UNL A   1      39.487  31.664  33.840  1.00  0.00     0.055 A 
ATOM     77  C   UNL A   1      40.362  33.848  33.338  1.00  0.00     0.041 A 
ATOM     78  F   UNL A   1      41.977  34.107  31.652  1.00  0.00    -0.206 F 
ATOM     79  C   UNL A   1      39.587  33.021  34.152  1.00  0.00     0.022 A 
BRANCH  76  80
ATOM     80  S   UNL A   1      38.669  30.544  35.019  1.00  0.00     0.124 S 
ATOM     81  O   UNL A   1      37.655  31.412  35.609  1.00  0.00    -0.237 OA
ATOM     82  O   UNL A   1      38.164  29.469  34.167  1.00  0.00    -0.237 OA
ATOM     83  O   UNL A   1      39.762  30.148  35.904  1.00  0.00    -0.744 OA
ENDBRANCH  76  80
ENDBRANCH  49  73
BRANCH  61  84
ATOM     84  C   UNL A   1      45.463  26.103  32.977  1.00  0.00     0.023 A 
ATOM     85  C   UNL A   1      44.805  25.093  33.688  1.00  0.00     0.031 A 
ATOM     86  C   UNL A   1      46.878  26.106  33.123  1.00  0.00     0.131 A 
ATOM     87  C   UNL A   1      45.510  24.185  34.506  1.00  0.00     0.055 A 
ATOM     88  C   UNL A   1      47.584  25.166  33.881  1.00  0.00     0.041 A 
ATOM     89  F   UNL A   1      47.658  27.020  32.528  1.00  0.00    -0.206 F 
ATOM     90  C   UNL A   1      46.898  24.198  34.589  1.00  0.00     0.022 A 
BRANCH  87  91
ATOM     91  S   UNL A   1      44.553  23.014  35.503  1.00  0.00     0.124 S 
ATOM     92  O   UNL A   1      44.975  23.355  36.858  1.00  0.00    -0.237 OA
ATOM     93  O   UNL A   1      43.178  23.366  35.161  1.00  0.00    -0.237 OA
ATOM     94  O   UNL A   1      44.998  21.708  35.024  1.00  0.00    -0.744 OA
ENDBRANCH  87  91
ENDBRANCH  61  84
ENDBRANCH  35  36
ENDBRANCH  27  30
ENDBRANCH  25  26
ENDBRANCH   1  25
TORSDOF 17
ENDMDL
MODEL 2
REMARK VINA RESULT:     -12.8      3.672      9.427
REMARK SMILES Cc1ccccc1C[C@H](C[C@@H]1Cc2ccccc21)C(=O)NCCCNC(=O)c1ccc(-c2c3nc(c(-c4cc(S(=O)(=O)[O-])ccc4F)c4ccc([nH]4)c(-c4cc(S(=O)(=O)[O-])ccc4F)c4nc(c(-c5cc(S(=O)(=O)[O-])ccc5F)c5ccc2[nH]5)C=C4)C=C3)cc1
REMARK SMILES IDX 23 1 22 2 21 3 19 4 20 5 9 7 8 8 7 9 1 10 2 11 3 12 4 13
REMARK SMILES IDX 6 14 5 15 10 16 11 17 12 18 18 19 13 20 17 21 14 22 16 23
REMARK SMILES IDX 15 24 24 25 25 26 26 27 27 29 28 30 29 31 90 32 30 33 89 34
REMARK SMILES IDX 31 35 32 36 33 37 83 38 34 39 88 40 82 41 84 42 35 43 87 44
REMARK SMILES IDX 81 45 80 46 36 48 68 49 48 50 67 51 49 52 52 53 66 54 85 55
REMARK SMILES IDX 50 56 51 57 65 59 86 60 53 61 37 62 38 63 46 64 39 65 45 66
REMARK SMILES IDX 47 67 44 68 40 69 41 70 42 71 43 72 69 73 70 74 78 75 71 76
REMARK SMILES IDX 77 77 79 78 76 79 72 80 73 81 74 82 75 83 54 84 55 85 63 86
REMARK SMILES IDX 56 87 62 88 64 89 61 90 57 91 58 92 59 93 60 94
REMARK H PARENT 21 6 25 28 84 47 52 58
REMARK Flexibility Score: inf
ROOT
ATOM      1  C   UNL A   1      37.594  20.880  25.031  1.00  0.00     0.042 C 
ENDROOT
BRANCH   1   2
ATOM      2  C   UNL A   1      36.160  21.142  24.602  1.00  0.00     0.117 C 
BRANCH   2   3
ATOM      3  N   UNL A   1      35.203  20.269  25.265  1.00  0.00    -0.356 N 
ATOM      4  C   UNL A   1      33.868  20.454  25.478  1.00  0.00     0.223 C 
ATOM      5  O   UNL A   1      33.210  19.492  25.887  1.00  0.00    -0.275 OA
ATOM      6  H   UNL A   1      35.571  19.422  25.608  1.00  0.00     0.163 HD
BRANCH   4   7
ATOM      7  C   UNL A   1      33.193  21.817  25.279  1.00  0.00     0.083 C 
BRANCH   7   8
ATOM      8  C   UNL A   1      33.249  22.863  26.426  1.00  0.00     0.049 C 
BRANCH   8   9
ATOM      9  C   UNL A   1      33.075  24.374  26.341  1.00  0.00    -0.044 A 
ATOM     10  C   UNL A   1      35.451  24.604  25.383  1.00  0.00     0.044 C 
ATOM     11  C   UNL A   1      34.114  25.169  25.788  1.00  0.00    -0.048 A 
ATOM     12  C   UNL A   1      33.947  26.563  25.647  1.00  0.00     0.004 A 
ATOM     13  C   UNL A   1      32.754  27.181  25.995  1.00  0.00     0.000 A 
ATOM     14  C   UNL A   1      31.900  25.042  26.698  1.00  0.00     0.004 A 
ATOM     15  C   UNL A   1      31.728  26.418  26.516  1.00  0.00     0.000 A 
ENDBRANCH   8   9
ENDBRANCH   7   8
BRANCH   7  16
ATOM     16  C   UNL A   1      31.931  21.735  24.375  1.00  0.00     0.022 C 
BRANCH  16  17
ATOM     17  C   UNL A   1      31.990  22.304  22.950  1.00  0.00     0.025 C 
ATOM     18  C   UNL A   1      33.297  22.897  22.281  1.00  0.00     0.044 C 
ATOM     19  C   UNL A   1      31.492  23.744  22.931  1.00  0.00    -0.041 A 
ATOM     20  C   UNL A   1      32.686  24.250  22.482  1.00  0.00    -0.044 A 
ATOM     21  C   UNL A   1      30.442  24.565  23.280  1.00  0.00     0.004 A 
ATOM     22  C   UNL A   1      32.923  25.603  22.389  1.00  0.00     0.004 A 
ATOM     23  C   UNL A   1      30.643  25.945  23.178  1.00  0.00     0.000 A 
ATOM     24  C   UNL A   1      31.881  26.461  22.748  1.00  0.00     0.000 A 
ENDBRANCH  16  17
ENDBRANCH   7  16
ENDBRANCH   4   7
ENDBRANCH   2   3
ENDBRANCH   1   2
BRANCH   1  25
ATOM     25  C   UNL A   1      38.208  22.083  25.706  1.00  0.00     0.118 C 
BRANCH  25  26
ATOM     26  N   UNL A   1      39.594  21.936  26.134  1.00  0.00    -0.352 N 
ATOM     27  C   UNL A   1      40.525  22.927  26.452  1.00  0.00     0.251 C 
ATOM     28  H   UNL A   1      39.919  21.011  26.210  1.00  0.00     0.163 HD
ATOM     29  O   UNL A   1      41.690  22.655  26.620  1.00  0.00    -0.269 OA
BRANCH  27  30
ATOM     30  C   UNL A   1      40.032  24.314  26.691  1.00  0.00     0.039 A 
ATOM     31  C   UNL A   1      40.708  25.375  26.075  1.00  0.00     0.014 A 
ATOM     32  C   UNL A   1      39.140  24.563  27.719  1.00  0.00     0.014 A 
ATOM     33  C   UNL A   1      40.692  26.632  26.679  1.00  0.00     0.010 A 
ATOM     34  C   UNL A   1      39.301  25.723  28.433  1.00  0.00     0.010 A 
ATOM     35  C   UNL A   1      40.093  26.756  27.927  1.00  0.00    -0.014 A 
BRANCH  35  36
ATOM     36  C   UNL A   1      40.250  27.884  28.832  1.00  0.00     0.031 A 
ATOM     37  C   UNL A   1      39.350  29.051  28.687  1.00  0.00     0.074 A 
ATOM     38  C   UNL A   1      41.058  27.771  29.908  1.00  0.00     0.049 A 
ATOM     39  N   UNL A   1      39.549  30.190  29.248  1.00  0.00    -0.248 NA
ATOM     40  C   UNL A   1      38.141  29.031  27.866  1.00  0.00     0.031 C 
ATOM     41  C   UNL A   1      41.062  28.604  31.109  1.00  0.00     0.029 A 
ATOM     42  N   UNL A   1      42.207  26.987  30.029  1.00  0.00    -0.354 N 
ATOM     43  C   UNL A   1      38.401  30.934  29.114  1.00  0.00     0.074 A 
ATOM     44  C   UNL A   1      37.563  30.181  28.218  1.00  0.00     0.031 C 
ATOM     45  C   UNL A   1      42.260  28.504  31.705  1.00  0.00     0.029 A 
ATOM     46  C   UNL A   1      43.109  27.727  30.823  1.00  0.00     0.049 A 
ATOM     47  H   UNL A   1      42.358  26.096  29.639  1.00  0.00     0.167 HD
ATOM     48  C   UNL A   1      38.250  32.051  29.876  1.00  0.00     0.034 A 
ATOM     49  C   UNL A   1      44.295  28.161  30.303  1.00  0.00     0.034 A 
ATOM     50  C   UNL A   1      39.445  32.302  30.677  1.00  0.00     0.049 A 
ATOM     51  C   UNL A   1      44.432  29.668  30.273  1.00  0.00     0.074 A 
ATOM     52  C   UNL A   1      39.774  32.066  32.002  1.00  0.00     0.029 A 
ATOM     53  N   UNL A   1      40.634  32.600  30.025  1.00  0.00    -0.354 N 
ATOM     54  N   UNL A   1      43.443  30.504  30.437  1.00  0.00    -0.248 NA
ATOM     55  C   UNL A   1      45.701  30.352  30.058  1.00  0.00     0.031 C 
ATOM     56  C   UNL A   1      41.185  32.193  32.131  1.00  0.00     0.029 A 
ATOM     57  C   UNL A   1      41.703  32.537  30.895  1.00  0.00     0.049 A 
ATOM     58  H   UNL A   1      40.705  32.825  29.070  1.00  0.00     0.167 HD
ATOM     59  C   UNL A   1      43.897  31.799  30.333  1.00  0.00     0.074 A 
ATOM     60  C   UNL A   1      45.325  31.643  30.117  1.00  0.00     0.031 C 
ATOM     61  C   UNL A   1      43.042  32.869  30.422  1.00  0.00     0.034 A 
BRANCH  48  62
ATOM     62  C   UNL A   1      36.943  32.773  30.087  1.00  0.00     0.023 A 
ATOM     63  C   UNL A   1      36.461  32.929  31.403  1.00  0.00     0.031 A 
ATOM     64  C   UNL A   1      36.120  33.302  29.076  1.00  0.00     0.131 A 
ATOM     65  C   UNL A   1      35.199  33.489  31.663  1.00  0.00     0.055 A 
ATOM     66  C   UNL A   1      34.838  33.811  29.327  1.00  0.00     0.041 A 
ATOM     67  F   UNL A   1      36.537  33.406  27.807  1.00  0.00    -0.206 F 
ATOM     68  C   UNL A   1      34.366  33.899  30.627  1.00  0.00     0.022 A 
BRANCH  65  69
ATOM     69  S   UNL A   1      34.669  33.687  33.385  1.00  0.00     0.124 S 
ATOM     70  O   UNL A   1      34.863  35.116  33.606  1.00  0.00    -0.237 OA
ATOM     71  O   UNL A   1      33.288  33.223  33.339  1.00  0.00    -0.237 OA
ATOM     72  O   UNL A   1      35.586  32.819  34.122  1.00  0.00    -0.744 OA
ENDBRANCH  65  69
ENDBRANCH  48  62
BRANCH  49  73
ATOM     73  C   UNL A   1      44.875  27.191  29.330  1.00  0.00     0.023 A 
ATOM     74  C   UNL A   1      44.609  27.435  27.963  1.00  0.00     0.031 A 
ATOM     75  C   UNL A   1      45.986  26.399  29.652  1.00  0.00     0.131 A 
ATOM     76  C   UNL A   1      45.539  27.054  26.985  1.00  0.00     0.055 A 
ATOM     77  C   UNL A   1      46.877  25.963  28.661  1.00  0.00     0.041 A 
ATOM     78  F   UNL A   1      46.309  26.166  30.932  1.00  0.00    -0.206 F 
ATOM     79  C   UNL A   1      46.685  26.336  27.330  1.00  0.00     0.022 A 
BRANCH  76  80
ATOM     80  S   UNL A   1      45.395  27.735  25.303  1.00  0.00     0.124 S 
ATOM     81  O   UNL A   1      46.015  29.047  25.453  1.00  0.00    -0.237 OA
ATOM     82  O   UNL A   1      46.134  26.775  24.487  1.00  0.00    -0.237 OA
ATOM     83  O   UNL A   1      43.952  27.735  25.075  1.00  0.00    -0.744 OA
ENDBRANCH  76  80
ENDBRANCH  49  73
BRANCH  61  84
ATOM     84  C   UNL A   1      43.345  34.334  30.120  1.00  0.00     0.023 A 
ATOM     85  C   UNL A   1      43.371  34.883  28.833  1.00  0.00     0.031 A 
ATOM     86  C   UNL A   1      43.570  35.269  31.169  1.00  0.00     0.131 A 
ATOM     87  C   UNL A   1      43.638  36.252  28.618  1.00  0.00     0.055 A 
ATOM     88  C   UNL A   1      43.770  36.638  30.961  1.00  0.00     0.041 A 
ATOM     89  F   UNL A   1      43.600  34.906  32.459  1.00  0.00    -0.206 F 
ATOM     90  C   UNL A   1      43.813  37.139  29.674  1.00  0.00     0.022 A 
BRANCH  87  91
ATOM     91  S   UNL A   1      43.801  36.831  26.910  1.00  0.00     0.124 S 
ATOM     92  O   UNL A   1      45.214  36.582  26.640  1.00  0.00    -0.237 OA
ATOM     93  O   UNL A   1      42.861  35.971  26.199  1.00  0.00    -0.237 OA
ATOM     94  O   UNL A   1      43.422  38.240  26.985  1.00  0.00    -0.744 OA
ENDBRANCH  87  91
ENDBRANCH  61  84
ENDBRANCH  35  36
ENDBRANCH  27  30
ENDBRANCH  25  26
ENDBRANCH   1  25
TORSDOF 17
ENDMDL
MODEL 3
REMARK VINA RESULT:     -12.7      4.058      9.688
REMARK SMILES Cc1ccccc1C[C@H](C[C@@H]1Cc2ccccc21)C(=O)NCCCNC(=O)c1ccc(-c2c3nc(c(-c4cc(S(=O)(=O)[O-])ccc4F)c4ccc([nH]4)c(-c4cc(S(=O)(=O)[O-])ccc4F)c4nc(c(-c5cc(S(=O)(=O)[O-])ccc5F)c5ccc2[nH]5)C=C4)C=C3)cc1
REMARK SMILES IDX 23 1 22 2 21 3 19 4 20 5 9 7 8 8 7 9 1 10 2 11 3 12 4 13
REMARK SMILES IDX 6 14 5 15 10 16 11 17 12 18 18 19 13 20 17 21 14 22 16 23
REMARK SMILES IDX 15 24 24 25 25 26 26 27 27 29 28 30 29 31 90 32 30 33 89 34
REMARK SMILES IDX 31 35 32 36 33 37 83 38 34 39 88 40 82 41 84 42 35 43 87 44
REMARK SMILES IDX 81 45 80 46 36 48 68 49 48 50 67 51 49 52 52 53 66 54 85 55
REMARK SMILES IDX 50 56 51 57 65 59 86 60 53 61 37 62 38 63 46 64 39 65 45 66
REMARK SMILES IDX 47 67 44 68 40 69 41 70 42 71 43 72 69 73 70 74 78 75 71 76
REMARK SMILES IDX 77 77 79 78 76 79 72 80 73 81 74 82 75 83 54 84 55 85 63 86
REMARK SMILES IDX 56 87 62 88 64 89 61 90 57 91 58 92 59 93 60 94
REMARK H PARENT 21 6 25 28 84 47 52 58
REMARK Flexibility Score: inf
ROOT
ATOM      1  C   UNL A   1      37.558  21.578  24.981  1.00  0.00     0.042 C 
ENDROOT
BRANCH   1   2
ATOM      2  C   UNL A   1      36.039  21.555  25.015  1.00  0.00     0.117 C 
BRANCH   2   3
ATOM      3  N   UNL A   1      35.507  21.316  26.348  1.00  0.00    -0.356 N 
ATOM      4  C   UNL A   1      34.441  21.898  26.971  1.00  0.00     0.223 C 
ATOM      5  O   UNL A   1      34.049  21.400  28.030  1.00  0.00    -0.275 OA
ATOM      6  H   UNL A   1      35.984  20.635  26.878  1.00  0.00     0.163 HD
BRANCH   4   7
ATOM      7  C   UNL A   1      33.771  23.165  26.423  1.00  0.00     0.083 C 
BRANCH   7   8
ATOM      8  C   UNL A   1      34.661  24.332  25.916  1.00  0.00     0.049 C 
BRANCH   8   9
ATOM      9  C   UNL A   1      34.241  25.588  25.164  1.00  0.00    -0.044 A 
ATOM     10  C   UNL A   1      34.228  24.272  22.953  1.00  0.00     0.044 C 
ATOM     11  C   UNL A   1      33.987  25.517  23.768  1.00  0.00    -0.048 A 
ATOM     12  C   UNL A   1      33.539  26.656  23.065  1.00  0.00     0.004 A 
ATOM     13  C   UNL A   1      33.290  27.853  23.724  1.00  0.00     0.000 A 
ATOM     14  C   UNL A   1      33.998  26.819  25.780  1.00  0.00     0.004 A 
ATOM     15  C   UNL A   1      33.516  27.931  25.084  1.00  0.00     0.000 A 
ENDBRANCH   8   9
ENDBRANCH   7   8
BRANCH   7  16
ATOM     16  C   UNL A   1      32.419  23.478  27.122  1.00  0.00     0.022 C 
BRANCH  16  17
ATOM     17  C   UNL A   1      31.106  23.200  26.376  1.00  0.00     0.025 C 
ATOM     18  C   UNL A   1      31.020  22.556  24.931  1.00  0.00     0.044 C 
ATOM     19  C   UNL A   1      30.604  24.466  25.692  1.00  0.00    -0.041 A 
ATOM     20  C   UNL A   1      30.674  23.926  24.432  1.00  0.00    -0.044 A 
ATOM     21  C   UNL A   1      30.277  25.788  25.897  1.00  0.00     0.004 A 
ATOM     22  C   UNL A   1      30.461  24.676  23.298  1.00  0.00     0.004 A 
ATOM     23  C   UNL A   1      30.036  26.574  24.766  1.00  0.00     0.000 A 
ATOM     24  C   UNL A   1      30.140  26.024  23.473  1.00  0.00     0.000 A 
ENDBRANCH  16  17
ENDBRANCH   7  16
ENDBRANCH   4   7
ENDBRANCH   2   3
ENDBRANCH   1   2
BRANCH   1  25
ATOM     25  C   UNL A   1      38.120  22.744  25.758  1.00  0.00     0.118 C 
BRANCH  25  26
ATOM     26  N   UNL A   1      39.430  22.536  26.363  1.00  0.00    -0.352 N 
ATOM     27  C   UNL A   1      40.360  23.485  26.793  1.00  0.00     0.251 C 
ATOM     28  H   UNL A   1      39.697  21.597  26.484  1.00  0.00     0.163 HD
ATOM     29  O   UNL A   1      41.480  23.159  27.111  1.00  0.00    -0.269 OA
BRANCH  27  30
ATOM     30  C   UNL A   1      39.908  24.896  26.959  1.00  0.00     0.039 A 
ATOM     31  C   UNL A   1      40.515  25.885  26.174  1.00  0.00     0.014 A 
ATOM     32  C   UNL A   1      39.146  25.253  28.058  1.00  0.00     0.014 A 
ATOM     33  C   UNL A   1      40.579  27.191  26.658  1.00  0.00     0.010 A 
ATOM     34  C   UNL A   1      39.398  26.469  28.638  1.00  0.00     0.010 A 
ATOM     35  C   UNL A   1      40.132  27.438  27.951  1.00  0.00    -0.014 A 
BRANCH  35  36
ATOM     36  C   UNL A   1      40.403  28.641  28.724  1.00  0.00     0.031 A 
ATOM     37  C   UNL A   1      39.351  29.676  28.833  1.00  0.00     0.074 A 
ATOM     38  C   UNL A   1      41.511  28.705  29.495  1.00  0.00     0.049 A 
ATOM     39  N   UNL A   1      39.554  30.868  29.267  1.00  0.00    -0.248 NA
ATOM     40  C   UNL A   1      37.962  29.449  28.436  1.00  0.00     0.031 C 
ATOM     41  C   UNL A   1      41.769  29.618  30.607  1.00  0.00     0.029 A 
ATOM     42  N   UNL A   1      42.738  28.077  29.273  1.00  0.00    -0.354 N 
ATOM     43  C   UNL A   1      38.329  31.457  29.477  1.00  0.00     0.074 A 
ATOM     44  C   UNL A   1      37.368  30.544  28.914  1.00  0.00     0.031 C 
ATOM     45  C   UNL A   1      43.094  29.708  30.797  1.00  0.00     0.029 A 
ATOM     46  C   UNL A   1      43.729  28.977  29.718  1.00  0.00     0.049 A 
ATOM     47  H   UNL A   1      42.883  27.185  28.883  1.00  0.00     0.167 HD
ATOM     48  C   UNL A   1      38.267  32.600  30.212  1.00  0.00     0.034 A 
ATOM     49  C   UNL A   1      44.626  29.512  28.839  1.00  0.00     0.034 A 
ATOM     50  C   UNL A   1      39.604  33.052  30.588  1.00  0.00     0.049 A 
ATOM     51  C   UNL A   1      44.538  31.018  28.719  1.00  0.00     0.074 A 
ATOM     52  C   UNL A   1      40.354  32.954  31.749  1.00  0.00     0.029 A 
ATOM     53  N   UNL A   1      40.482  33.443  29.586  1.00  0.00    -0.354 N 
ATOM     54  N   UNL A   1      43.541  31.738  29.159  1.00  0.00    -0.248 NA
ATOM     55  C   UNL A   1      45.572  31.833  28.093  1.00  0.00     0.031 C 
ATOM     56  C   UNL A   1      41.705  33.260  31.423  1.00  0.00     0.029 A 
ATOM     57  C   UNL A   1      41.764  33.573  30.076  1.00  0.00     0.049 A 
ATOM     58  H   UNL A   1      40.223  33.604  28.650  1.00  0.00     0.167 HD
ATOM     59  C   UNL A   1      43.759  33.068  28.876  1.00  0.00     0.074 A 
ATOM     60  C   UNL A   1      45.058  33.070  28.227  1.00  0.00     0.031 C 
ATOM     61  C   UNL A   1      42.834  34.029  29.196  1.00  0.00     0.034 A 
BRANCH  48  62
ATOM     62  C   UNL A   1      37.002  33.172  30.801  1.00  0.00     0.023 A 
ATOM     63  C   UNL A   1      36.009  33.658  29.926  1.00  0.00     0.031 A 
ATOM     64  C   UNL A   1      36.712  33.296  32.172  1.00  0.00     0.131 A 
ATOM     65  C   UNL A   1      34.857  34.305  30.405  1.00  0.00     0.055 A 
ATOM     66  C   UNL A   1      35.592  33.989  32.653  1.00  0.00     0.041 A 
ATOM     67  F   UNL A   1      37.463  32.704  33.110  1.00  0.00    -0.206 F 
ATOM     68  C   UNL A   1      34.661  34.508  31.768  1.00  0.00     0.022 A 
BRANCH  65  69
ATOM     69  S   UNL A   1      33.612  34.867  29.215  1.00  0.00     0.124 S 
ATOM     70  O   UNL A   1      34.313  35.938  28.516  1.00  0.00    -0.237 OA
ATOM     71  O   UNL A   1      33.349  33.657  28.446  1.00  0.00    -0.237 OA
ATOM     72  O   UNL A   1      32.506  35.307  30.066  1.00  0.00    -0.744 OA
ENDBRANCH  65  69
ENDBRANCH  48  62
BRANCH  49  73
ATOM     73  C   UNL A   1      45.006  28.551  27.763  1.00  0.00     0.023 A 
ATOM     74  C   UNL A   1      45.887  27.509  28.131  1.00  0.00     0.031 A 
ATOM     75  C   UNL A   1      44.208  28.365  26.625  1.00  0.00     0.131 A 
ATOM     76  C   UNL A   1      45.817  26.265  27.487  1.00  0.00     0.055 A 
ATOM     77  C   UNL A   1      44.192  27.141  25.944  1.00  0.00     0.041 A 
ATOM     78  F   UNL A   1      43.326  29.303  26.250  1.00  0.00    -0.206 F 
ATOM     79  C   UNL A   1      44.956  26.069  26.406  1.00  0.00     0.022 A 
BRANCH  76  80
ATOM     80  S   UNL A   1      46.641  24.825  28.234  1.00  0.00     0.124 S 
ATOM     81  O   UNL A   1      47.637  25.457  29.093  1.00  0.00    -0.237 OA
ATOM     82  O   UNL A   1      45.553  24.137  28.927  1.00  0.00    -0.237 OA
ATOM     83  O   UNL A   1      47.162  24.109  27.072  1.00  0.00    -0.744 OA
ENDBRANCH  76  80
ENDBRANCH  49  73
BRANCH  61  84
ATOM     84  C   UNL A   1      42.823  35.495  28.768  1.00  0.00     0.023 A 
ATOM     85  C   UNL A   1      43.290  36.549  29.561  1.00  0.00     0.031 A 
ATOM     86  C   UNL A   1      42.374  35.879  27.474  1.00  0.00     0.131 A 
ATOM     87  C   UNL A   1      43.273  37.883  29.102  1.00  0.00     0.055 A 
ATOM     88  C   UNL A   1      42.417  37.192  26.994  1.00  0.00     0.041 A 
ATOM     89  F   UNL A   1      41.874  34.997  26.597  1.00  0.00    -0.206 F 
ATOM     90  C   UNL A   1      42.863  38.210  27.814  1.00  0.00     0.022 A 
BRANCH  87  91
ATOM     91  S   UNL A   1      43.756  39.190  30.260  1.00  0.00     0.124 S 
ATOM     92  O   UNL A   1      45.017  39.650  29.686  1.00  0.00    -0.237 OA
ATOM     93  O   UNL A   1      42.637  40.122  30.160  1.00  0.00    -0.237 OA
ATOM     94  O   UNL A   1      43.873  38.493  31.538  1.00  0.00    -0.744 OA
ENDBRANCH  87  91
ENDBRANCH  61  84
ENDBRANCH  35  36
ENDBRANCH  27  30
ENDBRANCH  25  26
ENDBRANCH   1  25
TORSDOF 17
ENDMDL
