MODEL 1
REMARK VINA RESULT:     -12.9      0.000      0.000
REMARK SMILES Cc1cc(C(=O)N[C@H]2C=C[C@H](C(=O)NCCCNC(=O)c3ccc(-c4c5nc(c(-c6cc(S(=O)(=O)[O-])ccc6F)c6ccc([nH]6)c(-c6cc(S(=O)(=O)[O-])ccc6F)c6nc(c(-c7cc(S(=O)(=O)[O-])ccc7F)c7ccc4[nH]7)C=C6)C=C5)cc3)C2)ccc1F
REMARK SMILES IDX 16 1 15 2 14 3 12 4 13 5 11 7 8 8 9 9 84 10 10 11 7 12 5 13
REMARK SMILES IDX 6 14 4 16 1 17 2 18 3 19 87 20 86 21 88 22 85 23 17 24 18 25
REMARK SMILES IDX 19 26 20 28 21 29 22 30 83 31 23 32 82 33 24 34 25 35 26 36
REMARK SMILES IDX 76 37 27 38 81 39 75 40 77 41 28 42 80 43 74 44 73 45 29 47
REMARK SMILES IDX 61 48 41 49 60 50 42 51 45 52 59 53 78 54 43 55 44 56 58 58
REMARK SMILES IDX 79 59 46 60 30 61 31 62 39 63 32 64 38 65 40 66 37 67 33 68
REMARK SMILES IDX 34 69 35 70 36 71 62 72 63 73 71 74 64 75 70 76 72 77 69 78
REMARK SMILES IDX 65 79 66 80 67 81 68 82 47 83 48 84 56 85 49 86 55 87 57 88
REMARK SMILES IDX 54 89 50 90 51 91 52 92 53 93
REMARK H PARENT 14 6 7 15 18 27 77 46 45 57
REMARK Flexibility Score: inf
ROOT
ATOM      1  C   UNL A   1      36.532  23.450  26.038  1.00  0.00     0.042 C 
ENDROOT
BRANCH   1   2
ATOM      2  C   UNL A   1      35.618  22.231  26.100  1.00  0.00     0.117 C 
BRANCH   2   3
ATOM      3  N   UNL A   1      34.269  22.645  26.414  1.00  0.00    -0.356 N 
ATOM      4  C   UNL A   1      33.335  23.163  25.579  1.00  0.00     0.227 C 
ATOM      5  O   UNL A   1      32.396  23.771  26.101  1.00  0.00    -0.274 OA
ATOM      6  H   UNL A   1      33.995  22.538  27.354  1.00  0.00     0.163 HD
BRANCH   4   7
ATOM      7  C   UNL A   1      33.349  22.908  24.053  1.00  0.00     0.103 C 
ATOM      8  C   UNL A   1      33.180  25.157  23.266  1.00  0.00     0.106 C 
ATOM      9  C   UNL A   1      32.029  24.361  22.743  1.00  0.00    -0.006 C 
ATOM     10  C   UNL A   1      34.204  24.041  23.478  1.00  0.00     0.047 C 
ATOM     11  C   UNL A   1      32.117  23.102  23.206  1.00  0.00    -0.016 C 
BRANCH   8  12
ATOM     12  N   UNL A   1      33.605  26.177  22.356  1.00  0.00    -0.346 N 
ATOM     13  C   UNL A   1      33.607  27.543  22.525  1.00  0.00     0.251 C 
ATOM     14  O   UNL A   1      34.084  28.237  21.626  1.00  0.00    -0.269 OA
ATOM     15  H   UNL A   1      33.944  25.858  21.488  1.00  0.00     0.164 HD
BRANCH  13  16
ATOM     16  C   UNL A   1      33.131  28.210  23.779  1.00  0.00     0.040 A 
ATOM     17  C   UNL A   1      34.281  29.265  27.261  1.00  0.00     0.047 C 
ATOM     18  C   UNL A   1      33.409  29.046  26.060  1.00  0.00    -0.015 A 
ATOM     19  C   UNL A   1      33.856  28.270  24.977  1.00  0.00     0.020 A 
ATOM     20  C   UNL A   1      32.152  29.641  25.983  1.00  0.00     0.126 A 
ATOM     21  C   UNL A   1      31.370  29.514  24.840  1.00  0.00     0.040 A 
ATOM     22  F   UNL A   1      31.680  30.347  27.019  1.00  0.00    -0.207 F 
ATOM     23  C   UNL A   1      31.865  28.819  23.734  1.00  0.00     0.017 A 
ENDBRANCH  13  16
ENDBRANCH   8  12
ENDBRANCH   4   7
ENDBRANCH   2   3
ENDBRANCH   1   2
BRANCH   1  24
ATOM     24  C   UNL A   1      37.829  23.023  25.405  1.00  0.00     0.118 C 
BRANCH  24  25
ATOM     25  N   UNL A   1      38.670  22.446  26.444  1.00  0.00    -0.352 N 
ATOM     26  C   UNL A   1      39.875  22.965  26.844  1.00  0.00     0.251 C 
ATOM     27  H   UNL A   1      38.353  21.628  26.889  1.00  0.00     0.163 HD
ATOM     28  O   UNL A   1      40.825  22.219  26.998  1.00  0.00    -0.269 OA
BRANCH  26  29
ATOM     29  C   UNL A   1      39.885  24.409  27.134  1.00  0.00     0.039 A 
ATOM     30  C   UNL A   1      40.514  25.313  26.277  1.00  0.00     0.014 A 
ATOM     31  C   UNL A   1      39.384  24.821  28.369  1.00  0.00     0.014 A 
ATOM     32  C   UNL A   1      40.766  26.598  26.735  1.00  0.00     0.010 A 
ATOM     33  C   UNL A   1      39.427  26.120  28.720  1.00  0.00     0.010 A 
ATOM     34  C   UNL A   1      40.266  26.947  27.982  1.00  0.00    -0.014 A 
BRANCH  34  35
ATOM     35  C   UNL A   1      40.550  28.155  28.713  1.00  0.00     0.031 A 
ATOM     36  C   UNL A   1      39.569  29.232  28.617  1.00  0.00     0.074 A 
ATOM     37  C   UNL A   1      41.380  27.933  29.761  1.00  0.00     0.049 A 
ATOM     38  N   UNL A   1      39.756  30.419  29.061  1.00  0.00    -0.248 NA
ATOM     39  C   UNL A   1      38.264  29.045  27.981  1.00  0.00     0.031 C 
ATOM     40  C   UNL A   1      41.364  28.526  31.083  1.00  0.00     0.029 A 
ATOM     41  N   UNL A   1      42.426  27.000  29.833  1.00  0.00    -0.354 N 
ATOM     42  C   UNL A   1      38.504  30.991  29.143  1.00  0.00     0.074 A 
ATOM     43  C   UNL A   1      37.659  30.196  28.285  1.00  0.00     0.031 C 
ATOM     44  C   UNL A   1      42.496  28.174  31.724  1.00  0.00     0.029 A 
ATOM     45  C   UNL A   1      43.348  27.480  30.763  1.00  0.00     0.049 A 
ATOM     46  H   UNL A   1      42.497  26.162  29.321  1.00  0.00     0.167 HD
ATOM     47  C   UNL A   1      38.270  31.911  30.123  1.00  0.00     0.034 A 
ATOM     48  C   UNL A   1      44.587  27.900  30.368  1.00  0.00     0.034 A 
ATOM     49  C   UNL A   1      39.488  32.084  30.937  1.00  0.00     0.049 A 
ATOM     50  C   UNL A   1      44.683  29.413  30.424  1.00  0.00     0.074 A 
ATOM     51  C   UNL A   1      39.859  31.584  32.174  1.00  0.00     0.029 A 
ATOM     52  N   UNL A   1      40.664  32.520  30.332  1.00  0.00    -0.354 N 
ATOM     53  N   UNL A   1      43.649  30.198  30.570  1.00  0.00    -0.248 NA
ATOM     54  C   UNL A   1      45.929  30.164  30.347  1.00  0.00     0.031 C 
ATOM     55  C   UNL A   1      41.279  31.642  32.268  1.00  0.00     0.029 A 
ATOM     56  C   UNL A   1      41.776  32.188  31.096  1.00  0.00     0.049 A 
ATOM     57  H   UNL A   1      40.703  33.003  29.474  1.00  0.00     0.167 HD
ATOM     58  C   UNL A   1      44.034  31.506  30.569  1.00  0.00     0.074 A 
ATOM     59  C   UNL A   1      45.482  31.429  30.461  1.00  0.00     0.031 C 
ATOM     60  C   UNL A   1      43.129  32.529  30.635  1.00  0.00     0.034 A 
BRANCH  47  61
ATOM     61  C   UNL A   1      36.886  32.388  30.535  1.00  0.00     0.023 A 
ATOM     62  C   UNL A   1      36.070  33.249  29.765  1.00  0.00     0.031 A 
ATOM     63  C   UNL A   1      36.318  31.967  31.756  1.00  0.00     0.131 A 
ATOM     64  C   UNL A   1      34.757  33.585  30.158  1.00  0.00     0.055 A 
ATOM     65  C   UNL A   1      35.031  32.335  32.170  1.00  0.00     0.041 A 
ATOM     66  F   UNL A   1      36.977  31.158  32.599  1.00  0.00    -0.206 F 
ATOM     67  C   UNL A   1      34.235  33.134  31.365  1.00  0.00     0.022 A 
BRANCH  64  68
ATOM     68  S   UNL A   1      33.669  34.573  29.085  1.00  0.00     0.124 S 
ATOM     69  O   UNL A   1      34.572  35.613  28.596  1.00  0.00    -0.237 OA
ATOM     70  O   UNL A   1      33.245  33.597  28.085  1.00  0.00    -0.237 OA
ATOM     71  O   UNL A   1      32.622  35.046  29.988  1.00  0.00    -0.744 OA
ENDBRANCH  64  68
ENDBRANCH  47  61
BRANCH  48  72
ATOM     72  C   UNL A   1      45.219  27.003  29.351  1.00  0.00     0.023 A 
ATOM     73  C   UNL A   1      45.142  27.299  27.977  1.00  0.00     0.031 A 
ATOM     74  C   UNL A   1      45.422  25.655  29.728  1.00  0.00     0.131 A 
ATOM     75  C   UNL A   1      45.090  26.239  27.052  1.00  0.00     0.055 A 
ATOM     76  C   UNL A   1      45.402  24.612  28.799  1.00  0.00     0.041 A 
ATOM     77  F   UNL A   1      45.512  25.327  31.028  1.00  0.00    -0.206 F 
ATOM     78  C   UNL A   1      45.188  24.901  27.458  1.00  0.00     0.022 A 
BRANCH  75  79
ATOM     79  S   UNL A   1      44.620  26.529  25.321  1.00  0.00     0.124 S 
ATOM     80  O   UNL A   1      43.974  27.834  25.398  1.00  0.00    -0.237 OA
ATOM     81  O   UNL A   1      45.922  26.516  24.664  1.00  0.00    -0.237 OA
ATOM     82  O   UNL A   1      43.749  25.402  25.010  1.00  0.00    -0.744 OA
ENDBRANCH  75  79
ENDBRANCH  48  72
BRANCH  60  83
ATOM     83  C   UNL A   1      43.422  33.983  30.332  1.00  0.00     0.023 A 
ATOM     84  C   UNL A   1      43.328  34.418  28.987  1.00  0.00     0.031 A 
ATOM     85  C   UNL A   1      43.951  34.913  31.241  1.00  0.00     0.131 A 
ATOM     86  C   UNL A   1      43.777  35.681  28.591  1.00  0.00     0.055 A 
ATOM     87  C   UNL A   1      44.293  36.217  30.863  1.00  0.00     0.041 A 
ATOM     88  F   UNL A   1      44.229  34.590  32.510  1.00  0.00    -0.206 F 
ATOM     89  C   UNL A   1      44.226  36.600  29.531  1.00  0.00     0.022 A 
BRANCH  86  90
ATOM     90  S   UNL A   1      43.966  36.075  26.830  1.00  0.00     0.124 S 
ATOM     91  O   UNL A   1      45.126  36.963  26.849  1.00  0.00    -0.237 OA
ATOM     92  O   UNL A   1      44.196  34.757  26.242  1.00  0.00    -0.237 OA
ATOM     93  O   UNL A   1      42.696  36.696  26.475  1.00  0.00    -0.744 OA
ENDBRANCH  86  90
ENDBRANCH  60  83
ENDBRANCH  34  35
ENDBRANCH  26  29
ENDBRANCH  24  25
ENDBRANCH   1  24
TORSDOF 15
ENDMDL
MODEL 2
REMARK VINA RESULT:     -12.9      1.191      1.710
REMARK SMILES Cc1cc(C(=O)N[C@H]2C=C[C@H](C(=O)NCCCNC(=O)c3ccc(-c4c5nc(c(-c6cc(S(=O)(=O)[O-])ccc6F)c6ccc([nH]6)c(-c6cc(S(=O)(=O)[O-])ccc6F)c6nc(c(-c7cc(S(=O)(=O)[O-])ccc7F)c7ccc4[nH]7)C=C6)C=C5)cc3)C2)ccc1F
REMARK SMILES IDX 16 1 15 2 14 3 12 4 13 5 11 7 8 8 9 9 84 10 10 11 7 12 5 13
REMARK SMILES IDX 6 14 4 16 1 17 2 18 3 19 87 20 86 21 88 22 85 23 17 24 18 25
REMARK SMILES IDX 19 26 20 28 21 29 22 30 83 31 23 32 82 33 24 34 25 35 26 36
REMARK SMILES IDX 76 37 27 38 81 39 75 40 77 41 28 42 80 43 74 44 73 45 29 47
REMARK SMILES IDX 61 48 41 49 60 50 42 51 45 52 59 53 78 54 43 55 44 56 58 58
REMARK SMILES IDX 79 59 46 60 30 61 31 62 39 63 32 64 38 65 40 66 37 67 33 68
REMARK SMILES IDX 34 69 35 70 36 71 62 72 63 73 71 74 64 75 70 76 72 77 69 78
REMARK SMILES IDX 65 79 66 80 67 81 68 82 47 83 48 84 56 85 49 86 55 87 57 88
REMARK SMILES IDX 54 89 50 90 51 91 52 92 53 93
REMARK H PARENT 14 6 7 15 18 27 77 46 45 57
REMARK Flexibility Score: inf
ROOT
ATOM      1  C   UNL A   1      37.254  22.232  24.519  1.00  0.00     0.042 C 
ENDROOT
BRANCH   1   2
ATOM      2  C   UNL A   1      35.748  22.122  24.312  1.00  0.00     0.117 C 
BRANCH   2   3
ATOM      3  N   UNL A   1      35.237  23.355  23.756  1.00  0.00    -0.356 N 
ATOM      4  C   UNL A   1      34.112  23.542  23.024  1.00  0.00     0.227 C 
ATOM      5  O   UNL A   1      34.047  24.579  22.356  1.00  0.00    -0.274 OA
ATOM      6  H   UNL A   1      35.776  24.161  23.932  1.00  0.00     0.163 HD
BRANCH   4   7
ATOM      7  C   UNL A   1      32.899  22.585  23.101  1.00  0.00     0.103 C 
ATOM      8  C   UNL A   1      31.844  23.427  25.072  1.00  0.00     0.106 C 
ATOM      9  C   UNL A   1      32.183  21.986  25.268  1.00  0.00    -0.006 C 
ATOM     10  C   UNL A   1      31.733  23.472  23.547  1.00  0.00     0.047 C 
ATOM     11  C   UNL A   1      32.795  21.521  24.165  1.00  0.00    -0.016 C 
BRANCH   8  12
ATOM     12  N   UNL A   1      30.649  23.813  25.758  1.00  0.00    -0.346 N 
ATOM     13  C   UNL A   1      30.210  25.073  26.092  1.00  0.00     0.251 C 
ATOM     14  O   UNL A   1      29.107  25.179  26.630  1.00  0.00    -0.269 OA
ATOM     15  H   UNL A   1      30.058  23.074  26.030  1.00  0.00     0.164 HD
BRANCH  13  16
ATOM     16  C   UNL A   1      30.974  26.318  25.759  1.00  0.00     0.040 A 
ATOM     17  C   UNL A   1      33.971  28.407  26.862  1.00  0.00     0.047 C 
ATOM     18  C   UNL A   1      32.763  27.950  26.097  1.00  0.00    -0.015 A 
ATOM     19  C   UNL A   1      31.989  26.870  26.553  1.00  0.00     0.020 A 
ATOM     20  C   UNL A   1      32.410  28.569  24.900  1.00  0.00     0.126 A 
ATOM     21  C   UNL A   1      31.344  28.100  24.141  1.00  0.00     0.040 A 
ATOM     22  F   UNL A   1      33.101  29.631  24.465  1.00  0.00    -0.207 F 
ATOM     23  C   UNL A   1      30.641  26.967  24.558  1.00  0.00     0.017 A 
ENDBRANCH  13  16
ENDBRANCH   8  12
ENDBRANCH   4   7
ENDBRANCH   2   3
ENDBRANCH   1   2
BRANCH   1  24
ATOM     24  C   UNL A   1      37.494  23.194  25.651  1.00  0.00     0.118 C 
BRANCH  24  25
ATOM     25  N   UNL A   1      38.512  22.623  26.521  1.00  0.00    -0.352 N 
ATOM     26  C   UNL A   1      39.750  23.173  26.734  1.00  0.00     0.251 C 
ATOM     27  H   UNL A   1      38.296  21.785  26.990  1.00  0.00     0.163 HD
ATOM     28  O   UNL A   1      40.734  22.456  26.710  1.00  0.00    -0.269 OA
BRANCH  26  29
ATOM     29  C   UNL A   1      39.764  24.609  27.059  1.00  0.00     0.039 A 
ATOM     30  C   UNL A   1      40.387  25.533  26.218  1.00  0.00     0.014 A 
ATOM     31  C   UNL A   1      39.276  24.992  28.308  1.00  0.00     0.014 A 
ATOM     32  C   UNL A   1      40.644  26.807  26.704  1.00  0.00     0.010 A 
ATOM     33  C   UNL A   1      39.324  26.282  28.690  1.00  0.00     0.010 A 
ATOM     34  C   UNL A   1      40.157  27.126  27.964  1.00  0.00    -0.014 A 
BRANCH  34  35
ATOM     35  C   UNL A   1      40.449  28.316  28.721  1.00  0.00     0.031 A 
ATOM     36  C   UNL A   1      39.479  29.404  28.646  1.00  0.00     0.074 A 
ATOM     37  C   UNL A   1      41.275  28.064  29.766  1.00  0.00     0.049 A 
ATOM     38  N   UNL A   1      39.675  30.579  29.115  1.00  0.00    -0.248 NA
ATOM     39  C   UNL A   1      38.174  29.241  28.003  1.00  0.00     0.031 C 
ATOM     40  C   UNL A   1      41.261  28.629  31.101  1.00  0.00     0.029 A 
ATOM     41  N   UNL A   1      42.313  27.121  29.820  1.00  0.00    -0.354 N 
ATOM     42  C   UNL A   1      38.427  31.160  29.206  1.00  0.00     0.074 A 
ATOM     43  C   UNL A   1      37.578  30.391  28.329  1.00  0.00     0.031 C 
ATOM     44  C   UNL A   1      42.388  28.254  31.737  1.00  0.00     0.029 A 
ATOM     45  C   UNL A   1      43.237  27.574  30.763  1.00  0.00     0.049 A 
ATOM     46  H   UNL A   1      42.378  26.293  29.291  1.00  0.00     0.167 HD
ATOM     47  C   UNL A   1      38.200  32.060  30.205  1.00  0.00     0.034 A 
ATOM     48  C   UNL A   1      44.481  27.991  30.379  1.00  0.00     0.034 A 
ATOM     49  C   UNL A   1      39.416  32.206  31.025  1.00  0.00     0.049 A 
ATOM     50  C   UNL A   1      44.589  29.501  30.468  1.00  0.00     0.074 A 
ATOM     51  C   UNL A   1      39.780  31.677  32.252  1.00  0.00     0.029 A 
ATOM     52  N   UNL A   1      40.598  32.645  30.432  1.00  0.00    -0.354 N 
ATOM     53  N   UNL A   1      43.562  30.292  30.628  1.00  0.00    -0.248 NA
ATOM     54  C   UNL A   1      45.842  30.242  30.410  1.00  0.00     0.031 C 
ATOM     55  C   UNL A   1      41.201  31.720  32.350  1.00  0.00     0.029 A 
ATOM     56  C   UNL A   1      41.705  32.286  31.191  1.00  0.00     0.049 A 
ATOM     57  H   UNL A   1      40.643  33.145  29.585  1.00  0.00     0.167 HD
ATOM     58  C   UNL A   1      43.959  31.596  30.656  1.00  0.00     0.074 A 
ATOM     59  C   UNL A   1      45.406  31.508  30.549  1.00  0.00     0.031 C 
ATOM     60  C   UNL A   1      43.062  32.626  30.742  1.00  0.00     0.034 A 
BRANCH  47  61
ATOM     61  C   UNL A   1      36.819  32.541  30.624  1.00  0.00     0.023 A 
ATOM     62  C   UNL A   1      36.078  33.543  29.955  1.00  0.00     0.031 A 
ATOM     63  C   UNL A   1      36.174  31.977  31.745  1.00  0.00     0.131 A 
ATOM     64  C   UNL A   1      34.763  33.883  30.337  1.00  0.00     0.055 A 
ATOM     65  C   UNL A   1      34.885  32.345  32.154  1.00  0.00     0.041 A 
ATOM     66  F   UNL A   1      36.756  31.024  32.488  1.00  0.00    -0.206 F 
ATOM     67  C   UNL A   1      34.165  33.290  31.442  1.00  0.00     0.022 A 
BRANCH  64  68
ATOM     68  S   UNL A   1      33.772  35.068  29.376  1.00  0.00     0.124 S 
ATOM     69  O   UNL A   1      34.703  35.475  28.325  1.00  0.00    -0.237 OA
ATOM     70  O   UNL A   1      32.650  34.247  28.928  1.00  0.00    -0.237 OA
ATOM     71  O   UNL A   1      33.442  36.114  30.341  1.00  0.00    -0.744 OA
ENDBRANCH  64  68
ENDBRANCH  47  61
BRANCH  48  72
ATOM     72  C   UNL A   1      45.107  27.109  29.345  1.00  0.00     0.023 A 
ATOM     73  C   UNL A   1      45.010  27.419  27.976  1.00  0.00     0.031 A 
ATOM     74  C   UNL A   1      45.326  25.760  29.705  1.00  0.00     0.131 A 
ATOM     75  C   UNL A   1      44.956  26.369  27.040  1.00  0.00     0.055 A 
ATOM     76  C   UNL A   1      45.304  24.726  28.765  1.00  0.00     0.041 A 
ATOM     77  F   UNL A   1      45.436  25.418  31.000  1.00  0.00    -0.206 F 
ATOM     78  C   UNL A   1      45.070  25.028  27.431  1.00  0.00     0.022 A 
BRANCH  75  79
ATOM     79  S   UNL A   1      44.462  26.673  25.318  1.00  0.00     0.124 S 
ATOM     80  O   UNL A   1      43.783  27.961  25.422  1.00  0.00    -0.237 OA
ATOM     81  O   UNL A   1      45.756  26.703  24.648  1.00  0.00    -0.237 OA
ATOM     82  O   UNL A   1      43.616  25.530  24.998  1.00  0.00    -0.744 OA
ENDBRANCH  75  79
ENDBRANCH  48  72
BRANCH  60  83
ATOM     83  C   UNL A   1      43.369  34.083  30.470  1.00  0.00     0.023 A 
ATOM     84  C   UNL A   1      43.097  34.594  29.177  1.00  0.00     0.031 A 
ATOM     85  C   UNL A   1      44.063  34.943  31.335  1.00  0.00     0.131 A 
ATOM     86  C   UNL A   1      43.536  35.860  28.781  1.00  0.00     0.055 A 
ATOM     87  C   UNL A   1      44.400  36.253  30.975  1.00  0.00     0.041 A 
ATOM     88  F   UNL A   1      44.509  34.542  32.532  1.00  0.00    -0.206 F 
ATOM     89  C   UNL A   1      44.156  36.711  29.688  1.00  0.00     0.022 A 
BRANCH  86  90
ATOM     90  S   UNL A   1      43.484  36.344  27.032  1.00  0.00     0.124 S 
ATOM     91  O   UNL A   1      43.510  35.045  26.366  1.00  0.00    -0.237 OA
ATOM     92  O   UNL A   1      42.214  37.064  26.950  1.00  0.00    -0.237 OA
ATOM     93  O   UNL A   1      44.673  37.169  26.866  1.00  0.00    -0.744 OA
ENDBRANCH  86  90
ENDBRANCH  60  83
ENDBRANCH  34  35
ENDBRANCH  26  29
ENDBRANCH  24  25
ENDBRANCH   1  24
TORSDOF 15
ENDMDL
MODEL 3
REMARK VINA RESULT:     -12.7      3.673      9.267
REMARK SMILES Cc1cc(C(=O)N[C@H]2C=C[C@H](C(=O)NCCCNC(=O)c3ccc(-c4c5nc(c(-c6cc(S(=O)(=O)[O-])ccc6F)c6ccc([nH]6)c(-c6cc(S(=O)(=O)[O-])ccc6F)c6nc(c(-c7cc(S(=O)(=O)[O-])ccc7F)c7ccc4[nH]7)C=C6)C=C5)cc3)C2)ccc1F
REMARK SMILES IDX 16 1 15 2 14 3 12 4 13 5 11 7 8 8 9 9 84 10 10 11 7 12 5 13
REMARK SMILES IDX 6 14 4 16 1 17 2 18 3 19 87 20 86 21 88 22 85 23 17 24 18 25
REMARK SMILES IDX 19 26 20 28 21 29 22 30 83 31 23 32 82 33 24 34 25 35 26 36
REMARK SMILES IDX 76 37 27 38 81 39 75 40 77 41 28 42 80 43 74 44 73 45 29 47
REMARK SMILES IDX 61 48 41 49 60 50 42 51 45 52 59 53 78 54 43 55 44 56 58 58
REMARK SMILES IDX 79 59 46 60 30 61 31 62 39 63 32 64 38 65 40 66 37 67 33 68
REMARK SMILES IDX 34 69 35 70 36 71 62 72 63 73 71 74 64 75 70 76 72 77 69 78
REMARK SMILES IDX 65 79 66 80 67 81 68 82 47 83 48 84 56 85 49 86 55 87 57 88
REMARK SMILES IDX 54 89 50 90 51 91 52 92 53 93
REMARK H PARENT 14 6 7 15 18 27 77 46 45 57
REMARK Flexibility Score: inf
ROOT
ATOM      1  C   UNL A   1      34.013  27.949  25.004  1.00  0.00     0.042 C 
ENDROOT
BRANCH   1   2
ATOM      2  C   UNL A   1      33.333  29.016  24.155  1.00  0.00     0.117 C 
BRANCH   2   3
ATOM      3  N   UNL A   1      32.751  28.409  22.979  1.00  0.00    -0.356 N 
ATOM      4  C   UNL A   1      31.559  27.773  22.866  1.00  0.00     0.227 C 
ATOM      5  O   UNL A   1      31.413  27.030  21.891  1.00  0.00    -0.274 OA
ATOM      6  H   UNL A   1      33.289  28.465  22.156  1.00  0.00     0.163 HD
BRANCH   4   7
ATOM      7  C   UNL A   1      30.376  28.045  23.825  1.00  0.00     0.103 C 
ATOM      8  C   UNL A   1      30.054  25.849  24.706  1.00  0.00     0.106 C 
ATOM      9  C   UNL A   1      28.795  26.307  24.047  1.00  0.00    -0.006 C 
ATOM     10  C   UNL A   1      30.677  27.199  25.065  1.00  0.00     0.047 C 
ATOM     11  C   UNL A   1      28.987  27.535  23.535  1.00  0.00    -0.016 C 
BRANCH   8  12
ATOM     12  N   UNL A   1      29.812  24.998  25.831  1.00  0.00    -0.346 N 
ATOM     13  C   UNL A   1      30.563  23.945  26.300  1.00  0.00     0.251 C 
ATOM     14  O   UNL A   1      30.197  23.387  27.335  1.00  0.00    -0.269 OA
ATOM     15  H   UNL A   1      28.993  25.193  26.342  1.00  0.00     0.164 HD
BRANCH  13  16
ATOM     16  C   UNL A   1      31.841  23.504  25.654  1.00  0.00     0.040 A 
ATOM     17  C   UNL A   1      35.614  24.070  25.729  1.00  0.00     0.047 C 
ATOM     18  C   UNL A   1      34.266  23.538  25.341  1.00  0.00    -0.015 A 
ATOM     19  C   UNL A   1      33.091  24.104  25.861  1.00  0.00     0.020 A 
ATOM     20  C   UNL A   1      34.159  22.445  24.483  1.00  0.00     0.126 A 
ATOM     21  C   UNL A   1      32.919  21.891  24.182  1.00  0.00     0.040 A 
ATOM     22  F   UNL A   1      35.259  21.914  23.933  1.00  0.00    -0.207 F 
ATOM     23  C   UNL A   1      31.766  22.405  24.781  1.00  0.00     0.017 A 
ENDBRANCH  13  16
ENDBRANCH   8  12
ENDBRANCH   4   7
ENDBRANCH   2   3
ENDBRANCH   1   2
BRANCH   1  24
ATOM     24  C   UNL A   1      34.439  28.590  26.297  1.00  0.00     0.118 C 
BRANCH  24  25
ATOM     25  N   UNL A   1      34.060  29.996  26.251  1.00  0.00    -0.352 N 
ATOM     26  C   UNL A   1      34.043  30.831  27.338  1.00  0.00     0.251 C 
ATOM     27  H   UNL A   1      33.799  30.371  25.381  1.00  0.00     0.163 HD
ATOM     28  O   UNL A   1      33.089  31.568  27.509  1.00  0.00    -0.269 OA
BRANCH  26  29
ATOM     29  C   UNL A   1      35.252  30.812  28.179  1.00  0.00     0.039 A 
ATOM     30  C   UNL A   1      36.301  31.705  27.954  1.00  0.00     0.014 A 
ATOM     31  C   UNL A   1      35.380  29.773  29.100  1.00  0.00     0.014 A 
ATOM     32  C   UNL A   1      37.527  31.456  28.555  1.00  0.00     0.010 A 
ATOM     33  C   UNL A   1      36.493  29.664  29.850  1.00  0.00     0.010 A 
ATOM     34  C   UNL A   1      37.604  30.393  29.444  1.00  0.00    -0.014 A 
BRANCH  34  35
ATOM     35  C   UNL A   1      38.801  29.859  30.042  1.00  0.00     0.031 A 
ATOM     36  C   UNL A   1      39.408  28.704  29.388  1.00  0.00     0.074 A 
ATOM     37  C   UNL A   1      39.458  30.787  30.779  1.00  0.00     0.049 A 
ATOM     38  N   UNL A   1      40.365  28.013  29.888  1.00  0.00    -0.248 NA
ATOM     39  C   UNL A   1      38.958  28.220  28.083  1.00  0.00     0.031 C 
ATOM     40  C   UNL A   1      40.885  31.000  30.921  1.00  0.00     0.029 A 
ATOM     41  N   UNL A   1      38.895  31.827  31.534  1.00  0.00    -0.354 N 
ATOM     42  C   UNL A   1      40.903  27.302  28.836  1.00  0.00     0.074 A 
ATOM     43  C   UNL A   1      39.889  27.302  27.810  1.00  0.00     0.031 C 
ATOM     44  C   UNL A   1      41.089  31.887  31.915  1.00  0.00     0.029 A 
ATOM     45  C   UNL A   1      39.799  32.140  32.550  1.00  0.00     0.049 A 
ATOM     46  H   UNL A   1      38.023  32.256  31.378  1.00  0.00     0.167 HD
ATOM     47  C   UNL A   1      42.236  27.017  28.858  1.00  0.00     0.034 A 
ATOM     48  C   UNL A   1      39.503  31.872  33.858  1.00  0.00     0.034 A 
ATOM     49  C   UNL A   1      42.843  27.586  30.075  1.00  0.00     0.049 A 
ATOM     50  C   UNL A   1      40.309  30.690  34.357  1.00  0.00     0.074 A 
ATOM     51  C   UNL A   1      43.584  28.736  30.296  1.00  0.00     0.029 A 
ATOM     52  N   UNL A   1      42.386  27.180  31.327  1.00  0.00    -0.354 N 
ATOM     53  N   UNL A   1      40.980  29.889  33.574  1.00  0.00    -0.248 NA
ATOM     54  C   UNL A   1      40.451  30.322  35.760  1.00  0.00     0.031 C 
ATOM     55  C   UNL A   1      43.492  29.065  31.678  1.00  0.00     0.029 A 
ATOM     56  C   UNL A   1      42.707  28.112  32.306  1.00  0.00     0.049 A 
ATOM     57  H   UNL A   1      41.900  26.341  31.496  1.00  0.00     0.167 HD
ATOM     58  C   UNL A   1      41.593  28.909  34.298  1.00  0.00     0.074 A 
ATOM     59  C   UNL A   1      41.257  29.247  35.671  1.00  0.00     0.031 C 
ATOM     60  C   UNL A   1      42.300  27.900  33.702  1.00  0.00     0.034 A 
BRANCH  47  61
ATOM     61  C   UNL A   1      43.026  26.528  27.653  1.00  0.00     0.023 A 
ATOM     62  C   UNL A   1      43.260  25.167  27.343  1.00  0.00     0.031 A 
ATOM     63  C   UNL A   1      43.578  27.448  26.737  1.00  0.00     0.131 A 
ATOM     64  C   UNL A   1      43.923  24.773  26.162  1.00  0.00     0.055 A 
ATOM     65  C   UNL A   1      44.276  27.058  25.586  1.00  0.00     0.041 A 
ATOM     66  F   UNL A   1      43.449  28.772  26.903  1.00  0.00    -0.206 F 
ATOM     67  C   UNL A   1      44.438  25.717  25.283  1.00  0.00     0.022 A 
BRANCH  64  68
ATOM     68  S   UNL A   1      44.086  23.018  25.707  1.00  0.00     0.124 S 
ATOM     69  O   UNL A   1      43.201  22.912  24.548  1.00  0.00    -0.237 OA
ATOM     70  O   UNL A   1      45.511  22.901  25.414  1.00  0.00    -0.237 OA
ATOM     71  O   UNL A   1      43.626  22.304  26.895  1.00  0.00    -0.744 OA
ENDBRANCH  64  68
ENDBRANCH  47  61
BRANCH  48  72
ATOM     72  C   UNL A   1      38.092  32.211  34.226  1.00  0.00     0.023 A 
ATOM     73  C   UNL A   1      37.088  32.295  33.243  1.00  0.00     0.031 A 
ATOM     74  C   UNL A   1      37.902  32.928  35.430  1.00  0.00     0.131 A 
ATOM     75  C   UNL A   1      36.036  33.214  33.418  1.00  0.00     0.055 A 
ATOM     76  C   UNL A   1      36.836  33.813  35.608  1.00  0.00     0.041 A 
ATOM     77  F   UNL A   1      38.830  32.870  36.401  1.00  0.00    -0.206 F 
ATOM     78  C   UNL A   1      35.924  33.993  34.577  1.00  0.00     0.022 A 
BRANCH  75  79
ATOM     79  S   UNL A   1      34.926  33.639  32.043  1.00  0.00     0.124 S 
ATOM     80  O   UNL A   1      33.951  32.556  32.097  1.00  0.00    -0.237 OA
ATOM     81  O   UNL A   1      34.433  34.944  32.466  1.00  0.00    -0.237 OA
ATOM     82  O   UNL A   1      35.808  33.648  30.883  1.00  0.00    -0.744 OA
ENDBRANCH  75  79
ENDBRANCH  48  72
BRANCH  60  83
ATOM     83  C   UNL A   1      42.744  26.621  34.378  1.00  0.00     0.023 A 
ATOM     84  C   UNL A   1      44.093  26.217  34.226  1.00  0.00     0.031 A 
ATOM     85  C   UNL A   1      41.896  25.696  35.006  1.00  0.00     0.131 A 
ATOM     86  C   UNL A   1      44.534  24.957  34.639  1.00  0.00     0.055 A 
ATOM     87  C   UNL A   1      42.364  24.482  35.523  1.00  0.00     0.041 A 
ATOM     88  F   UNL A   1      40.572  25.884  35.089  1.00  0.00    -0.206 F 
ATOM     89  C   UNL A   1      43.683  24.098  35.323  1.00  0.00     0.022 A 
BRANCH  86  90
ATOM     90  S   UNL A   1      46.160  24.339  34.122  1.00  0.00     0.124 S 
ATOM     91  O   UNL A   1      47.003  24.755  35.239  1.00  0.00    -0.237 OA
ATOM     92  O   UNL A   1      45.923  22.900  34.017  1.00  0.00    -0.237 OA
ATOM     93  O   UNL A   1      46.401  25.018  32.855  1.00  0.00    -0.744 OA
ENDBRANCH  86  90
ENDBRANCH  60  83
ENDBRANCH  34  35
ENDBRANCH  26  29
ENDBRANCH  24  25
ENDBRANCH   1  24
TORSDOF 15
ENDMDL
