MODEL 1
REMARK VINA RESULT:     -13.6      0.000      0.000
REMARK SMILES O=C(NCCCNC(=O)c1ccc(-c2c3nc(c(-c4cc(S(=O)(=O)[O-])ccc4F)c4ccc([nH]4)c(-c4cc(S(=O)(=O)[O-])ccc4F)c4nc(c(-c5cc(S(=O)(=O)[O-])ccc5F)c5ccc2[nH]5)C=C4)C=C3)cc1)C1=Cc2cc(Cl)cc(-c3ccc(O)cc3)c2O[C@@H]1C(F)(F)F
REMARK SMILES IDX 5 1 4 2 3 3 1 4 2 5 73 7 74 8 90 9 75 10 89 11 76 12 88 13
REMARK SMILES IDX 77 14 80 15 78 16 79 17 91 18 92 19 93 20 94 21 81 22 82 23
REMARK SMILES IDX 87 24 83 25 86 26 84 27 85 28 6 30 7 31 8 32 9 34 10 35
REMARK SMILES IDX 11 36 72 37 12 38 71 39 13 40 14 41 15 42 65 43 16 44 70 45
REMARK SMILES IDX 64 46 66 47 17 48 69 49 63 50 62 51 18 53 50 54 30 55 49 56
REMARK SMILES IDX 31 57 34 58 48 59 67 60 32 61 33 62 47 64 68 65 35 66 19 67
REMARK SMILES IDX 20 68 28 69 21 70 27 71 29 72 26 73 22 74 23 75 24 76 25 77
REMARK SMILES IDX 51 78 52 79 60 80 53 81 59 82 61 83 58 84 54 85 55 86 56 87
REMARK SMILES IDX 57 88 36 89 37 90 45 91 38 92 44 93 46 94 43 95 39 96 40 97
REMARK SMILES IDX 41 98 42 99
REMARK H PARENT 3 6 85 29 7 33 66 52 34 63
REMARK Flexibility Score: inf
ROOT
ATOM      1  C   UNL A   1      35.811  21.960  25.906  1.00  0.00     0.042 C 
ENDROOT
BRANCH   1   2
ATOM      2  C   UNL A   1      34.444  22.190  25.263  1.00  0.00     0.118 C 
BRANCH   2   3
ATOM      3  N   UNL A   1      34.527  22.938  24.002  1.00  0.00    -0.352 N 
ATOM      4  O   UNL A   1      34.445  24.780  22.672  1.00  0.00    -0.270 OA
ATOM      5  C   UNL A   1      34.094  24.203  23.693  1.00  0.00     0.251 C 
ATOM      6  H   UNL A   1      34.961  22.455  23.262  1.00  0.00     0.163 HD
BRANCH   5   7
ATOM      7  C   UNL A   1      33.239  24.869  24.685  1.00  0.00     0.067 C 
ATOM      8  C   UNL A   1      33.825  25.728  25.526  1.00  0.00     0.025 C 
ATOM      9  C   UNL A   1      31.763  24.834  24.459  1.00  0.00     0.314 C 
ATOM     10  C   UNL A   1      33.041  26.935  25.796  1.00  0.00     0.019 A 
ATOM     11  O   UNL A   1      31.225  26.173  24.341  1.00  0.00    -0.475 OA
ATOM     12  C   UNL A   1      33.668  27.985  26.470  1.00  0.00     0.032 A 
ATOM     13  C   UNL A   1      31.879  27.172  25.030  1.00  0.00     0.135 A 
ATOM     14  C   UNL A   1      33.203  29.282  26.291  1.00  0.00     0.042 A 
ATOM     15  C   UNL A   1      31.450  28.490  24.793  1.00  0.00     0.026 A 
ATOM     16  Cl  UNL A   1      34.065  30.592  27.000  1.00  0.00    -0.084 Cl
ATOM     17  C   UNL A   1      32.128  29.539  25.441  1.00  0.00     0.033 A 
BRANCH   9  18
ATOM     18  C   UNL A   1      31.028  24.006  25.527  1.00  0.00     0.429 C 
ATOM     19  F   UNL A   1      30.629  22.808  25.029  1.00  0.00    -0.167 F 
ATOM     20  F   UNL A   1      31.822  23.735  26.589  1.00  0.00    -0.167 F 
ATOM     21  F   UNL A   1      29.921  24.624  26.002  1.00  0.00    -0.167 F 
ENDBRANCH   9  18
BRANCH  15  22
ATOM     22  C   UNL A   1      30.474  28.815  23.742  1.00  0.00    -0.014 A 
ATOM     23  C   UNL A   1      30.870  29.583  22.632  1.00  0.00     0.012 A 
ATOM     24  C   UNL A   1      29.131  28.432  23.837  1.00  0.00     0.012 A 
ATOM     25  C   UNL A   1      29.950  30.010  21.677  1.00  0.00     0.047 A 
ATOM     26  C   UNL A   1      28.204  28.851  22.875  1.00  0.00     0.047 A 
ATOM     27  C   UNL A   1      28.619  29.654  21.816  1.00  0.00     0.115 A 
BRANCH  27  28
ATOM     28  O   UNL A   1      27.738  30.124  20.890  1.00  0.00    -0.508 OA
ATOM     29  H   UNL A   1      27.651  29.690  20.064  1.00  0.00     0.293 HD
ENDBRANCH  27  28
ENDBRANCH  15  22
ENDBRANCH   5   7
ENDBRANCH   2   3
ENDBRANCH   1   2
BRANCH   1  30
ATOM     30  C   UNL A   1      36.976  22.211  24.948  1.00  0.00     0.118 C 
BRANCH  30  31
ATOM     31  N   UNL A   1      38.079  21.267  25.039  1.00  0.00    -0.352 N 
ATOM     32  C   UNL A   1      39.188  21.299  25.866  1.00  0.00     0.251 C 
ATOM     33  H   UNL A   1      38.030  20.498  24.426  1.00  0.00     0.163 HD
ATOM     34  O   UNL A   1      40.001  20.377  25.820  1.00  0.00    -0.269 OA
BRANCH  32  35
ATOM     35  C   UNL A   1      39.468  22.499  26.693  1.00  0.00     0.039 A 
ATOM     36  C   UNL A   1      40.456  22.396  27.679  1.00  0.00     0.014 A 
ATOM     37  C   UNL A   1      38.902  23.740  26.409  1.00  0.00     0.014 A 
ATOM     38  C   UNL A   1      41.004  23.554  28.235  1.00  0.00     0.010 A 
ATOM     39  C   UNL A   1      39.518  24.894  26.884  1.00  0.00     0.010 A 
ATOM     40  C   UNL A   1      40.615  24.812  27.755  1.00  0.00    -0.014 A 
BRANCH  40  41
ATOM     41  C   UNL A   1      41.392  26.044  28.058  1.00  0.00     0.031 A 
ATOM     42  C   UNL A   1      40.753  27.172  28.816  1.00  0.00     0.074 A 
ATOM     43  C   UNL A   1      42.625  26.193  27.526  1.00  0.00     0.049 A 
ATOM     44  N   UNL A   1      41.178  28.396  28.996  1.00  0.00    -0.248 NA
ATOM     45  C   UNL A   1      39.435  26.897  29.405  1.00  0.00     0.031 C 
ATOM     46  C   UNL A   1      43.330  25.190  26.720  1.00  0.00     0.029 A 
ATOM     47  N   UNL A   1      43.501  27.249  27.564  1.00  0.00    -0.354 N 
ATOM     48  C   UNL A   1      40.167  29.046  29.694  1.00  0.00     0.074 A 
ATOM     49  C   UNL A   1      39.085  28.094  29.847  1.00  0.00     0.031 C 
ATOM     50  C   UNL A   1      44.537  25.665  26.374  1.00  0.00     0.029 A 
ATOM     51  C   UNL A   1      44.672  27.027  26.874  1.00  0.00     0.049 A 
ATOM     52  H   UNL A   1      43.309  28.090  28.041  1.00  0.00     0.167 HD
ATOM     53  C   UNL A   1      40.153  30.313  30.183  1.00  0.00     0.034 A 
ATOM     54  C   UNL A   1      45.728  27.835  26.653  1.00  0.00     0.034 A 
ATOM     55  C   UNL A   1      41.254  31.233  30.045  1.00  0.00     0.049 A 
ATOM     56  C   UNL A   1      45.689  29.235  27.207  1.00  0.00     0.074 A 
ATOM     57  C   UNL A   1      41.372  32.522  30.537  1.00  0.00     0.029 A 
ATOM     58  N   UNL A   1      42.436  30.957  29.370  1.00  0.00    -0.354 N 
ATOM     59  N   UNL A   1      44.734  29.827  27.884  1.00  0.00    -0.248 NA
ATOM     60  C   UNL A   1      46.868  30.077  26.965  1.00  0.00     0.031 C 
ATOM     61  C   UNL A   1      42.606  33.039  30.124  1.00  0.00     0.029 A 
ATOM     62  C   UNL A   1      43.281  32.054  29.420  1.00  0.00     0.049 A 
ATOM     63  H   UNL A   1      42.643  30.107  28.920  1.00  0.00     0.167 HD
ATOM     64  C   UNL A   1      45.208  31.102  28.172  1.00  0.00     0.074 A 
ATOM     65  C   UNL A   1      46.538  31.189  27.604  1.00  0.00     0.031 C 
ATOM     66  C   UNL A   1      44.602  32.112  28.844  1.00  0.00     0.034 A 
BRANCH  53  67
ATOM     67  C   UNL A   1      38.899  30.760  30.892  1.00  0.00     0.023 A 
ATOM     68  C   UNL A   1      37.896  31.478  30.219  1.00  0.00     0.031 A 
ATOM     69  C   UNL A   1      38.726  30.522  32.266  1.00  0.00     0.131 A 
ATOM     70  C   UNL A   1      36.818  32.017  30.935  1.00  0.00     0.055 A 
ATOM     71  C   UNL A   1      37.604  30.985  32.958  1.00  0.00     0.041 A 
ATOM     72  F   UNL A   1      39.658  29.857  32.968  1.00  0.00    -0.206 F 
ATOM     73  C   UNL A   1      36.651  31.754  32.296  1.00  0.00     0.022 A 
BRANCH  70  74
ATOM     74  S   UNL A   1      35.728  33.198  30.094  1.00  0.00     0.124 S 
ATOM     75  O   UNL A   1      36.528  33.546  28.921  1.00  0.00    -0.237 OA
ATOM     76  O   UNL A   1      34.534  32.400  29.838  1.00  0.00    -0.237 OA
ATOM     77  O   UNL A   1      35.567  34.271  31.072  1.00  0.00    -0.744 OA
ENDBRANCH  70  74
ENDBRANCH  53  67
BRANCH  54  78
ATOM     78  C   UNL A   1      46.903  27.360  25.867  1.00  0.00     0.023 A 
ATOM     79  C   UNL A   1      47.112  27.807  24.552  1.00  0.00     0.031 A 
ATOM     80  C   UNL A   1      47.805  26.420  26.394  1.00  0.00     0.131 A 
ATOM     81  C   UNL A   1      48.167  27.280  23.791  1.00  0.00     0.055 A 
ATOM     82  C   UNL A   1      48.883  25.934  25.649  1.00  0.00     0.041 A 
ATOM     83  F   UNL A   1      47.657  25.964  27.648  1.00  0.00    -0.206 F 
ATOM     84  C   UNL A   1      49.060  26.354  24.335  1.00  0.00     0.022 A 
BRANCH  81  85
ATOM     85  S   UNL A   1      48.299  27.755  22.046  1.00  0.00     0.124 S 
ATOM     86  O   UNL A   1      48.355  26.455  21.387  1.00  0.00    -0.237 OA
ATOM     87  O   UNL A   1      47.074  28.522  21.848  1.00  0.00    -0.237 OA
ATOM     88  O   UNL A   1      49.535  28.533  21.998  1.00  0.00    -0.744 OA
ENDBRANCH  81  85
ENDBRANCH  54  78
BRANCH  66  89
ATOM     89  C   UNL A   1      45.401  33.374  29.033  1.00  0.00     0.023 A 
ATOM     90  C   UNL A   1      45.340  34.428  28.107  1.00  0.00     0.031 A 
ATOM     91  C   UNL A   1      46.234  33.516  30.155  1.00  0.00     0.131 A 
ATOM     92  C   UNL A   1      46.133  35.568  28.298  1.00  0.00     0.055 A 
ATOM     93  C   UNL A   1      46.986  34.673  30.365  1.00  0.00     0.041 A 
ATOM     94  F   UNL A   1      46.326  32.535  31.068  1.00  0.00    -0.206 F 
ATOM     95  C   UNL A   1      46.944  35.704  29.429  1.00  0.00     0.022 A 
BRANCH  92  96
ATOM     96  S   UNL A   1      46.130  36.856  27.022  1.00  0.00     0.124 S 
ATOM     97  O   UNL A   1      46.605  36.125  25.853  1.00  0.00    -0.237 OA
ATOM     98  O   UNL A   1      44.728  37.264  26.991  1.00  0.00    -0.237 OA
ATOM     99  O   UNL A   1      47.054  37.860  27.546  1.00  0.00    -0.744 OA
ENDBRANCH  92  96
ENDBRANCH  66  89
ENDBRANCH  40  41
ENDBRANCH  32  35
ENDBRANCH  30  31
ENDBRANCH   1  30
TORSDOF 16
ENDMDL
MODEL 2
REMARK VINA RESULT:     -13.1      1.868      2.186
REMARK SMILES O=C(NCCCNC(=O)c1ccc(-c2c3nc(c(-c4cc(S(=O)(=O)[O-])ccc4F)c4ccc([nH]4)c(-c4cc(S(=O)(=O)[O-])ccc4F)c4nc(c(-c5cc(S(=O)(=O)[O-])ccc5F)c5ccc2[nH]5)C=C4)C=C3)cc1)C1=Cc2cc(Cl)cc(-c3ccc(O)cc3)c2O[C@@H]1C(F)(F)F
REMARK SMILES IDX 5 1 4 2 3 3 1 4 2 5 73 7 74 8 90 9 75 10 89 11 76 12 88 13
REMARK SMILES IDX 77 14 80 15 78 16 79 17 91 18 92 19 93 20 94 21 81 22 82 23
REMARK SMILES IDX 87 24 83 25 86 26 84 27 85 28 6 30 7 31 8 32 9 34 10 35
REMARK SMILES IDX 11 36 72 37 12 38 71 39 13 40 14 41 15 42 65 43 16 44 70 45
REMARK SMILES IDX 64 46 66 47 17 48 69 49 63 50 62 51 18 53 50 54 30 55 49 56
REMARK SMILES IDX 31 57 34 58 48 59 67 60 32 61 33 62 47 64 68 65 35 66 19 67
REMARK SMILES IDX 20 68 28 69 21 70 27 71 29 72 26 73 22 74 23 75 24 76 25 77
REMARK SMILES IDX 51 78 52 79 60 80 53 81 59 82 61 83 58 84 54 85 55 86 56 87
REMARK SMILES IDX 57 88 36 89 37 90 45 91 38 92 44 93 46 94 43 95 39 96 40 97
REMARK SMILES IDX 41 98 42 99
REMARK H PARENT 3 6 85 29 7 33 66 52 34 63
REMARK Flexibility Score: inf
ROOT
ATOM      1  C   UNL A   1      35.617  21.725  26.048  1.00  0.00     0.042 C 
ENDROOT
BRANCH   1   2
ATOM      2  C   UNL A   1      34.395  21.487  25.162  1.00  0.00     0.118 C 
BRANCH   2   3
ATOM      3  N   UNL A   1      34.428  22.275  23.923  1.00  0.00    -0.352 N 
ATOM      4  O   UNL A   1      34.370  24.168  22.666  1.00  0.00    -0.270 OA
ATOM      5  C   UNL A   1      34.064  23.579  23.694  1.00  0.00     0.251 C 
ATOM      6  H   UNL A   1      34.763  21.793  23.134  1.00  0.00     0.163 HD
BRANCH   5   7
ATOM      7  C   UNL A   1      33.344  24.263  24.776  1.00  0.00     0.067 C 
ATOM      8  C   UNL A   1      34.039  25.120  25.532  1.00  0.00     0.025 C 
ATOM      9  C   UNL A   1      31.851  24.248  24.731  1.00  0.00     0.314 C 
ATOM     10  C   UNL A   1      33.309  26.341  25.885  1.00  0.00     0.019 A 
ATOM     11  O   UNL A   1      31.321  25.593  24.667  1.00  0.00    -0.475 OA
ATOM     12  C   UNL A   1      34.027  27.386  26.469  1.00  0.00     0.032 A 
ATOM     13  C   UNL A   1      32.066  26.588  25.262  1.00  0.00     0.135 A 
ATOM     14  C   UNL A   1      33.561  28.689  26.336  1.00  0.00     0.042 A 
ATOM     15  C   UNL A   1      31.629  27.910  25.068  1.00  0.00     0.026 A 
ATOM     16  Cl  UNL A   1      34.520  29.991  26.923  1.00  0.00    -0.084 Cl
ATOM     17  C   UNL A   1      32.394  28.955  25.620  1.00  0.00     0.033 A 
BRANCH   9  18
ATOM     18  C   UNL A   1      31.240  23.438  25.887  1.00  0.00     0.429 C 
ATOM     19  F   UNL A   1      30.142  24.054  26.391  1.00  0.00    -0.167 F 
ATOM     20  F   UNL A   1      30.840  22.208  25.485  1.00  0.00    -0.167 F 
ATOM     21  F   UNL A   1      32.101  23.261  26.917  1.00  0.00    -0.167 F 
ENDBRANCH   9  18
BRANCH  15  22
ATOM     22  C   UNL A   1      30.537  28.241  24.140  1.00  0.00    -0.014 A 
ATOM     23  C   UNL A   1      30.600  29.422  23.377  1.00  0.00     0.012 A 
ATOM     24  C   UNL A   1      29.393  27.442  24.030  1.00  0.00     0.012 A 
ATOM     25  C   UNL A   1      29.534  29.829  22.578  1.00  0.00     0.047 A 
ATOM     26  C   UNL A   1      28.323  27.842  23.220  1.00  0.00     0.047 A 
ATOM     27  C   UNL A   1      28.396  29.042  22.519  1.00  0.00     0.115 A 
BRANCH  27  28
ATOM     28  O   UNL A   1      27.356  29.490  21.762  1.00  0.00    -0.508 OA
ATOM     29  H   UNL A   1      27.514  29.828  20.902  1.00  0.00     0.293 HD
ENDBRANCH  27  28
ENDBRANCH  15  22
ENDBRANCH   5   7
ENDBRANCH   2   3
ENDBRANCH   1   2
BRANCH   1  30
ATOM     30  C   UNL A   1      36.829  22.245  25.274  1.00  0.00     0.118 C 
BRANCH  30  31
ATOM     31  N   UNL A   1      37.970  21.344  25.216  1.00  0.00    -0.352 N 
ATOM     32  C   UNL A   1      39.159  21.396  25.921  1.00  0.00     0.251 C 
ATOM     33  H   UNL A   1      37.884  20.593  24.585  1.00  0.00     0.163 HD
ATOM     34  O   UNL A   1      39.996  20.511  25.758  1.00  0.00    -0.269 OA
BRANCH  32  35
ATOM     35  C   UNL A   1      39.481  22.582  26.755  1.00  0.00     0.039 A 
ATOM     36  C   UNL A   1      40.531  22.468  27.673  1.00  0.00     0.014 A 
ATOM     37  C   UNL A   1      38.885  23.822  26.537  1.00  0.00     0.014 A 
ATOM     38  C   UNL A   1      41.103  23.619  28.218  1.00  0.00     0.010 A 
ATOM     39  C   UNL A   1      39.519  24.972  26.997  1.00  0.00     0.010 A 
ATOM     40  C   UNL A   1      40.671  24.883  27.793  1.00  0.00    -0.014 A 
BRANCH  40  41
ATOM     41  C   UNL A   1      41.454  26.117  28.073  1.00  0.00     0.031 A 
ATOM     42  C   UNL A   1      40.810  27.276  28.778  1.00  0.00     0.074 A 
ATOM     43  C   UNL A   1      42.700  26.235  27.565  1.00  0.00     0.049 A 
ATOM     44  N   UNL A   1      41.244  28.501  28.927  1.00  0.00    -0.248 NA
ATOM     45  C   UNL A   1      39.476  27.034  29.345  1.00  0.00     0.031 C 
ATOM     46  C   UNL A   1      43.413  25.199  26.810  1.00  0.00     0.029 A 
ATOM     47  N   UNL A   1      43.587  27.284  27.588  1.00  0.00    -0.354 N 
ATOM     48  C   UNL A   1      40.224  29.184  29.580  1.00  0.00     0.074 A 
ATOM     49  C   UNL A   1      39.129  28.249  29.739  1.00  0.00     0.031 C 
ATOM     50  C   UNL A   1      44.632  25.650  26.476  1.00  0.00     0.029 A 
ATOM     51  C   UNL A   1      44.770  27.027  26.934  1.00  0.00     0.049 A 
ATOM     52  H   UNL A   1      43.393  28.142  28.032  1.00  0.00     0.167 HD
ATOM     53  C   UNL A   1      40.212  30.466  30.025  1.00  0.00     0.034 A 
ATOM     54  C   UNL A   1      45.840  27.817  26.710  1.00  0.00     0.034 A 
ATOM     55  C   UNL A   1      41.326  31.371  29.883  1.00  0.00     0.049 A 
ATOM     56  C   UNL A   1      45.803  29.235  27.216  1.00  0.00     0.074 A 
ATOM     57  C   UNL A   1      41.446  32.674  30.334  1.00  0.00     0.029 A 
ATOM     58  N   UNL A   1      42.520  31.061  29.244  1.00  0.00    -0.354 N 
ATOM     59  N   UNL A   1      44.839  29.859  27.851  1.00  0.00    -0.248 NA
ATOM     60  C   UNL A   1      46.996  30.056  26.973  1.00  0.00     0.031 C 
ATOM     61  C   UNL A   1      42.695  33.164  29.933  1.00  0.00     0.029 A 
ATOM     62  C   UNL A   1      43.376  32.151  29.278  1.00  0.00     0.049 A 
ATOM     63  H   UNL A   1      42.728  30.194  28.829  1.00  0.00     0.167 HD
ATOM     64  C   UNL A   1      45.320  31.138  28.107  1.00  0.00     0.074 A 
ATOM     65  C   UNL A   1      46.664  31.193  27.568  1.00  0.00     0.031 C 
ATOM     66  C   UNL A   1      44.710  32.176  28.731  1.00  0.00     0.034 A 
BRANCH  53  67
ATOM     67  C   UNL A   1      38.947  30.950  30.690  1.00  0.00     0.023 A 
ATOM     68  C   UNL A   1      37.901  31.518  29.943  1.00  0.00     0.031 A 
ATOM     69  C   UNL A   1      38.804  30.899  32.088  1.00  0.00     0.131 A 
ATOM     70  C   UNL A   1      36.807  32.101  30.598  1.00  0.00     0.055 A 
ATOM     71  C   UNL A   1      37.670  31.401  32.730  1.00  0.00     0.041 A 
ATOM     72  F   UNL A   1      39.777  30.384  32.857  1.00  0.00    -0.206 F 
ATOM     73  C   UNL A   1      36.672  32.024  31.987  1.00  0.00     0.022 A 
BRANCH  70  74
ATOM     74  S   UNL A   1      35.650  33.099  29.623  1.00  0.00     0.124 S 
ATOM     75  O   UNL A   1      34.560  32.150  29.404  1.00  0.00    -0.237 OA
ATOM     76  O   UNL A   1      35.357  34.211  30.520  1.00  0.00    -0.237 OA
ATOM     77  O   UNL A   1      36.418  33.444  28.428  1.00  0.00    -0.744 OA
ENDBRANCH  70  74
ENDBRANCH  53  67
BRANCH  54  78
ATOM     78  C   UNL A   1      47.027  27.305  25.968  1.00  0.00     0.023 A 
ATOM     79  C   UNL A   1      48.070  26.654  26.648  1.00  0.00     0.031 A 
ATOM     80  C   UNL A   1      47.165  27.497  24.582  1.00  0.00     0.131 A 
ATOM     81  C   UNL A   1      49.225  26.262  25.953  1.00  0.00     0.055 A 
ATOM     82  C   UNL A   1      48.295  27.062  23.885  1.00  0.00     0.041 A 
ATOM     83  F   UNL A   1      46.195  28.107  23.881  1.00  0.00    -0.206 F 
ATOM     84  C   UNL A   1      49.339  26.453  24.574  1.00  0.00     0.022 A 
BRANCH  81  85
ATOM     85  S   UNL A   1      50.616  25.582  26.896  1.00  0.00     0.124 S 
ATOM     86  O   UNL A   1      51.553  25.231  25.834  1.00  0.00    -0.237 OA
ATOM     87  O   UNL A   1      50.992  26.713  27.737  1.00  0.00    -0.237 OA
ATOM     88  O   UNL A   1      50.024  24.448  27.604  1.00  0.00    -0.744 OA
ENDBRANCH  81  85
ENDBRANCH  54  78
BRANCH  66  89
ATOM     89  C   UNL A   1      45.518  33.435  28.897  1.00  0.00     0.023 A 
ATOM     90  C   UNL A   1      46.339  33.639  30.019  1.00  0.00     0.031 A 
ATOM     91  C   UNL A   1      45.459  34.442  27.919  1.00  0.00     0.131 A 
ATOM     92  C   UNL A   1      47.041  34.844  30.156  1.00  0.00     0.055 A 
ATOM     93  C   UNL A   1      46.196  35.620  28.039  1.00  0.00     0.041 A 
ATOM     94  F   UNL A   1      44.687  34.294  26.831  1.00  0.00    -0.206 F 
ATOM     95  C   UNL A   1      46.987  35.830  29.166  1.00  0.00     0.022 A 
BRANCH  92  96
ATOM     96  S   UNL A   1      47.992  35.130  31.673  1.00  0.00     0.124 S 
ATOM     97  O   UNL A   1      48.912  36.184  31.259  1.00  0.00    -0.237 OA
ATOM     98  O   UNL A   1      46.956  35.527  32.623  1.00  0.00    -0.237 OA
ATOM     99  O   UNL A   1      48.611  33.833  31.940  1.00  0.00    -0.744 OA
ENDBRANCH  92  96
ENDBRANCH  66  89
ENDBRANCH  40  41
ENDBRANCH  32  35
ENDBRANCH  30  31
ENDBRANCH   1  30
TORSDOF 16
ENDMDL
MODEL 3
REMARK VINA RESULT:     -12.8      2.735      7.575
REMARK SMILES O=C(NCCCNC(=O)c1ccc(-c2c3nc(c(-c4cc(S(=O)(=O)[O-])ccc4F)c4ccc([nH]4)c(-c4cc(S(=O)(=O)[O-])ccc4F)c4nc(c(-c5cc(S(=O)(=O)[O-])ccc5F)c5ccc2[nH]5)C=C4)C=C3)cc1)C1=Cc2cc(Cl)cc(-c3ccc(O)cc3)c2O[C@@H]1C(F)(F)F
REMARK SMILES IDX 5 1 4 2 3 3 1 4 2 5 73 7 74 8 90 9 75 10 89 11 76 12 88 13
REMARK SMILES IDX 77 14 80 15 78 16 79 17 91 18 92 19 93 20 94 21 81 22 82 23
REMARK SMILES IDX 87 24 83 25 86 26 84 27 85 28 6 30 7 31 8 32 9 34 10 35
REMARK SMILES IDX 11 36 72 37 12 38 71 39 13 40 14 41 15 42 65 43 16 44 70 45
REMARK SMILES IDX 64 46 66 47 17 48 69 49 63 50 62 51 18 53 50 54 30 55 49 56
REMARK SMILES IDX 31 57 34 58 48 59 67 60 32 61 33 62 47 64 68 65 35 66 19 67
REMARK SMILES IDX 20 68 28 69 21 70 27 71 29 72 26 73 22 74 23 75 24 76 25 77
REMARK SMILES IDX 51 78 52 79 60 80 53 81 59 82 61 83 58 84 54 85 55 86 56 87
REMARK SMILES IDX 57 88 36 89 37 90 45 91 38 92 44 93 46 94 43 95 39 96 40 97
REMARK SMILES IDX 41 98 42 99
REMARK H PARENT 3 6 85 29 7 33 66 52 34 63
REMARK Flexibility Score: inf
ROOT
ATOM      1  C   UNL A   1      36.572  22.811  26.110  1.00  0.00     0.042 C 
ENDROOT
BRANCH   1   2
ATOM      2  C   UNL A   1      35.191  22.529  25.520  1.00  0.00     0.118 C 
BRANCH   2   3
ATOM      3  N   UNL A   1      35.019  23.100  24.177  1.00  0.00    -0.352 N 
ATOM      4  O   UNL A   1      34.476  24.700  22.657  1.00  0.00    -0.270 OA
ATOM      5  C   UNL A   1      34.333  24.217  23.772  1.00  0.00     0.251 C 
ATOM      6  H   UNL A   1      35.466  22.602  23.455  1.00  0.00     0.163 HD
BRANCH   5   7
ATOM      7  C   UNL A   1      33.463  24.855  24.769  1.00  0.00     0.067 C 
ATOM      8  C   UNL A   1      34.027  25.728  25.611  1.00  0.00     0.025 C 
ATOM      9  C   UNL A   1      31.987  24.780  24.548  1.00  0.00     0.314 C 
ATOM     10  C   UNL A   1      33.210  26.912  25.888  1.00  0.00     0.019 A 
ATOM     11  O   UNL A   1      31.412  26.104  24.437  1.00  0.00    -0.475 OA
ATOM     12  C   UNL A   1      33.810  27.977  26.563  1.00  0.00     0.032 A 
ATOM     13  C   UNL A   1      32.039  27.119  25.126  1.00  0.00     0.135 A 
ATOM     14  C   UNL A   1      33.308  29.261  26.390  1.00  0.00     0.042 A 
ATOM     15  C   UNL A   1      31.573  28.424  24.896  1.00  0.00     0.026 A 
ATOM     16  Cl  UNL A   1      34.135  30.592  27.101  1.00  0.00    -0.084 Cl
ATOM     17  C   UNL A   1      32.223  29.490  25.545  1.00  0.00     0.033 A 
BRANCH   9  18
ATOM     18  C   UNL A   1      31.280  23.928  25.616  1.00  0.00     0.429 C 
ATOM     19  F   UNL A   1      32.079  23.729  26.693  1.00  0.00    -0.167 F 
ATOM     20  F   UNL A   1      30.156  24.527  26.076  1.00  0.00    -0.167 F 
ATOM     21  F   UNL A   1      30.921  22.704  25.158  1.00  0.00    -0.167 F 
ENDBRANCH   9  18
BRANCH  15  22
ATOM     22  C   UNL A   1      30.584  28.725  23.849  1.00  0.00    -0.014 A 
ATOM     23  C   UNL A   1      30.942  29.544  22.762  1.00  0.00     0.012 A 
ATOM     24  C   UNL A   1      29.264  28.267  23.926  1.00  0.00     0.012 A 
ATOM     25  C   UNL A   1      30.004  29.948  21.816  1.00  0.00     0.047 A 
ATOM     26  C   UNL A   1      28.319  28.662  22.971  1.00  0.00     0.047 A 
ATOM     27  C   UNL A   1      28.693  29.516  21.937  1.00  0.00     0.115 A 
BRANCH  27  28
ATOM     28  O   UNL A   1      27.792  29.963  21.020  1.00  0.00    -0.508 OA
ATOM     29  H   UNL A   1      26.927  29.601  20.997  1.00  0.00     0.293 HD
ENDBRANCH  27  28
ENDBRANCH  15  22
ENDBRANCH   5   7
ENDBRANCH   2   3
ENDBRANCH   1   2
BRANCH   1  30
ATOM     30  C   UNL A   1      37.714  22.243  25.266  1.00  0.00     0.118 C 
BRANCH  30  31
ATOM     31  N   UNL A   1      38.878  21.788  26.011  1.00  0.00    -0.352 N 
ATOM     32  C   UNL A   1      39.669  22.486  26.904  1.00  0.00     0.251 C 
ATOM     33  H   UNL A   1      39.140  20.851  25.855  1.00  0.00     0.163 HD
ATOM     34  O   UNL A   1      40.598  21.910  27.467  1.00  0.00    -0.269 OA
BRANCH  32  35
ATOM     35  C   UNL A   1      39.490  23.951  27.074  1.00  0.00     0.039 A 
ATOM     36  C   UNL A   1      39.106  24.419  28.335  1.00  0.00     0.014 A 
ATOM     37  C   UNL A   1      39.845  24.859  26.079  1.00  0.00     0.014 A 
ATOM     38  C   UNL A   1      39.263  25.771  28.650  1.00  0.00     0.010 A 
ATOM     39  C   UNL A   1      40.100  26.181  26.423  1.00  0.00     0.010 A 
ATOM     40  C   UNL A   1      39.868  26.637  27.730  1.00  0.00    -0.014 A 
BRANCH  40  41
ATOM     41  C   UNL A   1      40.365  27.982  28.126  1.00  0.00     0.031 A 
ATOM     42  C   UNL A   1      41.841  28.252  28.191  1.00  0.00     0.074 A 
ATOM     43  C   UNL A   1      39.484  28.910  28.560  1.00  0.00     0.049 A 
ATOM     44  N   UNL A   1      42.477  29.272  28.707  1.00  0.00    -0.248 NA
ATOM     45  C   UNL A   1      42.719  27.207  27.644  1.00  0.00     0.031 C 
ATOM     46  C   UNL A   1      38.027  28.744  28.602  1.00  0.00     0.029 A 
ATOM     47  N   UNL A   1      39.679  30.171  29.067  1.00  0.00    -0.354 N 
ATOM     48  C   UNL A   1      43.829  28.979  28.575  1.00  0.00     0.074 A 
ATOM     49  C   UNL A   1      43.915  27.658  27.986  1.00  0.00     0.031 C 
ATOM     50  C   UNL A   1      37.464  29.869  29.070  1.00  0.00     0.029 A 
ATOM     51  C   UNL A   1      38.515  30.814  29.423  1.00  0.00     0.049 A 
ATOM     52  H   UNL A   1      40.571  30.578  29.167  1.00  0.00     0.167 HD
ATOM     53  C   UNL A   1      44.899  29.751  28.894  1.00  0.00     0.034 A 
ATOM     54  C   UNL A   1      38.317  32.021  29.990  1.00  0.00     0.034 A 
ATOM     55  C   UNL A   1      44.789  31.076  29.452  1.00  0.00     0.049 A 
ATOM     56  C   UNL A   1      39.520  32.860  30.333  1.00  0.00     0.074 A 
ATOM     57  C   UNL A   1      45.799  31.967  29.772  1.00  0.00     0.029 A 
ATOM     58  N   UNL A   1      43.591  31.705  29.766  1.00  0.00    -0.354 N 
ATOM     59  N   UNL A   1      40.793  32.576  30.181  1.00  0.00    -0.248 NA
ATOM     60  C   UNL A   1      39.262  34.178  30.926  1.00  0.00     0.031 C 
ATOM     61  C   UNL A   1      45.214  33.116  30.317  1.00  0.00     0.029 A 
ATOM     62  C   UNL A   1      43.837  32.965  30.288  1.00  0.00     0.049 A 
ATOM     63  H   UNL A   1      42.698  31.313  29.637  1.00  0.00     0.167 HD
ATOM     64  C   UNL A   1      41.486  33.692  30.636  1.00  0.00     0.074 A 
ATOM     65  C   UNL A   1      40.491  34.657  31.056  1.00  0.00     0.031 C 
ATOM     66  C   UNL A   1      42.824  33.905  30.700  1.00  0.00     0.034 A 
BRANCH  53  67
ATOM     67  C   UNL A   1      46.267  29.160  28.655  1.00  0.00     0.023 A 
ATOM     68  C   UNL A   1      46.913  28.393  29.640  1.00  0.00     0.031 A 
ATOM     69  C   UNL A   1      46.959  29.411  27.458  1.00  0.00     0.131 A 
ATOM     70  C   UNL A   1      48.243  27.990  29.454  1.00  0.00     0.055 A 
ATOM     71  C   UNL A   1      48.253  28.930  27.242  1.00  0.00     0.041 A 
ATOM     72  F   UNL A   1      46.401  30.152  26.487  1.00  0.00    -0.206 F 
ATOM     73  C   UNL A   1      48.910  28.231  28.250  1.00  0.00     0.022 A 
BRANCH  70  74
ATOM     74  S   UNL A   1      49.137  27.290  30.867  1.00  0.00     0.124 S 
ATOM     75  O   UNL A   1      48.743  28.200  31.941  1.00  0.00    -0.237 OA
ATOM     76  O   UNL A   1      48.595  25.938  30.946  1.00  0.00    -0.237 OA
ATOM     77  O   UNL A   1      50.539  27.380  30.465  1.00  0.00    -0.744 OA
ENDBRANCH  70  74
ENDBRANCH  53  67
BRANCH  54  78
ATOM     78  C   UNL A   1      36.940  32.512  30.282  1.00  0.00     0.023 A 
ATOM     79  C   UNL A   1      36.187  33.163  29.290  1.00  0.00     0.031 A 
ATOM     80  C   UNL A   1      36.373  32.385  31.562  1.00  0.00     0.131 A 
ATOM     81  C   UNL A   1      34.931  33.704  29.605  1.00  0.00     0.055 A 
ATOM     82  C   UNL A   1      35.101  32.883  31.858  1.00  0.00     0.041 A 
ATOM     83  F   UNL A   1      37.046  31.767  32.545  1.00  0.00    -0.206 F 
ATOM     84  C   UNL A   1      34.379  33.559  30.880  1.00  0.00     0.022 A 
BRANCH  81  85
ATOM     85  S   UNL A   1      34.068  34.683  28.346  1.00  0.00     0.124 S 
ATOM     86  O   UNL A   1      34.098  36.018  28.933  1.00  0.00    -0.237 OA
ATOM     87  O   UNL A   1      34.912  34.477  27.173  1.00  0.00    -0.237 OA
ATOM     88  O   UNL A   1      32.747  34.061  28.279  1.00  0.00    -0.744 OA
ENDBRANCH  81  85
ENDBRANCH  54  78
BRANCH  66  89
ATOM     89  C   UNL A   1      43.272  35.250  31.204  1.00  0.00     0.023 A 
ATOM     90  C   UNL A   1      43.517  36.320  30.327  1.00  0.00     0.031 A 
ATOM     91  C   UNL A   1      43.458  35.459  32.581  1.00  0.00     0.131 A 
ATOM     92  C   UNL A   1      43.974  37.544  30.833  1.00  0.00     0.055 A 
ATOM     93  C   UNL A   1      43.869  36.694  33.084  1.00  0.00     0.041 A 
ATOM     94  F   UNL A   1      43.238  34.467  33.459  1.00  0.00    -0.206 F 
ATOM     95  C   UNL A   1      44.138  37.743  32.208  1.00  0.00     0.022 A 
BRANCH  92  96
ATOM     96  S   UNL A   1      44.403  38.864  29.667  1.00  0.00     0.124 S 
ATOM     97  O   UNL A   1      44.011  38.279  28.389  1.00  0.00    -0.237 OA
ATOM     98  O   UNL A   1      43.581  39.976  30.136  1.00  0.00    -0.237 OA
ATOM     99  O   UNL A   1      45.842  39.036  29.857  1.00  0.00    -0.744 OA
ENDBRANCH  92  96
ENDBRANCH  66  89
ENDBRANCH  40  41
ENDBRANCH  32  35
ENDBRANCH  30  31
ENDBRANCH   1  30
TORSDOF 16
ENDMDL
