MODEL 1
REMARK VINA RESULT:     -14.1      0.000      0.000
REMARK SMILES O=C(NCCCNC(=O)c1ccc(-c2c3nc(c(-c4cc(S(=O)(=O)[O-])ccc4F)c4ccc([nH]4)c(-c4cc(S(=O)(=O)[O-])ccc4F)c4nc(c(-c5cc(S(=O)(=O)[O-])ccc5F)c5ccc2[nH]5)C=C4)C=C3)cc1)C1=Cc2cc(Cl)cc(-c3ccc(CO)cc3)c2O[C@@H]1C(F)(F)F
REMARK SMILES IDX 5 1 4 2 3 3 1 4 2 5 73 7 74 8 91 9 75 10 90 11 76 12 89 13
REMARK SMILES IDX 77 14 80 15 78 16 79 17 92 18 93 19 94 20 95 21 81 22 82 23
REMARK SMILES IDX 88 24 83 25 87 26 84 27 85 28 86 29 6 31 7 32 8 33 9 35
REMARK SMILES IDX 10 36 11 37 72 38 12 39 71 40 13 41 14 42 15 43 65 44 16 45
REMARK SMILES IDX 70 46 64 47 66 48 17 49 69 50 63 51 62 52 18 54 50 55 30 56
REMARK SMILES IDX 49 57 31 58 34 59 48 60 67 61 32 62 33 63 47 65 68 66 35 67
REMARK SMILES IDX 19 68 20 69 28 70 21 71 27 72 29 73 26 74 22 75 23 76 24 77
REMARK SMILES IDX 25 78 51 79 52 80 60 81 53 82 59 83 61 84 58 85 54 86 55 87
REMARK SMILES IDX 56 88 57 89 36 90 37 91 45 92 38 93 44 94 46 95 43 96 39 97
REMARK SMILES IDX 40 98 41 99 42 100
REMARK H PARENT 3 6 86 30 7 34 66 53 34 64
REMARK Flexibility Score: inf
ROOT
ATOM      1  C   UNL A   1      32.315  27.969  27.116  1.00  0.00     0.042 C 
ENDROOT
BRANCH   1   2
ATOM      2  C   UNL A   1      32.170  26.754  26.199  1.00  0.00     0.118 C 
BRANCH   2   3
ATOM      3  N   UNL A   1      31.494  25.628  26.857  1.00  0.00    -0.352 N 
ATOM      4  O   UNL A   1      31.184  23.461  27.471  1.00  0.00    -0.270 OA
ATOM      5  C   UNL A   1      31.678  24.277  26.705  1.00  0.00     0.251 C 
ATOM      6  H   UNL A   1      30.801  25.882  27.508  1.00  0.00     0.163 HD
BRANCH   5   7
ATOM      7  C   UNL A   1      32.567  23.854  25.615  1.00  0.00     0.067 C 
ATOM      8  C   UNL A   1      33.877  24.087  25.752  1.00  0.00     0.025 C 
ATOM      9  C   UNL A   1      32.015  22.901  24.608  1.00  0.00     0.314 C 
ATOM     10  C   UNL A   1      34.739  23.023  25.233  1.00  0.00     0.019 A 
ATOM     11  O   UNL A   1      32.803  21.686  24.557  1.00  0.00    -0.475 OA
ATOM     12  C   UNL A   1      36.106  23.087  25.515  1.00  0.00     0.032 A 
ATOM     13  C   UNL A   1      34.147  21.801  24.843  1.00  0.00     0.135 A 
ATOM     14  C   UNL A   1      36.859  21.918  25.503  1.00  0.00     0.042 A 
ATOM     15  C   UNL A   1      34.888  20.611  24.904  1.00  0.00     0.026 A 
ATOM     16  Cl  UNL A   1      38.510  21.973  25.981  1.00  0.00    -0.084 Cl
ATOM     17  C   UNL A   1      36.256  20.692  25.230  1.00  0.00     0.033 A 
BRANCH   9  18
ATOM     18  C   UNL A   1      31.857  23.550  23.222  1.00  0.00     0.429 C 
ATOM     19  F   UNL A   1      32.644  24.648  23.102  1.00  0.00    -0.167 F 
ATOM     20  F   UNL A   1      32.219  22.706  22.226  1.00  0.00    -0.167 F 
ATOM     21  F   UNL A   1      30.587  23.944  22.968  1.00  0.00    -0.167 F 
ENDBRANCH   9  18
BRANCH  15  22
ATOM     22  C   UNL A   1      34.251  19.286  24.866  1.00  0.00    -0.015 A 
ATOM     23  C   UNL A   1      33.075  19.069  25.604  1.00  0.00     0.009 A 
ATOM     24  C   UNL A   1      34.806  18.202  24.184  1.00  0.00     0.009 A 
ATOM     25  C   UNL A   1      32.515  17.801  25.737  1.00  0.00     0.007 A 
ATOM     26  C   UNL A   1      34.241  16.924  24.305  1.00  0.00     0.007 A 
ATOM     27  C   UNL A   1      33.108  16.711  25.102  1.00  0.00    -0.023 A 
BRANCH  27  28
ATOM     28  C   UNL A   1      32.587  15.327  25.369  1.00  0.00     0.191 C 
BRANCH  28  29
ATOM     29  O   UNL A   1      33.668  14.405  25.436  1.00  0.00    -0.392 OA
ATOM     30  H   UNL A   1      34.166  14.430  24.604  1.00  0.00     0.211 HD
ENDBRANCH  28  29
ENDBRANCH  27  28
ENDBRANCH  15  22
ENDBRANCH   5   7
ENDBRANCH   2   3
ENDBRANCH   1   2
BRANCH   1  31
ATOM     31  C   UNL A   1      33.104  29.108  26.475  1.00  0.00     0.118 C 
BRANCH  31  32
ATOM     32  N   UNL A   1      32.824  30.434  27.009  1.00  0.00    -0.352 N 
ATOM     33  C   UNL A   1      33.711  31.340  27.567  1.00  0.00     0.251 C 
ATOM     34  H   UNL A   1      31.885  30.723  26.967  1.00  0.00     0.163 HD
ATOM     35  O   UNL A   1      33.308  32.425  27.976  1.00  0.00    -0.269 OA
BRANCH  33  36
ATOM     36  C   UNL A   1      35.118  30.935  27.790  1.00  0.00     0.039 A 
ATOM     37  C   UNL A   1      36.090  31.940  27.845  1.00  0.00     0.014 A 
ATOM     38  C   UNL A   1      35.448  29.626  28.127  1.00  0.00     0.014 A 
ATOM     39  C   UNL A   1      37.329  31.668  28.425  1.00  0.00     0.010 A 
ATOM     40  C   UNL A   1      36.636  29.383  28.804  1.00  0.00     0.010 A 
ATOM     41  C   UNL A   1      37.562  30.417  29.013  1.00  0.00    -0.014 A 
BRANCH  41  42
ATOM     42  C   UNL A   1      38.706  30.177  29.933  1.00  0.00     0.031 A 
ATOM     43  C   UNL A   1      39.818  29.258  29.518  1.00  0.00     0.074 A 
ATOM     44  C   UNL A   1      38.654  30.659  31.193  1.00  0.00     0.049 A 
ATOM     45  N   UNL A   1      40.761  28.715  30.240  1.00  0.00    -0.248 NA
ATOM     46  C   UNL A   1      39.824  28.851  28.107  1.00  0.00     0.031 C 
ATOM     47  C   UNL A   1      37.594  31.515  31.735  1.00  0.00     0.029 A 
ATOM     48  N   UNL A   1      39.503  30.481  32.257  1.00  0.00    -0.354 N 
ATOM     49  C   UNL A   1      41.449  27.864  29.381  1.00  0.00     0.074 A 
ATOM     50  C   UNL A   1      40.766  27.922  28.104  1.00  0.00     0.031 C 
ATOM     51  C   UNL A   1      37.875  31.817  33.012  1.00  0.00     0.029 A 
ATOM     52  C   UNL A   1      39.096  31.126  33.404  1.00  0.00     0.049 A 
ATOM     53  H   UNL A   1      40.326  29.944  32.205  1.00  0.00     0.167 HD
ATOM     54  C   UNL A   1      42.556  27.120  29.632  1.00  0.00     0.034 A 
ATOM     55  C   UNL A   1      39.637  31.143  34.638  1.00  0.00     0.034 A 
ATOM     56  C   UNL A   1      43.233  27.106  30.906  1.00  0.00     0.049 A 
ATOM     57  C   UNL A   1      40.882  30.336  34.888  1.00  0.00     0.074 A 
ATOM     58  C   UNL A   1      44.379  26.423  31.273  1.00  0.00     0.029 A 
ATOM     59  N   UNL A   1      42.825  27.824  32.025  1.00  0.00    -0.354 N 
ATOM     60  N   UNL A   1      41.527  29.540  34.065  1.00  0.00    -0.248 NA
ATOM     61  C   UNL A   1      41.474  30.427  36.229  1.00  0.00     0.031 C 
ATOM     62  C   UNL A   1      44.642  26.698  32.621  1.00  0.00     0.029 A 
ATOM     63  C   UNL A   1      43.692  27.597  33.081  1.00  0.00     0.049 A 
ATOM     64  H   UNL A   1      42.034  28.408  32.061  1.00  0.00     0.167 HD
ATOM     65  C   UNL A   1      42.619  29.063  34.780  1.00  0.00     0.074 A 
ATOM     66  C   UNL A   1      42.548  29.661  36.098  1.00  0.00     0.031 C 
ATOM     67  C   UNL A   1      43.600  28.212  34.383  1.00  0.00     0.034 A 
BRANCH  54  68
ATOM     68  C   UNL A   1      43.066  26.254  28.503  1.00  0.00     0.023 A 
ATOM     69  C   UNL A   1      44.193  26.624  27.748  1.00  0.00     0.031 A 
ATOM     70  C   UNL A   1      42.369  25.097  28.112  1.00  0.00     0.131 A 
ATOM     71  C   UNL A   1      44.512  25.926  26.575  1.00  0.00     0.055 A 
ATOM     72  C   UNL A   1      42.757  24.343  27.002  1.00  0.00     0.041 A 
ATOM     73  F   UNL A   1      41.274  24.698  28.780  1.00  0.00    -0.206 F 
ATOM     74  C   UNL A   1      43.819  24.772  26.210  1.00  0.00     0.022 A 
BRANCH  71  75
ATOM     75  S   UNL A   1      45.708  26.672  25.434  1.00  0.00     0.124 S 
ATOM     76  O   UNL A   1      46.763  27.094  26.353  1.00  0.00    -0.237 OA
ATOM     77  O   UNL A   1      46.038  25.560  24.551  1.00  0.00    -0.237 OA
ATOM     78  O   UNL A   1      44.958  27.762  24.815  1.00  0.00    -0.744 OA
ENDBRANCH  71  75
ENDBRANCH  54  68
BRANCH  55  79
ATOM     79  C   UNL A   1      39.017  31.950  35.727  1.00  0.00     0.023 A 
ATOM     80  C   UNL A   1      38.320  31.322  36.771  1.00  0.00     0.031 A 
ATOM     81  C   UNL A   1      39.093  33.353  35.733  1.00  0.00     0.131 A 
ATOM     82  C   UNL A   1      37.692  32.096  37.759  1.00  0.00     0.055 A 
ATOM     83  C   UNL A   1      38.503  34.118  36.742  1.00  0.00     0.041 A 
ATOM     84  F   UNL A   1      39.760  34.002  34.765  1.00  0.00    -0.206 F 
ATOM     85  C   UNL A   1      37.787  33.490  37.758  1.00  0.00     0.022 A 
BRANCH  82  86
ATOM     86  S   UNL A   1      36.692  31.253  39.016  1.00  0.00     0.124 S 
ATOM     87  O   UNL A   1      35.532  32.133  39.111  1.00  0.00    -0.237 OA
ATOM     88  O   UNL A   1      36.463  29.952  38.397  1.00  0.00    -0.237 OA
ATOM     89  O   UNL A   1      37.563  31.238  40.189  1.00  0.00    -0.744 OA
ENDBRANCH  82  86
ENDBRANCH  55  79
BRANCH  67  90
ATOM     90  C   UNL A   1      44.700  27.938  35.371  1.00  0.00     0.023 A 
ATOM     91  C   UNL A   1      44.533  27.038  36.436  1.00  0.00     0.031 A 
ATOM     92  C   UNL A   1      45.936  28.594  35.239  1.00  0.00     0.131 A 
ATOM     93  C   UNL A   1      45.576  26.846  37.355  1.00  0.00     0.055 A 
ATOM     94  C   UNL A   1      46.986  28.366  36.128  1.00  0.00     0.041 A 
ATOM     95  F   UNL A   1      46.143  29.465  34.237  1.00  0.00    -0.206 F 
ATOM     96  C   UNL A   1      46.805  27.494  37.199  1.00  0.00     0.022 A 
BRANCH  93  97
ATOM     97  S   UNL A   1      45.288  25.776  38.790  1.00  0.00     0.124 S 
ATOM     98  O   UNL A   1      46.576  25.834  39.474  1.00  0.00    -0.237 OA
ATOM     99  O   UNL A   1      44.178  26.446  39.462  1.00  0.00    -0.237 OA
ATOM    100  O   UNL A   1      44.959  24.484  38.193  1.00  0.00    -0.744 OA
ENDBRANCH  93  97
ENDBRANCH  67  90
ENDBRANCH  41  42
ENDBRANCH  33  36
ENDBRANCH  31  32
ENDBRANCH   1  31
TORSDOF 17
ENDMDL
MODEL 2
REMARK VINA RESULT:     -14.1      1.962      2.243
REMARK SMILES O=C(NCCCNC(=O)c1ccc(-c2c3nc(c(-c4cc(S(=O)(=O)[O-])ccc4F)c4ccc([nH]4)c(-c4cc(S(=O)(=O)[O-])ccc4F)c4nc(c(-c5cc(S(=O)(=O)[O-])ccc5F)c5ccc2[nH]5)C=C4)C=C3)cc1)C1=Cc2cc(Cl)cc(-c3ccc(CO)cc3)c2O[C@@H]1C(F)(F)F
REMARK SMILES IDX 5 1 4 2 3 3 1 4 2 5 73 7 74 8 91 9 75 10 90 11 76 12 89 13
REMARK SMILES IDX 77 14 80 15 78 16 79 17 92 18 93 19 94 20 95 21 81 22 82 23
REMARK SMILES IDX 88 24 83 25 87 26 84 27 85 28 86 29 6 31 7 32 8 33 9 35
REMARK SMILES IDX 10 36 11 37 72 38 12 39 71 40 13 41 14 42 15 43 65 44 16 45
REMARK SMILES IDX 70 46 64 47 66 48 17 49 69 50 63 51 62 52 18 54 50 55 30 56
REMARK SMILES IDX 49 57 31 58 34 59 48 60 67 61 32 62 33 63 47 65 68 66 35 67
REMARK SMILES IDX 19 68 20 69 28 70 21 71 27 72 29 73 26 74 22 75 23 76 24 77
REMARK SMILES IDX 25 78 51 79 52 80 60 81 53 82 59 83 61 84 58 85 54 86 55 87
REMARK SMILES IDX 56 88 57 89 36 90 37 91 45 92 38 93 44 94 46 95 43 96 39 97
REMARK SMILES IDX 40 98 41 99 42 100
REMARK H PARENT 3 6 86 30 7 34 66 53 34 64
REMARK Flexibility Score: inf
ROOT
ATOM      1  C   UNL A   1      31.726  28.010  26.990  1.00  0.00     0.042 C 
ENDROOT
BRANCH   1   2
ATOM      2  C   UNL A   1      32.009  26.683  26.285  1.00  0.00     0.118 C 
BRANCH   2   3
ATOM      3  N   UNL A   1      31.417  25.535  26.985  1.00  0.00    -0.352 N 
ATOM      4  O   UNL A   1      31.229  23.362  27.626  1.00  0.00    -0.270 OA
ATOM      5  C   UNL A   1      31.646  24.192  26.829  1.00  0.00     0.251 C 
ATOM      6  H   UNL A   1      30.751  25.766  27.673  1.00  0.00     0.163 HD
BRANCH   5   7
ATOM      7  C   UNL A   1      32.490  23.798  25.694  1.00  0.00     0.067 C 
ATOM      8  C   UNL A   1      33.798  24.065  25.765  1.00  0.00     0.025 C 
ATOM      9  C   UNL A   1      31.913  22.833  24.710  1.00  0.00     0.314 C 
ATOM     10  C   UNL A   1      34.660  23.026  25.197  1.00  0.00     0.019 A 
ATOM     11  O   UNL A   1      32.728  21.641  24.613  1.00  0.00    -0.475 OA
ATOM     12  C   UNL A   1      36.038  23.126  25.410  1.00  0.00     0.032 A 
ATOM     13  C   UNL A   1      34.082  21.791  24.831  1.00  0.00     0.135 A 
ATOM     14  C   UNL A   1      36.820  21.978  25.353  1.00  0.00     0.042 A 
ATOM     15  C   UNL A   1      34.856  20.620  24.848  1.00  0.00     0.026 A 
ATOM     16  Cl  UNL A   1      38.491  22.074  25.747  1.00  0.00    -0.084 Cl
ATOM     17  C   UNL A   1      36.236  20.737  25.105  1.00  0.00     0.033 A 
BRANCH   9  18
ATOM     18  C   UNL A   1      31.666  23.484  23.338  1.00  0.00     0.429 C 
ATOM     19  F   UNL A   1      32.194  24.733  23.285  1.00  0.00    -0.167 F 
ATOM     20  F   UNL A   1      32.245  22.780  22.336  1.00  0.00    -0.167 F 
ATOM     21  F   UNL A   1      30.351  23.597  23.038  1.00  0.00    -0.167 F 
ENDBRANCH   9  18
BRANCH  15  22
ATOM     22  C   UNL A   1      34.253  19.279  24.835  1.00  0.00    -0.015 A 
ATOM     23  C   UNL A   1      32.972  19.098  25.383  1.00  0.00     0.009 A 
ATOM     24  C   UNL A   1      34.931  18.152  24.367  1.00  0.00     0.009 A 
ATOM     25  C   UNL A   1      32.416  17.832  25.546  1.00  0.00     0.007 A 
ATOM     26  C   UNL A   1      34.372  16.875  24.518  1.00  0.00     0.007 A 
ATOM     27  C   UNL A   1      33.123  16.705  25.131  1.00  0.00    -0.023 A 
BRANCH  27  28
ATOM     28  C   UNL A   1      32.583  15.337  25.443  1.00  0.00     0.191 C 
BRANCH  28  29
ATOM     29  O   UNL A   1      33.629  14.375  25.376  1.00  0.00    -0.392 OA
ATOM     30  H   UNL A   1      33.361  13.572  25.850  1.00  0.00     0.211 HD
ENDBRANCH  28  29
ENDBRANCH  27  28
ENDBRANCH  15  22
ENDBRANCH   5   7
ENDBRANCH   2   3
ENDBRANCH   1   2
BRANCH   1  31
ATOM     31  C   UNL A   1      32.802  29.062  26.731  1.00  0.00     0.118 C 
BRANCH  31  32
ATOM     32  N   UNL A   1      32.457  30.417  27.142  1.00  0.00    -0.352 N 
ATOM     33  C   UNL A   1      33.308  31.447  27.505  1.00  0.00     0.251 C 
ATOM     34  H   UNL A   1      31.496  30.626  27.163  1.00  0.00     0.163 HD
ATOM     35  O   UNL A   1      32.850  32.539  27.831  1.00  0.00    -0.269 OA
BRANCH  33  36
ATOM     36  C   UNL A   1      34.760  31.181  27.629  1.00  0.00     0.039 A 
ATOM     37  C   UNL A   1      35.602  32.258  27.925  1.00  0.00     0.014 A 
ATOM     38  C   UNL A   1      35.256  29.881  27.644  1.00  0.00     0.014 A 
ATOM     39  C   UNL A   1      36.880  32.013  28.427  1.00  0.00     0.010 A 
ATOM     40  C   UNL A   1      36.482  29.635  28.247  1.00  0.00     0.010 A 
ATOM     41  C   UNL A   1      37.280  30.698  28.700  1.00  0.00    -0.014 A 
BRANCH  41  42
ATOM     42  C   UNL A   1      38.470  30.391  29.539  1.00  0.00     0.031 A 
ATOM     43  C   UNL A   1      39.509  29.431  29.039  1.00  0.00     0.074 A 
ATOM     44  C   UNL A   1      38.522  30.854  30.806  1.00  0.00     0.049 A 
ATOM     45  N   UNL A   1      40.472  28.834  29.689  1.00  0.00    -0.248 NA
ATOM     46  C   UNL A   1      39.405  29.048  27.624  1.00  0.00     0.031 C 
ATOM     47  C   UNL A   1      37.540  31.748  31.428  1.00  0.00     0.029 A 
ATOM     48  N   UNL A   1      39.430  30.620  31.809  1.00  0.00    -0.354 N 
ATOM     49  C   UNL A   1      41.063  27.968  28.775  1.00  0.00     0.074 A 
ATOM     50  C   UNL A   1      40.302  28.079  27.546  1.00  0.00     0.031 C 
ATOM     51  C   UNL A   1      37.917  32.014  32.688  1.00  0.00     0.029 A 
ATOM     52  C   UNL A   1      39.129  31.263  32.989  1.00  0.00     0.049 A 
ATOM     53  H   UNL A   1      40.222  30.048  31.695  1.00  0.00     0.167 HD
ATOM     54  C   UNL A   1      42.149  27.172  28.942  1.00  0.00     0.034 A 
ATOM     55  C   UNL A   1      39.750  31.236  34.184  1.00  0.00     0.034 A 
ATOM     56  C   UNL A   1      42.906  27.106  30.168  1.00  0.00     0.049 A 
ATOM     57  C   UNL A   1      40.970  30.370  34.341  1.00  0.00     0.074 A 
ATOM     58  C   UNL A   1      44.041  26.367  30.449  1.00  0.00     0.029 A 
ATOM     59  N   UNL A   1      42.605  27.823  31.321  1.00  0.00    -0.354 N 
ATOM     60  N   UNL A   1      41.523  29.560  33.466  1.00  0.00    -0.248 NA
ATOM     61  C   UNL A   1      41.652  30.412  35.641  1.00  0.00     0.031 C 
ATOM     62  C   UNL A   1      44.404  26.607  31.780  1.00  0.00     0.029 A 
ATOM     63  C   UNL A   1      43.529  27.539  32.314  1.00  0.00     0.049 A 
ATOM     64  H   UNL A   1      41.846  28.441  31.418  1.00  0.00     0.167 HD
ATOM     65  C   UNL A   1      42.637  29.023  34.101  1.00  0.00     0.074 A 
ATOM     66  C   UNL A   1      42.679  29.601  35.429  1.00  0.00     0.031 C 
ATOM     67  C   UNL A   1      43.549  28.136  33.628  1.00  0.00     0.034 A 
BRANCH  54  68
ATOM     68  C   UNL A   1      42.544  26.303  27.770  1.00  0.00     0.023 A 
ATOM     69  C   UNL A   1      42.044  24.997  27.625  1.00  0.00     0.031 A 
ATOM     70  C   UNL A   1      43.501  26.743  26.838  1.00  0.00     0.131 A 
ATOM     71  C   UNL A   1      42.592  24.138  26.662  1.00  0.00     0.055 A 
ATOM     72  C   UNL A   1      43.965  25.916  25.812  1.00  0.00     0.041 A 
ATOM     73  F   UNL A   1      44.031  27.974  26.930  1.00  0.00    -0.206 F 
ATOM     74  C   UNL A   1      43.530  24.596  25.736  1.00  0.00     0.022 A 
BRANCH  71  75
ATOM     75  S   UNL A   1      42.210  22.369  26.776  1.00  0.00     0.124 S 
ATOM     76  O   UNL A   1      41.057  22.377  27.674  1.00  0.00    -0.237 OA
ATOM     77  O   UNL A   1      41.937  22.014  25.389  1.00  0.00    -0.237 OA
ATOM     78  O   UNL A   1      43.427  21.791  27.342  1.00  0.00    -0.744 OA
ENDBRANCH  71  75
ENDBRANCH  54  68
BRANCH  55  79
ATOM     79  C   UNL A   1      39.239  32.051  35.323  1.00  0.00     0.023 A 
ATOM     80  C   UNL A   1      39.722  33.351  35.542  1.00  0.00     0.031 A 
ATOM     81  C   UNL A   1      38.281  31.543  36.217  1.00  0.00     0.131 A 
ATOM     82  C   UNL A   1      39.275  34.086  36.651  1.00  0.00     0.055 A 
ATOM     83  C   UNL A   1      37.807  32.295  37.294  1.00  0.00     0.041 A 
ATOM     84  F   UNL A   1      37.777  30.310  36.043  1.00  0.00    -0.206 F 
ATOM     85  C   UNL A   1      38.313  33.571  37.523  1.00  0.00     0.022 A 
BRANCH  82  86
ATOM     86  S   UNL A   1      40.020  35.709  36.972  1.00  0.00     0.124 S 
ATOM     87  O   UNL A   1      41.431  35.366  37.108  1.00  0.00    -0.237 OA
ATOM     88  O   UNL A   1      39.651  36.453  35.772  1.00  0.00    -0.237 OA
ATOM     89  O   UNL A   1      39.362  36.147  38.201  1.00  0.00    -0.744 OA
ENDBRANCH  82  86
ENDBRANCH  55  79
BRANCH  67  90
ATOM     90  C   UNL A   1      44.698  27.797  34.538  1.00  0.00     0.023 A 
ATOM     91  C   UNL A   1      44.634  26.727  35.446  1.00  0.00     0.031 A 
ATOM     92  C   UNL A   1      45.876  28.563  34.489  1.00  0.00     0.131 A 
ATOM     93  C   UNL A   1      45.718  26.476  36.301  1.00  0.00     0.055 A 
ATOM     94  C   UNL A   1      46.968  28.280  35.310  1.00  0.00     0.041 A 
ATOM     95  F   UNL A   1      45.984  29.596  33.638  1.00  0.00    -0.206 F 
ATOM     96  C   UNL A   1      46.888  27.237  36.228  1.00  0.00     0.022 A 
BRANCH  93  97
ATOM     97  S   UNL A   1      45.557  25.171  37.549  1.00  0.00     0.124 S 
ATOM     98  O   UNL A   1      45.093  24.042  36.749  1.00  0.00    -0.237 OA
ATOM     99  O   UNL A   1      46.917  25.067  38.070  1.00  0.00    -0.237 OA
ATOM    100  O   UNL A   1      44.576  25.712  38.487  1.00  0.00    -0.744 OA
ENDBRANCH  93  97
ENDBRANCH  67  90
ENDBRANCH  41  42
ENDBRANCH  33  36
ENDBRANCH  31  32
ENDBRANCH   1  31
TORSDOF 17
ENDMDL
MODEL 3
REMARK VINA RESULT:     -14.0      2.418      7.596
REMARK SMILES O=C(NCCCNC(=O)c1ccc(-c2c3nc(c(-c4cc(S(=O)(=O)[O-])ccc4F)c4ccc([nH]4)c(-c4cc(S(=O)(=O)[O-])ccc4F)c4nc(c(-c5cc(S(=O)(=O)[O-])ccc5F)c5ccc2[nH]5)C=C4)C=C3)cc1)C1=Cc2cc(Cl)cc(-c3ccc(CO)cc3)c2O[C@@H]1C(F)(F)F
REMARK SMILES IDX 5 1 4 2 3 3 1 4 2 5 73 7 74 8 91 9 75 10 90 11 76 12 89 13
REMARK SMILES IDX 77 14 80 15 78 16 79 17 92 18 93 19 94 20 95 21 81 22 82 23
REMARK SMILES IDX 88 24 83 25 87 26 84 27 85 28 86 29 6 31 7 32 8 33 9 35
REMARK SMILES IDX 10 36 11 37 72 38 12 39 71 40 13 41 14 42 15 43 65 44 16 45
REMARK SMILES IDX 70 46 64 47 66 48 17 49 69 50 63 51 62 52 18 54 50 55 30 56
REMARK SMILES IDX 49 57 31 58 34 59 48 60 67 61 32 62 33 63 47 65 68 66 35 67
REMARK SMILES IDX 19 68 20 69 28 70 21 71 27 72 29 73 26 74 22 75 23 76 24 77
REMARK SMILES IDX 25 78 51 79 52 80 60 81 53 82 59 83 61 84 58 85 54 86 55 87
REMARK SMILES IDX 56 88 57 89 36 90 37 91 45 92 38 93 44 94 46 95 43 96 39 97
REMARK SMILES IDX 40 98 41 99 42 100
REMARK H PARENT 3 6 86 30 7 34 66 53 34 64
REMARK Flexibility Score: inf
ROOT
ATOM      1  C   UNL A   1      32.131  28.700  26.841  1.00  0.00     0.042 C 
ENDROOT
BRANCH   1   2
ATOM      2  C   UNL A   1      32.076  27.463  25.943  1.00  0.00     0.118 C 
BRANCH   2   3
ATOM      3  N   UNL A   1      31.406  26.327  26.588  1.00  0.00    -0.352 N 
ATOM      4  O   UNL A   1      31.152  24.167  27.252  1.00  0.00    -0.270 OA
ATOM      5  C   UNL A   1      31.663  24.983  26.497  1.00  0.00     0.251 C 
ATOM      6  H   UNL A   1      30.655  26.567  27.177  1.00  0.00     0.163 HD
BRANCH   5   7
ATOM      7  C   UNL A   1      32.651  24.570  25.491  1.00  0.00     0.067 C 
ATOM      8  C   UNL A   1      33.938  24.839  25.733  1.00  0.00     0.025 C 
ATOM      9  C   UNL A   1      32.209  23.591  24.455  1.00  0.00     0.314 C 
ATOM     10  C   UNL A   1      34.867  23.791  25.303  1.00  0.00     0.019 A 
ATOM     11  O   UNL A   1      33.028  22.397  24.487  1.00  0.00    -0.475 OA
ATOM     12  C   UNL A   1      36.204  23.894  25.697  1.00  0.00     0.032 A 
ATOM     13  C   UNL A   1      34.340  22.550  24.882  1.00  0.00     0.135 A 
ATOM     14  C   UNL A   1      36.984  22.745  25.765  1.00  0.00     0.042 A 
ATOM     15  C   UNL A   1      35.103  21.380  25.021  1.00  0.00     0.026 A 
ATOM     16  Cl  UNL A   1      38.587  22.848  26.378  1.00  0.00    -0.084 Cl
ATOM     17  C   UNL A   1      36.437  21.501  25.460  1.00  0.00     0.033 A 
BRANCH   9  18
ATOM     18  C   UNL A   1      32.151  24.220  23.052  1.00  0.00     0.429 C 
ATOM     19  F   UNL A   1      32.821  25.398  23.014  1.00  0.00    -0.167 F 
ATOM     20  F   UNL A   1      32.724  23.422  22.118  1.00  0.00    -0.167 F 
ATOM     21  F   UNL A   1      30.886  24.470  22.640  1.00  0.00    -0.167 F 
ENDBRANCH   9  18
BRANCH  15  22
ATOM     22  C   UNL A   1      34.504  20.038  24.949  1.00  0.00    -0.015 A 
ATOM     23  C   UNL A   1      33.256  19.811  25.553  1.00  0.00     0.009 A 
ATOM     24  C   UNL A   1      35.159  18.952  24.367  1.00  0.00     0.009 A 
ATOM     25  C   UNL A   1      32.714  18.533  25.657  1.00  0.00     0.007 A 
ATOM     26  C   UNL A   1      34.613  17.663  24.460  1.00  0.00     0.007 A 
ATOM     27  C   UNL A   1      33.400  17.443  25.127  1.00  0.00    -0.023 A 
BRANCH  27  28
ATOM     28  C   UNL A   1      32.883  16.053  25.373  1.00  0.00     0.191 C 
BRANCH  28  29
ATOM     29  O   UNL A   1      33.962  15.126  25.379  1.00  0.00    -0.392 OA
ATOM     30  H   UNL A   1      33.933  14.601  26.194  1.00  0.00     0.211 HD
ENDBRANCH  28  29
ENDBRANCH  27  28
ENDBRANCH  15  22
ENDBRANCH   5   7
ENDBRANCH   2   3
ENDBRANCH   1   2
BRANCH   1  31
ATOM     31  C   UNL A   1      33.176  29.718  26.389  1.00  0.00     0.118 C 
BRANCH  31  32
ATOM     32  N   UNL A   1      33.278  30.911  27.219  1.00  0.00    -0.352 N 
ATOM     33  C   UNL A   1      34.396  31.416  27.862  1.00  0.00     0.251 C 
ATOM     34  H   UNL A   1      32.447  31.423  27.337  1.00  0.00     0.163 HD
ATOM     35  O   UNL A   1      34.312  32.441  28.532  1.00  0.00    -0.269 OA
BRANCH  33  36
ATOM     36  C   UNL A   1      35.657  30.637  27.846  1.00  0.00     0.039 A 
ATOM     37  C   UNL A   1      36.861  31.335  27.979  1.00  0.00     0.014 A 
ATOM     38  C   UNL A   1      35.647  29.246  27.893  1.00  0.00     0.014 A 
ATOM     39  C   UNL A   1      38.016  30.649  28.356  1.00  0.00     0.010 A 
ATOM     40  C   UNL A   1      36.765  28.580  28.376  1.00  0.00     0.010 A 
ATOM     41  C   UNL A   1      37.944  29.286  28.670  1.00  0.00    -0.014 A 
BRANCH  41  42
ATOM     42  C   UNL A   1      39.035  28.581  29.395  1.00  0.00     0.031 A 
ATOM     43  C   UNL A   1      39.491  29.087  30.733  1.00  0.00     0.074 A 
ATOM     44  C   UNL A   1      39.712  27.593  28.772  1.00  0.00     0.049 A 
ATOM     45  N   UNL A   1      40.569  28.793  31.410  1.00  0.00    -0.248 NA
ATOM     46  C   UNL A   1      38.642  30.110  31.358  1.00  0.00     0.031 C 
ATOM     47  C   UNL A   1      39.402  27.053  27.445  1.00  0.00     0.029 A 
ATOM     48  N   UNL A   1      40.818  26.879  29.164  1.00  0.00    -0.354 N 
ATOM     49  C   UNL A   1      40.554  29.629  32.522  1.00  0.00     0.074 A 
ATOM     50  C   UNL A   1      39.389  30.480  32.386  1.00  0.00     0.031 C 
ATOM     51  C   UNL A   1      40.269  26.072  27.151  1.00  0.00     0.029 A 
ATOM     52  C   UNL A   1      41.237  25.954  28.233  1.00  0.00     0.049 A 
ATOM     53  H   UNL A   1      41.267  27.014  30.028  1.00  0.00     0.167 HD
ATOM     54  C   UNL A   1      41.420  29.666  33.566  1.00  0.00     0.034 A 
ATOM     55  C   UNL A   1      42.293  25.119  28.244  1.00  0.00     0.034 A 
ATOM     56  C   UNL A   1      42.554  28.783  33.690  1.00  0.00     0.049 A 
ATOM     57  C   UNL A   1      43.226  25.154  29.425  1.00  0.00     0.074 A 
ATOM     58  C   UNL A   1      43.483  28.700  34.712  1.00  0.00     0.029 A 
ATOM     59  N   UNL A   1      42.908  27.816  32.755  1.00  0.00    -0.354 N 
ATOM     60  N   UNL A   1      43.196  25.944  30.474  1.00  0.00    -0.248 NA
ATOM     61  C   UNL A   1      44.331  24.187  29.426  1.00  0.00     0.031 C 
ATOM     62  C   UNL A   1      44.417  27.711  34.379  1.00  0.00     0.029 A 
ATOM     63  C   UNL A   1      44.041  27.137  33.175  1.00  0.00     0.049 A 
ATOM     64  H   UNL A   1      42.425  27.640  31.916  1.00  0.00     0.167 HD
ATOM     65  C   UNL A   1      44.260  25.546  31.276  1.00  0.00     0.074 A 
ATOM     66  C   UNL A   1      44.909  24.446  30.591  1.00  0.00     0.031 C 
ATOM     67  C   UNL A   1      44.662  26.039  32.474  1.00  0.00     0.034 A 
BRANCH  54  68
ATOM     68  C   UNL A   1      41.168  30.715  34.624  1.00  0.00     0.023 A 
ATOM     69  C   UNL A   1      40.088  30.608  35.518  1.00  0.00     0.031 A 
ATOM     70  C   UNL A   1      41.952  31.880  34.683  1.00  0.00     0.131 A 
ATOM     71  C   UNL A   1      39.745  31.693  36.337  1.00  0.00     0.055 A 
ATOM     72  C   UNL A   1      41.669  32.914  35.579  1.00  0.00     0.041 A 
ATOM     73  F   UNL A   1      42.988  32.052  33.845  1.00  0.00    -0.206 F 
ATOM     74  C   UNL A   1      40.543  32.836  36.394  1.00  0.00     0.022 A 
BRANCH  71  75
ATOM     75  S   UNL A   1      38.132  31.664  37.166  1.00  0.00     0.124 S 
ATOM     76  O   UNL A   1      38.465  32.232  38.471  1.00  0.00    -0.237 OA
ATOM     77  O   UNL A   1      37.315  32.500  36.295  1.00  0.00    -0.237 OA
ATOM     78  O   UNL A   1      37.780  30.246  37.183  1.00  0.00    -0.744 OA
ENDBRANCH  71  75
ENDBRANCH  54  68
BRANCH  55  79
ATOM     79  C   UNL A   1      42.527  24.177  27.113  1.00  0.00     0.023 A 
ATOM     80  C   UNL A   1      42.044  22.859  27.170  1.00  0.00     0.031 A 
ATOM     81  C   UNL A   1      43.247  24.568  25.971  1.00  0.00     0.131 A 
ATOM     82  C   UNL A   1      42.321  21.967  26.123  1.00  0.00     0.055 A 
ATOM     83  C   UNL A   1      43.483  23.688  24.912  1.00  0.00     0.041 A 
ATOM     84  F   UNL A   1      43.718  25.820  25.861  1.00  0.00    -0.206 F 
ATOM     85  C   UNL A   1      43.028  22.374  24.989  1.00  0.00     0.022 A 
BRANCH  82  86
ATOM     86  S   UNL A   1      41.794  20.240  26.295  1.00  0.00     0.124 S 
ATOM     87  O   UNL A   1      42.505  19.601  25.193  1.00  0.00    -0.237 OA
ATOM     88  O   UNL A   1      42.261  19.913  27.638  1.00  0.00    -0.237 OA
ATOM     89  O   UNL A   1      40.342  20.311  26.143  1.00  0.00    -0.744 OA
ENDBRANCH  82  86
ENDBRANCH  55  79
BRANCH  67  90
ATOM     90  C   UNL A   1      45.817  25.343  33.140  1.00  0.00     0.023 A 
ATOM     91  C   UNL A   1      45.635  24.198  33.933  1.00  0.00     0.031 A 
ATOM     92  C   UNL A   1      47.122  25.840  32.973  1.00  0.00     0.131 A 
ATOM     93  C   UNL A   1      46.740  23.608  34.565  1.00  0.00     0.055 A 
ATOM     94  C   UNL A   1      48.222  25.223  33.567  1.00  0.00     0.041 A 
ATOM     95  F   UNL A   1      47.345  26.933  32.225  1.00  0.00    -0.206 F 
ATOM     96  C   UNL A   1      48.033  24.105  34.376  1.00  0.00     0.022 A 
BRANCH  93  97
ATOM     97  S   UNL A   1      46.459  22.210  35.685  1.00  0.00     0.124 S 
ATOM     98  O   UNL A   1      47.619  22.291  36.568  1.00  0.00    -0.237 OA
ATOM     99  O   UNL A   1      45.173  22.545  36.288  1.00  0.00    -0.237 OA
ATOM    100  O   UNL A   1      46.440  21.054  34.791  1.00  0.00    -0.744 OA
ENDBRANCH  93  97
ENDBRANCH  67  90
ENDBRANCH  41  42
ENDBRANCH  33  36
ENDBRANCH  31  32
ENDBRANCH   1  31
TORSDOF 17
ENDMDL
