MODEL 1
REMARK VINA RESULT:     -11.2      0.000      0.000
REMARK SMILES COc1cccc([C@@]([NH3+])(C(=O)NCCCNC(=O)c2ccc(-c3c4nc(c(-c5cc(S(=O)(=O)[O-])ccc5F)c5ccc([nH]5)c(-c5cc(S(=O)(=O)[O-])ccc5F)c5nc(c(-c6cc(S(=O)(=O)[O-])ccc6F)c6ccc3[nH]6)C=C5)C=C4)cc2)C(F)(F)F)c1
REMARK SMILES IDX 14 1 13 2 12 3 10 4 11 5 8 7 7 8 3 9 4 10 86 11 5 12 6 13
REMARK SMILES IDX 2 14 1 15 9 16 82 20 83 21 84 22 85 23 15 24 16 25 17 26
REMARK SMILES IDX 18 28 19 29 20 30 81 31 21 32 80 33 22 34 23 35 24 36 74 37
REMARK SMILES IDX 25 38 79 39 73 40 75 41 26 42 78 43 72 44 71 45 27 47 59 48
REMARK SMILES IDX 39 49 58 50 40 51 43 52 57 53 76 54 41 55 42 56 56 58 77 59
REMARK SMILES IDX 44 60 28 61 29 62 37 63 30 64 36 65 38 66 35 67 31 68 32 69
REMARK SMILES IDX 33 70 34 71 60 72 61 73 69 74 62 75 68 76 70 77 67 78 63 79
REMARK SMILES IDX 64 80 65 81 66 82 45 83 46 84 54 85 47 86 53 87 55 88 52 89
REMARK SMILES IDX 48 90 49 91 50 92 51 93
REMARK H PARENT 12 6 9 17 9 18 9 19 16 27 75 46 43 57
REMARK Flexibility Score: inf
ROOT
ATOM      1  C   UNL A   1      32.221  29.246  26.659  1.00  0.00     0.042 C 
ENDROOT
BRANCH   1   2
ATOM      2  C   UNL A   1      31.697  29.728  25.307  1.00  0.00     0.118 C 
BRANCH   2   3
ATOM      3  N   UNL A   1      32.600  29.365  24.226  1.00  0.00    -0.350 N 
ATOM      4  C   UNL A   1      32.515  28.464  23.202  1.00  0.00     0.296 C 
ATOM      5  O   UNL A   1      33.557  28.349  22.544  1.00  0.00    -0.267 OA
ATOM      6  H   UNL A   1      33.443  29.873  24.234  1.00  0.00     0.163 HD
BRANCH   4   7
ATOM      7  C   UNL A   1      31.239  27.630  22.859  1.00  0.00     0.295 C 
BRANCH   7   8
ATOM      8  C   UNL A   1      29.986  28.531  22.716  1.00  0.00     0.035 A 
ATOM      9  C   UNL A   1      28.884  30.629  22.063  1.00  0.00     0.119 A 
ATOM     10  C   UNL A   1      27.654  30.122  22.477  1.00  0.00     0.046 A 
ATOM     11  C   UNL A   1      30.032  29.830  22.164  1.00  0.00     0.057 A 
ATOM     12  C   UNL A   1      27.571  28.847  23.015  1.00  0.00     0.004 A 
ATOM     13  C   UNL A   1      28.727  28.077  23.157  1.00  0.00     0.011 A 
BRANCH   9  14
ATOM     14  O   UNL A   1      28.833  31.918  21.610  1.00  0.00    -0.497 OA
ATOM     15  C   UNL A   1      28.011  32.184  20.482  1.00  0.00     0.278 C 
ENDBRANCH   9  14
ENDBRANCH   7   8
BRANCH   7  16
ATOM     16  N   UNL A   1      31.457  26.856  21.567  1.00  0.00    -0.333 N 
ATOM     17  H   UNL A   1      30.913  27.285  20.819  1.00  0.00     0.345 HD
ATOM     18  H   UNL A   1      31.156  25.889  21.694  1.00  0.00     0.345 HD
ATOM     19  H   UNL A   1      32.446  26.875  21.323  1.00  0.00     0.345 HD
ENDBRANCH   7  16
BRANCH   7  20
ATOM     20  C   UNL A   1      31.134  26.595  24.041  1.00  0.00     0.458 C 
ATOM     21  F   UNL A   1      30.389  26.974  25.097  1.00  0.00    -0.164 F 
ATOM     22  F   UNL A   1      30.599  25.425  23.587  1.00  0.00    -0.164 F 
ATOM     23  F   UNL A   1      32.372  26.265  24.504  1.00  0.00    -0.164 F 
ENDBRANCH   7  20
ENDBRANCH   4   7
ENDBRANCH   2   3
ENDBRANCH   1   2
BRANCH   1  24
ATOM     24  C   UNL A   1      33.621  29.750  26.989  1.00  0.00     0.118 C 
BRANCH  24  25
ATOM     25  N   UNL A   1      33.624  31.160  27.349  1.00  0.00    -0.352 N 
ATOM     26  C   UNL A   1      34.462  31.864  28.180  1.00  0.00     0.251 C 
ATOM     27  H   UNL A   1      32.911  31.696  26.930  1.00  0.00     0.163 HD
ATOM     28  O   UNL A   1      34.139  32.998  28.522  1.00  0.00    -0.269 OA
BRANCH  26  29
ATOM     29  C   UNL A   1      35.728  31.270  28.677  1.00  0.00     0.039 A 
ATOM     30  C   UNL A   1      35.661  30.175  29.544  1.00  0.00     0.014 A 
ATOM     31  C   UNL A   1      36.973  31.811  28.347  1.00  0.00     0.014 A 
ATOM     32  C   UNL A   1      36.835  29.592  30.031  1.00  0.00     0.010 A 
ATOM     33  C   UNL A   1      38.145  31.185  28.771  1.00  0.00     0.010 A 
ATOM     34  C   UNL A   1      38.091  30.074  29.625  1.00  0.00    -0.014 A 
BRANCH  34  35
ATOM     35  C   UNL A   1      39.352  29.443  30.100  1.00  0.00     0.031 A 
ATOM     36  C   UNL A   1      40.085  30.020  31.282  1.00  0.00     0.074 A 
ATOM     37  C   UNL A   1      39.866  28.388  29.436  1.00  0.00     0.049 A 
ATOM     38  N   UNL A   1      41.241  29.676  31.790  1.00  0.00    -0.248 NA
ATOM     39  C   UNL A   1      39.442  31.151  31.969  1.00  0.00     0.031 C 
ATOM     40  C   UNL A   1      39.265  27.755  28.259  1.00  0.00     0.029 A 
ATOM     41  N   UNL A   1      41.014  27.666  29.648  1.00  0.00    -0.354 N 
ATOM     42  C   UNL A   1      41.472  30.555  32.844  1.00  0.00     0.074 A 
ATOM     43  C   UNL A   1      40.360  31.482  32.865  1.00  0.00     0.031 C 
ATOM     44  C   UNL A   1      40.040  26.731  27.865  1.00  0.00     0.029 A 
ATOM     45  C   UNL A   1      41.215  26.661  28.728  1.00  0.00     0.049 A 
ATOM     46  H   UNL A   1      41.638  27.849  30.387  1.00  0.00     0.167 HD
ATOM     47  C   UNL A   1      42.502  30.573  33.726  1.00  0.00     0.034 A 
ATOM     48  C   UNL A   1      42.237  25.793  28.585  1.00  0.00     0.034 A 
ATOM     49  C   UNL A   1      43.596  29.633  33.703  1.00  0.00     0.049 A 
ATOM     50  C   UNL A   1      43.384  25.850  29.563  1.00  0.00     0.074 A 
ATOM     51  C   UNL A   1      44.669  29.536  34.574  1.00  0.00     0.029 A 
ATOM     52  N   UNL A   1      43.760  28.626  32.762  1.00  0.00    -0.354 N 
ATOM     53  N   UNL A   1      43.567  26.667  30.576  1.00  0.00    -0.248 NA
ATOM     54  C   UNL A   1      44.456  24.862  29.387  1.00  0.00     0.031 C 
ATOM     55  C   UNL A   1      45.509  28.512  34.125  1.00  0.00     0.029 A 
ATOM     56  C   UNL A   1      44.927  27.920  33.016  1.00  0.00     0.049 A 
ATOM     57  H   UNL A   1      43.139  28.440  32.021  1.00  0.00     0.167 HD
ATOM     58  C   UNL A   1      44.757  26.266  31.175  1.00  0.00     0.074 A 
ATOM     59  C   UNL A   1      45.241  25.128  30.421  1.00  0.00     0.031 C 
ATOM     60  C   UNL A   1      45.396  26.788  32.253  1.00  0.00     0.034 A 
BRANCH  47  61
ATOM     61  C   UNL A   1      42.503  31.660  34.774  1.00  0.00     0.023 A 
ATOM     62  C   UNL A   1      41.602  31.644  35.853  1.00  0.00     0.031 A 
ATOM     63  C   UNL A   1      43.408  32.734  34.690  1.00  0.00     0.131 A 
ATOM     64  C   UNL A   1      41.582  32.710  36.765  1.00  0.00     0.055 A 
ATOM     65  C   UNL A   1      43.434  33.752  35.644  1.00  0.00     0.041 A 
ATOM     66  F   UNL A   1      44.280  32.814  33.671  1.00  0.00    -0.206 F 
ATOM     67  C   UNL A   1      42.507  33.752  36.683  1.00  0.00     0.022 A 
BRANCH  64  68
ATOM     68  S   UNL A   1      40.243  32.780  37.988  1.00  0.00     0.124 S 
ATOM     69  O   UNL A   1      39.259  31.875  37.397  1.00  0.00    -0.237 OA
ATOM     70  O   UNL A   1      40.898  32.305  39.201  1.00  0.00    -0.237 OA
ATOM     71  O   UNL A   1      39.858  34.189  37.996  1.00  0.00    -0.744 OA
ENDBRANCH  64  68
ENDBRANCH  47  61
BRANCH  48  72
ATOM     72  C   UNL A   1      42.243  24.804  27.468  1.00  0.00     0.023 A 
ATOM     73  C   UNL A   1      41.536  23.595  27.570  1.00  0.00     0.031 A 
ATOM     74  C   UNL A   1      43.006  25.024  26.309  1.00  0.00     0.131 A 
ATOM     75  C   UNL A   1      41.650  22.630  26.557  1.00  0.00     0.055 A 
ATOM     76  C   UNL A   1      43.071  24.085  25.277  1.00  0.00     0.041 A 
ATOM     77  F   UNL A   1      43.700  26.164  26.157  1.00  0.00    -0.206 F 
ATOM     78  C   UNL A   1      42.403  22.871  25.406  1.00  0.00     0.022 A 
BRANCH  75  79
ATOM     79  S   UNL A   1      40.882  21.007  26.817  1.00  0.00     0.124 S 
ATOM     80  O   UNL A   1      41.861  20.113  26.208  1.00  0.00    -0.237 OA
ATOM     81  O   UNL A   1      40.778  20.952  28.271  1.00  0.00    -0.237 OA
ATOM     82  O   UNL A   1      39.610  21.116  26.106  1.00  0.00    -0.744 OA
ENDBRANCH  75  79
ENDBRANCH  48  72
BRANCH  60  83
ATOM     83  C   UNL A   1      46.656  26.094  32.707  1.00  0.00     0.023 A 
ATOM     84  C   UNL A   1      46.625  25.033  33.629  1.00  0.00     0.031 A 
ATOM     85  C   UNL A   1      47.906  26.511  32.216  1.00  0.00     0.131 A 
ATOM     86  C   UNL A   1      47.827  24.462  34.076  1.00  0.00     0.055 A 
ATOM     87  C   UNL A   1      49.094  25.900  32.621  1.00  0.00     0.041 A 
ATOM     88  F   UNL A   1      47.992  27.519  31.334  1.00  0.00    -0.206 F 
ATOM     89  C   UNL A   1      49.059  24.878  33.565  1.00  0.00     0.022 A 
BRANCH  86  90
ATOM     90  S   UNL A   1      47.764  23.225  35.400  1.00  0.00     0.124 S 
ATOM     91  O   UNL A   1      46.343  23.213  35.738  1.00  0.00    -0.237 OA
ATOM     92  O   UNL A   1      48.270  22.029  34.734  1.00  0.00    -0.237 OA
ATOM     93  O   UNL A   1      48.641  23.779  36.429  1.00  0.00    -0.744 OA
ENDBRANCH  86  90
ENDBRANCH  60  83
ENDBRANCH  34  35
ENDBRANCH  26  29
ENDBRANCH  24  25
ENDBRANCH   1  24
TORSDOF 17
ENDMDL
MODEL 2
REMARK VINA RESULT:     -11.1      6.180      9.575
REMARK SMILES COc1cccc([C@@]([NH3+])(C(=O)NCCCNC(=O)c2ccc(-c3c4nc(c(-c5cc(S(=O)(=O)[O-])ccc5F)c5ccc([nH]5)c(-c5cc(S(=O)(=O)[O-])ccc5F)c5nc(c(-c6cc(S(=O)(=O)[O-])ccc6F)c6ccc3[nH]6)C=C5)C=C4)cc2)C(F)(F)F)c1
REMARK SMILES IDX 14 1 13 2 12 3 10 4 11 5 8 7 7 8 3 9 4 10 86 11 5 12 6 13
REMARK SMILES IDX 2 14 1 15 9 16 82 20 83 21 84 22 85 23 15 24 16 25 17 26
REMARK SMILES IDX 18 28 19 29 20 30 81 31 21 32 80 33 22 34 23 35 24 36 74 37
REMARK SMILES IDX 25 38 79 39 73 40 75 41 26 42 78 43 72 44 71 45 27 47 59 48
REMARK SMILES IDX 39 49 58 50 40 51 43 52 57 53 76 54 41 55 42 56 56 58 77 59
REMARK SMILES IDX 44 60 28 61 29 62 37 63 30 64 36 65 38 66 35 67 31 68 32 69
REMARK SMILES IDX 33 70 34 71 60 72 61 73 69 74 62 75 68 76 70 77 67 78 63 79
REMARK SMILES IDX 64 80 65 81 66 82 45 83 46 84 54 85 47 86 53 87 55 88 52 89
REMARK SMILES IDX 48 90 49 91 50 92 51 93
REMARK H PARENT 12 6 9 17 9 18 9 19 16 27 75 46 43 57
REMARK Flexibility Score: inf
ROOT
ATOM      1  C   UNL A   1      37.355  19.636  25.000  1.00  0.00     0.042 C 
ENDROOT
BRANCH   1   2
ATOM      2  C   UNL A   1      36.182  20.590  24.780  1.00  0.00     0.118 C 
BRANCH   2   3
ATOM      3  N   UNL A   1      35.660  21.092  26.041  1.00  0.00    -0.350 N 
ATOM      4  C   UNL A   1      34.420  21.508  26.439  1.00  0.00     0.296 C 
ATOM      5  O   UNL A   1      34.393  21.996  27.576  1.00  0.00    -0.267 OA
ATOM      6  H   UNL A   1      36.338  21.144  26.752  1.00  0.00     0.163 HD
BRANCH   4   7
ATOM      7  C   UNL A   1      33.128  21.400  25.568  1.00  0.00     0.295 C 
BRANCH   7   8
ATOM      8  C   UNL A   1      32.909  19.957  25.044  1.00  0.00     0.035 A 
ATOM      9  C   UNL A   1      32.718  17.530  25.382  1.00  0.00     0.119 A 
ATOM     10  C   UNL A   1      32.495  17.349  24.019  1.00  0.00     0.046 A 
ATOM     11  C   UNL A   1      32.902  18.825  25.888  1.00  0.00     0.057 A 
ATOM     12  C   UNL A   1      32.486  18.440  23.163  1.00  0.00     0.004 A 
ATOM     13  C   UNL A   1      32.719  19.720  23.668  1.00  0.00     0.011 A 
BRANCH   9  14
ATOM     14  O   UNL A   1      32.762  16.367  26.100  1.00  0.00    -0.497 OA
ATOM     15  C   UNL A   1      32.936  15.157  25.377  1.00  0.00     0.278 C 
ENDBRANCH   9  14
ENDBRANCH   7   8
BRANCH   7  16
ATOM     16  N   UNL A   1      31.917  21.833  26.381  1.00  0.00    -0.333 N 
ATOM     17  H   UNL A   1      31.770  22.835  26.264  1.00  0.00     0.345 HD
ATOM     18  H   UNL A   1      32.077  21.625  27.367  1.00  0.00     0.345 HD
ATOM     19  H   UNL A   1      31.093  21.328  26.058  1.00  0.00     0.345 HD
ENDBRANCH   7  16
BRANCH   7  20
ATOM     20  C   UNL A   1      33.354  22.455  24.422  1.00  0.00     0.458 C 
ATOM     21  F   UNL A   1      33.940  21.995  23.299  1.00  0.00    -0.164 F 
ATOM     22  F   UNL A   1      32.158  22.993  24.044  1.00  0.00    -0.164 F 
ATOM     23  F   UNL A   1      34.092  23.507  24.874  1.00  0.00    -0.164 F 
ENDBRANCH   7  20
ENDBRANCH   4   7
ENDBRANCH   2   3
ENDBRANCH   1   2
BRANCH   1  24
ATOM     24  C   UNL A   1      38.622  20.324  25.494  1.00  0.00     0.118 C 
BRANCH  24  25
ATOM     25  N   UNL A   1      39.675  19.371  25.809  1.00  0.00    -0.352 N 
ATOM     26  C   UNL A   1      40.995  19.578  26.126  1.00  0.00     0.251 C 
ATOM     27  H   UNL A   1      39.396  18.426  25.793  1.00  0.00     0.163 HD
ATOM     28  O   UNL A   1      41.761  18.617  26.126  1.00  0.00    -0.269 OA
BRANCH  26  29
ATOM     29  C   UNL A   1      41.506  20.933  26.447  1.00  0.00     0.039 A 
ATOM     30  C   UNL A   1      41.804  21.805  25.394  1.00  0.00     0.014 A 
ATOM     31  C   UNL A   1      41.747  21.335  27.763  1.00  0.00     0.014 A 
ATOM     32  C   UNL A   1      42.287  23.089  25.663  1.00  0.00     0.010 A 
ATOM     33  C   UNL A   1      42.157  22.641  28.034  1.00  0.00     0.010 A 
ATOM     34  C   UNL A   1      42.440  23.531  26.988  1.00  0.00    -0.014 A 
BRANCH  34  35
ATOM     35  C   UNL A   1      42.914  24.908  27.295  1.00  0.00     0.031 A 
ATOM     36  C   UNL A   1      41.992  25.890  27.968  1.00  0.00     0.074 A 
ATOM     37  C   UNL A   1      44.151  25.290  26.920  1.00  0.00     0.049 A 
ATOM     38  N   UNL A   1      42.182  27.157  28.234  1.00  0.00    -0.248 NA
ATOM     39  C   UNL A   1      40.671  25.385  28.371  1.00  0.00     0.031 C 
ATOM     40  C   UNL A   1      45.129  24.439  26.236  1.00  0.00     0.029 A 
ATOM     41  N   UNL A   1      44.798  26.494  27.051  1.00  0.00    -0.354 N 
ATOM     42  C   UNL A   1      41.003  27.605  28.822  1.00  0.00     0.074 A 
ATOM     43  C   UNL A   1      40.085  26.485  28.821  1.00  0.00     0.031 C 
ATOM     44  C   UNL A   1      46.253  25.142  26.025  1.00  0.00     0.029 A 
ATOM     45  C   UNL A   1      46.065  26.505  26.512  1.00  0.00     0.049 A 
ATOM     46  H   UNL A   1      44.394  27.278  27.489  1.00  0.00     0.167 HD
ATOM     47  C   UNL A   1      40.719  28.828  29.335  1.00  0.00     0.034 A 
ATOM     48  C   UNL A   1      46.966  27.502  26.407  1.00  0.00     0.034 A 
ATOM     49  C   UNL A   1      41.650  29.931  29.345  1.00  0.00     0.049 A 
ATOM     50  C   UNL A   1      46.618  28.860  26.964  1.00  0.00     0.074 A 
ATOM     51  C   UNL A   1      41.480  31.198  29.876  1.00  0.00     0.029 A 
ATOM     52  N   UNL A   1      42.925  29.900  28.797  1.00  0.00    -0.354 N 
ATOM     53  N   UNL A   1      45.509  29.255  27.548  1.00  0.00    -0.248 NA
ATOM     54  C   UNL A   1      47.645  29.905  26.857  1.00  0.00     0.031 C 
ATOM     55  C   UNL A   1      42.626  31.950  29.597  1.00  0.00     0.029 A 
ATOM     56  C   UNL A   1      43.543  31.132  28.956  1.00  0.00     0.049 A 
ATOM     57  H   UNL A   1      43.332  29.118  28.359  1.00  0.00     0.167 HD
ATOM     58  C   UNL A   1      45.723  30.582  27.907  1.00  0.00     0.074 A 
ATOM     59  C   UNL A   1      47.068  30.917  27.488  1.00  0.00     0.031 C 
ATOM     60  C   UNL A   1      44.884  31.450  28.530  1.00  0.00     0.034 A 
BRANCH  47  61
ATOM     61  C   UNL A   1      39.339  29.040  29.908  1.00  0.00     0.023 A 
ATOM     62  C   UNL A   1      38.312  29.636  29.156  1.00  0.00     0.031 A 
ATOM     63  C   UNL A   1      39.045  28.651  31.228  1.00  0.00     0.131 A 
ATOM     64  C   UNL A   1      37.064  29.885  29.747  1.00  0.00     0.055 A 
ATOM     65  C   UNL A   1      37.778  28.831  31.784  1.00  0.00     0.041 A 
ATOM     66  F   UNL A   1      39.991  28.093  32.002  1.00  0.00    -0.206 F 
ATOM     67  C   UNL A   1      36.781  29.465  31.048  1.00  0.00     0.022 A 
BRANCH  64  68
ATOM     68  S   UNL A   1      35.855  30.882  28.832  1.00  0.00     0.124 S 
ATOM     69  O   UNL A   1      35.150  31.558  29.919  1.00  0.00    -0.237 OA
ATOM     70  O   UNL A   1      36.705  31.726  28.000  1.00  0.00    -0.237 OA
ATOM     71  O   UNL A   1      35.065  29.887  28.110  1.00  0.00    -0.744 OA
ENDBRANCH  64  68
ENDBRANCH  47  61
BRANCH  48  72
ATOM     72  C   UNL A   1      48.279  27.273  25.738  1.00  0.00     0.023 A 
ATOM     73  C   UNL A   1      48.425  27.452  24.352  1.00  0.00     0.031 A 
ATOM     74  C   UNL A   1      49.392  26.813  26.462  1.00  0.00     0.131 A 
ATOM     75  C   UNL A   1      49.637  27.119  23.727  1.00  0.00     0.055 A 
ATOM     76  C   UNL A   1      50.614  26.538  25.844  1.00  0.00     0.041 A 
ATOM     77  F   UNL A   1      49.311  26.627  27.789  1.00  0.00    -0.206 F 
ATOM     78  C   UNL A   1      50.736  26.675  24.465  1.00  0.00     0.022 A 
BRANCH  75  79
ATOM     79  S   UNL A   1      49.721  27.176  21.916  1.00  0.00     0.124 S 
ATOM     80  O   UNL A   1      48.660  26.250  21.538  1.00  0.00    -0.237 OA
ATOM     81  O   UNL A   1      49.468  28.588  21.647  1.00  0.00    -0.237 OA
ATOM     82  O   UNL A   1      51.079  26.722  21.625  1.00  0.00    -0.744 OA
ENDBRANCH  75  79
ENDBRANCH  48  72
BRANCH  60  83
ATOM     83  C   UNL A   1      45.426  32.823  28.840  1.00  0.00     0.023 A 
ATOM     84  C   UNL A   1      45.204  33.916  27.983  1.00  0.00     0.031 A 
ATOM     85  C   UNL A   1      46.186  33.035  30.003  1.00  0.00     0.131 A 
ATOM     86  C   UNL A   1      45.785  35.160  28.276  1.00  0.00     0.055 A 
ATOM     87  C   UNL A   1      46.712  34.289  30.318  1.00  0.00     0.041 A 
ATOM     88  F   UNL A   1      46.428  32.026  30.855  1.00  0.00    -0.206 F 
ATOM     89  C   UNL A   1      46.523  35.357  29.445  1.00  0.00     0.022 A 
BRANCH  86  90
ATOM     90  S   UNL A   1      45.635  36.499  27.061  1.00  0.00     0.124 S 
ATOM     91  O   UNL A   1      46.403  35.975  25.935  1.00  0.00    -0.237 OA
ATOM     92  O   UNL A   1      44.191  36.580  26.864  1.00  0.00    -0.237 OA
ATOM     93  O   UNL A   1      46.232  37.646  27.740  1.00  0.00    -0.744 OA
ENDBRANCH  86  90
ENDBRANCH  60  83
ENDBRANCH  34  35
ENDBRANCH  26  29
ENDBRANCH  24  25
ENDBRANCH   1  24
TORSDOF 17
ENDMDL
MODEL 3
REMARK VINA RESULT:     -11.1      1.834      2.194
REMARK SMILES COc1cccc([C@@]([NH3+])(C(=O)NCCCNC(=O)c2ccc(-c3c4nc(c(-c5cc(S(=O)(=O)[O-])ccc5F)c5ccc([nH]5)c(-c5cc(S(=O)(=O)[O-])ccc5F)c5nc(c(-c6cc(S(=O)(=O)[O-])ccc6F)c6ccc3[nH]6)C=C5)C=C4)cc2)C(F)(F)F)c1
REMARK SMILES IDX 14 1 13 2 12 3 10 4 11 5 8 7 7 8 3 9 4 10 86 11 5 12 6 13
REMARK SMILES IDX 2 14 1 15 9 16 82 20 83 21 84 22 85 23 15 24 16 25 17 26
REMARK SMILES IDX 18 28 19 29 20 30 81 31 21 32 80 33 22 34 23 35 24 36 74 37
REMARK SMILES IDX 25 38 79 39 73 40 75 41 26 42 78 43 72 44 71 45 27 47 59 48
REMARK SMILES IDX 39 49 58 50 40 51 43 52 57 53 76 54 41 55 42 56 56 58 77 59
REMARK SMILES IDX 44 60 28 61 29 62 37 63 30 64 36 65 38 66 35 67 31 68 32 69
REMARK SMILES IDX 33 70 34 71 60 72 61 73 69 74 62 75 68 76 70 77 67 78 63 79
REMARK SMILES IDX 64 80 65 81 66 82 45 83 46 84 54 85 47 86 53 87 55 88 52 89
REMARK SMILES IDX 48 90 49 91 50 92 51 93
REMARK H PARENT 12 6 9 17 9 18 9 19 16 27 75 46 43 57
REMARK Flexibility Score: inf
ROOT
ATOM      1  C   UNL A   1      32.213  29.542  26.784  1.00  0.00     0.042 C 
ENDROOT
BRANCH   1   2
ATOM      2  C   UNL A   1      31.657  29.839  25.393  1.00  0.00     0.118 C 
BRANCH   2   3
ATOM      3  N   UNL A   1      32.619  29.509  24.353  1.00  0.00    -0.350 N 
ATOM      4  C   UNL A   1      32.603  28.621  23.314  1.00  0.00     0.296 C 
ATOM      5  O   UNL A   1      33.679  28.534  22.708  1.00  0.00    -0.267 OA
ATOM      6  H   UNL A   1      33.451  30.031  24.410  1.00  0.00     0.163 HD
BRANCH   4   7
ATOM      7  C   UNL A   1      31.362  27.768  22.897  1.00  0.00     0.295 C 
BRANCH   7   8
ATOM      8  C   UNL A   1      30.108  28.652  22.671  1.00  0.00     0.035 A 
ATOM      9  C   UNL A   1      29.016  30.713  21.898  1.00  0.00     0.119 A 
ATOM     10  C   UNL A   1      27.776  30.212  22.284  1.00  0.00     0.046 A 
ATOM     11  C   UNL A   1      30.166  29.930  22.073  1.00  0.00     0.057 A 
ATOM     12  C   UNL A   1      27.682  28.957  22.867  1.00  0.00     0.004 A 
ATOM     13  C   UNL A   1      28.837  28.204  23.082  1.00  0.00     0.011 A 
BRANCH   9  14
ATOM     14  O   UNL A   1      28.973  31.984  21.393  1.00  0.00    -0.497 OA
ATOM     15  C   UNL A   1      27.794  32.375  20.703  1.00  0.00     0.278 C 
ENDBRANCH   9  14
ENDBRANCH   7   8
BRANCH   7  16
ATOM     16  N   UNL A   1      31.670  26.992  21.625  1.00  0.00    -0.333 N 
ATOM     17  H   UNL A   1      32.643  26.688  21.640  1.00  0.00     0.345 HD
ATOM     18  H   UNL A   1      31.514  27.592  20.814  1.00  0.00     0.345 HD
ATOM     19  H   UNL A   1      31.059  26.178  21.567  1.00  0.00     0.345 HD
ENDBRANCH   7  16
BRANCH   7  20
ATOM     20  C   UNL A   1      31.198  26.737  24.075  1.00  0.00     0.458 C 
ATOM     21  F   UNL A   1      30.392  27.115  25.086  1.00  0.00    -0.164 F 
ATOM     22  F   UNL A   1      30.695  25.562  23.596  1.00  0.00    -0.164 F 
ATOM     23  F   UNL A   1      32.409  26.416  24.608  1.00  0.00    -0.164 F 
ENDBRANCH   7  20
ENDBRANCH   4   7
ENDBRANCH   2   3
ENDBRANCH   1   2
BRANCH   1  24
ATOM     24  C   UNL A   1      33.643  30.025  26.991  1.00  0.00     0.118 C 
BRANCH  24  25
ATOM     25  N   UNL A   1      33.692  31.387  27.503  1.00  0.00    -0.352 N 
ATOM     26  C   UNL A   1      34.536  31.961  28.422  1.00  0.00     0.251 C 
ATOM     27  H   UNL A   1      33.011  31.993  27.131  1.00  0.00     0.163 HD
ATOM     28  O   UNL A   1      34.249  33.064  28.880  1.00  0.00    -0.269 OA
BRANCH  26  29
ATOM     29  C   UNL A   1      35.766  31.266  28.876  1.00  0.00     0.039 A 
ATOM     30  C   UNL A   1      36.996  31.659  28.339  1.00  0.00     0.014 A 
ATOM     31  C   UNL A   1      35.717  30.199  29.777  1.00  0.00     0.014 A 
ATOM     32  C   UNL A   1      38.174  31.024  28.746  1.00  0.00     0.010 A 
ATOM     33  C   UNL A   1      36.897  29.616  30.238  1.00  0.00     0.010 A 
ATOM     34  C   UNL A   1      38.139  30.016  29.723  1.00  0.00    -0.014 A 
BRANCH  34  35
ATOM     35  C   UNL A   1      39.385  29.355  30.198  1.00  0.00     0.031 A 
ATOM     36  C   UNL A   1      40.098  29.879  31.417  1.00  0.00     0.074 A 
ATOM     37  C   UNL A   1      39.903  28.322  29.505  1.00  0.00     0.049 A 
ATOM     38  N   UNL A   1      41.241  29.505  31.934  1.00  0.00    -0.248 NA
ATOM     39  C   UNL A   1      39.451  30.989  32.134  1.00  0.00     0.031 C 
ATOM     40  C   UNL A   1      39.321  27.741  28.292  1.00  0.00     0.029 A 
ATOM     41  N   UNL A   1      41.041  27.581  29.711  1.00  0.00    -0.354 N 
ATOM     42  C   UNL A   1      41.458  30.341  33.026  1.00  0.00     0.074 A 
ATOM     43  C   UNL A   1      40.353  31.276  33.061  1.00  0.00     0.031 C 
ATOM     44  C   UNL A   1      40.095  26.726  27.875  1.00  0.00     0.029 A 
ATOM     45  C   UNL A   1      41.252  26.611  28.757  1.00  0.00     0.049 A 
ATOM     46  H   UNL A   1      41.650  27.730  30.469  1.00  0.00     0.167 HD
ATOM     47  C   UNL A   1      42.470  30.315  33.928  1.00  0.00     0.034 A 
ATOM     48  C   UNL A   1      42.269  25.740  28.601  1.00  0.00     0.034 A 
ATOM     49  C   UNL A   1      43.556  29.366  33.891  1.00  0.00     0.049 A 
ATOM     50  C   UNL A   1      43.396  25.748  29.604  1.00  0.00     0.074 A 
ATOM     51  C   UNL A   1      44.610  29.226  34.778  1.00  0.00     0.029 A 
ATOM     52  N   UNL A   1      43.730  28.395  32.915  1.00  0.00    -0.354 N 
ATOM     53  N   UNL A   1      43.565  26.523  30.651  1.00  0.00    -0.248 NA
ATOM     54  C   UNL A   1      44.463  24.758  29.411  1.00  0.00     0.031 C 
ATOM     55  C   UNL A   1      45.451  28.212  34.307  1.00  0.00     0.029 A 
ATOM     56  C   UNL A   1      44.886  27.669  33.165  1.00  0.00     0.049 A 
ATOM     57  H   UNL A   1      43.123  28.243  32.155  1.00  0.00     0.167 HD
ATOM     58  C   UNL A   1      44.740  26.089  31.257  1.00  0.00     0.074 A 
ATOM     59  C   UNL A   1      45.229  24.976  30.470  1.00  0.00     0.031 C 
ATOM     60  C   UNL A   1      45.360  26.563  32.368  1.00  0.00     0.034 A 
BRANCH  47  61
ATOM     61  C   UNL A   1      42.458  31.361  35.017  1.00  0.00     0.023 A 
ATOM     62  C   UNL A   1      43.182  32.560  34.897  1.00  0.00     0.031 A 
ATOM     63  C   UNL A   1      41.722  31.154  36.198  1.00  0.00     0.131 A 
ATOM     64  C   UNL A   1      43.207  33.474  35.961  1.00  0.00     0.055 A 
ATOM     65  C   UNL A   1      41.690  32.102  37.222  1.00  0.00     0.041 A 
ATOM     66  F   UNL A   1      41.026  30.019  36.379  1.00  0.00    -0.206 F 
ATOM     67  C   UNL A   1      42.447  33.266  37.113  1.00  0.00     0.022 A 
BRANCH  64  68
ATOM     68  S   UNL A   1      44.351  34.879  35.870  1.00  0.00     0.124 S 
ATOM     69  O   UNL A   1      43.820  35.616  34.725  1.00  0.00    -0.237 OA
ATOM     70  O   UNL A   1      44.178  35.512  37.172  1.00  0.00    -0.237 OA
ATOM     71  O   UNL A   1      45.651  34.250  35.649  1.00  0.00    -0.744 OA
ENDBRANCH  64  68
ENDBRANCH  47  61
BRANCH  48  72
ATOM     72  C   UNL A   1      42.290  24.795  27.447  1.00  0.00     0.023 A 
ATOM     73  C   UNL A   1      41.514  23.624  27.459  1.00  0.00     0.031 A 
ATOM     74  C   UNL A   1      43.131  25.016  26.343  1.00  0.00     0.131 A 
ATOM     75  C   UNL A   1      41.638  22.692  26.415  1.00  0.00     0.055 A 
ATOM     76  C   UNL A   1      43.208  24.114  25.280  1.00  0.00     0.041 A 
ATOM     77  F   UNL A   1      43.892  26.121  26.278  1.00  0.00    -0.206 F 
ATOM     78  C   UNL A   1      42.470  22.935  25.320  1.00  0.00     0.022 A 
BRANCH  75  79
ATOM     79  S   UNL A   1      40.771  21.106  26.564  1.00  0.00     0.124 S 
ATOM     80  O   UNL A   1      40.774  20.897  28.007  1.00  0.00    -0.237 OA
ATOM     81  O   UNL A   1      39.477  21.412  25.962  1.00  0.00    -0.237 OA
ATOM     82  O   UNL A   1      41.611  20.187  25.798  1.00  0.00    -0.744 OA
ENDBRANCH  75  79
ENDBRANCH  48  72
BRANCH  60  83
ATOM     83  C   UNL A   1      46.605  25.840  32.819  1.00  0.00     0.023 A 
ATOM     84  C   UNL A   1      47.859  26.091  32.235  1.00  0.00     0.031 A 
ATOM     85  C   UNL A   1      46.529  24.877  33.840  1.00  0.00     0.131 A 
ATOM     86  C   UNL A   1      48.978  25.345  32.638  1.00  0.00     0.055 A 
ATOM     87  C   UNL A   1      47.657  24.180  34.278  1.00  0.00     0.041 A 
ATOM     88  F   UNL A   1      45.356  24.598  34.432  1.00  0.00    -0.206 F 
ATOM     89  C   UNL A   1      48.887  24.403  33.666  1.00  0.00     0.022 A 
BRANCH  86  90
ATOM     90  S   UNL A   1      50.538  25.561  31.740  1.00  0.00     0.124 S 
ATOM     91  O   UNL A   1      50.400  26.915  31.212  1.00  0.00    -0.237 OA
ATOM     92  O   UNL A   1      51.532  25.386  32.794  1.00  0.00    -0.237 OA
ATOM     93  O   UNL A   1      50.506  24.498  30.737  1.00  0.00    -0.744 OA
ENDBRANCH  86  90
ENDBRANCH  60  83
ENDBRANCH  34  35
ENDBRANCH  26  29
ENDBRANCH  24  25
ENDBRANCH   1  24
TORSDOF 17
ENDMDL
