MODEL 1
REMARK VINA RESULT:     -12.6      0.000      0.000
REMARK SMILES COC(=O)c1ccc2c(c1)=N[C@H](c1cn(CCC(=O)NCCCNC(=O)c3ccc(-c4c5nc(c(-c6cc(S(=O)(=O)[O-])ccc6F)c6ccc([nH]6)c(-c6cc(S(=O)(=O)[O-])ccc6F)c6nc(c(-c7cc(S(=O)(=O)[O-])ccc7F)c7ccc4[nH]7)C=C6)C=C5)cc3)c3ccccc13)N=2
REMARK SMILES IDX 21 1 20 2 18 3 19 4 17 6 16 7 15 8 13 9 14 10 95 11 90 12
REMARK SMILES IDX 94 13 91 14 93 15 92 16 12 17 5 18 6 19 10 20 7 21 9 22 8 23
REMARK SMILES IDX 11 24 96 25 3 26 4 27 2 28 1 29 22 30 23 31 24 32 25 33
REMARK SMILES IDX 26 35 27 36 28 37 89 38 29 39 88 40 30 41 31 42 32 43 82 44
REMARK SMILES IDX 33 45 87 46 81 47 83 48 34 49 86 50 80 51 79 52 35 54 67 55
REMARK SMILES IDX 47 56 66 57 48 58 51 59 65 60 84 61 49 62 50 63 64 65 85 66
REMARK SMILES IDX 52 67 36 68 37 69 45 70 38 71 44 72 46 73 43 74 39 75 40 76
REMARK SMILES IDX 41 77 42 78 68 79 69 80 77 81 70 82 76 83 78 84 75 85 71 86
REMARK SMILES IDX 72 87 73 88 74 89 53 90 54 91 62 92 55 93 61 94 63 95 60 96
REMARK SMILES IDX 56 97 57 98 58 99 59 100
REMARK H PARENT 20 5 24 34 83 53 51 64
REMARK Flexibility Score: inf
ROOT
ATOM      1  C   UNL A   1      31.973  28.690  26.541  1.00  0.00     0.117 C 
ENDROOT
BRANCH   1   2
ATOM      2  N   UNL A   1      31.384  29.875  25.913  1.00  0.00    -0.356 N 
ATOM      3  C   UNL A   1      30.812  30.115  24.693  1.00  0.00     0.221 C 
ATOM      4  O   UNL A   1      30.181  31.172  24.571  1.00  0.00    -0.275 OA
ATOM      5  H   UNL A   1      31.405  30.671  26.493  1.00  0.00     0.163 HD
BRANCH   3   6
ATOM      6  C   UNL A   1      30.852  29.128  23.540  1.00  0.00     0.122 C 
BRANCH   6   7
ATOM      7  C   UNL A   1      29.593  28.210  23.504  1.00  0.00     0.132 C 
BRANCH   7   8
ATOM      8  N   UNL A   1      29.888  26.780  23.297  1.00  0.00    -0.347 N 
ATOM      9  C   UNL A   1      30.638  25.400  24.850  1.00  0.00     0.024 A 
ATOM     10  C   UNL A   1      29.473  25.892  24.254  1.00  0.00     0.094 A 
ATOM     11  C   UNL A   1      31.720  26.042  24.141  1.00  0.00     0.007 A 
ATOM     12  C   UNL A   1      31.124  26.302  22.914  1.00  0.00     0.048 A 
ATOM     13  C   UNL A   1      33.115  26.082  24.127  1.00  0.00     0.011 A 
ATOM     14  C   UNL A   1      31.737  25.852  21.735  1.00  0.00     0.027 A 
ATOM     15  C   UNL A   1      33.817  25.805  22.963  1.00  0.00     0.001 A 
ATOM     16  C   UNL A   1      33.102  25.524  21.812  1.00  0.00     0.002 A 
BRANCH   9  17
ATOM     17  C   UNL A   1      30.565  24.233  25.793  1.00  0.00     0.255 C 
ATOM     18  C   UNL A   1      33.969  21.321  25.913  1.00  0.00     0.062 A 
ATOM     19  C   UNL A   1      33.911  21.695  27.320  1.00  0.00     0.018 A 
ATOM     20  C   UNL A   1      32.978  21.651  25.066  1.00  0.00     0.046 A 
ATOM     21  C   UNL A   1      33.048  22.597  27.809  1.00  0.00     0.031 A 
ATOM     22  C   UNL A   1      31.975  22.602  25.550  1.00  0.00     0.087 A 
ATOM     23  C   UNL A   1      32.149  23.246  26.863  1.00  0.00     0.086 A 
ATOM     24  N   UNL A   1      30.941  23.058  24.946  1.00  0.00    -0.252 NA
ATOM     25  N   UNL A   1      31.429  24.308  26.996  1.00  0.00    -0.252 NA
BRANCH  18  26
ATOM     26  C   UNL A   1      35.092  20.515  25.338  1.00  0.00     0.337 C 
ATOM     27  O   UNL A   1      34.943  19.468  24.731  1.00  0.00    -0.246 OA
BRANCH  26  28
ATOM     28  O   UNL A   1      36.277  21.152  25.528  1.00  0.00    -0.465 OA
ATOM     29  C   UNL A   1      36.898  21.677  24.349  1.00  0.00     0.282 C 
ENDBRANCH  26  28
ENDBRANCH  18  26
ENDBRANCH   9  17
ENDBRANCH   7   8
ENDBRANCH   6   7
ENDBRANCH   3   6
ENDBRANCH   1   2
BRANCH   1  30
ATOM     30  C   UNL A   1      33.477  28.732  26.911  1.00  0.00     0.042 C 
BRANCH  30  31
ATOM     31  C   UNL A   1      34.210  30.079  26.997  1.00  0.00     0.118 C 
BRANCH  31  32
ATOM     32  N   UNL A   1      34.018  30.907  28.165  1.00  0.00    -0.352 N 
ATOM     33  C   UNL A   1      34.956  31.664  28.841  1.00  0.00     0.251 C 
ATOM     34  H   UNL A   1      33.102  30.937  28.525  1.00  0.00     0.163 HD
ATOM     35  O   UNL A   1      34.600  32.747  29.306  1.00  0.00    -0.269 OA
BRANCH  33  36
ATOM     36  C   UNL A   1      36.295  31.141  29.212  1.00  0.00     0.039 A 
ATOM     37  C   UNL A   1      37.473  31.878  29.290  1.00  0.00     0.014 A 
ATOM     38  C   UNL A   1      36.321  29.794  29.599  1.00  0.00     0.014 A 
ATOM     39  C   UNL A   1      38.678  31.218  29.583  1.00  0.00     0.010 A 
ATOM     40  C   UNL A   1      37.525  29.148  29.887  1.00  0.00     0.010 A 
ATOM     41  C   UNL A   1      38.737  29.822  29.751  1.00  0.00    -0.014 A 
BRANCH  41  42
ATOM     42  C   UNL A   1      40.048  29.109  29.732  1.00  0.00     0.031 A 
ATOM     43  C   UNL A   1      40.737  28.873  31.038  1.00  0.00     0.074 A 
ATOM     44  C   UNL A   1      40.655  28.641  28.608  1.00  0.00     0.049 A 
ATOM     45  N   UNL A   1      41.957  29.192  31.347  1.00  0.00    -0.248 NA
ATOM     46  C   UNL A   1      39.982  28.270  32.144  1.00  0.00     0.031 C 
ATOM     47  C   UNL A   1      40.092  28.594  27.253  1.00  0.00     0.029 A 
ATOM     48  N   UNL A   1      41.869  28.006  28.441  1.00  0.00    -0.354 N 
ATOM     49  C   UNL A   1      42.181  28.695  32.631  1.00  0.00     0.074 A 
ATOM     50  C   UNL A   1      40.900  28.239  33.113  1.00  0.00     0.031 C 
ATOM     51  C   UNL A   1      40.801  27.731  26.495  1.00  0.00     0.029 A 
ATOM     52  C   UNL A   1      41.973  27.311  27.239  1.00  0.00     0.049 A 
ATOM     53  H   UNL A   1      42.592  28.042  29.107  1.00  0.00     0.167 HD
ATOM     54  C   UNL A   1      43.437  28.537  33.147  1.00  0.00     0.034 A 
ATOM     55  C   UNL A   1      42.913  26.418  26.845  1.00  0.00     0.034 A 
ATOM     56  C   UNL A   1      44.455  29.211  32.386  1.00  0.00     0.049 A 
ATOM     57  C   UNL A   1      44.178  26.656  27.555  1.00  0.00     0.074 A 
ATOM     58  C   UNL A   1      45.205  30.362  32.470  1.00  0.00     0.029 A 
ATOM     59  N   UNL A   1      44.704  28.676  31.157  1.00  0.00    -0.354 N 
ATOM     60  N   UNL A   1      44.958  27.670  27.315  1.00  0.00    -0.248 NA
ATOM     61  C   UNL A   1      44.507  25.868  28.739  1.00  0.00     0.031 C 
ATOM     62  C   UNL A   1      45.807  30.570  31.202  1.00  0.00     0.029 A 
ATOM     63  C   UNL A   1      45.517  29.479  30.399  1.00  0.00     0.049 A 
ATOM     64  H   UNL A   1      44.342  27.814  30.848  1.00  0.00     0.167 HD
ATOM     65  C   UNL A   1      45.534  27.913  28.536  1.00  0.00     0.074 A 
ATOM     66  C   UNL A   1      45.411  26.676  29.294  1.00  0.00     0.031 C 
ATOM     67  C   UNL A   1      45.681  29.185  28.995  1.00  0.00     0.034 A 
BRANCH  54  68
ATOM     68  C   UNL A   1      43.791  27.494  34.181  1.00  0.00     0.023 A 
ATOM     69  C   UNL A   1      43.533  26.126  33.965  1.00  0.00     0.031 A 
ATOM     70  C   UNL A   1      44.596  27.797  35.298  1.00  0.00     0.131 A 
ATOM     71  C   UNL A   1      43.997  25.140  34.846  1.00  0.00     0.055 A 
ATOM     72  C   UNL A   1      45.123  26.804  36.138  1.00  0.00     0.041 A 
ATOM     73  F   UNL A   1      44.921  29.065  35.594  1.00  0.00    -0.206 F 
ATOM     74  C   UNL A   1      44.816  25.466  35.920  1.00  0.00     0.022 A 
BRANCH  71  75
ATOM     75  S   UNL A   1      43.516  23.408  34.606  1.00  0.00     0.124 S 
ATOM     76  O   UNL A   1      42.119  23.422  35.021  1.00  0.00    -0.237 OA
ATOM     77  O   UNL A   1      43.753  23.229  33.176  1.00  0.00    -0.237 OA
ATOM     78  O   UNL A   1      44.436  22.679  35.476  1.00  0.00    -0.744 OA
ENDBRANCH  71  75
ENDBRANCH  54  68
BRANCH  55  79
ATOM     79  C   UNL A   1      42.696  25.154  26.106  1.00  0.00     0.023 A 
ATOM     80  C   UNL A   1      41.734  24.248  26.581  1.00  0.00     0.031 A 
ATOM     81  C   UNL A   1      43.645  24.674  25.186  1.00  0.00     0.131 A 
ATOM     82  C   UNL A   1      41.789  22.901  26.209  1.00  0.00     0.055 A 
ATOM     83  C   UNL A   1      43.688  23.329  24.802  1.00  0.00     0.041 A 
ATOM     84  F   UNL A   1      44.607  25.481  24.710  1.00  0.00    -0.206 F 
ATOM     85  C   UNL A   1      42.768  22.430  25.332  1.00  0.00     0.022 A 
BRANCH  82  86
ATOM     86  S   UNL A   1      40.650  21.708  26.960  1.00  0.00     0.124 S 
ATOM     87  O   UNL A   1      39.349  22.318  26.696  1.00  0.00    -0.237 OA
ATOM     88  O   UNL A   1      40.947  20.500  26.200  1.00  0.00    -0.237 OA
ATOM     89  O   UNL A   1      41.051  21.692  28.364  1.00  0.00    -0.744 OA
ENDBRANCH  82  86
ENDBRANCH  55  79
BRANCH  67  90
ATOM     90  C   UNL A   1      45.818  30.323  28.027  1.00  0.00     0.023 A 
ATOM     91  C   UNL A   1      47.122  30.777  27.768  1.00  0.00     0.031 A 
ATOM     92  C   UNL A   1      44.753  31.055  27.471  1.00  0.00     0.131 A 
ATOM     93  C   UNL A   1      47.338  31.954  27.047  1.00  0.00     0.055 A 
ATOM     94  C   UNL A   1      44.977  32.182  26.671  1.00  0.00     0.041 A 
ATOM     95  F   UNL A   1      43.474  30.752  27.738  1.00  0.00    -0.206 F 
ATOM     96  C   UNL A   1      46.273  32.651  26.477  1.00  0.00     0.022 A 
BRANCH  93  97
ATOM     97  S   UNL A   1      48.992  32.691  27.014  1.00  0.00     0.124 S 
ATOM     98  O   UNL A   1      48.736  33.993  26.406  1.00  0.00    -0.237 OA
ATOM     99  O   UNL A   1      49.354  32.717  28.430  1.00  0.00    -0.237 OA
ATOM    100  O   UNL A   1      49.769  31.758  26.200  1.00  0.00    -0.744 OA
ENDBRANCH  93  97
ENDBRANCH  67  90
ENDBRANCH  41  42
ENDBRANCH  33  36
ENDBRANCH  31  32
ENDBRANCH  30  31
ENDBRANCH   1  30
TORSDOF 18
ENDMDL
MODEL 2
REMARK VINA RESULT:     -12.3      2.656      7.282
REMARK SMILES COC(=O)c1ccc2c(c1)=N[C@H](c1cn(CCC(=O)NCCCNC(=O)c3ccc(-c4c5nc(c(-c6cc(S(=O)(=O)[O-])ccc6F)c6ccc([nH]6)c(-c6cc(S(=O)(=O)[O-])ccc6F)c6nc(c(-c7cc(S(=O)(=O)[O-])ccc7F)c7ccc4[nH]7)C=C6)C=C5)cc3)c3ccccc13)N=2
REMARK SMILES IDX 21 1 20 2 18 3 19 4 17 6 16 7 15 8 13 9 14 10 95 11 90 12
REMARK SMILES IDX 94 13 91 14 93 15 92 16 12 17 5 18 6 19 10 20 7 21 9 22 8 23
REMARK SMILES IDX 11 24 96 25 3 26 4 27 2 28 1 29 22 30 23 31 24 32 25 33
REMARK SMILES IDX 26 35 27 36 28 37 89 38 29 39 88 40 30 41 31 42 32 43 82 44
REMARK SMILES IDX 33 45 87 46 81 47 83 48 34 49 86 50 80 51 79 52 35 54 67 55
REMARK SMILES IDX 47 56 66 57 48 58 51 59 65 60 84 61 49 62 50 63 64 65 85 66
REMARK SMILES IDX 52 67 36 68 37 69 45 70 38 71 44 72 46 73 43 74 39 75 40 76
REMARK SMILES IDX 41 77 42 78 68 79 69 80 77 81 70 82 76 83 78 84 75 85 71 86
REMARK SMILES IDX 72 87 73 88 74 89 53 90 54 91 62 92 55 93 61 94 63 95 60 96
REMARK SMILES IDX 56 97 57 98 58 99 59 100
REMARK H PARENT 20 5 24 34 83 53 51 64
REMARK Flexibility Score: inf
ROOT
ATOM      1  C   UNL A   1      32.722  29.585  25.143  1.00  0.00     0.117 C 
ENDROOT
BRANCH   1   2
ATOM      2  N   UNL A   1      31.427  29.836  24.506  1.00  0.00    -0.356 N 
ATOM      3  C   UNL A   1      30.746  29.240  23.480  1.00  0.00     0.221 C 
ATOM      4  O   UNL A   1      29.553  29.541  23.353  1.00  0.00    -0.275 OA
ATOM      5  H   UNL A   1      30.944  30.599  24.899  1.00  0.00     0.163 HD
BRANCH   3   6
ATOM      6  C   UNL A   1      31.356  28.193  22.565  1.00  0.00     0.122 C 
BRANCH   6   7
ATOM      7  C   UNL A   1      30.987  26.742  22.998  1.00  0.00     0.132 C 
BRANCH   7   8
ATOM      8  N   UNL A   1      32.043  26.046  23.756  1.00  0.00    -0.347 N 
ATOM      9  C   UNL A   1      32.741  23.987  23.364  1.00  0.00     0.024 A 
ATOM     10  C   UNL A   1      32.975  25.329  23.053  1.00  0.00     0.094 A 
ATOM     11  C   UNL A   1      31.648  24.008  24.308  1.00  0.00     0.007 A 
ATOM     12  C   UNL A   1      31.798  25.269  24.870  1.00  0.00     0.048 A 
ATOM     13  C   UNL A   1      30.866  23.129  25.059  1.00  0.00     0.011 A 
ATOM     14  C   UNL A   1      31.898  25.401  26.262  1.00  0.00     0.027 A 
ATOM     15  C   UNL A   1      30.771  23.271  26.436  1.00  0.00     0.001 A 
ATOM     16  C   UNL A   1      31.439  24.323  27.039  1.00  0.00     0.002 A 
BRANCH   9  17
ATOM     17  C   UNL A   1      33.726  22.934  22.941  1.00  0.00     0.255 C 
ATOM     18  C   UNL A   1      37.492  22.407  25.311  1.00  0.00     0.062 A 
ATOM     19  C   UNL A   1      36.970  21.047  25.365  1.00  0.00     0.018 A 
ATOM     20  C   UNL A   1      36.973  23.315  24.467  1.00  0.00     0.046 A 
ATOM     21  C   UNL A   1      35.805  20.681  24.814  1.00  0.00     0.031 A 
ATOM     22  C   UNL A   1      35.719  22.964  23.796  1.00  0.00     0.087 A 
ATOM     23  C   UNL A   1      35.021  21.717  24.153  1.00  0.00     0.086 A 
ATOM     24  N   UNL A   1      35.042  23.645  22.948  1.00  0.00    -0.252 NA
ATOM     25  N   UNL A   1      33.785  21.717  23.786  1.00  0.00    -0.252 NA
BRANCH  18  26
ATOM     26  C   UNL A   1      38.653  22.859  26.140  1.00  0.00     0.337 C 
ATOM     27  O   UNL A   1      39.566  22.132  26.495  1.00  0.00    -0.246 OA
BRANCH  26  28
ATOM     28  O   UNL A   1      38.577  24.196  26.372  1.00  0.00    -0.465 OA
ATOM     29  C   UNL A   1      38.831  24.610  27.719  1.00  0.00     0.282 C 
ENDBRANCH  26  28
ENDBRANCH  18  26
ENDBRANCH   9  17
ENDBRANCH   7   8
ENDBRANCH   6   7
ENDBRANCH   3   6
ENDBRANCH   1   2
BRANCH   1  30
ATOM     30  C   UNL A   1      32.735  28.819  26.490  1.00  0.00     0.042 C 
BRANCH  30  31
ATOM     31  C   UNL A   1      34.015  28.773  27.337  1.00  0.00     0.118 C 
BRANCH  31  32
ATOM     32  N   UNL A   1      34.361  29.919  28.145  1.00  0.00    -0.352 N 
ATOM     33  C   UNL A   1      35.579  30.562  28.241  1.00  0.00     0.251 C 
ATOM     34  H   UNL A   1      33.634  30.290  28.697  1.00  0.00     0.163 HD
ATOM     35  O   UNL A   1      35.580  31.786  28.371  1.00  0.00    -0.269 OA
BRANCH  33  36
ATOM     36  C   UNL A   1      36.862  29.833  28.410  1.00  0.00     0.039 A 
ATOM     37  C   UNL A   1      37.222  29.042  29.496  1.00  0.00     0.014 A 
ATOM     38  C   UNL A   1      37.732  29.899  27.313  1.00  0.00     0.014 A 
ATOM     39  C   UNL A   1      38.509  28.478  29.540  1.00  0.00     0.010 A 
ATOM     40  C   UNL A   1      39.008  29.335  27.367  1.00  0.00     0.010 A 
ATOM     41  C   UNL A   1      39.463  28.731  28.537  1.00  0.00    -0.014 A 
BRANCH  41  42
ATOM     42  C   UNL A   1      40.902  28.405  28.759  1.00  0.00     0.031 A 
ATOM     43  C   UNL A   1      41.477  27.235  28.026  1.00  0.00     0.074 A 
ATOM     44  C   UNL A   1      41.737  29.109  29.571  1.00  0.00     0.049 A 
ATOM     45  N   UNL A   1      42.119  26.229  28.537  1.00  0.00    -0.248 NA
ATOM     46  C   UNL A   1      41.273  27.133  26.575  1.00  0.00     0.031 C 
ATOM     47  C   UNL A   1      41.451  30.383  30.243  1.00  0.00     0.029 A 
ATOM     48  N   UNL A   1      43.062  28.900  29.895  1.00  0.00    -0.354 N 
ATOM     49  C   UNL A   1      42.539  25.442  27.465  1.00  0.00     0.074 A 
ATOM     50  C   UNL A   1      41.895  25.985  26.294  1.00  0.00     0.031 C 
ATOM     51  C   UNL A   1      42.607  30.963  30.627  1.00  0.00     0.029 A 
ATOM     52  C   UNL A   1      43.694  30.029  30.408  1.00  0.00     0.049 A 
ATOM     53  H   UNL A   1      43.516  28.035  29.775  1.00  0.00     0.167 HD
ATOM     54  C   UNL A   1      43.521  24.501  27.588  1.00  0.00     0.034 A 
ATOM     55  C   UNL A   1      45.014  30.246  30.626  1.00  0.00     0.034 A 
ATOM     56  C   UNL A   1      43.843  24.187  28.954  1.00  0.00     0.049 A 
ATOM     57  C   UNL A   1      45.718  28.973  30.833  1.00  0.00     0.074 A 
ATOM     58  C   UNL A   1      43.589  23.187  29.865  1.00  0.00     0.029 A 
ATOM     59  N   UNL A   1      44.472  25.184  29.641  1.00  0.00    -0.354 N 
ATOM     60  N   UNL A   1      45.600  28.252  31.911  1.00  0.00    -0.248 NA
ATOM     61  C   UNL A   1      46.420  28.341  29.719  1.00  0.00     0.031 C 
ATOM     62  C   UNL A   1      43.963  23.672  31.145  1.00  0.00     0.029 A 
ATOM     63  C   UNL A   1      44.557  24.913  30.983  1.00  0.00     0.049 A 
ATOM     64  H   UNL A   1      44.824  26.003  29.223  1.00  0.00     0.167 HD
ATOM     65  C   UNL A   1      45.768  26.972  31.446  1.00  0.00     0.074 A 
ATOM     66  C   UNL A   1      46.482  27.092  30.182  1.00  0.00     0.031 C 
ATOM     67  C   UNL A   1      44.970  25.962  31.885  1.00  0.00     0.034 A 
BRANCH  54  68
ATOM     68  C   UNL A   1      44.427  24.084  26.452  1.00  0.00     0.023 A 
ATOM     69  C   UNL A   1      45.463  24.920  25.993  1.00  0.00     0.031 A 
ATOM     70  C   UNL A   1      44.436  22.765  25.954  1.00  0.00     0.131 A 
ATOM     71  C   UNL A   1      46.403  24.480  25.051  1.00  0.00     0.055 A 
ATOM     72  C   UNL A   1      45.421  22.302  25.067  1.00  0.00     0.041 A 
ATOM     73  F   UNL A   1      43.507  21.874  26.334  1.00  0.00    -0.206 F 
ATOM     74  C   UNL A   1      46.406  23.164  24.602  1.00  0.00     0.022 A 
BRANCH  71  75
ATOM     75  S   UNL A   1      47.628  25.637  24.380  1.00  0.00     0.124 S 
ATOM     76  O   UNL A   1      48.624  25.671  25.444  1.00  0.00    -0.237 OA
ATOM     77  O   UNL A   1      48.034  24.960  23.151  1.00  0.00    -0.237 OA
ATOM     78  O   UNL A   1      46.860  26.863  24.181  1.00  0.00    -0.744 OA
ENDBRANCH  71  75
ENDBRANCH  54  68
BRANCH  55  79
ATOM     79  C   UNL A   1      45.775  31.487  30.358  1.00  0.00     0.023 A 
ATOM     80  C   UNL A   1      45.892  31.937  29.033  1.00  0.00     0.031 A 
ATOM     81  C   UNL A   1      46.668  32.016  31.307  1.00  0.00     0.131 A 
ATOM     82  C   UNL A   1      46.923  32.811  28.673  1.00  0.00     0.055 A 
ATOM     83  C   UNL A   1      47.688  32.903  30.948  1.00  0.00     0.041 A 
ATOM     84  F   UNL A   1      46.626  31.611  32.586  1.00  0.00    -0.206 F 
ATOM     85  C   UNL A   1      47.833  33.288  29.619  1.00  0.00     0.022 A 
BRANCH  82  86
ATOM     86  S   UNL A   1      47.170  33.249  26.932  1.00  0.00     0.124 S 
ATOM     87  O   UNL A   1      47.281  31.938  26.298  1.00  0.00    -0.237 OA
ATOM     88  O   UNL A   1      45.948  33.991  26.640  1.00  0.00    -0.237 OA
ATOM     89  O   UNL A   1      48.401  34.034  26.949  1.00  0.00    -0.744 OA
ENDBRANCH  82  86
ENDBRANCH  55  79
BRANCH  67  90
ATOM     90  C   UNL A   1      44.349  26.031  33.249  1.00  0.00     0.023 A 
ATOM     91  C   UNL A   1      43.232  26.871  33.390  1.00  0.00     0.031 A 
ATOM     92  C   UNL A   1      44.870  25.441  34.414  1.00  0.00     0.131 A 
ATOM     93  C   UNL A   1      42.712  27.161  34.653  1.00  0.00     0.055 A 
ATOM     94  C   UNL A   1      44.290  25.662  35.669  1.00  0.00     0.041 A 
ATOM     95  F   UNL A   1      45.987  24.701  34.391  1.00  0.00    -0.206 F 
ATOM     96  C   UNL A   1      43.221  26.545  35.797  1.00  0.00     0.022 A 
BRANCH  93  97
ATOM     97  S   UNL A   1      41.499  28.493  34.838  1.00  0.00     0.124 S 
ATOM     98  O   UNL A   1      41.162  28.409  36.255  1.00  0.00    -0.237 OA
ATOM     99  O   UNL A   1      42.265  29.673  34.442  1.00  0.00    -0.237 OA
ATOM    100  O   UNL A   1      40.432  28.118  33.913  1.00  0.00    -0.744 OA
ENDBRANCH  93  97
ENDBRANCH  67  90
ENDBRANCH  41  42
ENDBRANCH  33  36
ENDBRANCH  31  32
ENDBRANCH  30  31
ENDBRANCH   1  30
TORSDOF 18
ENDMDL
MODEL 3
REMARK VINA RESULT:     -12.2      3.343      9.284
REMARK SMILES COC(=O)c1ccc2c(c1)=N[C@H](c1cn(CCC(=O)NCCCNC(=O)c3ccc(-c4c5nc(c(-c6cc(S(=O)(=O)[O-])ccc6F)c6ccc([nH]6)c(-c6cc(S(=O)(=O)[O-])ccc6F)c6nc(c(-c7cc(S(=O)(=O)[O-])ccc7F)c7ccc4[nH]7)C=C6)C=C5)cc3)c3ccccc13)N=2
REMARK SMILES IDX 21 1 20 2 18 3 19 4 17 6 16 7 15 8 13 9 14 10 95 11 90 12
REMARK SMILES IDX 94 13 91 14 93 15 92 16 12 17 5 18 6 19 10 20 7 21 9 22 8 23
REMARK SMILES IDX 11 24 96 25 3 26 4 27 2 28 1 29 22 30 23 31 24 32 25 33
REMARK SMILES IDX 26 35 27 36 28 37 89 38 29 39 88 40 30 41 31 42 32 43 82 44
REMARK SMILES IDX 33 45 87 46 81 47 83 48 34 49 86 50 80 51 79 52 35 54 67 55
REMARK SMILES IDX 47 56 66 57 48 58 51 59 65 60 84 61 49 62 50 63 64 65 85 66
REMARK SMILES IDX 52 67 36 68 37 69 45 70 38 71 44 72 46 73 43 74 39 75 40 76
REMARK SMILES IDX 41 77 42 78 68 79 69 80 77 81 70 82 76 83 78 84 75 85 71 86
REMARK SMILES IDX 72 87 73 88 74 89 53 90 54 91 62 92 55 93 61 94 63 95 60 96
REMARK SMILES IDX 56 97 57 98 58 99 59 100
REMARK H PARENT 20 5 24 34 83 53 51 64
REMARK Flexibility Score: inf
ROOT
ATOM      1  C   UNL A   1      39.034  22.349  26.254  1.00  0.00     0.117 C 
ENDROOT
BRANCH   1   2
ATOM      2  N   UNL A   1      38.382  21.107  25.833  1.00  0.00    -0.356 N 
ATOM      3  C   UNL A   1      37.383  20.816  24.945  1.00  0.00     0.221 C 
ATOM      4  O   UNL A   1      37.239  19.627  24.636  1.00  0.00    -0.275 OA
ATOM      5  H   UNL A   1      38.739  20.309  26.287  1.00  0.00     0.163 HD
BRANCH   3   6
ATOM      6  C   UNL A   1      36.517  21.873  24.281  1.00  0.00     0.122 C 
BRANCH   6   7
ATOM      7  C   UNL A   1      35.186  22.117  25.054  1.00  0.00     0.132 C 
BRANCH   7   8
ATOM      8  N   UNL A   1      34.191  22.917  24.316  1.00  0.00    -0.347 N 
ATOM      9  C   UNL A   1      33.945  25.106  24.482  1.00  0.00     0.024 A 
ATOM     10  C   UNL A   1      34.599  24.102  23.763  1.00  0.00     0.094 A 
ATOM     11  C   UNL A   1      33.123  24.403  25.440  1.00  0.00     0.007 A 
ATOM     12  C   UNL A   1      32.925  23.192  24.792  1.00  0.00     0.048 A 
ATOM     13  C   UNL A   1      32.215  24.666  26.466  1.00  0.00     0.011 A 
ATOM     14  C   UNL A   1      31.621  22.718  24.589  1.00  0.00     0.027 A 
ATOM     15  C   UNL A   1      30.942  24.115  26.440  1.00  0.00     0.001 A 
ATOM     16  C   UNL A   1      30.610  23.272  25.393  1.00  0.00     0.002 A 
BRANCH   9  17
ATOM     17  C   UNL A   1      33.987  26.528  23.997  1.00  0.00     0.255 C 
ATOM     18  C   UNL A   1      30.133  28.735  23.406  1.00  0.00     0.062 A 
ATOM     19  C   UNL A   1      30.810  29.654  24.312  1.00  0.00     0.018 A 
ATOM     20  C   UNL A   1      30.799  27.731  22.811  1.00  0.00     0.046 A 
ATOM     21  C   UNL A   1      32.025  29.421  24.827  1.00  0.00     0.031 A 
ATOM     22  C   UNL A   1      32.152  27.448  23.296  1.00  0.00     0.087 A 
ATOM     23  C   UNL A   1      32.675  28.166  24.470  1.00  0.00     0.086 A 
ATOM     24  N   UNL A   1      32.984  26.562  22.888  1.00  0.00    -0.252 NA
ATOM     25  N   UNL A   1      33.686  27.572  25.007  1.00  0.00    -0.252 NA
BRANCH  18  26
ATOM     26  C   UNL A   1      28.687  28.878  23.045  1.00  0.00     0.337 C 
ATOM     27  O   UNL A   1      27.876  27.970  23.095  1.00  0.00    -0.246 OA
BRANCH  26  28
ATOM     28  O   UNL A   1      28.404  30.170  22.728  1.00  0.00    -0.465 OA
ATOM     29  C   UNL A   1      27.429  30.814  23.556  1.00  0.00     0.282 C 
ENDBRANCH  26  28
ENDBRANCH  18  26
ENDBRANCH   9  17
ENDBRANCH   7   8
ENDBRANCH   6   7
ENDBRANCH   3   6
ENDBRANCH   1   2
BRANCH   1  30
ATOM     30  C   UNL A   1      40.384  22.244  27.008  1.00  0.00     0.042 C 
BRANCH  30  31
ATOM     31  C   UNL A   1      41.642  21.764  26.270  1.00  0.00     0.118 C 
BRANCH  31  32
ATOM     32  N   UNL A   1      42.219  22.607  25.248  1.00  0.00    -0.352 N 
ATOM     33  C   UNL A   1      42.873  23.814  25.403  1.00  0.00     0.251 C 
ATOM     34  H   UNL A   1      42.137  22.277  24.324  1.00  0.00     0.163 HD
ATOM     35  O   UNL A   1      43.828  24.054  24.665  1.00  0.00    -0.269 OA
BRANCH  33  36
ATOM     36  C   UNL A   1      42.349  24.908  26.259  1.00  0.00     0.039 A 
ATOM     37  C   UNL A   1      41.258  25.723  25.976  1.00  0.00     0.014 A 
ATOM     38  C   UNL A   1      42.983  25.045  27.502  1.00  0.00     0.014 A 
ATOM     39  C   UNL A   1      40.933  26.768  26.858  1.00  0.00     0.010 A 
ATOM     40  C   UNL A   1      42.653  26.088  28.370  1.00  0.00     0.010 A 
ATOM     41  C   UNL A   1      41.712  27.045  27.997  1.00  0.00    -0.014 A 
BRANCH  41  42
ATOM     42  C   UNL A   1      41.556  28.337  28.728  1.00  0.00     0.031 A 
ATOM     43  C   UNL A   1      42.497  29.450  28.396  1.00  0.00     0.074 A 
ATOM     44  C   UNL A   1      40.602  28.581  29.668  1.00  0.00     0.049 A 
ATOM     45  N   UNL A   1      43.232  30.127  29.225  1.00  0.00    -0.248 NA
ATOM     46  C   UNL A   1      42.694  29.820  26.989  1.00  0.00     0.031 C 
ATOM     47  C   UNL A   1      39.471  27.716  30.025  1.00  0.00     0.029 A 
ATOM     48  N   UNL A   1      40.368  29.700  30.441  1.00  0.00    -0.354 N 
ATOM     49  C   UNL A   1      43.870  31.113  28.472  1.00  0.00     0.074 A 
ATOM     50  C   UNL A   1      43.590  30.806  27.091  1.00  0.00     0.031 C 
ATOM     51  C   UNL A   1      38.542  28.434  30.690  1.00  0.00     0.029 A 
ATOM     52  C   UNL A   1      39.084  29.748  30.976  1.00  0.00     0.049 A 
ATOM     53  H   UNL A   1      41.045  30.397  30.599  1.00  0.00     0.167 HD
ATOM     54  C   UNL A   1      44.444  32.213  29.043  1.00  0.00     0.034 A 
ATOM     55  C   UNL A   1      38.451  30.777  31.590  1.00  0.00     0.034 A 
ATOM     56  C   UNL A   1      44.605  32.099  30.468  1.00  0.00     0.049 A 
ATOM     57  C   UNL A   1      39.426  31.697  32.192  1.00  0.00     0.074 A 
ATOM     58  C   UNL A   1      45.611  31.836  31.369  1.00  0.00     0.029 A 
ATOM     59  N   UNL A   1      43.443  32.120  31.182  1.00  0.00    -0.354 N 
ATOM     60  N   UNL A   1      40.120  31.414  33.256  1.00  0.00    -0.248 NA
ATOM     61  C   UNL A   1      39.827  32.903  31.473  1.00  0.00     0.031 C 
ATOM     62  C   UNL A   1      45.001  31.567  32.622  1.00  0.00     0.029 A 
ATOM     63  C   UNL A   1      43.639  31.792  32.499  1.00  0.00     0.049 A 
ATOM     64  H   UNL A   1      42.565  32.345  30.797  1.00  0.00     0.167 HD
ATOM     65  C   UNL A   1      41.290  32.102  33.054  1.00  0.00     0.074 A 
ATOM     66  C   UNL A   1      40.980  33.154  32.096  1.00  0.00     0.031 C 
ATOM     67  C   UNL A   1      42.492  31.530  33.334  1.00  0.00     0.034 A 
BRANCH  54  68
ATOM     68  C   UNL A   1      44.577  33.546  28.343  1.00  0.00     0.023 A 
ATOM     69  C   UNL A   1      45.741  33.888  27.627  1.00  0.00     0.031 A 
ATOM     70  C   UNL A   1      43.476  34.409  28.171  1.00  0.00     0.131 A 
ATOM     71  C   UNL A   1      45.812  35.050  26.847  1.00  0.00     0.055 A 
ATOM     72  C   UNL A   1      43.523  35.533  27.331  1.00  0.00     0.041 A 
ATOM     73  F   UNL A   1      42.308  34.174  28.791  1.00  0.00    -0.206 F 
ATOM     74  C   UNL A   1      44.700  35.865  26.671  1.00  0.00     0.022 A 
BRANCH  71  75
ATOM     75  S   UNL A   1      47.377  35.524  26.063  1.00  0.00     0.124 S 
ATOM     76  O   UNL A   1      47.451  34.590  24.946  1.00  0.00    -0.237 OA
ATOM     77  O   UNL A   1      47.122  36.919  25.710  1.00  0.00    -0.237 OA
ATOM     78  O   UNL A   1      48.359  35.331  27.127  1.00  0.00    -0.744 OA
ENDBRANCH  71  75
ENDBRANCH  54  68
BRANCH  55  79
ATOM     79  C   UNL A   1      37.038  31.189  31.423  1.00  0.00     0.023 A 
ATOM     80  C   UNL A   1      36.556  31.448  30.130  1.00  0.00     0.031 A 
ATOM     81  C   UNL A   1      36.285  31.671  32.509  1.00  0.00     0.131 A 
ATOM     82  C   UNL A   1      35.415  32.236  29.949  1.00  0.00     0.055 A 
ATOM     83  C   UNL A   1      35.135  32.445  32.325  1.00  0.00     0.041 A 
ATOM     84  F   UNL A   1      36.702  31.478  33.771  1.00  0.00    -0.206 F 
ATOM     85  C   UNL A   1      34.706  32.750  31.037  1.00  0.00     0.022 A 
BRANCH  82  86
ATOM     86  S   UNL A   1      34.900  32.708  28.276  1.00  0.00     0.124 S 
ATOM     87  O   UNL A   1      36.179  33.001  27.633  1.00  0.00    -0.237 OA
ATOM     88  O   UNL A   1      34.228  31.496  27.823  1.00  0.00    -0.237 OA
ATOM     89  O   UNL A   1      34.041  33.868  28.499  1.00  0.00    -0.744 OA
ENDBRANCH  82  86
ENDBRANCH  55  79
BRANCH  67  90
ATOM     90  C   UNL A   1      42.591  30.468  34.391  1.00  0.00     0.023 A 
ATOM     91  C   UNL A   1      43.097  30.868  35.639  1.00  0.00     0.031 A 
ATOM     92  C   UNL A   1      42.354  29.096  34.194  1.00  0.00     0.131 A 
ATOM     93  C   UNL A   1      43.419  29.921  36.614  1.00  0.00     0.055 A 
ATOM     94  C   UNL A   1      42.591  28.159  35.207  1.00  0.00     0.041 A 
ATOM     95  F   UNL A   1      41.959  28.611  33.008  1.00  0.00    -0.206 F 
ATOM     96  C   UNL A   1      43.150  28.567  36.415  1.00  0.00     0.022 A 
BRANCH  93  97
ATOM     97  S   UNL A   1      44.371  30.424  38.070  1.00  0.00     0.124 S 
ATOM     98  O   UNL A   1      43.397  31.212  38.819  1.00  0.00    -0.237 OA
ATOM     99  O   UNL A   1      44.736  29.141  38.667  1.00  0.00    -0.237 OA
ATOM    100  O   UNL A   1      45.490  31.177  37.507  1.00  0.00    -0.744 OA
ENDBRANCH  93  97
ENDBRANCH  67  90
ENDBRANCH  41  42
ENDBRANCH  33  36
ENDBRANCH  31  32
ENDBRANCH  30  31
ENDBRANCH   1  30
TORSDOF 18
ENDMDL
