MODEL 1
REMARK VINA RESULT:     -12.1      0.000      0.000
REMARK SMILES CS(=O)(=O)c1ccc(C2=NN(c3ccc(C(=O)NCCCNC(=O)c4ccc(-c5c6nc(c(-c7cc(S(=O)(=O)[O-])ccc7F)c7ccc([nH]7)c(-c7cc(S(=O)(=O)[O-])ccc7F)c7nc(c(-c8cc(S(=O)(=O)[O-])ccc8F)c8ccc5[nH]8)C=C7)C=C6)cc4)cc3)[C@H](c3ccc(Cl)cc3)C2)cc1
REMARK SMILES IDX 20 1 19 2 18 3 16 4 17 5 15 7 12 8 13 9 89 10 14 11 88 12
REMARK SMILES IDX 11 13 9 14 10 15 98 16 90 17 8 18 5 19 6 20 100 21 7 22
REMARK SMILES IDX 99 23 2 24 1 25 3 26 4 27 91 28 92 29 97 30 93 31 96 32
REMARK SMILES IDX 94 33 95 34 21 35 22 36 23 37 24 39 25 40 26 41 87 42 27 43
REMARK SMILES IDX 86 44 28 45 29 46 30 47 80 48 31 49 85 50 79 51 81 52 32 53
REMARK SMILES IDX 84 54 78 55 77 56 33 58 65 59 45 60 64 61 46 62 49 63 63 64
REMARK SMILES IDX 82 65 47 66 48 67 62 69 83 70 50 71 34 72 35 73 43 74 36 75
REMARK SMILES IDX 42 76 44 77 41 78 37 79 38 80 39 81 40 82 66 83 67 84 75 85
REMARK SMILES IDX 68 86 74 87 76 88 73 89 69 90 70 91 71 92 72 93 51 94 52 95
REMARK SMILES IDX 60 96 53 97 59 98 61 99 58 100 54 101 55 102 56 103 57 104
REMARK H PARENT 18 6 22 38 81 57 49 68
REMARK Flexibility Score: inf
ROOT
ATOM      1  C   UNL A   1      32.976  33.311  27.671  1.00  0.00     0.042 C 
ENDROOT
BRANCH   1   2
ATOM      2  C   UNL A   1      33.056  31.829  27.309  1.00  0.00     0.118 C 
BRANCH   2   3
ATOM      3  N   UNL A   1      34.128  31.152  28.020  1.00  0.00    -0.352 N 
ATOM      4  C   UNL A   1      34.630  29.880  27.897  1.00  0.00     0.251 C 
ATOM      5  O   UNL A   1      35.661  29.592  28.504  1.00  0.00    -0.269 OA
ATOM      6  H   UNL A   1      34.572  31.701  28.707  1.00  0.00     0.163 HD
BRANCH   4   7
ATOM      7  C   UNL A   1      34.003  28.864  27.013  1.00  0.00     0.039 A 
ATOM      8  C   UNL A   1      32.752  26.882  25.449  1.00  0.00     0.060 A 
ATOM      9  C   UNL A   1      32.236  27.226  26.702  1.00  0.00     0.029 A 
ATOM     10  C   UNL A   1      33.859  27.583  24.965  1.00  0.00     0.029 A 
ATOM     11  C   UNL A   1      32.855  28.210  27.480  1.00  0.00     0.016 A 
ATOM     12  C   UNL A   1      34.471  28.576  25.730  1.00  0.00     0.016 A 
BRANCH   8  13
ATOM     13  N   UNL A   1      32.214  25.850  24.692  1.00  0.00    -0.257 N 
ATOM     14  C   UNL A   1      32.328  23.865  23.947  1.00  0.00     0.071 C 
ATOM     15  N   UNL A   1      32.506  24.570  25.018  1.00  0.00    -0.176 NA
ATOM     16  C   UNL A   1      31.976  24.638  22.704  1.00  0.00     0.091 C 
ATOM     17  C   UNL A   1      31.824  26.049  23.295  1.00  0.00     0.144 C 
BRANCH  14  18
ATOM     18  C   UNL A   1      32.459  22.400  23.943  1.00  0.00    -0.002 A 
ATOM     19  C   UNL A   1      32.736  19.636  24.030  1.00  0.00     0.067 A 
ATOM     20  C   UNL A   1      32.933  20.383  25.194  1.00  0.00     0.021 A 
ATOM     21  C   UNL A   1      32.398  20.263  22.823  1.00  0.00     0.021 A 
ATOM     22  C   UNL A   1      32.811  21.770  25.143  1.00  0.00     0.011 A 
ATOM     23  C   UNL A   1      32.249  21.652  22.782  1.00  0.00     0.011 A 
BRANCH  19  24
ATOM     24  S   UNL A   1      32.894  17.867  24.096  1.00  0.00     0.175 S 
ATOM     25  C   UNL A   1      34.621  17.581  24.387  1.00  0.00     0.163 C 
ATOM     26  O   UNL A   1      32.583  17.349  22.780  1.00  0.00    -0.224 OA
ATOM     27  O   UNL A   1      32.151  17.427  25.265  1.00  0.00    -0.224 OA
ENDBRANCH  19  24
ENDBRANCH  14  18
BRANCH  17  28
ATOM     28  C   UNL A   1      30.449  26.702  23.229  1.00  0.00    -0.023 A 
ATOM     29  C   UNL A   1      29.309  26.184  23.863  1.00  0.00     0.007 A 
ATOM     30  C   UNL A   1      30.329  27.944  22.569  1.00  0.00     0.007 A 
ATOM     31  C   UNL A   1      28.087  26.868  23.814  1.00  0.00     0.021 A 
ATOM     32  C   UNL A   1      29.117  28.637  22.540  1.00  0.00     0.021 A 
ATOM     33  C   UNL A   1      27.997  28.092  23.157  1.00  0.00     0.041 A 
ATOM     34  Cl  UNL A   1      26.502  28.939  23.120  1.00  0.00    -0.084 Cl
ENDBRANCH  17  28
ENDBRANCH   8  13
ENDBRANCH   4   7
ENDBRANCH   2   3
ENDBRANCH   1   2
BRANCH   1  35
ATOM     35  C   UNL A   1      34.103  33.785  28.583  1.00  0.00     0.118 C 
BRANCH  35  36
ATOM     36  N   UNL A   1      33.602  34.409  29.798  1.00  0.00    -0.352 N 
ATOM     37  C   UNL A   1      34.020  34.259  31.098  1.00  0.00     0.251 C 
ATOM     38  H   UNL A   1      32.851  35.033  29.669  1.00  0.00     0.163 HD
ATOM     39  O   UNL A   1      33.327  34.713  32.005  1.00  0.00    -0.269 OA
BRANCH  37  40
ATOM     40  C   UNL A   1      35.279  33.542  31.411  1.00  0.00     0.039 A 
ATOM     41  C   UNL A   1      35.215  32.352  32.143  1.00  0.00     0.014 A 
ATOM     42  C   UNL A   1      36.520  34.049  31.015  1.00  0.00     0.014 A 
ATOM     43  C   UNL A   1      36.386  31.641  32.423  1.00  0.00     0.010 A 
ATOM     44  C   UNL A   1      37.678  33.307  31.238  1.00  0.00     0.010 A 
ATOM     45  C   UNL A   1      37.625  32.095  31.945  1.00  0.00    -0.014 A 
BRANCH  45  46
ATOM     46  C   UNL A   1      38.878  31.328  32.174  1.00  0.00     0.031 A 
ATOM     47  C   UNL A   1      39.740  31.636  33.370  1.00  0.00     0.074 A 
ATOM     48  C   UNL A   1      39.278  30.413  31.269  1.00  0.00     0.049 A 
ATOM     49  N   UNL A   1      40.925  31.177  33.677  1.00  0.00    -0.248 NA
ATOM     50  C   UNL A   1      39.205  32.614  34.328  1.00  0.00     0.031 C 
ATOM     51  C   UNL A   1      38.542  30.045  30.058  1.00  0.00     0.029 A 
ATOM     52  N   UNL A   1      40.410  29.639  31.217  1.00  0.00    -0.354 N 
ATOM     53  C   UNL A   1      41.289  31.824  34.855  1.00  0.00     0.074 A 
ATOM     54  C   UNL A   1      40.216  32.743  35.173  1.00  0.00     0.031 C 
ATOM     55  C   UNL A   1      39.238  29.111  29.388  1.00  0.00     0.029 A 
ATOM     56  C   UNL A   1      40.488  28.847  30.094  1.00  0.00     0.049 A 
ATOM     57  H   UNL A   1      41.102  29.649  31.917  1.00  0.00     0.167 HD
ATOM     58  C   UNL A   1      42.404  31.653  35.608  1.00  0.00     0.034 A 
ATOM     59  C   UNL A   1      41.464  28.021  29.669  1.00  0.00     0.034 A 
ATOM     60  C   UNL A   1      43.458  30.722  35.283  1.00  0.00     0.049 A 
ATOM     61  C   UNL A   1      42.707  27.867  30.509  1.00  0.00     0.074 A 
ATOM     62  C   UNL A   1      44.606  30.431  36.001  1.00  0.00     0.029 A 
ATOM     63  N   UNL A   1      43.496  29.931  34.142  1.00  0.00    -0.354 N 
ATOM     64  N   UNL A   1      43.021  28.461  31.636  1.00  0.00    -0.248 NA
ATOM     65  C   UNL A   1      43.724  26.926  30.020  1.00  0.00     0.031 C 
ATOM     66  C   UNL A   1      45.364  29.513  35.266  1.00  0.00     0.029 A 
ATOM     67  C   UNL A   1      44.658  29.175  34.123  1.00  0.00     0.049 A 
ATOM     68  H   UNL A   1      42.799  29.910  33.446  1.00  0.00     0.167 HD
ATOM     69  C   UNL A   1      44.257  27.941  32.007  1.00  0.00     0.074 A 
ATOM     70  C   UNL A   1      44.627  26.980  30.987  1.00  0.00     0.031 C 
ATOM     71  C   UNL A   1      45.017  28.227  33.095  1.00  0.00     0.034 A 
BRANCH  58  72
ATOM     72  C   UNL A   1      42.549  32.517  36.838  1.00  0.00     0.023 A 
ATOM     73  C   UNL A   1      42.007  32.134  38.077  1.00  0.00     0.031 A 
ATOM     74  C   UNL A   1      43.211  33.756  36.766  1.00  0.00     0.131 A 
ATOM     75  C   UNL A   1      42.063  33.013  39.169  1.00  0.00     0.055 A 
ATOM     76  C   UNL A   1      43.336  34.591  37.878  1.00  0.00     0.041 A 
ATOM     77  F   UNL A   1      43.734  34.186  35.606  1.00  0.00    -0.206 F 
ATOM     78  C   UNL A   1      42.746  34.228  39.086  1.00  0.00     0.022 A 
BRANCH  75  79
ATOM     79  S   UNL A   1      41.107  32.608  40.656  1.00  0.00     0.124 S 
ATOM     80  O   UNL A   1      39.782  32.355  40.094  1.00  0.00    -0.237 OA
ATOM     81  O   UNL A   1      41.813  31.443  41.177  1.00  0.00    -0.237 OA
ATOM     82  O   UNL A   1      41.210  33.816  41.470  1.00  0.00    -0.744 OA
ENDBRANCH  75  79
ENDBRANCH  58  72
BRANCH  59  83
ATOM     83  C   UNL A   1      41.321  27.286  28.381  1.00  0.00     0.023 A 
ATOM     84  C   UNL A   1      40.978  25.925  28.361  1.00  0.00     0.031 A 
ATOM     85  C   UNL A   1      41.564  27.925  27.152  1.00  0.00     0.131 A 
ATOM     86  C   UNL A   1      40.927  25.235  27.139  1.00  0.00     0.055 A 
ATOM     87  C   UNL A   1      41.464  27.246  25.936  1.00  0.00     0.041 A 
ATOM     88  F   UNL A   1      41.890  29.227  27.117  1.00  0.00    -0.206 F 
ATOM     89  C   UNL A   1      41.156  25.889  25.926  1.00  0.00     0.022 A 
BRANCH  86  90
ATOM     90  S   UNL A   1      40.631  23.447  27.164  1.00  0.00     0.124 S 
ATOM     91  O   UNL A   1      39.182  23.381  27.014  1.00  0.00    -0.237 OA
ATOM     92  O   UNL A   1      41.417  22.994  26.021  1.00  0.00    -0.237 OA
ATOM     93  O   UNL A   1      41.143  23.036  28.470  1.00  0.00    -0.744 OA
ENDBRANCH  86  90
ENDBRANCH  59  83
BRANCH  71  94
ATOM     94  C   UNL A   1      46.298  27.449  33.259  1.00  0.00     0.023 A 
ATOM     95  C   UNL A   1      46.348  26.251  33.993  1.00  0.00     0.031 A 
ATOM     96  C   UNL A   1      47.487  27.919  32.674  1.00  0.00     0.131 A 
ATOM     97  C   UNL A   1      47.573  25.588  34.162  1.00  0.00     0.055 A 
ATOM     98  C   UNL A   1      48.691  27.227  32.802  1.00  0.00     0.041 A 
ATOM     99  F   UNL A   1      47.493  29.059  31.964  1.00  0.00    -0.206 F 
ATOM    100  C   UNL A   1      48.741  26.061  33.559  1.00  0.00     0.022 A 
BRANCH  97 101
ATOM    101  S   UNL A   1      47.635  24.134  35.245  1.00  0.00     0.124 S 
ATOM    102  O   UNL A   1      46.834  23.167  34.501  1.00  0.00    -0.237 OA
ATOM    103  O   UNL A   1      49.066  23.855  35.316  1.00  0.00    -0.237 OA
ATOM    104  O   UNL A   1      47.036  24.608  36.491  1.00  0.00    -0.744 OA
ENDBRANCH  97 101
ENDBRANCH  71  94
ENDBRANCH  45  46
ENDBRANCH  37  40
ENDBRANCH  35  36
ENDBRANCH   1  35
TORSDOF 17
ENDMDL
MODEL 2
REMARK VINA RESULT:     -12.1      5.142      9.177
REMARK SMILES CS(=O)(=O)c1ccc(C2=NN(c3ccc(C(=O)NCCCNC(=O)c4ccc(-c5c6nc(c(-c7cc(S(=O)(=O)[O-])ccc7F)c7ccc([nH]7)c(-c7cc(S(=O)(=O)[O-])ccc7F)c7nc(c(-c8cc(S(=O)(=O)[O-])ccc8F)c8ccc5[nH]8)C=C7)C=C6)cc4)cc3)[C@H](c3ccc(Cl)cc3)C2)cc1
REMARK SMILES IDX 20 1 19 2 18 3 16 4 17 5 15 7 12 8 13 9 89 10 14 11 88 12
REMARK SMILES IDX 11 13 9 14 10 15 98 16 90 17 8 18 5 19 6 20 100 21 7 22
REMARK SMILES IDX 99 23 2 24 1 25 3 26 4 27 91 28 92 29 97 30 93 31 96 32
REMARK SMILES IDX 94 33 95 34 21 35 22 36 23 37 24 39 25 40 26 41 87 42 27 43
REMARK SMILES IDX 86 44 28 45 29 46 30 47 80 48 31 49 85 50 79 51 81 52 32 53
REMARK SMILES IDX 84 54 78 55 77 56 33 58 65 59 45 60 64 61 46 62 49 63 63 64
REMARK SMILES IDX 82 65 47 66 48 67 62 69 83 70 50 71 34 72 35 73 43 74 36 75
REMARK SMILES IDX 42 76 44 77 41 78 37 79 38 80 39 81 40 82 66 83 67 84 75 85
REMARK SMILES IDX 68 86 74 87 76 88 73 89 69 90 70 91 71 92 72 93 51 94 52 95
REMARK SMILES IDX 60 96 53 97 59 98 61 99 58 100 54 101 55 102 56 103 57 104
REMARK H PARENT 18 6 22 38 81 57 49 68
REMARK Flexibility Score: inf
ROOT
ATOM      1  C   UNL A   1      34.812  32.499  30.808  1.00  0.00     0.042 C 
ENDROOT
BRANCH   1   2
ATOM      2  C   UNL A   1      36.249  32.535  31.324  1.00  0.00     0.118 C 
BRANCH   2   3
ATOM      3  N   UNL A   1      36.401  33.445  32.448  1.00  0.00    -0.352 N 
ATOM      4  C   UNL A   1      37.413  34.312  32.777  1.00  0.00     0.251 C 
ATOM      5  O   UNL A   1      37.233  35.105  33.701  1.00  0.00    -0.269 OA
ATOM      6  H   UNL A   1      35.647  33.438  33.082  1.00  0.00     0.163 HD
BRANCH   4   7
ATOM      7  C   UNL A   1      38.690  34.363  32.019  1.00  0.00     0.039 A 
ATOM      8  C   UNL A   1      41.046  34.402  30.474  1.00  0.00     0.060 A 
ATOM      9  C   UNL A   1      39.795  34.315  29.856  1.00  0.00     0.029 A 
ATOM     10  C   UNL A   1      41.099  34.531  31.864  1.00  0.00     0.029 A 
ATOM     11  C   UNL A   1      38.624  34.296  30.621  1.00  0.00     0.016 A 
ATOM     12  C   UNL A   1      39.933  34.529  32.630  1.00  0.00     0.016 A 
BRANCH   8  13
ATOM     13  N   UNL A   1      42.229  34.333  29.751  1.00  0.00    -0.257 N 
ATOM     14  C   UNL A   1      43.972  33.267  29.176  1.00  0.00     0.071 C 
ATOM     15  N   UNL A   1      42.700  33.124  29.368  1.00  0.00    -0.176 NA
ATOM     16  C   UNL A   1      44.540  34.619  29.515  1.00  0.00     0.091 C 
ATOM     17  C   UNL A   1      43.246  35.381  29.846  1.00  0.00     0.144 C 
BRANCH  14  18
ATOM     18  C   UNL A   1      44.813  32.177  28.656  1.00  0.00    -0.002 A 
ATOM     19  C   UNL A   1      46.427  30.177  27.598  1.00  0.00     0.067 A 
ATOM     20  C   UNL A   1      46.419  31.440  27.002  1.00  0.00     0.021 A 
ATOM     21  C   UNL A   1      45.635  29.909  28.723  1.00  0.00     0.021 A 
ATOM     22  C   UNL A   1      45.594  32.435  27.523  1.00  0.00     0.011 A 
ATOM     23  C   UNL A   1      44.831  30.918  29.260  1.00  0.00     0.011 A 
BRANCH  19  24
ATOM     24  S   UNL A   1      47.477  28.908  26.931  1.00  0.00     0.175 S 
ATOM     25  C   UNL A   1      46.525  28.180  25.623  1.00  0.00     0.163 C 
ATOM     26  O   UNL A   1      47.651  27.899  27.956  1.00  0.00    -0.224 OA
ATOM     27  O   UNL A   1      48.624  29.583  26.346  1.00  0.00    -0.224 OA
ENDBRANCH  19  24
ENDBRANCH  14  18
BRANCH  17  28
ATOM     28  C   UNL A   1      42.865  36.556  28.954  1.00  0.00    -0.023 A 
ATOM     29  C   UNL A   1      42.272  36.414  27.690  1.00  0.00     0.007 A 
ATOM     30  C   UNL A   1      43.035  37.862  29.460  1.00  0.00     0.007 A 
ATOM     31  C   UNL A   1      41.890  37.538  26.946  1.00  0.00     0.021 A 
ATOM     32  C   UNL A   1      42.633  38.983  28.728  1.00  0.00     0.021 A 
ATOM     33  C   UNL A   1      42.067  38.816  27.470  1.00  0.00     0.041 A 
ATOM     34  Cl  UNL A   1      41.574  40.192  26.564  1.00  0.00    -0.084 Cl
ENDBRANCH  17  28
ENDBRANCH   8  13
ENDBRANCH   4   7
ENDBRANCH   2   3
ENDBRANCH   1   2
BRANCH   1  35
ATOM     35  C   UNL A   1      34.668  32.936  29.354  1.00  0.00     0.118 C 
BRANCH  35  36
ATOM     36  N   UNL A   1      34.094  31.891  28.520  1.00  0.00    -0.352 N 
ATOM     37  C   UNL A   1      34.676  30.754  28.013  1.00  0.00     0.251 C 
ATOM     38  H   UNL A   1      33.146  32.017  28.284  1.00  0.00     0.163 HD
ATOM     39  O   UNL A   1      34.079  30.109  27.155  1.00  0.00    -0.269 OA
BRANCH  37  40
ATOM     40  C   UNL A   1      36.015  30.318  28.475  1.00  0.00     0.039 A 
ATOM     41  C   UNL A   1      36.101  29.399  29.526  1.00  0.00     0.014 A 
ATOM     42  C   UNL A   1      37.182  30.831  27.903  1.00  0.00     0.014 A 
ATOM     43  C   UNL A   1      37.352  28.949  29.960  1.00  0.00     0.010 A 
ATOM     44  C   UNL A   1      38.424  30.332  28.291  1.00  0.00     0.010 A 
ATOM     45  C   UNL A   1      38.524  29.387  29.324  1.00  0.00    -0.014 A 
BRANCH  45  46
ATOM     46  C   UNL A   1      39.863  28.879  29.722  1.00  0.00     0.031 A 
ATOM     47  C   UNL A   1      40.632  29.566  30.819  1.00  0.00     0.074 A 
ATOM     48  C   UNL A   1      40.418  27.853  29.046  1.00  0.00     0.049 A 
ATOM     49  N   UNL A   1      41.859  29.363  31.224  1.00  0.00    -0.248 NA
ATOM     50  C   UNL A   1      39.933  30.644  31.532  1.00  0.00     0.031 C 
ATOM     51  C   UNL A   1      39.783  27.123  27.947  1.00  0.00     0.029 A 
ATOM     52  N   UNL A   1      41.649  27.258  29.171  1.00  0.00    -0.354 N 
ATOM     53  C   UNL A   1      42.089  30.300  32.227  1.00  0.00     0.074 A 
ATOM     54  C   UNL A   1      40.887  31.103  32.328  1.00  0.00     0.031 C 
ATOM     55  C   UNL A   1      40.625  26.174  27.506  1.00  0.00     0.029 A 
ATOM     56  C   UNL A   1      41.875  26.257  28.255  1.00  0.00     0.049 A 
ATOM     57  H   UNL A   1      42.308  27.524  29.852  1.00  0.00     0.167 HD
ATOM     58  C   UNL A   1      43.190  30.463  33.000  1.00  0.00     0.034 A 
ATOM     59  C   UNL A   1      42.971  25.507  28.028  1.00  0.00     0.034 A 
ATOM     60  C   UNL A   1      44.374  29.645  32.895  1.00  0.00     0.049 A 
ATOM     61  C   UNL A   1      44.194  25.724  28.883  1.00  0.00     0.074 A 
ATOM     62  C   UNL A   1      45.526  29.690  33.662  1.00  0.00     0.029 A 
ATOM     63  N   UNL A   1      44.562  28.634  31.961  1.00  0.00    -0.354 N 
ATOM     64  N   UNL A   1      44.383  26.592  29.849  1.00  0.00    -0.248 NA
ATOM     65  C   UNL A   1      45.349  24.854  28.620  1.00  0.00     0.031 C 
ATOM     66  C   UNL A   1      46.430  28.750  33.154  1.00  0.00     0.029 A 
ATOM     67  C   UNL A   1      45.818  28.069  32.114  1.00  0.00     0.049 A 
ATOM     68  H   UNL A   1      43.898  28.359  31.287  1.00  0.00     0.167 HD
ATOM     69  C   UNL A   1      45.666  26.351  30.329  1.00  0.00     0.074 A 
ATOM     70  C   UNL A   1      46.202  25.252  29.552  1.00  0.00     0.031 C 
ATOM     71  C   UNL A   1      46.341  26.978  31.326  1.00  0.00     0.034 A 
BRANCH  58  72
ATOM     72  C   UNL A   1      43.171  31.591  34.005  1.00  0.00     0.023 A 
ATOM     73  C   UNL A   1      42.570  31.443  35.268  1.00  0.00     0.031 A 
ATOM     74  C   UNL A   1      43.731  32.840  33.687  1.00  0.00     0.131 A 
ATOM     75  C   UNL A   1      42.471  32.545  36.131  1.00  0.00     0.055 A 
ATOM     76  C   UNL A   1      43.703  33.911  34.583  1.00  0.00     0.041 A 
ATOM     77  F   UNL A   1      44.302  33.048  32.490  1.00  0.00    -0.206 F 
ATOM     78  C   UNL A   1      43.056  33.771  35.808  1.00  0.00     0.022 A 
BRANCH  75  79
ATOM     79  S   UNL A   1      41.444  32.392  37.617  1.00  0.00     0.124 S 
ATOM     80  O   UNL A   1      41.271  33.791  38.001  1.00  0.00    -0.237 OA
ATOM     81  O   UNL A   1      40.254  31.717  37.111  1.00  0.00    -0.237 OA
ATOM     82  O   UNL A   1      42.271  31.602  38.526  1.00  0.00    -0.744 OA
ENDBRANCH  75  79
ENDBRANCH  58  72
BRANCH  59  83
ATOM     83  C   UNL A   1      42.976  24.491  26.937  1.00  0.00     0.023 A 
ATOM     84  C   UNL A   1      42.399  23.226  27.126  1.00  0.00     0.031 A 
ATOM     85  C   UNL A   1      43.594  24.758  25.703  1.00  0.00     0.131 A 
ATOM     86  C   UNL A   1      42.486  22.259  26.112  1.00  0.00     0.055 A 
ATOM     87  C   UNL A   1      43.635  23.810  24.679  1.00  0.00     0.041 A 
ATOM     88  F   UNL A   1      44.156  25.955  25.470  1.00  0.00    -0.206 F 
ATOM     89  C   UNL A   1      43.090  22.547  24.886  1.00  0.00     0.022 A 
BRANCH  86  90
ATOM     90  S   UNL A   1      41.865  20.589  26.449  1.00  0.00     0.124 S 
ATOM     91  O   UNL A   1      40.432  20.755  26.235  1.00  0.00    -0.237 OA
ATOM     92  O   UNL A   1      42.576  19.796  25.453  1.00  0.00    -0.237 OA
ATOM     93  O   UNL A   1      42.266  20.350  27.834  1.00  0.00    -0.744 OA
ENDBRANCH  86  90
ENDBRANCH  59  83
BRANCH  71  94
ATOM     94  C   UNL A   1      47.712  26.448  31.663  1.00  0.00     0.023 A 
ATOM     95  C   UNL A   1      48.869  26.931  31.028  1.00  0.00     0.031 A 
ATOM     96  C   UNL A   1      47.858  25.440  32.632  1.00  0.00     0.131 A 
ATOM     97  C   UNL A   1      50.118  26.371  31.336  1.00  0.00     0.055 A 
ATOM     98  C   UNL A   1      49.109  24.925  32.973  1.00  0.00     0.041 A 
ATOM     99  F   UNL A   1      46.784  24.943  33.267  1.00  0.00    -0.206 F 
ATOM    100  C   UNL A   1      50.247  25.382  32.315  1.00  0.00     0.022 A 
BRANCH  97 101
ATOM    101  S   UNL A   1      51.571  26.903  30.388  1.00  0.00     0.124 S 
ATOM    102  O   UNL A   1      52.623  26.867  31.398  1.00  0.00    -0.237 OA
ATOM    103  O   UNL A   1      51.654  25.887  29.344  1.00  0.00    -0.237 OA
ATOM    104  O   UNL A   1      51.204  28.239  29.922  1.00  0.00    -0.744 OA
ENDBRANCH  97 101
ENDBRANCH  71  94
ENDBRANCH  45  46
ENDBRANCH  37  40
ENDBRANCH  35  36
ENDBRANCH   1  35
TORSDOF 17
ENDMDL
MODEL 3
REMARK VINA RESULT:     -12.1      2.036      7.426
REMARK SMILES CS(=O)(=O)c1ccc(C2=NN(c3ccc(C(=O)NCCCNC(=O)c4ccc(-c5c6nc(c(-c7cc(S(=O)(=O)[O-])ccc7F)c7ccc([nH]7)c(-c7cc(S(=O)(=O)[O-])ccc7F)c7nc(c(-c8cc(S(=O)(=O)[O-])ccc8F)c8ccc5[nH]8)C=C7)C=C6)cc4)cc3)[C@H](c3ccc(Cl)cc3)C2)cc1
REMARK SMILES IDX 20 1 19 2 18 3 16 4 17 5 15 7 12 8 13 9 89 10 14 11 88 12
REMARK SMILES IDX 11 13 9 14 10 15 98 16 90 17 8 18 5 19 6 20 100 21 7 22
REMARK SMILES IDX 99 23 2 24 1 25 3 26 4 27 91 28 92 29 97 30 93 31 96 32
REMARK SMILES IDX 94 33 95 34 21 35 22 36 23 37 24 39 25 40 26 41 87 42 27 43
REMARK SMILES IDX 86 44 28 45 29 46 30 47 80 48 31 49 85 50 79 51 81 52 32 53
REMARK SMILES IDX 84 54 78 55 77 56 33 58 65 59 45 60 64 61 46 62 49 63 63 64
REMARK SMILES IDX 82 65 47 66 48 67 62 69 83 70 50 71 34 72 35 73 43 74 36 75
REMARK SMILES IDX 42 76 44 77 41 78 37 79 38 80 39 81 40 82 66 83 67 84 75 85
REMARK SMILES IDX 68 86 74 87 76 88 73 89 69 90 70 91 71 92 72 93 51 94 52 95
REMARK SMILES IDX 60 96 53 97 59 98 61 99 58 100 54 101 55 102 56 103 57 104
REMARK H PARENT 18 6 22 38 81 57 49 68
REMARK Flexibility Score: inf
ROOT
ATOM      1  C   UNL A   1      32.730  33.548  27.607  1.00  0.00     0.042 C 
ENDROOT
BRANCH   1   2
ATOM      2  C   UNL A   1      32.770  32.023  27.545  1.00  0.00     0.118 C 
BRANCH   2   3
ATOM      3  N   UNL A   1      33.988  31.486  28.130  1.00  0.00    -0.352 N 
ATOM      4  C   UNL A   1      34.638  30.294  27.926  1.00  0.00     0.251 C 
ATOM      5  O   UNL A   1      35.753  30.139  28.421  1.00  0.00    -0.269 OA
ATOM      6  H   UNL A   1      34.422  32.081  28.783  1.00  0.00     0.163 HD
BRANCH   4   7
ATOM      7  C   UNL A   1      34.064  29.214  27.082  1.00  0.00     0.039 A 
ATOM      8  C   UNL A   1      32.924  27.108  25.597  1.00  0.00     0.060 A 
ATOM      9  C   UNL A   1      32.439  27.421  26.871  1.00  0.00     0.029 A 
ATOM     10  C   UNL A   1      33.940  27.898  25.055  1.00  0.00     0.029 A 
ATOM     11  C   UNL A   1      33.003  28.466  27.609  1.00  0.00     0.016 A 
ATOM     12  C   UNL A   1      34.495  28.952  25.781  1.00  0.00     0.016 A 
BRANCH   8  13
ATOM     13  N   UNL A   1      32.447  26.022  24.876  1.00  0.00    -0.257 N 
ATOM     14  C   UNL A   1      32.673  24.021  24.201  1.00  0.00     0.071 C 
ATOM     15  N   UNL A   1      32.808  24.772  25.247  1.00  0.00    -0.176 NA
ATOM     16  C   UNL A   1      32.283  24.730  22.932  1.00  0.00     0.091 C 
ATOM     17  C   UNL A   1      32.051  26.150  23.473  1.00  0.00     0.144 C 
BRANCH  14  18
ATOM     18  C   UNL A   1      32.884  22.567  24.248  1.00  0.00    -0.002 A 
ATOM     19  C   UNL A   1      33.352  19.832  24.408  1.00  0.00     0.067 A 
ATOM     20  C   UNL A   1      33.980  20.690  25.314  1.00  0.00     0.021 A 
ATOM     21  C   UNL A   1      32.489  20.332  23.425  1.00  0.00     0.021 A 
ATOM     22  C   UNL A   1      33.759  22.063  25.219  1.00  0.00     0.011 A 
ATOM     23  C   UNL A   1      32.246  21.707  23.351  1.00  0.00     0.011 A 
BRANCH  19  24
ATOM     24  S   UNL A   1      33.638  18.082  24.529  1.00  0.00     0.175 S 
ATOM     25  C   UNL A   1      32.900  17.405  23.064  1.00  0.00     0.163 C 
ATOM     26  O   UNL A   1      32.882  17.591  25.663  1.00  0.00    -0.224 OA
ATOM     27  O   UNL A   1      35.076  17.889  24.451  1.00  0.00    -0.224 OA
ENDBRANCH  19  24
ENDBRANCH  14  18
BRANCH  17  28
ATOM     28  C   UNL A   1      30.642  26.723  23.383  1.00  0.00    -0.023 A 
ATOM     29  C   UNL A   1      29.512  26.104  23.939  1.00  0.00     0.007 A 
ATOM     30  C   UNL A   1      30.472  27.990  22.785  1.00  0.00     0.007 A 
ATOM     31  C   UNL A   1      28.253  26.716  23.874  1.00  0.00     0.021 A 
ATOM     32  C   UNL A   1      29.221  28.611  22.741  1.00  0.00     0.021 A 
ATOM     33  C   UNL A   1      28.114  27.967  23.280  1.00  0.00     0.041 A 
ATOM     34  Cl  UNL A   1      26.572  28.725  23.224  1.00  0.00    -0.084 Cl
ENDBRANCH  17  28
ENDBRANCH   8  13
ENDBRANCH   4   7
ENDBRANCH   2   3
ENDBRANCH   1   2
BRANCH   1  35
ATOM     35  C   UNL A   1      33.739  34.153  28.578  1.00  0.00     0.118 C 
BRANCH  35  36
ATOM     36  N   UNL A   1      33.092  34.833  29.690  1.00  0.00    -0.352 N 
ATOM     37  C   UNL A   1      33.391  34.803  31.031  1.00  0.00     0.251 C 
ATOM     38  H   UNL A   1      32.324  35.399  29.445  1.00  0.00     0.163 HD
ATOM     39  O   UNL A   1      32.591  35.279  31.833  1.00  0.00    -0.269 OA
BRANCH  37  40
ATOM     40  C   UNL A   1      34.651  34.188  31.512  1.00  0.00     0.039 A 
ATOM     41  C   UNL A   1      34.640  32.846  31.907  1.00  0.00     0.014 A 
ATOM     42  C   UNL A   1      35.832  34.930  31.604  1.00  0.00     0.014 A 
ATOM     43  C   UNL A   1      35.822  32.234  32.334  1.00  0.00     0.010 A 
ATOM     44  C   UNL A   1      37.022  34.302  31.968  1.00  0.00     0.010 A 
ATOM     45  C   UNL A   1      37.031  32.948  32.337  1.00  0.00    -0.014 A 
BRANCH  45  46
ATOM     46  C   UNL A   1      38.314  32.306  32.727  1.00  0.00     0.031 A 
ATOM     47  C   UNL A   1      38.927  31.254  31.842  1.00  0.00     0.074 A 
ATOM     48  C   UNL A   1      38.884  32.611  33.910  1.00  0.00     0.049 A 
ATOM     49  N   UNL A   1      39.963  30.486  32.061  1.00  0.00    -0.248 NA
ATOM     50  C   UNL A   1      38.265  31.018  30.551  1.00  0.00     0.031 C 
ATOM     51  C   UNL A   1      38.371  33.595  34.865  1.00  0.00     0.029 A 
ATOM     52  N   UNL A   1      40.008  32.113  34.519  1.00  0.00    -0.354 N 
ATOM     53  C   UNL A   1      40.068  29.661  30.946  1.00  0.00     0.074 A 
ATOM     54  C   UNL A   1      38.956  29.992  30.078  1.00  0.00     0.031 C 
ATOM     55  C   UNL A   1      39.184  33.634  35.935  1.00  0.00     0.029 A 
ATOM     56  C   UNL A   1      40.246  32.647  35.764  1.00  0.00     0.049 A 
ATOM     57  H   UNL A   1      40.590  31.436  34.103  1.00  0.00     0.167 HD
ATOM     58  C   UNL A   1      41.011  28.728  30.666  1.00  0.00     0.034 A 
ATOM     59  C   UNL A   1      41.197  32.361  36.674  1.00  0.00     0.034 A 
ATOM     60  C   UNL A   1      42.121  28.420  31.536  1.00  0.00     0.049 A 
ATOM     61  C   UNL A   1      42.220  31.301  36.353  1.00  0.00     0.074 A 
ATOM     62  C   UNL A   1      43.162  27.531  31.327  1.00  0.00     0.029 A 
ATOM     63  N   UNL A   1      42.332  28.989  32.786  1.00  0.00    -0.354 N 
ATOM     64  N   UNL A   1      42.324  30.553  35.280  1.00  0.00    -0.248 NA
ATOM     65  C   UNL A   1      43.257  31.053  37.363  1.00  0.00     0.031 C 
ATOM     66  C   UNL A   1      43.966  27.519  32.473  1.00  0.00     0.029 A 
ATOM     67  C   UNL A   1      43.469  28.451  33.369  1.00  0.00     0.049 A 
ATOM     68  H   UNL A   1      41.758  29.676  33.198  1.00  0.00     0.167 HD
ATOM     69  C   UNL A   1      43.457  29.767  35.474  1.00  0.00     0.074 A 
ATOM     70  C   UNL A   1      44.005  30.139  36.763  1.00  0.00     0.031 C 
ATOM     71  C   UNL A   1      43.999  28.827  34.658  1.00  0.00     0.034 A 
BRANCH  58  72
ATOM     72  C   UNL A   1      40.860  27.955  29.377  1.00  0.00     0.023 A 
ATOM     73  C   UNL A   1      41.714  28.174  28.281  1.00  0.00     0.031 A 
ATOM     74  C   UNL A   1      39.831  27.009  29.229  1.00  0.00     0.131 A 
ATOM     75  C   UNL A   1      41.473  27.519  27.063  1.00  0.00     0.055 A 
ATOM     76  C   UNL A   1      39.647  26.299  28.040  1.00  0.00     0.041 A 
ATOM     77  F   UNL A   1      38.973  26.769  30.233  1.00  0.00    -0.206 F 
ATOM     78  C   UNL A   1      40.462  26.564  26.943  1.00  0.00     0.022 A 
BRANCH  75  79
ATOM     79  S   UNL A   1      42.410  28.040  25.601  1.00  0.00     0.124 S 
ATOM     80  O   UNL A   1      42.398  26.821  24.795  1.00  0.00    -0.237 OA
ATOM     81  O   UNL A   1      41.613  29.150  25.093  1.00  0.00    -0.237 OA
ATOM     82  O   UNL A   1      43.717  28.406  26.143  1.00  0.00    -0.744 OA
ENDBRANCH  75  79
ENDBRANCH  58  72
BRANCH  59  83
ATOM     83  C   UNL A   1      41.223  33.069  37.986  1.00  0.00     0.023 A 
ATOM     84  C   UNL A   1      40.410  32.649  39.049  1.00  0.00     0.031 A 
ATOM     85  C   UNL A   1      42.034  34.201  38.180  1.00  0.00     0.131 A 
ATOM     86  C   UNL A   1      40.394  33.380  40.248  1.00  0.00     0.055 A 
ATOM     87  C   UNL A   1      42.052  34.896  39.391  1.00  0.00     0.041 A 
ATOM     88  F   UNL A   1      42.835  34.640  37.196  1.00  0.00    -0.206 F 
ATOM     89  C   UNL A   1      41.218  34.493  40.430  1.00  0.00     0.022 A 
BRANCH  86  90
ATOM     90  S   UNL A   1      39.219  32.898  41.542  1.00  0.00     0.124 S 
ATOM     91  O   UNL A   1      39.104  31.462  41.321  1.00  0.00    -0.237 OA
ATOM     92  O   UNL A   1      39.920  33.308  42.754  1.00  0.00    -0.237 OA
ATOM     93  O   UNL A   1      38.024  33.677  41.224  1.00  0.00    -0.744 OA
ENDBRANCH  86  90
ENDBRANCH  59  83
BRANCH  71  94
ATOM     94  C   UNL A   1      45.279  28.178  35.120  1.00  0.00     0.023 A 
ATOM     95  C   UNL A   1      46.539  28.713  34.799  1.00  0.00     0.031 A 
ATOM     96  C   UNL A   1      45.234  27.001  35.887  1.00  0.00     0.131 A 
ATOM     97  C   UNL A   1      47.704  28.045  35.206  1.00  0.00     0.055 A 
ATOM     98  C   UNL A   1      46.396  26.371  36.335  1.00  0.00     0.041 A 
ATOM     99  F   UNL A   1      44.056  26.448  36.220  1.00  0.00    -0.206 F 
ATOM    100  C   UNL A   1      47.640  26.887  35.985  1.00  0.00     0.022 A 
BRANCH  97 101
ATOM    101  S   UNL A   1      49.310  28.673  34.644  1.00  0.00     0.124 S 
ATOM    102  O   UNL A   1      49.228  30.085  35.004  1.00  0.00    -0.237 OA
ATOM    103  O   UNL A   1      50.250  27.871  35.420  1.00  0.00    -0.237 OA
ATOM    104  O   UNL A   1      49.302  28.398  33.208  1.00  0.00    -0.744 OA
ENDBRANCH  97 101
ENDBRANCH  71  94
ENDBRANCH  45  46
ENDBRANCH  37  40
ENDBRANCH  35  36
ENDBRANCH   1  35
TORSDOF 17
ENDMDL
