MODEL 1
REMARK VINA RESULT:     -11.6      0.000      0.000
REMARK SMILES CC(C)[N@@H+]1CC[C@@H]([N@@H+]2CC[C@@H](C(=O)NCCCNC(=O)c3ccc(-c4c5nc(c(-c6cc(S(=O)(=O)[O-])ccc6F)c6ccc([nH]6)c(-c6cc(S(=O)(=O)[O-])ccc6F)c6nc(c(-c7cc(S(=O)(=O)[O-])ccc7F)c7ccc4[nH]7)C=C6)C=C5)cc3)[C@H]2C)C1
REMARK SMILES IDX 16 1 15 2 14 3 12 4 13 5 11 7 8 8 9 9 84 10 10 12 85 13 7 14
REMARK SMILES IDX 4 15 5 16 86 17 6 19 2 20 1 21 3 22 17 23 18 24 19 25 20 27
REMARK SMILES IDX 21 28 22 29 83 30 23 31 82 32 24 33 25 34 26 35 76 36 27 37
REMARK SMILES IDX 81 38 75 39 77 40 28 41 80 42 74 43 73 44 29 46 61 47 41 48
REMARK SMILES IDX 60 49 42 50 45 51 59 52 78 53 43 54 44 55 58 57 79 58 46 59
REMARK SMILES IDX 30 60 31 61 39 62 32 63 38 64 40 65 37 66 33 67 34 68 35 69
REMARK SMILES IDX 36 70 62 71 63 72 71 73 64 74 70 75 72 76 69 77 65 78 66 79
REMARK SMILES IDX 67 80 68 81 47 82 48 83 56 84 49 85 55 86 57 87 54 88 50 89
REMARK SMILES IDX 51 90 52 91 53 92
REMARK H PARENT 14 6 8 11 4 18 18 26 77 45 45 56
REMARK Flexibility Score: inf
ROOT
ATOM      1  C   UNL A   1      31.555  31.604  26.517  1.00  0.00     0.042 C 
ENDROOT
BRANCH   1   2
ATOM      2  C   UNL A   1      31.798  30.211  25.945  1.00  0.00     0.117 C 
BRANCH   2   3
ATOM      3  N   UNL A   1      31.160  30.043  24.653  1.00  0.00    -0.356 N 
ATOM      4  C   UNL A   1      31.335  29.089  23.700  1.00  0.00     0.229 C 
ATOM      5  O   UNL A   1      30.797  29.267  22.607  1.00  0.00    -0.275 OA
ATOM      6  H   UNL A   1      30.491  30.730  24.430  1.00  0.00     0.163 HD
BRANCH   4   7
ATOM      7  C   UNL A   1      32.188  27.869  23.998  1.00  0.00     0.142 C 
ATOM      8  N   UNL A   1      31.817  25.548  23.376  1.00  0.00    -0.325 N 
ATOM      9  C   UNL A   1      32.352  26.277  22.219  1.00  0.00     0.263 C 
ATOM     10  C   UNL A   1      31.401  26.587  24.348  1.00  0.00     0.194 C 
ATOM     11  H   UNL A   1      31.033  24.976  23.064  1.00  0.00     0.348 HD
ATOM     12  C   UNL A   1      33.018  27.519  22.769  1.00  0.00     0.081 C 
ATOM     13  C   UNL A   1      29.875  26.695  24.342  1.00  0.00     0.076 C 
BRANCH   8  14
ATOM     14  C   UNL A   1      32.671  24.493  23.960  1.00  0.00     0.245 C 
ATOM     15  N   UNL A   1      35.110  24.451  24.179  1.00  0.00    -0.328 N 
ATOM     16  C   UNL A   1      34.525  25.182  25.316  1.00  0.00     0.269 C 
ATOM     17  C   UNL A   1      34.012  24.267  23.212  1.00  0.00     0.328 C 
ATOM     18  H   UNL A   1      35.842  24.951  23.676  1.00  0.00     0.348 HD
ATOM     19  C   UNL A   1      33.112  24.641  25.415  1.00  0.00     0.132 C 
BRANCH  15  20
ATOM     20  C   UNL A   1      35.876  23.281  24.636  1.00  0.00     0.177 C 
ATOM     21  C   UNL A   1      36.726  22.541  23.602  1.00  0.00     0.075 C 
ATOM     22  C   UNL A   1      36.785  23.788  25.764  1.00  0.00     0.075 C 
ENDBRANCH  15  20
ENDBRANCH   8  14
ENDBRANCH   4   7
ENDBRANCH   2   3
ENDBRANCH   1   2
BRANCH   1  23
ATOM     23  C   UNL A   1      32.786  32.229  27.172  1.00  0.00     0.118 C 
BRANCH  23  24
ATOM     24  N   UNL A   1      32.605  33.643  27.469  1.00  0.00    -0.352 N 
ATOM     25  C   UNL A   1      33.178  34.427  28.436  1.00  0.00     0.251 C 
ATOM     26  H   UNL A   1      31.967  34.111  26.881  1.00  0.00     0.163 HD
ATOM     27  O   UNL A   1      32.719  35.549  28.648  1.00  0.00    -0.269 OA
BRANCH  25  28
ATOM     28  C   UNL A   1      34.320  33.926  29.228  1.00  0.00     0.039 A 
ATOM     29  C   UNL A   1      34.082  32.992  30.239  1.00  0.00     0.014 A 
ATOM     30  C   UNL A   1      35.618  34.387  28.991  1.00  0.00     0.014 A 
ATOM     31  C   UNL A   1      35.155  32.468  30.963  1.00  0.00     0.010 A 
ATOM     32  C   UNL A   1      36.693  33.805  29.658  1.00  0.00     0.010 A 
ATOM     33  C   UNL A   1      36.474  32.838  30.651  1.00  0.00    -0.014 A 
BRANCH  33  34
ATOM     34  C   UNL A   1      37.631  32.217  31.346  1.00  0.00     0.031 A 
ATOM     35  C   UNL A   1      38.385  31.085  30.700  1.00  0.00     0.074 A 
ATOM     36  C   UNL A   1      37.963  32.633  32.584  1.00  0.00     0.049 A 
ATOM     37  N   UNL A   1      39.372  30.371  31.176  1.00  0.00    -0.248 NA
ATOM     38  C   UNL A   1      37.954  30.688  29.352  1.00  0.00     0.031 C 
ATOM     39  C   UNL A   1      37.282  33.696  33.328  1.00  0.00     0.029 A 
ATOM     40  N   UNL A   1      38.949  32.212  33.441  1.00  0.00    -0.354 N 
ATOM     41  C   UNL A   1      39.672  29.434  30.194  1.00  0.00     0.074 A 
ATOM     42  C   UNL A   1      38.720  29.633  29.122  1.00  0.00     0.031 C 
ATOM     43  C   UNL A   1      37.886  33.861  34.514  1.00  0.00     0.029 A 
ATOM     44  C   UNL A   1      38.961  32.883  34.643  1.00  0.00     0.049 A 
ATOM     45  H   UNL A   1      39.588  31.497  33.217  1.00  0.00     0.167 HD
ATOM     46  C   UNL A   1      40.664  28.508  30.179  1.00  0.00     0.034 A 
ATOM     47  C   UNL A   1      39.737  32.718  35.732  1.00  0.00     0.034 A 
ATOM     48  C   UNL A   1      41.608  28.330  31.256  1.00  0.00     0.049 A 
ATOM     49  C   UNL A   1      40.809  31.656  35.707  1.00  0.00     0.074 A 
ATOM     50  C   UNL A   1      42.683  27.460  31.322  1.00  0.00     0.029 A 
ATOM     51  N   UNL A   1      41.584  29.020  32.461  1.00  0.00    -0.354 N 
ATOM     52  N   UNL A   1      41.114  30.814  34.747  1.00  0.00    -0.248 NA
ATOM     53  C   UNL A   1      41.647  31.531  36.907  1.00  0.00     0.031 C 
ATOM     54  C   UNL A   1      43.257  27.567  32.593  1.00  0.00     0.029 A 
ATOM     55  C   UNL A   1      42.602  28.569  33.290  1.00  0.00     0.049 A 
ATOM     56  H   UNL A   1      40.940  29.727  32.693  1.00  0.00     0.167 HD
ATOM     57  C   UNL A   1      42.203  30.083  35.217  1.00  0.00     0.074 A 
ATOM     58  C   UNL A   1      42.508  30.597  36.535  1.00  0.00     0.031 C 
ATOM     59  C   UNL A   1      42.890  29.082  34.610  1.00  0.00     0.034 A 
BRANCH  46  60
ATOM     60  C   UNL A   1      40.756  27.602  28.973  1.00  0.00     0.023 A 
ATOM     61  C   UNL A   1      41.712  27.808  27.963  1.00  0.00     0.031 A 
ATOM     62  C   UNL A   1      39.867  26.522  28.825  1.00  0.00     0.131 A 
ATOM     63  C   UNL A   1      41.708  26.998  26.817  1.00  0.00     0.055 A 
ATOM     64  C   UNL A   1      39.925  25.666  27.723  1.00  0.00     0.041 A 
ATOM     65  F   UNL A   1      38.919  26.286  29.744  1.00  0.00    -0.206 F 
ATOM     66  C   UNL A   1      40.840  25.910  26.703  1.00  0.00     0.022 A 
BRANCH  63  67
ATOM     67  S   UNL A   1      42.753  27.476  25.415  1.00  0.00     0.124 S 
ATOM     68  O   UNL A   1      42.717  26.267  24.595  1.00  0.00    -0.237 OA
ATOM     69  O   UNL A   1      42.050  28.633  24.876  1.00  0.00    -0.237 OA
ATOM     70  O   UNL A   1      44.047  27.761  26.032  1.00  0.00    -0.744 OA
ENDBRANCH  63  67
ENDBRANCH  46  60
BRANCH  47  71
ATOM     71  C   UNL A   1      39.526  33.559  36.947  1.00  0.00     0.023 A 
ATOM     72  C   UNL A   1      40.324  34.687  37.197  1.00  0.00     0.031 A 
ATOM     73  C   UNL A   1      38.552  33.218  37.904  1.00  0.00     0.131 A 
ATOM     74  C   UNL A   1      40.171  35.401  38.395  1.00  0.00     0.055 A 
ATOM     75  C   UNL A   1      38.362  33.970  39.065  1.00  0.00     0.041 A 
ATOM     76  F   UNL A   1      37.759  32.151  37.716  1.00  0.00    -0.206 F 
ATOM     77  C   UNL A   1      39.186  35.060  39.323  1.00  0.00     0.022 A 
BRANCH  74  78
ATOM     78  S   UNL A   1      41.350  36.728  38.771  1.00  0.00     0.124 S 
ATOM     79  O   UNL A   1      42.097  36.153  39.885  1.00  0.00    -0.237 OA
ATOM     80  O   UNL A   1      42.074  36.855  37.511  1.00  0.00    -0.237 OA
ATOM     81  O   UNL A   1      40.491  37.859  39.111  1.00  0.00    -0.744 OA
ENDBRANCH  74  78
ENDBRANCH  47  71
BRANCH  59  82
ATOM     82  C   UNL A   1      44.076  28.511  35.353  1.00  0.00     0.023 A 
ATOM     83  C   UNL A   1      43.944  27.441  36.253  1.00  0.00     0.031 A 
ATOM     84  C   UNL A   1      45.357  29.059  35.161  1.00  0.00     0.131 A 
ATOM     85  C   UNL A   1      45.063  26.991  36.972  1.00  0.00     0.055 A 
ATOM     86  C   UNL A   1      46.478  28.562  35.827  1.00  0.00     0.041 A 
ATOM     87  F   UNL A   1      45.544  30.087  34.317  1.00  0.00    -0.206 F 
ATOM     88  C   UNL A   1      46.331  27.530  36.750  1.00  0.00     0.022 A 
BRANCH  85  89
ATOM     89  S   UNL A   1      44.818  25.758  38.281  1.00  0.00     0.124 S 
ATOM     90  O   UNL A   1      46.178  25.278  38.504  1.00  0.00    -0.237 OA
ATOM     91  O   UNL A   1      44.240  26.557  39.358  1.00  0.00    -0.237 OA
ATOM     92  O   UNL A   1      43.909  24.789  37.674  1.00  0.00    -0.744 OA
ENDBRANCH  85  89
ENDBRANCH  59  82
ENDBRANCH  33  34
ENDBRANCH  25  28
ENDBRANCH  23  24
ENDBRANCH   1  23
TORSDOF 15
ENDMDL
MODEL 2
REMARK VINA RESULT:     -11.5      1.413      1.728
REMARK SMILES CC(C)[N@@H+]1CC[C@@H]([N@@H+]2CC[C@@H](C(=O)NCCCNC(=O)c3ccc(-c4c5nc(c(-c6cc(S(=O)(=O)[O-])ccc6F)c6ccc([nH]6)c(-c6cc(S(=O)(=O)[O-])ccc6F)c6nc(c(-c7cc(S(=O)(=O)[O-])ccc7F)c7ccc4[nH]7)C=C6)C=C5)cc3)[C@H]2C)C1
REMARK SMILES IDX 16 1 15 2 14 3 12 4 13 5 11 7 8 8 9 9 84 10 10 12 85 13 7 14
REMARK SMILES IDX 4 15 5 16 86 17 6 19 2 20 1 21 3 22 17 23 18 24 19 25 20 27
REMARK SMILES IDX 21 28 22 29 83 30 23 31 82 32 24 33 25 34 26 35 76 36 27 37
REMARK SMILES IDX 81 38 75 39 77 40 28 41 80 42 74 43 73 44 29 46 61 47 41 48
REMARK SMILES IDX 60 49 42 50 45 51 59 52 78 53 43 54 44 55 58 57 79 58 46 59
REMARK SMILES IDX 30 60 31 61 39 62 32 63 38 64 40 65 37 66 33 67 34 68 35 69
REMARK SMILES IDX 36 70 62 71 63 72 71 73 64 74 70 75 72 76 69 77 65 78 66 79
REMARK SMILES IDX 67 80 68 81 47 82 48 83 56 84 49 85 55 86 57 87 54 88 50 89
REMARK SMILES IDX 51 90 52 91 53 92
REMARK H PARENT 14 6 8 11 4 18 18 26 77 45 45 56
REMARK Flexibility Score: inf
ROOT
ATOM      1  C   UNL A   1      31.695  31.393  26.489  1.00  0.00     0.042 C 
ENDROOT
BRANCH   1   2
ATOM      2  C   UNL A   1      31.992  30.013  25.911  1.00  0.00     0.117 C 
BRANCH   2   3
ATOM      3  N   UNL A   1      31.483  29.877  24.559  1.00  0.00    -0.356 N 
ATOM      4  C   UNL A   1      31.693  28.905  23.631  1.00  0.00     0.229 C 
ATOM      5  O   UNL A   1      31.285  29.108  22.487  1.00  0.00    -0.275 OA
ATOM      6  H   UNL A   1      30.888  30.604  24.266  1.00  0.00     0.163 HD
BRANCH   4   7
ATOM      7  C   UNL A   1      32.427  27.634  24.019  1.00  0.00     0.142 C 
ATOM      8  N   UNL A   1      31.831  25.320  23.573  1.00  0.00    -0.325 N 
ATOM      9  C   UNL A   1      32.424  25.906  22.364  1.00  0.00     0.263 C 
ATOM     10  C   UNL A   1      31.524  26.463  24.465  1.00  0.00     0.194 C 
ATOM     11  H   UNL A   1      30.993  24.804  23.305  1.00  0.00     0.348 HD
ATOM     12  C   UNL A   1      33.210  27.115  22.819  1.00  0.00     0.081 C 
ATOM     13  C   UNL A   1      30.016  26.717  24.451  1.00  0.00     0.076 C 
BRANCH   8  14
ATOM     14  C   UNL A   1      32.585  24.234  24.232  1.00  0.00     0.245 C 
ATOM     15  N   UNL A   1      34.984  23.757  24.125  1.00  0.00    -0.328 N 
ATOM     16  C   UNL A   1      34.729  24.770  25.163  1.00  0.00     0.269 C 
ATOM     17  C   UNL A   1      33.725  23.628  23.370  1.00  0.00     0.328 C 
ATOM     18  H   UNL A   1      35.694  24.013  23.438  1.00  0.00     0.348 HD
ATOM     19  C   UNL A   1      33.284  24.538  25.557  1.00  0.00     0.132 C 
BRANCH  15  20
ATOM     20  C   UNL A   1      35.612  22.556  24.696  1.00  0.00     0.177 C 
ATOM     21  C   UNL A   1      34.812  21.253  24.663  1.00  0.00     0.075 C 
ATOM     22  C   UNL A   1      36.925  22.359  23.924  1.00  0.00     0.075 C 
ENDBRANCH  15  20
ENDBRANCH   8  14
ENDBRANCH   4   7
ENDBRANCH   2   3
ENDBRANCH   1   2
BRANCH   1  23
ATOM     23  C   UNL A   1      32.864  32.008  27.257  1.00  0.00     0.118 C 
BRANCH  23  24
ATOM     24  N   UNL A   1      32.677  33.429  27.516  1.00  0.00    -0.352 N 
ATOM     25  C   UNL A   1      33.259  34.245  28.450  1.00  0.00     0.251 C 
ATOM     26  H   UNL A   1      32.028  33.876  26.924  1.00  0.00     0.163 HD
ATOM     27  O   UNL A   1      32.796  35.369  28.636  1.00  0.00    -0.269 OA
BRANCH  25  28
ATOM     28  C   UNL A   1      34.416  33.775  29.240  1.00  0.00     0.039 A 
ATOM     29  C   UNL A   1      34.198  32.881  30.291  1.00  0.00     0.014 A 
ATOM     30  C   UNL A   1      35.709  34.225  28.961  1.00  0.00     0.014 A 
ATOM     31  C   UNL A   1      35.284  32.385  31.014  1.00  0.00     0.010 A 
ATOM     32  C   UNL A   1      36.796  33.669  29.629  1.00  0.00     0.010 A 
ATOM     33  C   UNL A   1      36.597  32.742  30.663  1.00  0.00    -0.014 A 
BRANCH  33  34
ATOM     34  C   UNL A   1      37.767  32.147  31.359  1.00  0.00     0.031 A 
ATOM     35  C   UNL A   1      38.556  31.043  30.709  1.00  0.00     0.074 A 
ATOM     36  C   UNL A   1      38.081  32.563  32.603  1.00  0.00     0.049 A 
ATOM     37  N   UNL A   1      39.560  30.352  31.185  1.00  0.00    -0.248 NA
ATOM     38  C   UNL A   1      38.143  30.644  29.355  1.00  0.00     0.031 C 
ATOM     39  C   UNL A   1      37.365  33.600  33.351  1.00  0.00     0.029 A 
ATOM     40  N   UNL A   1      39.073  32.163  33.462  1.00  0.00    -0.354 N 
ATOM     41  C   UNL A   1      39.891  29.432  30.197  1.00  0.00     0.074 A 
ATOM     42  C   UNL A   1      38.940  29.613  29.121  1.00  0.00     0.031 C 
ATOM     43  C   UNL A   1      37.959  33.773  34.542  1.00  0.00     0.029 A 
ATOM     44  C   UNL A   1      39.060  32.824  34.669  1.00  0.00     0.049 A 
ATOM     45  H   UNL A   1      39.733  31.467  33.236  1.00  0.00     0.167 HD
ATOM     46  C   UNL A   1      40.909  28.535  30.181  1.00  0.00     0.034 A 
ATOM     47  C   UNL A   1      39.835  32.672  35.762  1.00  0.00     0.034 A 
ATOM     48  C   UNL A   1      41.851  28.374  31.262  1.00  0.00     0.049 A 
ATOM     49  C   UNL A   1      40.936  31.641  35.734  1.00  0.00     0.074 A 
ATOM     50  C   UNL A   1      42.950  27.534  31.327  1.00  0.00     0.029 A 
ATOM     51  N   UNL A   1      41.802  29.054  32.472  1.00  0.00    -0.354 N 
ATOM     52  N   UNL A   1      41.269  30.815  34.769  1.00  0.00    -0.248 NA
ATOM     53  C   UNL A   1      41.770  31.530  36.937  1.00  0.00     0.031 C 
ATOM     54  C   UNL A   1      43.514  27.647  32.602  1.00  0.00     0.029 A 
ATOM     55  C   UNL A   1      42.827  28.625  33.302  1.00  0.00     0.049 A 
ATOM     56  H   UNL A   1      41.137  29.740  32.706  1.00  0.00     0.167 HD
ATOM     57  C   UNL A   1      42.376  30.111  35.239  1.00  0.00     0.074 A 
ATOM     58  C   UNL A   1      42.659  30.622  36.564  1.00  0.00     0.031 C 
ATOM     59  C   UNL A   1      43.094  29.135  34.628  1.00  0.00     0.034 A 
BRANCH  46  60
ATOM     60  C   UNL A   1      41.033  27.641  28.968  1.00  0.00     0.023 A 
ATOM     61  C   UNL A   1      42.047  27.826  28.012  1.00  0.00     0.031 A 
ATOM     62  C   UNL A   1      40.116  26.595  28.757  1.00  0.00     0.131 A 
ATOM     63  C   UNL A   1      42.076  27.031  26.856  1.00  0.00     0.055 A 
ATOM     64  C   UNL A   1      40.201  25.752  27.648  1.00  0.00     0.041 A 
ATOM     65  F   UNL A   1      39.112  26.382  29.622  1.00  0.00    -0.206 F 
ATOM     66  C   UNL A   1      41.177  25.976  26.681  1.00  0.00     0.022 A 
BRANCH  63  67
ATOM     67  S   UNL A   1      43.210  27.489  25.518  1.00  0.00     0.124 S 
ATOM     68  O   UNL A   1      44.119  28.404  26.202  1.00  0.00    -0.237 OA
ATOM     69  O   UNL A   1      43.774  26.202  25.128  1.00  0.00    -0.237 OA
ATOM     70  O   UNL A   1      42.337  28.115  24.527  1.00  0.00    -0.744 OA
ENDBRANCH  63  67
ENDBRANCH  46  60
BRANCH  47  71
ATOM     71  C   UNL A   1      39.593  33.497  36.982  1.00  0.00     0.023 A 
ATOM     72  C   UNL A   1      38.881  32.981  38.077  1.00  0.00     0.031 A 
ATOM     73  C   UNL A   1      40.031  34.832  37.053  1.00  0.00     0.131 A 
ATOM     74  C   UNL A   1      38.581  33.809  39.169  1.00  0.00     0.055 A 
ATOM     75  C   UNL A   1      39.784  35.632  38.170  1.00  0.00     0.041 A 
ATOM     76  F   UNL A   1      40.719  35.376  36.037  1.00  0.00    -0.206 F 
ATOM     77  C   UNL A   1      39.040  35.126  39.230  1.00  0.00     0.022 A 
BRANCH  74  78
ATOM     78  S   UNL A   1      37.490  33.168  40.470  1.00  0.00     0.124 S 
ATOM     79  O   UNL A   1      37.409  34.309  41.376  1.00  0.00    -0.237 OA
ATOM     80  O   UNL A   1      36.278  32.855  39.721  1.00  0.00    -0.237 OA
ATOM     81  O   UNL A   1      38.219  32.011  40.985  1.00  0.00    -0.744 OA
ENDBRANCH  74  78
ENDBRANCH  47  71
BRANCH  59  82
ATOM     82  C   UNL A   1      44.291  28.591  35.373  1.00  0.00     0.023 A 
ATOM     83  C   UNL A   1      44.172  27.559  36.319  1.00  0.00     0.031 A 
ATOM     84  C   UNL A   1      45.570  29.127  35.137  1.00  0.00     0.131 A 
ATOM     85  C   UNL A   1      45.302  27.135  37.036  1.00  0.00     0.055 A 
ATOM     86  C   UNL A   1      46.701  28.654  35.803  1.00  0.00     0.041 A 
ATOM     87  F   UNL A   1      45.744  30.119  34.249  1.00  0.00    -0.206 F 
ATOM     88  C   UNL A   1      46.568  27.662  36.771  1.00  0.00     0.022 A 
BRANCH  85  89
ATOM     89  S   UNL A   1      45.078  25.958  38.399  1.00  0.00     0.124 S 
ATOM     90  O   UNL A   1      44.512  24.802  37.711  1.00  0.00    -0.237 OA
ATOM     91  O   UNL A   1      46.439  25.798  38.901  1.00  0.00    -0.237 OA
ATOM     92  O   UNL A   1      44.162  26.652  39.303  1.00  0.00    -0.744 OA
ENDBRANCH  85  89
ENDBRANCH  59  82
ENDBRANCH  33  34
ENDBRANCH  25  28
ENDBRANCH  23  24
ENDBRANCH   1  23
TORSDOF 15
ENDMDL
MODEL 3
REMARK VINA RESULT:     -11.2      2.874      8.422
REMARK SMILES CC(C)[N@@H+]1CC[C@@H]([N@@H+]2CC[C@@H](C(=O)NCCCNC(=O)c3ccc(-c4c5nc(c(-c6cc(S(=O)(=O)[O-])ccc6F)c6ccc([nH]6)c(-c6cc(S(=O)(=O)[O-])ccc6F)c6nc(c(-c7cc(S(=O)(=O)[O-])ccc7F)c7ccc4[nH]7)C=C6)C=C5)cc3)[C@H]2C)C1
REMARK SMILES IDX 16 1 15 2 14 3 12 4 13 5 11 7 8 8 9 9 84 10 10 12 85 13 7 14
REMARK SMILES IDX 4 15 5 16 86 17 6 19 2 20 1 21 3 22 17 23 18 24 19 25 20 27
REMARK SMILES IDX 21 28 22 29 83 30 23 31 82 32 24 33 25 34 26 35 76 36 27 37
REMARK SMILES IDX 81 38 75 39 77 40 28 41 80 42 74 43 73 44 29 46 61 47 41 48
REMARK SMILES IDX 60 49 42 50 45 51 59 52 78 53 43 54 44 55 58 57 79 58 46 59
REMARK SMILES IDX 30 60 31 61 39 62 32 63 38 64 40 65 37 66 33 67 34 68 35 69
REMARK SMILES IDX 36 70 62 71 63 72 71 73 64 74 70 75 72 76 69 77 65 78 66 79
REMARK SMILES IDX 67 80 68 81 47 82 48 83 56 84 49 85 55 86 57 87 54 88 50 89
REMARK SMILES IDX 51 90 52 91 53 92
REMARK H PARENT 14 6 8 11 4 18 18 26 77 45 45 56
REMARK Flexibility Score: inf
ROOT
ATOM      1  C   UNL A   1      31.866  29.056  27.130  1.00  0.00     0.042 C 
ENDROOT
BRANCH   1   2
ATOM      2  C   UNL A   1      32.008  27.540  27.036  1.00  0.00     0.117 C 
BRANCH   2   3
ATOM      3  N   UNL A   1      30.776  26.912  26.597  1.00  0.00    -0.356 N 
ATOM      4  C   UNL A   1      30.556  25.977  25.634  1.00  0.00     0.229 C 
ATOM      5  O   UNL A   1      29.389  25.732  25.329  1.00  0.00    -0.275 OA
ATOM      6  H   UNL A   1      29.967  27.211  27.072  1.00  0.00     0.163 HD
BRANCH   4   7
ATOM      7  C   UNL A   1      31.733  25.291  24.964  1.00  0.00     0.142 C 
ATOM      8  N   UNL A   1      32.200  22.916  24.737  1.00  0.00    -0.325 N 
ATOM      9  C   UNL A   1      31.197  23.306  23.738  1.00  0.00     0.263 C 
ATOM     10  C   UNL A   1      32.272  24.043  25.697  1.00  0.00     0.194 C 
ATOM     11  H   UNL A   1      31.894  22.051  25.181  1.00  0.00     0.348 HD
ATOM     12  C   UNL A   1      31.315  24.806  23.581  1.00  0.00     0.081 C 
ATOM     13  C   UNL A   1      31.557  23.645  26.990  1.00  0.00     0.076 C 
BRANCH   8  14
ATOM     14  C   UNL A   1      33.517  22.478  24.231  1.00  0.00     0.245 C 
ATOM     15  N   UNL A   1      35.695  22.593  25.344  1.00  0.00    -0.328 N 
ATOM     16  C   UNL A   1      34.989  21.372  25.766  1.00  0.00     0.269 C 
ATOM     17  C   UNL A   1      34.697  23.406  24.626  1.00  0.00     0.328 C 
ATOM     18  H   UNL A   1      36.034  23.180  26.106  1.00  0.00     0.348 HD
ATOM     19  C   UNL A   1      34.023  21.093  24.632  1.00  0.00     0.132 C 
BRANCH  15  20
ATOM     20  C   UNL A   1      36.973  22.271  24.690  1.00  0.00     0.177 C 
ATOM     21  C   UNL A   1      37.429  20.811  24.706  1.00  0.00     0.075 C 
ATOM     22  C   UNL A   1      36.829  22.737  23.234  1.00  0.00     0.075 C 
ENDBRANCH  15  20
ENDBRANCH   8  14
ENDBRANCH   4   7
ENDBRANCH   2   3
ENDBRANCH   1   2
BRANCH   1  23
ATOM     23  C   UNL A   1      32.995  29.827  26.447  1.00  0.00     0.118 C 
BRANCH  23  24
ATOM     24  N   UNL A   1      32.995  31.242  26.794  1.00  0.00    -0.352 N 
ATOM     25  C   UNL A   1      33.829  31.955  27.614  1.00  0.00     0.251 C 
ATOM     26  H   UNL A   1      32.279  31.771  26.370  1.00  0.00     0.163 HD
ATOM     27  O   UNL A   1      33.517  33.101  27.936  1.00  0.00    -0.269 OA
BRANCH  25  28
ATOM     28  C   UNL A   1      35.077  31.351  28.123  1.00  0.00     0.039 A 
ATOM     29  C   UNL A   1      36.253  32.104  28.092  1.00  0.00     0.014 A 
ATOM     30  C   UNL A   1      35.096  30.041  28.611  1.00  0.00     0.014 A 
ATOM     31  C   UNL A   1      37.432  31.569  28.617  1.00  0.00     0.010 A 
ATOM     32  C   UNL A   1      36.251  29.540  29.206  1.00  0.00     0.010 A 
ATOM     33  C   UNL A   1      37.431  30.298  29.217  1.00  0.00    -0.014 A 
BRANCH  33  34
ATOM     34  C   UNL A   1      38.653  29.755  29.866  1.00  0.00     0.031 A 
ATOM     35  C   UNL A   1      39.076  30.253  31.222  1.00  0.00     0.074 A 
ATOM     36  C   UNL A   1      39.412  28.858  29.206  1.00  0.00     0.049 A 
ATOM     37  N   UNL A   1      40.144  29.954  31.917  1.00  0.00    -0.248 NA
ATOM     38  C   UNL A   1      38.196  31.236  31.870  1.00  0.00     0.031 C 
ATOM     39  C   UNL A   1      39.124  28.330  27.870  1.00  0.00     0.029 A 
ATOM     40  N   UNL A   1      40.583  28.236  29.560  1.00  0.00    -0.354 N 
ATOM     41  C   UNL A   1      40.070  30.719  33.075  1.00  0.00     0.074 A 
ATOM     42  C   UNL A   1      38.884  31.540  32.959  1.00  0.00     0.031 C 
ATOM     43  C   UNL A   1      40.075  27.445  27.531  1.00  0.00     0.029 A 
ATOM     44  C   UNL A   1      41.070  27.382  28.596  1.00  0.00     0.049 A 
ATOM     45  H   UNL A   1      41.033  28.387  30.423  1.00  0.00     0.167 HD
ATOM     46  C   UNL A   1      40.903  30.719  34.146  1.00  0.00     0.034 A 
ATOM     47  C   UNL A   1      42.198  26.646  28.565  1.00  0.00     0.034 A 
ATOM     48  C   UNL A   1      42.078  29.887  34.246  1.00  0.00     0.049 A 
ATOM     49  C   UNL A   1      43.129  26.691  29.751  1.00  0.00     0.074 A 
ATOM     50  C   UNL A   1      42.961  29.769  35.306  1.00  0.00     0.029 A 
ATOM     51  N   UNL A   1      42.545  29.042  33.247  1.00  0.00    -0.354 N 
ATOM     52  N   UNL A   1      43.016  27.381  30.864  1.00  0.00    -0.248 NA
ATOM     53  C   UNL A   1      44.332  25.852  29.682  1.00  0.00     0.031 C 
ATOM     54  C   UNL A   1      44.001  28.918  34.918  1.00  0.00     0.029 A 
ATOM     55  C   UNL A   1      43.722  28.429  33.652  1.00  0.00     0.049 A 
ATOM     56  H   UNL A   1      42.105  28.898  32.379  1.00  0.00     0.167 HD
ATOM     57  C   UNL A   1      44.118  27.030  31.640  1.00  0.00     0.074 A 
ATOM     58  C   UNL A   1      44.870  26.057  30.875  1.00  0.00     0.031 C 
ATOM     59  C   UNL A   1      44.471  27.468  32.875  1.00  0.00     0.034 A 
BRANCH  46  60
ATOM     60  C   UNL A   1      40.586  31.669  35.278  1.00  0.00     0.023 A 
ATOM     61  C   UNL A   1      39.560  31.404  36.202  1.00  0.00     0.031 A 
ATOM     62  C   UNL A   1      41.313  32.864  35.430  1.00  0.00     0.131 A 
ATOM     63  C   UNL A   1      39.239  32.353  37.185  1.00  0.00     0.055 A 
ATOM     64  C   UNL A   1      41.046  33.763  36.464  1.00  0.00     0.041 A 
ATOM     65  F   UNL A   1      42.290  33.184  34.567  1.00  0.00    -0.206 F 
ATOM     66  C   UNL A   1      39.993  33.517  37.341  1.00  0.00     0.022 A 
BRANCH  63  67
ATOM     67  S   UNL A   1      37.731  32.111  38.162  1.00  0.00     0.124 S 
ATOM     68  O   UNL A   1      36.872  33.173  37.647  1.00  0.00    -0.237 OA
ATOM     69  O   UNL A   1      37.343  30.750  37.812  1.00  0.00    -0.237 OA
ATOM     70  O   UNL A   1      38.181  32.298  39.540  1.00  0.00    -0.744 OA
ENDBRANCH  63  67
ENDBRANCH  46  60
BRANCH  47  71
ATOM     71  C   UNL A   1      42.528  25.816  27.369  1.00  0.00     0.023 A 
ATOM     72  C   UNL A   1      42.125  24.473  27.284  1.00  0.00     0.031 A 
ATOM     73  C   UNL A   1      43.294  26.340  26.311  1.00  0.00     0.131 A 
ATOM     74  C   UNL A   1      42.533  23.687  26.196  1.00  0.00     0.055 A 
ATOM     75  C   UNL A   1      43.645  25.571  25.201  1.00  0.00     0.041 A 
ATOM     76  F   UNL A   1      43.704  27.618  26.338  1.00  0.00    -0.206 F 
ATOM     77  C   UNL A   1      43.277  24.230  25.147  1.00  0.00     0.022 A 
BRANCH  74  78
ATOM     78  S   UNL A   1      42.163  21.911  26.220  1.00  0.00     0.124 S 
ATOM     79  O   UNL A   1      43.021  21.416  25.150  1.00  0.00    -0.237 OA
ATOM     80  O   UNL A   1      42.550  21.541  27.577  1.00  0.00    -0.237 OA
ATOM     81  O   UNL A   1      40.729  21.860  25.947  1.00  0.00    -0.744 OA
ENDBRANCH  74  78
ENDBRANCH  47  71
BRANCH  59  82
ATOM     82  C   UNL A   1      45.706  26.856  33.496  1.00  0.00     0.023 A 
ATOM     83  C   UNL A   1      45.663  25.631  34.184  1.00  0.00     0.031 A 
ATOM     84  C   UNL A   1      46.942  27.520  33.405  1.00  0.00     0.131 A 
ATOM     85  C   UNL A   1      46.822  25.138  34.803  1.00  0.00     0.055 A 
ATOM     86  C   UNL A   1      48.106  26.990  33.963  1.00  0.00     0.041 A 
ATOM     87  F   UNL A   1      47.043  28.696  32.765  1.00  0.00    -0.206 F 
ATOM     88  C   UNL A   1      48.046  25.799  34.681  1.00  0.00     0.022 A 
BRANCH  85  89
ATOM     89  S   UNL A   1      46.686  23.671  35.863  1.00  0.00     0.124 S 
ATOM     90  O   UNL A   1      48.020  23.596  36.450  1.00  0.00    -0.237 OA
ATOM     91  O   UNL A   1      45.609  24.044  36.775  1.00  0.00    -0.237 OA
ATOM     92  O   UNL A   1      46.360  22.599  34.924  1.00  0.00    -0.744 OA
ENDBRANCH  85  89
ENDBRANCH  59  82
ENDBRANCH  33  34
ENDBRANCH  25  28
ENDBRANCH  23  24
ENDBRANCH   1  23
TORSDOF 15
ENDMDL
