MODEL 1
REMARK VINA RESULT:     -13.3      0.000      0.000
REMARK SMILES Cc1ccn2c([C@@H]3CCCC[C@@H]3C(=O)NCCCNC(=O)c3ccc(-c4c5nc(c(-c6cc(S(=O)(=O)[O-])ccc6F)c6ccc([nH]6)c(-c6cc(S(=O)(=O)[O-])ccc6F)c6nc(c(-c7cc(S(=O)(=O)[O-])ccc7F)c7ccc4[nH]7)C=C6)C=C5)cc3)nnc2c1
REMARK SMILES IDX 18 1 17 2 16 3 15 4 13 5 14 6 12 8 7 9 8 10 9 11 11 12 10 13
REMARK SMILES IDX 6 14 1 15 2 16 3 17 88 18 4 19 87 20 5 21 86 22 85 23 19 24
REMARK SMILES IDX 20 25 21 27 22 28 23 29 84 30 24 31 83 32 25 33 26 34 27 35
REMARK SMILES IDX 77 36 28 37 82 38 76 39 78 40 29 41 81 42 75 43 74 44 30 46
REMARK SMILES IDX 62 47 42 48 61 49 43 50 46 51 60 52 79 53 44 54 45 55 59 57
REMARK SMILES IDX 80 58 47 59 31 60 32 61 40 62 33 63 39 64 41 65 38 66 34 67
REMARK SMILES IDX 35 68 36 69 37 70 63 71 64 72 72 73 65 74 71 75 73 76 70 77
REMARK SMILES IDX 66 78 67 79 68 80 69 81 48 82 49 83 57 84 50 85 56 86 58 87
REMARK SMILES IDX 55 88 51 89 52 90 53 91 54 92
REMARK H PARENT 15 7 19 26 78 45 46 56
REMARK Flexibility Score: inf
ROOT
ATOM      1  C   UNL A   1      39.431  21.480  26.435  1.00  0.00     0.118 C 
ENDROOT
BRANCH   1   2
ATOM      2  C   UNL A   1      38.379  21.597  25.344  1.00  0.00     0.042 C 
BRANCH   2   3
ATOM      3  C   UNL A   1      37.482  22.794  25.577  1.00  0.00     0.117 C 
BRANCH   3   4
ATOM      4  N   UNL A   1      36.279  22.547  26.349  1.00  0.00    -0.356 N 
ATOM      5  C   UNL A   1      35.216  21.727  26.105  1.00  0.00     0.223 C 
ATOM      6  O   UNL A   1      34.515  21.453  27.088  1.00  0.00    -0.275 OA
ATOM      7  H   UNL A   1      36.219  23.055  27.190  1.00  0.00     0.163 HD
BRANCH   5   8
ATOM      8  C   UNL A   1      34.810  21.182  24.727  1.00  0.00     0.089 C 
ATOM      9  C   UNL A   1      33.641  21.756  23.904  1.00  0.00     0.071 C 
ATOM     10  C   UNL A   1      32.247  21.206  24.226  1.00  0.00     0.012 C 
ATOM     11  C   UNL A   1      32.203  19.704  24.612  1.00  0.00     0.001 C 
ATOM     12  C   UNL A   1      34.758  19.645  24.754  1.00  0.00     0.014 C 
ATOM     13  C   UNL A   1      33.446  19.083  25.267  1.00  0.00     0.001 C 
BRANCH   9  14
ATOM     14  C   UNL A   1      33.680  23.240  23.555  1.00  0.00     0.141 A 
ATOM     15  C   UNL A   1      33.431  28.171  26.251  1.00  0.00     0.044 C 
ATOM     16  C   UNL A   1      33.430  26.869  25.508  1.00  0.00    -0.046 A 
ATOM     17  C   UNL A   1      33.064  25.694  26.278  1.00  0.00     0.022 A 
ATOM     18  C   UNL A   1      33.746  26.745  24.197  1.00  0.00     0.053 A 
ATOM     19  C   UNL A   1      33.088  24.497  25.682  1.00  0.00     0.095 A 
ATOM     20  C   UNL A   1      33.774  25.454  23.578  1.00  0.00     0.161 A 
ATOM     21  N   UNL A   1      33.477  24.350  24.364  1.00  0.00    -0.286 N 
ATOM     22  N   UNL A   1      34.043  25.057  22.357  1.00  0.00    -0.130 NA
ATOM     23  N   UNL A   1      33.980  23.681  22.341  1.00  0.00    -0.134 NA
ENDBRANCH   9  14
ENDBRANCH   5   8
ENDBRANCH   3   4
ENDBRANCH   2   3
ENDBRANCH   1   2
BRANCH   1  24
ATOM     24  N   UNL A   1      40.715  22.001  26.022  1.00  0.00    -0.352 N 
ATOM     25  C   UNL A   1      41.494  23.044  26.414  1.00  0.00     0.251 C 
ATOM     26  H   UNL A   1      41.118  21.481  25.289  1.00  0.00     0.163 HD
ATOM     27  O   UNL A   1      42.624  23.063  25.916  1.00  0.00    -0.269 OA
BRANCH  25  28
ATOM     28  C   UNL A   1      41.065  24.167  27.284  1.00  0.00     0.039 A 
ATOM     29  C   UNL A   1      39.785  24.712  27.398  1.00  0.00     0.014 A 
ATOM     30  C   UNL A   1      42.103  24.755  28.018  1.00  0.00     0.014 A 
ATOM     31  C   UNL A   1      39.634  25.984  27.953  1.00  0.00     0.010 A 
ATOM     32  C   UNL A   1      41.891  25.909  28.740  1.00  0.00     0.010 A 
ATOM     33  C   UNL A   1      40.743  26.639  28.508  1.00  0.00    -0.014 A 
BRANCH  33  34
ATOM     34  C   UNL A   1      40.649  27.961  29.131  1.00  0.00     0.031 A 
ATOM     35  C   UNL A   1      41.640  28.870  28.482  1.00  0.00     0.074 A 
ATOM     36  C   UNL A   1      39.719  28.307  30.072  1.00  0.00     0.049 A 
ATOM     37  N   UNL A   1      42.751  29.271  29.003  1.00  0.00    -0.248 NA
ATOM     38  C   UNL A   1      41.583  29.105  27.021  1.00  0.00     0.031 C 
ATOM     39  C   UNL A   1      38.613  27.518  30.644  1.00  0.00     0.029 A 
ATOM     40  N   UNL A   1      39.539  29.512  30.718  1.00  0.00    -0.354 N 
ATOM     41  C   UNL A   1      43.348  30.089  28.050  1.00  0.00     0.074 A 
ATOM     42  C   UNL A   1      42.722  29.768  26.800  1.00  0.00     0.031 C 
ATOM     43  C   UNL A   1      37.741  28.326  31.304  1.00  0.00     0.029 A 
ATOM     44  C   UNL A   1      38.281  29.671  31.351  1.00  0.00     0.049 A 
ATOM     45  H   UNL A   1      40.232  30.212  30.738  1.00  0.00     0.167 HD
ATOM     46  C   UNL A   1      44.100  31.153  28.444  1.00  0.00     0.034 A 
ATOM     47  C   UNL A   1      37.768  30.821  31.908  1.00  0.00     0.034 A 
ATOM     48  C   UNL A   1      44.416  31.026  29.844  1.00  0.00     0.049 A 
ATOM     49  C   UNL A   1      38.923  31.730  32.127  1.00  0.00     0.074 A 
ATOM     50  C   UNL A   1      45.161  30.137  30.591  1.00  0.00     0.029 A 
ATOM     51  N   UNL A   1      43.529  31.622  30.707  1.00  0.00    -0.354 N 
ATOM     52  N   UNL A   1      39.842  31.467  33.015  1.00  0.00    -0.248 NA
ATOM     53  C   UNL A   1      39.334  32.524  30.972  1.00  0.00     0.031 C 
ATOM     54  C   UNL A   1      44.391  29.911  31.766  1.00  0.00     0.029 A 
ATOM     55  C   UNL A   1      43.300  30.781  31.764  1.00  0.00     0.049 A 
ATOM     56  H   UNL A   1      43.124  32.512  30.585  1.00  0.00     0.167 HD
ATOM     57  C   UNL A   1      41.021  31.605  32.304  1.00  0.00     0.074 A 
ATOM     58  C   UNL A   1      40.642  32.256  31.041  1.00  0.00     0.031 C 
ATOM     59  C   UNL A   1      42.132  30.878  32.611  1.00  0.00     0.034 A 
BRANCH  46  60
ATOM     60  C   UNL A   1      44.168  32.476  27.719  1.00  0.00     0.023 A 
ATOM     61  C   UNL A   1      43.545  33.660  28.165  1.00  0.00     0.031 A 
ATOM     62  C   UNL A   1      45.086  32.622  26.656  1.00  0.00     0.131 A 
ATOM     63  C   UNL A   1      43.831  34.900  27.568  1.00  0.00     0.055 A 
ATOM     64  C   UNL A   1      45.420  33.865  26.110  1.00  0.00     0.041 A 
ATOM     65  F   UNL A   1      45.728  31.560  26.148  1.00  0.00    -0.206 F 
ATOM     66  C   UNL A   1      44.791  35.013  26.566  1.00  0.00     0.022 A 
BRANCH  63  67
ATOM     67  S   UNL A   1      42.959  36.415  28.058  1.00  0.00     0.124 S 
ATOM     68  O   UNL A   1      43.534  36.696  29.364  1.00  0.00    -0.237 OA
ATOM     69  O   UNL A   1      43.339  37.329  26.987  1.00  0.00    -0.237 OA
ATOM     70  O   UNL A   1      41.547  36.011  28.055  1.00  0.00    -0.744 OA
ENDBRANCH  63  67
ENDBRANCH  46  60
BRANCH  47  71
ATOM     71  C   UNL A   1      36.417  31.424  31.642  1.00  0.00     0.023 A 
ATOM     72  C   UNL A   1      35.966  31.426  30.319  1.00  0.00     0.031 A 
ATOM     73  C   UNL A   1      35.772  32.322  32.530  1.00  0.00     0.131 A 
ATOM     74  C   UNL A   1      35.032  32.372  29.876  1.00  0.00     0.055 A 
ATOM     75  C   UNL A   1      34.778  33.224  32.098  1.00  0.00     0.041 A 
ATOM     76  F   UNL A   1      36.150  32.406  33.816  1.00  0.00    -0.206 F 
ATOM     77  C   UNL A   1      34.431  33.276  30.751  1.00  0.00     0.022 A 
BRANCH  74  78
ATOM     78  S   UNL A   1      34.753  32.543  28.094  1.00  0.00     0.124 S 
ATOM     79  O   UNL A   1      34.618  31.154  27.665  1.00  0.00    -0.237 OA
ATOM     80  O   UNL A   1      33.532  33.339  28.067  1.00  0.00    -0.237 OA
ATOM     81  O   UNL A   1      35.961  33.219  27.626  1.00  0.00    -0.744 OA
ENDBRANCH  74  78
ENDBRANCH  47  71
BRANCH  59  82
ATOM     82  C   UNL A   1      42.138  30.007  33.849  1.00  0.00     0.023 A 
ATOM     83  C   UNL A   1      42.572  30.639  35.021  1.00  0.00     0.031 A 
ATOM     84  C   UNL A   1      42.014  28.604  33.877  1.00  0.00     0.131 A 
ATOM     85  C   UNL A   1      42.937  29.891  36.141  1.00  0.00     0.055 A 
ATOM     86  C   UNL A   1      42.305  27.859  35.031  1.00  0.00     0.041 A 
ATOM     87  F   UNL A   1      41.705  27.907  32.777  1.00  0.00    -0.206 F 
ATOM     88  C   UNL A   1      42.789  28.503  36.166  1.00  0.00     0.022 A 
BRANCH  85  89
ATOM     89  S   UNL A   1      43.792  30.706  37.509  1.00  0.00     0.124 S 
ATOM     90  O   UNL A   1      42.679  31.206  38.310  1.00  0.00    -0.237 OA
ATOM     91  O   UNL A   1      44.547  29.602  38.100  1.00  0.00    -0.237 OA
ATOM     92  O   UNL A   1      44.606  31.730  36.860  1.00  0.00    -0.744 OA
ENDBRANCH  85  89
ENDBRANCH  59  82
ENDBRANCH  33  34
ENDBRANCH  25  28
ENDBRANCH   1  24
TORSDOF 14
ENDMDL
MODEL 2
REMARK VINA RESULT:     -13.1      3.353      7.540
REMARK SMILES Cc1ccn2c([C@@H]3CCCC[C@@H]3C(=O)NCCCNC(=O)c3ccc(-c4c5nc(c(-c6cc(S(=O)(=O)[O-])ccc6F)c6ccc([nH]6)c(-c6cc(S(=O)(=O)[O-])ccc6F)c6nc(c(-c7cc(S(=O)(=O)[O-])ccc7F)c7ccc4[nH]7)C=C6)C=C5)cc3)nnc2c1
REMARK SMILES IDX 18 1 17 2 16 3 15 4 13 5 14 6 12 8 7 9 8 10 9 11 11 12 10 13
REMARK SMILES IDX 6 14 1 15 2 16 3 17 88 18 4 19 87 20 5 21 86 22 85 23 19 24
REMARK SMILES IDX 20 25 21 27 22 28 23 29 84 30 24 31 83 32 25 33 26 34 27 35
REMARK SMILES IDX 77 36 28 37 82 38 76 39 78 40 29 41 81 42 75 43 74 44 30 46
REMARK SMILES IDX 62 47 42 48 61 49 43 50 46 51 60 52 79 53 44 54 45 55 59 57
REMARK SMILES IDX 80 58 47 59 31 60 32 61 40 62 33 63 39 64 41 65 38 66 34 67
REMARK SMILES IDX 35 68 36 69 37 70 63 71 64 72 72 73 65 74 71 75 73 76 70 77
REMARK SMILES IDX 66 78 67 79 68 80 69 81 48 82 49 83 57 84 50 85 56 86 58 87
REMARK SMILES IDX 55 88 51 89 52 90 53 91 54 92
REMARK H PARENT 15 7 19 26 78 45 46 56
REMARK Flexibility Score: inf
ROOT
ATOM      1  C   UNL A   1      32.532  30.074  26.238  1.00  0.00     0.118 C 
ENDROOT
BRANCH   1   2
ATOM      2  C   UNL A   1      31.670  28.915  26.709  1.00  0.00     0.042 C 
BRANCH   2   3
ATOM      3  C   UNL A   1      32.522  27.731  27.113  1.00  0.00     0.117 C 
BRANCH   3   4
ATOM      4  N   UNL A   1      31.985  26.421  26.791  1.00  0.00    -0.356 N 
ATOM      5  C   UNL A   1      32.573  25.334  26.215  1.00  0.00     0.223 C 
ATOM      6  O   UNL A   1      31.988  24.257  26.385  1.00  0.00    -0.275 OA
ATOM      7  H   UNL A   1      31.038  26.297  27.030  1.00  0.00     0.163 HD
BRANCH   5   8
ATOM      8  C   UNL A   1      33.843  25.361  25.350  1.00  0.00     0.089 C 
ATOM      9  C   UNL A   1      33.826  25.639  23.835  1.00  0.00     0.071 C 
ATOM     10  C   UNL A   1      33.565  24.434  22.925  1.00  0.00     0.012 C 
ATOM     11  C   UNL A   1      34.170  23.093  23.417  1.00  0.00     0.001 C 
ATOM     12  C   UNL A   1      34.738  24.154  25.676  1.00  0.00     0.014 C 
ATOM     13  C   UNL A   1      34.361  22.890  24.927  1.00  0.00     0.001 C 
BRANCH   9  14
ATOM     14  C   UNL A   1      33.203  26.948  23.361  1.00  0.00     0.141 A 
ATOM     15  C   UNL A   1      28.080  29.243  22.994  1.00  0.00     0.044 C 
ATOM     16  C   UNL A   1      29.445  28.623  23.020  1.00  0.00    -0.046 A 
ATOM     17  C   UNL A   1      29.495  27.199  23.298  1.00  0.00     0.022 A 
ATOM     18  C   UNL A   1      30.592  29.310  22.805  1.00  0.00     0.053 A 
ATOM     19  C   UNL A   1      30.687  26.598  23.378  1.00  0.00     0.095 A 
ATOM     20  C   UNL A   1      31.859  28.650  22.902  1.00  0.00     0.161 A 
ATOM     21  N   UNL A   1      31.867  27.302  23.230  1.00  0.00    -0.286 N 
ATOM     22  N   UNL A   1      33.094  29.066  22.749  1.00  0.00    -0.130 NA
ATOM     23  N   UNL A   1      33.930  28.007  23.030  1.00  0.00    -0.134 NA
ENDBRANCH   9  14
ENDBRANCH   5   8
ENDBRANCH   3   4
ENDBRANCH   2   3
ENDBRANCH   1   2
BRANCH   1  24
ATOM     24  N   UNL A   1      31.970  31.360  26.591  1.00  0.00    -0.352 N 
ATOM     25  C   UNL A   1      32.461  32.494  27.160  1.00  0.00     0.251 C 
ATOM     26  H   UNL A   1      31.013  31.430  26.369  1.00  0.00     0.163 HD
ATOM     27  O   UNL A   1      31.688  33.456  27.146  1.00  0.00    -0.269 OA
BRANCH  25  28
ATOM     28  C   UNL A   1      33.766  32.619  27.853  1.00  0.00     0.039 A 
ATOM     29  C   UNL A   1      34.735  33.608  27.670  1.00  0.00     0.014 A 
ATOM     30  C   UNL A   1      34.044  31.579  28.748  1.00  0.00     0.014 A 
ATOM     31  C   UNL A   1      36.040  33.370  28.105  1.00  0.00     0.010 A 
ATOM     32  C   UNL A   1      35.282  31.469  29.341  1.00  0.00     0.010 A 
ATOM     33  C   UNL A   1      36.331  32.209  28.836  1.00  0.00    -0.014 A 
BRANCH  33  34
ATOM     34  C   UNL A   1      37.672  31.913  29.346  1.00  0.00     0.031 A 
ATOM     35  C   UNL A   1      38.034  30.515  28.965  1.00  0.00     0.074 A 
ATOM     36  C   UNL A   1      38.480  32.824  29.968  1.00  0.00     0.049 A 
ATOM     37  N   UNL A   1      38.066  29.501  29.762  1.00  0.00    -0.248 NA
ATOM     38  C   UNL A   1      38.045  30.117  27.540  1.00  0.00     0.031 C 
ATOM     39  C   UNL A   1      38.260  34.257  30.236  1.00  0.00     0.029 A 
ATOM     40  N   UNL A   1      39.750  32.657  30.481  1.00  0.00    -0.354 N 
ATOM     41  C   UNL A   1      38.444  28.413  28.982  1.00  0.00     0.074 A 
ATOM     42  C   UNL A   1      38.193  28.791  27.621  1.00  0.00     0.031 C 
ATOM     43  C   UNL A   1      39.427  34.863  30.584  1.00  0.00     0.029 A 
ATOM     44  C   UNL A   1      40.462  33.858  30.722  1.00  0.00     0.049 A 
ATOM     45  H   UNL A   1      40.134  31.769  30.665  1.00  0.00     0.167 HD
ATOM     46  C   UNL A   1      39.197  27.418  29.525  1.00  0.00     0.034 A 
ATOM     47  C   UNL A   1      41.791  33.985  31.058  1.00  0.00     0.034 A 
ATOM     48  C   UNL A   1      39.178  27.531  30.961  1.00  0.00     0.049 A 
ATOM     49  C   UNL A   1      42.225  32.653  31.555  1.00  0.00     0.074 A 
ATOM     50  C   UNL A   1      38.203  27.411  31.929  1.00  0.00     0.029 A 
ATOM     51  N   UNL A   1      40.188  28.284  31.509  1.00  0.00    -0.354 N 
ATOM     52  N   UNL A   1      41.778  32.163  32.678  1.00  0.00    -0.248 NA
ATOM     53  C   UNL A   1      42.620  31.691  30.530  1.00  0.00     0.031 C 
ATOM     54  C   UNL A   1      38.464  28.467  32.845  1.00  0.00     0.029 A 
ATOM     55  C   UNL A   1      39.666  29.081  32.494  1.00  0.00     0.049 A 
ATOM     56  H   UNL A   1      41.135  28.254  31.237  1.00  0.00     0.167 HD
ATOM     57  C   UNL A   1      41.355  30.893  32.327  1.00  0.00     0.074 A 
ATOM     58  C   UNL A   1      41.897  30.660  30.980  1.00  0.00     0.031 C 
ATOM     59  C   UNL A   1      40.322  30.280  32.969  1.00  0.00     0.034 A 
BRANCH  46  60
ATOM     60  C   UNL A   1      40.271  26.651  28.791  1.00  0.00     0.023 A 
ATOM     61  C   UNL A   1      40.157  25.302  28.397  1.00  0.00     0.031 A 
ATOM     62  C   UNL A   1      41.367  27.361  28.254  1.00  0.00     0.131 A 
ATOM     63  C   UNL A   1      41.094  24.718  27.528  1.00  0.00     0.055 A 
ATOM     64  C   UNL A   1      42.258  26.798  27.335  1.00  0.00     0.041 A 
ATOM     65  F   UNL A   1      41.577  28.649  28.569  1.00  0.00    -0.206 F 
ATOM     66  C   UNL A   1      42.124  25.469  26.967  1.00  0.00     0.022 A 
BRANCH  63  67
ATOM     67  S   UNL A   1      41.022  22.955  27.097  1.00  0.00     0.124 S 
ATOM     68  O   UNL A   1      39.609  22.761  26.814  1.00  0.00    -0.237 OA
ATOM     69  O   UNL A   1      41.915  22.900  25.944  1.00  0.00    -0.237 OA
ATOM     70  O   UNL A   1      41.529  22.290  28.304  1.00  0.00    -0.744 OA
ENDBRANCH  63  67
ENDBRANCH  46  60
BRANCH  47  71
ATOM     71  C   UNL A   1      42.806  34.871  30.393  1.00  0.00     0.023 A 
ATOM     72  C   UNL A   1      42.803  34.911  28.995  1.00  0.00     0.031 A 
ATOM     73  C   UNL A   1      43.984  35.333  31.034  1.00  0.00     0.131 A 
ATOM     74  C   UNL A   1      43.960  35.249  28.279  1.00  0.00     0.055 A 
ATOM     75  C   UNL A   1      45.123  35.743  30.312  1.00  0.00     0.041 A 
ATOM     76  F   UNL A   1      44.089  35.314  32.373  1.00  0.00    -0.206 F 
ATOM     77  C   UNL A   1      45.125  35.665  28.922  1.00  0.00     0.022 A 
BRANCH  74  78
ATOM     78  S   UNL A   1      43.991  34.947  26.493  1.00  0.00     0.124 S 
ATOM     79  O   UNL A   1      43.876  33.494  26.421  1.00  0.00    -0.237 OA
ATOM     80  O   UNL A   1      42.823  35.700  26.052  1.00  0.00    -0.237 OA
ATOM     81  O   UNL A   1      45.285  35.486  26.081  1.00  0.00    -0.744 OA
ENDBRANCH  74  78
ENDBRANCH  47  71
BRANCH  59  82
ATOM     82  C   UNL A   1      39.714  30.924  34.196  1.00  0.00     0.023 A 
ATOM     83  C   UNL A   1      38.527  31.632  33.972  1.00  0.00     0.031 A 
ATOM     84  C   UNL A   1      40.350  31.102  35.441  1.00  0.00     0.131 A 
ATOM     85  C   UNL A   1      38.044  32.533  34.921  1.00  0.00     0.055 A 
ATOM     86  C   UNL A   1      39.819  31.949  36.428  1.00  0.00     0.041 A 
ATOM     87  F   UNL A   1      41.539  30.548  35.704  1.00  0.00    -0.206 F 
ATOM     88  C   UNL A   1      38.669  32.685  36.161  1.00  0.00     0.022 A 
BRANCH  85  89
ATOM     89  S   UNL A   1      36.703  33.659  34.472  1.00  0.00     0.124 S 
ATOM     90  O   UNL A   1      36.001  33.820  35.742  1.00  0.00    -0.237 OA
ATOM     91  O   UNL A   1      37.435  34.835  34.003  1.00  0.00    -0.237 OA
ATOM     92  O   UNL A   1      35.968  32.940  33.436  1.00  0.00    -0.744 OA
ENDBRANCH  85  89
ENDBRANCH  59  82
ENDBRANCH  33  34
ENDBRANCH  25  28
ENDBRANCH   1  24
TORSDOF 14
ENDMDL
MODEL 3
REMARK VINA RESULT:     -12.9      1.517      1.755
REMARK SMILES Cc1ccn2c([C@@H]3CCCC[C@@H]3C(=O)NCCCNC(=O)c3ccc(-c4c5nc(c(-c6cc(S(=O)(=O)[O-])ccc6F)c6ccc([nH]6)c(-c6cc(S(=O)(=O)[O-])ccc6F)c6nc(c(-c7cc(S(=O)(=O)[O-])ccc7F)c7ccc4[nH]7)C=C6)C=C5)cc3)nnc2c1
REMARK SMILES IDX 18 1 17 2 16 3 15 4 13 5 14 6 12 8 7 9 8 10 9 11 11 12 10 13
REMARK SMILES IDX 6 14 1 15 2 16 3 17 88 18 4 19 87 20 5 21 86 22 85 23 19 24
REMARK SMILES IDX 20 25 21 27 22 28 23 29 84 30 24 31 83 32 25 33 26 34 27 35
REMARK SMILES IDX 77 36 28 37 82 38 76 39 78 40 29 41 81 42 75 43 74 44 30 46
REMARK SMILES IDX 62 47 42 48 61 49 43 50 46 51 60 52 79 53 44 54 45 55 59 57
REMARK SMILES IDX 80 58 47 59 31 60 32 61 40 62 33 63 39 64 41 65 38 66 34 67
REMARK SMILES IDX 35 68 36 69 37 70 63 71 64 72 72 73 65 74 71 75 73 76 70 77
REMARK SMILES IDX 66 78 67 79 68 80 69 81 48 82 49 83 57 84 50 85 56 86 58 87
REMARK SMILES IDX 55 88 51 89 52 90 53 91 54 92
REMARK H PARENT 15 7 19 26 78 45 46 56
REMARK Flexibility Score: inf
ROOT
ATOM      1  C   UNL A   1      39.507  21.733  26.547  1.00  0.00     0.118 C 
ENDROOT
BRANCH   1   2
ATOM      2  C   UNL A   1      38.396  21.711  25.510  1.00  0.00     0.042 C 
BRANCH   2   3
ATOM      3  C   UNL A   1      37.464  22.892  25.685  1.00  0.00     0.117 C 
BRANCH   3   4
ATOM      4  N   UNL A   1      36.239  22.631  26.417  1.00  0.00    -0.356 N 
ATOM      5  C   UNL A   1      35.188  21.809  26.133  1.00  0.00     0.223 C 
ATOM      6  O   UNL A   1      34.459  21.522  27.092  1.00  0.00    -0.275 OA
ATOM      7  H   UNL A   1      36.150  23.132  27.261  1.00  0.00     0.163 HD
BRANCH   5   8
ATOM      8  C   UNL A   1      34.828  21.273  24.739  1.00  0.00     0.089 C 
ATOM      9  C   UNL A   1      33.679  21.844  23.888  1.00  0.00     0.071 C 
ATOM     10  C   UNL A   1      32.281  21.279  24.163  1.00  0.00     0.012 C 
ATOM     11  C   UNL A   1      32.240  19.773  24.533  1.00  0.00     0.001 C 
ATOM     12  C   UNL A   1      34.790  19.735  24.750  1.00  0.00     0.014 C 
ATOM     13  C   UNL A   1      33.468  19.157  25.218  1.00  0.00     0.001 C 
BRANCH   9  14
ATOM     14  C   UNL A   1      33.715  23.332  23.554  1.00  0.00     0.141 A 
ATOM     15  C   UNL A   1      33.439  28.234  26.299  1.00  0.00     0.044 C 
ATOM     16  C   UNL A   1      33.446  26.940  25.543  1.00  0.00    -0.046 A 
ATOM     17  C   UNL A   1      33.080  25.756  26.300  1.00  0.00     0.022 A 
ATOM     18  C   UNL A   1      33.767  26.831  24.232  1.00  0.00     0.053 A 
ATOM     19  C   UNL A   1      33.110  24.566  25.691  1.00  0.00     0.095 A 
ATOM     20  C   UNL A   1      33.801  25.546  23.600  1.00  0.00     0.161 A 
ATOM     21  N   UNL A   1      33.505  24.433  24.374  1.00  0.00    -0.286 N 
ATOM     22  N   UNL A   1      34.076  25.163  22.376  1.00  0.00    -0.130 NA
ATOM     23  N   UNL A   1      34.019  23.787  22.346  1.00  0.00    -0.134 NA
ENDBRANCH   9  14
ENDBRANCH   5   8
ENDBRANCH   3   4
ENDBRANCH   2   3
ENDBRANCH   1   2
BRANCH   1  24
ATOM     24  N   UNL A   1      40.762  22.202  26.002  1.00  0.00    -0.352 N 
ATOM     25  C   UNL A   1      41.542  23.298  26.205  1.00  0.00     0.251 C 
ATOM     26  H   UNL A   1      41.138  21.587  25.331  1.00  0.00     0.163 HD
ATOM     27  O   UNL A   1      42.647  23.256  25.653  1.00  0.00    -0.269 OA
BRANCH  25  28
ATOM     28  C   UNL A   1      41.137  24.528  26.927  1.00  0.00     0.039 A 
ATOM     29  C   UNL A   1      40.068  25.375  26.630  1.00  0.00     0.014 A 
ATOM     30  C   UNL A   1      41.980  24.874  27.991  1.00  0.00     0.014 A 
ATOM     31  C   UNL A   1      40.058  26.668  27.157  1.00  0.00     0.010 A 
ATOM     32  C   UNL A   1      41.829  26.075  28.649  1.00  0.00     0.010 A 
ATOM     33  C   UNL A   1      41.042  27.054  28.078  1.00  0.00    -0.014 A 
BRANCH  33  34
ATOM     34  C   UNL A   1      41.072  28.384  28.690  1.00  0.00     0.031 A 
ATOM     35  C   UNL A   1      42.262  29.124  28.172  1.00  0.00     0.074 A 
ATOM     36  C   UNL A   1      40.097  28.880  29.509  1.00  0.00     0.049 A 
ATOM     37  N   UNL A   1      43.347  29.361  28.829  1.00  0.00    -0.248 NA
ATOM     38  C   UNL A   1      42.421  29.343  26.717  1.00  0.00     0.031 C 
ATOM     39  C   UNL A   1      38.822  28.275  29.936  1.00  0.00     0.029 A 
ATOM     40  N   UNL A   1      40.022  30.109  30.132  1.00  0.00    -0.354 N 
ATOM     41  C   UNL A   1      44.175  30.065  27.960  1.00  0.00     0.074 A 
ATOM     42  C   UNL A   1      43.666  29.824  26.641  1.00  0.00     0.031 C 
ATOM     43  C   UNL A   1      38.007  29.216  30.486  1.00  0.00     0.029 A 
ATOM     44  C   UNL A   1      38.734  30.464  30.605  1.00  0.00     0.049 A 
ATOM     45  H   UNL A   1      40.805  30.696  30.241  1.00  0.00     0.167 HD
ATOM     46  C   UNL A   1      45.024  31.009  28.448  1.00  0.00     0.034 A 
ATOM     47  C   UNL A   1      38.336  31.686  31.098  1.00  0.00     0.034 A 
ATOM     48  C   UNL A   1      45.142  30.857  29.876  1.00  0.00     0.049 A 
ATOM     49  C   UNL A   1      39.580  32.415  31.462  1.00  0.00     0.074 A 
ATOM     50  C   UNL A   1      45.647  29.878  30.707  1.00  0.00     0.029 A 
ATOM     51  N   UNL A   1      44.257  31.594  30.624  1.00  0.00    -0.354 N 
ATOM     52  N   UNL A   1      40.333  32.030  32.457  1.00  0.00    -0.248 NA
ATOM     53  C   UNL A   1      40.246  33.120  30.370  1.00  0.00     0.031 C 
ATOM     54  C   UNL A   1      44.712  29.788  31.776  1.00  0.00     0.029 A 
ATOM     55  C   UNL A   1      43.774  30.812  31.642  1.00  0.00     0.049 A 
ATOM     56  H   UNL A   1      44.009  32.532  30.457  1.00  0.00     0.167 HD
ATOM     57  C   UNL A   1      41.597  31.978  31.898  1.00  0.00     0.074 A 
ATOM     58  C   UNL A   1      41.480  32.660  30.600  1.00  0.00     0.031 C 
ATOM     59  C   UNL A   1      42.539  31.096  32.338  1.00  0.00     0.034 A 
BRANCH  46  60
ATOM     60  C   UNL A   1      45.380  32.297  27.743  1.00  0.00     0.023 A 
ATOM     61  C   UNL A   1      44.626  33.485  27.827  1.00  0.00     0.031 A 
ATOM     62  C   UNL A   1      46.654  32.414  27.145  1.00  0.00     0.131 A 
ATOM     63  C   UNL A   1      45.128  34.700  27.331  1.00  0.00     0.055 A 
ATOM     64  C   UNL A   1      47.179  33.636  26.716  1.00  0.00     0.041 A 
ATOM     65  F   UNL A   1      47.453  31.344  27.006  1.00  0.00    -0.206 F 
ATOM     66  C   UNL A   1      46.415  34.789  26.808  1.00  0.00     0.022 A 
BRANCH  63  67
ATOM     67  S   UNL A   1      44.127  36.214  27.334  1.00  0.00     0.124 S 
ATOM     68  O   UNL A   1      43.080  35.898  26.376  1.00  0.00    -0.237 OA
ATOM     69  O   UNL A   1      43.710  36.285  28.730  1.00  0.00    -0.237 OA
ATOM     70  O   UNL A   1      45.080  37.253  26.921  1.00  0.00    -0.744 OA
ENDBRANCH  63  67
ENDBRANCH  46  60
BRANCH  47  71
ATOM     71  C   UNL A   1      37.136  32.482  30.669  1.00  0.00     0.023 A 
ATOM     72  C   UNL A   1      36.520  33.281  31.636  1.00  0.00     0.031 A 
ATOM     73  C   UNL A   1      36.367  32.181  29.516  1.00  0.00     0.131 A 
ATOM     74  C   UNL A   1      35.167  33.634  31.527  1.00  0.00     0.055 A 
ATOM     75  C   UNL A   1      35.028  32.598  29.374  1.00  0.00     0.041 A 
ATOM     76  F   UNL A   1      36.867  31.403  28.542  1.00  0.00    -0.206 F 
ATOM     77  C   UNL A   1      34.409  33.300  30.405  1.00  0.00     0.022 A 
BRANCH  74  78
ATOM     78  S   UNL A   1      34.346  34.367  32.966  1.00  0.00     0.124 S 
ATOM     79  O   UNL A   1      32.993  34.598  32.468  1.00  0.00    -0.237 OA
ATOM     80  O   UNL A   1      34.487  33.305  33.954  1.00  0.00    -0.237 OA
ATOM     81  O   UNL A   1      35.125  35.577  33.220  1.00  0.00    -0.744 OA
ENDBRANCH  74  78
ENDBRANCH  47  71
BRANCH  59  82
ATOM     82  C   UNL A   1      42.261  30.254  33.564  1.00  0.00     0.023 A 
ATOM     83  C   UNL A   1      42.721  30.789  34.773  1.00  0.00     0.031 A 
ATOM     84  C   UNL A   1      41.841  28.908  33.568  1.00  0.00     0.131 A 
ATOM     85  C   UNL A   1      42.828  29.989  35.911  1.00  0.00     0.055 A 
ATOM     86  C   UNL A   1      41.873  28.128  34.735  1.00  0.00     0.041 A 
ATOM     87  F   UNL A   1      41.483  28.284  32.440  1.00  0.00    -0.206 F 
ATOM     88  C   UNL A   1      42.389  28.664  35.911  1.00  0.00     0.022 A 
BRANCH  85  89
ATOM     89  S   UNL A   1      43.722  30.616  37.352  1.00  0.00     0.124 S 
ATOM     90  O   UNL A   1      42.640  31.144  38.177  1.00  0.00    -0.237 OA
ATOM     91  O   UNL A   1      44.369  29.407  37.861  1.00  0.00    -0.237 OA
ATOM     92  O   UNL A   1      44.632  31.614  36.799  1.00  0.00    -0.744 OA
ENDBRANCH  85  89
ENDBRANCH  59  82
ENDBRANCH  33  34
ENDBRANCH  25  28
ENDBRANCH   1  24
TORSDOF 14
ENDMDL
