MODEL 1
REMARK VINA RESULT:     -10.7      0.000      0.000
REMARK SMILES CSc1ncccc1C(=O)NCCCC(=O)NCCCNC(=O)c1ccc(-c2c3nc(c(-c4cc(S(=O)(=O)[O-])ccc4F)c4ccc([nH]4)c(-c4cc(S(=O)(=O)[O-])ccc4F)c4nc(c(-c5cc(S(=O)(=O)[O-])ccc5F)c5ccc2[nH]5)C=C4)C=C3)cc1
REMARK SMILES IDX 18 1 17 2 15 3 16 4 14 6 13 7 12 8 11 9 9 10 10 11 8 13 3 14
REMARK SMILES IDX 4 15 5 16 7 17 6 18 2 19 1 20 19 21 20 22 21 23 22 24 23 26
REMARK SMILES IDX 24 27 25 28 86 29 26 30 85 31 27 32 28 33 29 34 79 35 30 36
REMARK SMILES IDX 84 37 78 38 80 39 31 40 83 41 77 42 76 43 32 45 64 46 44 47
REMARK SMILES IDX 63 48 45 49 48 50 62 51 81 52 46 53 47 54 61 56 82 57 49 58
REMARK SMILES IDX 33 59 34 60 42 61 35 62 41 63 43 64 40 65 36 66 37 67 38 68
REMARK SMILES IDX 39 69 65 70 66 71 74 72 67 73 73 74 75 75 72 76 68 77 69 78
REMARK SMILES IDX 70 79 71 80 50 81 51 82 59 83 52 84 58 85 60 86 57 87 53 88
REMARK SMILES IDX 54 89 55 90 56 91
REMARK H PARENT 17 5 11 12 21 25 80 44 48 55
REMARK Flexibility Score: inf
ROOT
ATOM      1  C   UNL A   1      31.469  29.090  25.088  1.00  0.00     0.117 C 
ENDROOT
BRANCH   1   2
ATOM      2  N   UNL A   1      30.739  29.408  23.869  1.00  0.00    -0.356 N 
ATOM      3  C   UNL A   1      30.570  28.695  22.723  1.00  0.00     0.220 C 
ATOM      4  O   UNL A   1      29.985  29.230  21.780  1.00  0.00    -0.275 OA
ATOM      5  H   UNL A   1      30.296  30.287  23.875  1.00  0.00     0.163 HD
BRANCH   3   6
ATOM      6  C   UNL A   1      31.064  27.270  22.613  1.00  0.00     0.102 C 
BRANCH   6   7
ATOM      7  C   UNL A   1      30.293  26.278  23.490  1.00  0.00     0.031 C 
BRANCH   7   8
ATOM      8  C   UNL A   1      30.600  24.798  23.257  1.00  0.00     0.116 C 
BRANCH   8   9
ATOM      9  N   UNL A   1      31.656  24.588  22.281  1.00  0.00    -0.352 N 
ATOM     10  C   UNL A   1      32.918  24.051  22.332  1.00  0.00     0.254 C 
ATOM     11  O   UNL A   1      33.431  23.866  21.230  1.00  0.00    -0.269 OA
ATOM     12  H   UNL A   1      31.409  24.902  21.380  1.00  0.00     0.163 HD
BRANCH  10  13
ATOM     13  C   UNL A   1      33.646  23.751  23.599  1.00  0.00     0.072 A 
ATOM     14  C   UNL A   1      33.615  22.470  24.180  1.00  0.00     0.108 A 
ATOM     15  N   UNL A   1      34.354  22.147  25.280  1.00  0.00    -0.249 NA
ATOM     16  C   UNL A   1      35.080  23.113  25.873  1.00  0.00     0.112 A 
ATOM     17  C   UNL A   1      34.383  24.732  24.275  1.00  0.00     0.018 A 
ATOM     18  C   UNL A   1      35.112  24.414  25.421  1.00  0.00     0.021 A 
BRANCH  14  19
ATOM     19  S   UNL A   1      32.577  21.108  23.668  1.00  0.00    -0.109 SA
ATOM     20  C   UNL A   1      32.541  20.185  25.212  1.00  0.00     0.092 C 
ENDBRANCH  14  19
ENDBRANCH  10  13
ENDBRANCH   8   9
ENDBRANCH   7   8
ENDBRANCH   6   7
ENDBRANCH   3   6
ENDBRANCH   1   2
BRANCH   1  21
ATOM     21  C   UNL A   1      32.975  29.226  24.885  1.00  0.00     0.042 C 
BRANCH  21  22
ATOM     22  C   UNL A   1      33.757  29.368  26.187  1.00  0.00     0.118 C 
BRANCH  22  23
ATOM     23  N   UNL A   1      33.629  30.699  26.758  1.00  0.00    -0.352 N 
ATOM     24  C   UNL A   1      34.350  31.299  27.762  1.00  0.00     0.251 C 
ATOM     25  H   UNL A   1      32.918  31.254  26.366  1.00  0.00     0.163 HD
ATOM     26  O   UNL A   1      33.944  32.357  28.233  1.00  0.00    -0.269 OA
BRANCH  24  27
ATOM     27  C   UNL A   1      35.591  30.678  28.287  1.00  0.00     0.039 A 
ATOM     28  C   UNL A   1      36.807  30.975  27.662  1.00  0.00     0.014 A 
ATOM     29  C   UNL A   1      35.565  29.775  29.354  1.00  0.00     0.014 A 
ATOM     30  C   UNL A   1      37.994  30.405  28.134  1.00  0.00     0.010 A 
ATOM     31  C   UNL A   1      36.757  29.268  29.871  1.00  0.00     0.010 A 
ATOM     32  C   UNL A   1      37.984  29.568  29.261  1.00  0.00    -0.014 A 
BRANCH  32  33
ATOM     33  C   UNL A   1      39.242  28.976  29.796  1.00  0.00     0.031 A 
ATOM     34  C   UNL A   1      39.914  29.592  30.994  1.00  0.00     0.074 A 
ATOM     35  C   UNL A   1      39.806  27.923  29.172  1.00  0.00     0.049 A 
ATOM     36  N   UNL A   1      41.054  29.280  31.557  1.00  0.00    -0.248 NA
ATOM     37  C   UNL A   1      39.227  30.729  31.622  1.00  0.00     0.031 C 
ATOM     38  C   UNL A   1      39.268  27.256  27.983  1.00  0.00     0.029 A 
ATOM     39  N   UNL A   1      40.961  27.232  29.444  1.00  0.00    -0.354 N 
ATOM     40  C   UNL A   1      41.230  30.192  32.594  1.00  0.00     0.074 A 
ATOM     41  C   UNL A   1      40.106  31.105  32.540  1.00  0.00     0.031 C 
ATOM     42  C   UNL A   1      40.079  26.241  27.644  1.00  0.00     0.029 A 
ATOM     43  C   UNL A   1      41.216  26.210  28.559  1.00  0.00     0.049 A 
ATOM     44  H   UNL A   1      41.551  27.446  30.202  1.00  0.00     0.167 HD
ATOM     45  C   UNL A   1      42.221  30.251  33.518  1.00  0.00     0.034 A 
ATOM     46  C   UNL A   1      42.254  25.352  28.483  1.00  0.00     0.034 A 
ATOM     47  C   UNL A   1      43.322  29.320  33.573  1.00  0.00     0.049 A 
ATOM     48  C   UNL A   1      43.352  25.443  29.514  1.00  0.00     0.074 A 
ATOM     49  C   UNL A   1      44.350  29.254  34.498  1.00  0.00     0.029 A 
ATOM     50  N   UNL A   1      43.544  28.294  32.663  1.00  0.00    -0.354 N 
ATOM     51  N   UNL A   1      43.481  26.287  30.512  1.00  0.00    -0.248 NA
ATOM     52  C   UNL A   1      44.437  24.459  29.415  1.00  0.00     0.031 C 
ATOM     53  C   UNL A   1      45.224  28.231  34.112  1.00  0.00     0.029 A 
ATOM     54  C   UNL A   1      44.705  27.609  32.988  1.00  0.00     0.049 A 
ATOM     55  H   UNL A   1      42.960  28.084  31.898  1.00  0.00     0.167 HD
ATOM     56  C   UNL A   1      44.645  25.913  31.176  1.00  0.00     0.074 A 
ATOM     57  C   UNL A   1      45.172  24.761  30.474  1.00  0.00     0.031 C 
ATOM     58  C   UNL A   1      45.225  26.469  32.271  1.00  0.00     0.034 A 
BRANCH  45  59
ATOM     59  C   UNL A   1      42.167  31.376  34.526  1.00  0.00     0.023 A 
ATOM     60  C   UNL A   1      41.194  31.414  35.540  1.00  0.00     0.031 A 
ATOM     61  C   UNL A   1      43.085  32.439  34.457  1.00  0.00     0.131 A 
ATOM     62  C   UNL A   1      41.110  32.527  36.390  1.00  0.00     0.055 A 
ATOM     63  C   UNL A   1      43.048  33.504  35.359  1.00  0.00     0.041 A 
ATOM     64  F   UNL A   1      44.025  32.469  33.500  1.00  0.00    -0.206 F 
ATOM     65  C   UNL A   1      42.046  33.561  36.324  1.00  0.00     0.022 A 
BRANCH  62  66
ATOM     66  S   UNL A   1      39.671  32.674  37.486  1.00  0.00     0.124 S 
ATOM     67  O   UNL A   1      39.108  33.953  37.060  1.00  0.00    -0.237 OA
ATOM     68  O   UNL A   1      38.894  31.488  37.145  1.00  0.00    -0.237 OA
ATOM     69  O   UNL A   1      40.258  32.674  38.824  1.00  0.00    -0.744 OA
ENDBRANCH  62  66
ENDBRANCH  45  59
BRANCH  46  70
ATOM     70  C   UNL A   1      42.318  24.337  27.393  1.00  0.00     0.023 A 
ATOM     71  C   UNL A   1      41.687  23.090  27.528  1.00  0.00     0.031 A 
ATOM     72  C   UNL A   1      43.046  24.584  26.215  1.00  0.00     0.131 A 
ATOM     73  C   UNL A   1      41.836  22.118  26.527  1.00  0.00     0.055 A 
ATOM     74  C   UNL A   1      43.147  23.633  25.199  1.00  0.00     0.041 A 
ATOM     75  F   UNL A   1      43.663  25.763  26.031  1.00  0.00    -0.206 F 
ATOM     76  C   UNL A   1      42.551  22.386  25.357  1.00  0.00     0.022 A 
BRANCH  73  77
ATOM     77  S   UNL A   1      41.153  20.463  26.815  1.00  0.00     0.124 S 
ATOM     78  O   UNL A   1      40.002  20.457  25.919  1.00  0.00    -0.237 OA
ATOM     79  O   UNL A   1      42.269  19.605  26.433  1.00  0.00    -0.237 OA
ATOM     80  O   UNL A   1      40.835  20.472  28.241  1.00  0.00    -0.744 OA
ENDBRANCH  73  77
ENDBRANCH  46  70
BRANCH  58  81
ATOM     81  C   UNL A   1      46.472  25.802  32.798  1.00  0.00     0.023 A 
ATOM     82  C   UNL A   1      47.728  26.006  32.201  1.00  0.00     0.031 A 
ATOM     83  C   UNL A   1      46.397  24.940  33.907  1.00  0.00     0.131 A 
ATOM     84  C   UNL A   1      48.850  25.313  32.681  1.00  0.00     0.055 A 
ATOM     85  C   UNL A   1      47.527  24.298  34.416  1.00  0.00     0.041 A 
ATOM     86  F   UNL A   1      45.222  24.708  34.514  1.00  0.00    -0.206 F 
ATOM     87  C   UNL A   1      48.761  24.473  33.795  1.00  0.00     0.022 A 
BRANCH  84  88
ATOM     88  S   UNL A   1      50.416  25.459  31.777  1.00  0.00     0.124 S 
ATOM     89  O   UNL A   1      51.242  26.210  32.717  1.00  0.00    -0.237 OA
ATOM     90  O   UNL A   1      50.791  24.063  31.574  1.00  0.00    -0.237 OA
ATOM     91  O   UNL A   1      50.044  26.183  30.562  1.00  0.00    -0.744 OA
ENDBRANCH  84  88
ENDBRANCH  58  81
ENDBRANCH  32  33
ENDBRANCH  24  27
ENDBRANCH  22  23
ENDBRANCH  21  22
ENDBRANCH   1  21
TORSDOF 18
ENDMDL
MODEL 2
REMARK VINA RESULT:     -10.6      3.249      8.747
REMARK SMILES CSc1ncccc1C(=O)NCCCC(=O)NCCCNC(=O)c1ccc(-c2c3nc(c(-c4cc(S(=O)(=O)[O-])ccc4F)c4ccc([nH]4)c(-c4cc(S(=O)(=O)[O-])ccc4F)c4nc(c(-c5cc(S(=O)(=O)[O-])ccc5F)c5ccc2[nH]5)C=C4)C=C3)cc1
REMARK SMILES IDX 18 1 17 2 15 3 16 4 14 6 13 7 12 8 11 9 9 10 10 11 8 13 3 14
REMARK SMILES IDX 4 15 5 16 7 17 6 18 2 19 1 20 19 21 20 22 21 23 22 24 23 26
REMARK SMILES IDX 24 27 25 28 86 29 26 30 85 31 27 32 28 33 29 34 79 35 30 36
REMARK SMILES IDX 84 37 78 38 80 39 31 40 83 41 77 42 76 43 32 45 64 46 44 47
REMARK SMILES IDX 63 48 45 49 48 50 62 51 81 52 46 53 47 54 61 56 82 57 49 58
REMARK SMILES IDX 33 59 34 60 42 61 35 62 41 63 43 64 40 65 36 66 37 67 38 68
REMARK SMILES IDX 39 69 65 70 66 71 74 72 67 73 73 74 75 75 72 76 68 77 69 78
REMARK SMILES IDX 70 79 71 80 50 81 51 82 59 83 52 84 58 85 60 86 57 87 53 88
REMARK SMILES IDX 54 89 55 90 56 91
REMARK H PARENT 17 5 11 12 21 25 80 44 48 55
REMARK Flexibility Score: inf
ROOT
ATOM      1  C   UNL A   1      31.313  30.508  25.289  1.00  0.00     0.117 C 
ENDROOT
BRANCH   1   2
ATOM      2  N   UNL A   1      30.356  30.426  24.195  1.00  0.00    -0.356 N 
ATOM      3  C   UNL A   1      30.234  29.520  23.187  1.00  0.00     0.220 C 
ATOM      4  O   UNL A   1      29.392  29.726  22.312  1.00  0.00    -0.275 OA
ATOM      5  H   UNL A   1      29.686  31.147  24.181  1.00  0.00     0.163 HD
BRANCH   3   6
ATOM      6  C   UNL A   1      31.092  28.275  23.152  1.00  0.00     0.102 C 
BRANCH   6   7
ATOM      7  C   UNL A   1      30.291  26.973  23.042  1.00  0.00     0.031 C 
BRANCH   7   8
ATOM      8  C   UNL A   1      29.303  26.697  24.177  1.00  0.00     0.116 C 
BRANCH   8   9
ATOM      9  N   UNL A   1      29.687  25.559  24.993  1.00  0.00    -0.352 N 
ATOM     10  C   UNL A   1      30.591  25.366  26.009  1.00  0.00     0.254 C 
ATOM     11  O   UNL A   1      30.473  24.289  26.589  1.00  0.00    -0.269 OA
ATOM     12  H   UNL A   1      29.186  24.741  24.767  1.00  0.00     0.163 HD
BRANCH  10  13
ATOM     13  C   UNL A   1      31.661  26.341  26.368  1.00  0.00     0.072 A 
ATOM     14  C   UNL A   1      32.978  26.196  25.894  1.00  0.00     0.108 A 
ATOM     15  N   UNL A   1      33.946  27.129  26.126  1.00  0.00    -0.249 NA
ATOM     16  C   UNL A   1      33.646  28.187  26.902  1.00  0.00     0.112 A 
ATOM     17  C   UNL A   1      31.409  27.437  27.204  1.00  0.00     0.018 A 
ATOM     18  C   UNL A   1      32.407  28.373  27.473  1.00  0.00     0.021 A 
BRANCH  14  19
ATOM     19  S   UNL A   1      33.630  24.784  25.015  1.00  0.00    -0.109 SA
ATOM     20  C   UNL A   1      33.584  25.446  23.342  1.00  0.00     0.092 C 
ENDBRANCH  14  19
ENDBRANCH  10  13
ENDBRANCH   8   9
ENDBRANCH   7   8
ENDBRANCH   6   7
ENDBRANCH   3   6
ENDBRANCH   1   2
BRANCH   1  21
ATOM     21  C   UNL A   1      31.072  31.748  26.145  1.00  0.00     0.042 C 
BRANCH  21  22
ATOM     22  C   UNL A   1      32.314  32.227  26.889  1.00  0.00     0.118 C 
BRANCH  22  23
ATOM     23  N   UNL A   1      32.250  33.644  27.206  1.00  0.00    -0.352 N 
ATOM     24  C   UNL A   1      32.968  34.376  28.120  1.00  0.00     0.251 C 
ATOM     25  H   UNL A   1      31.591  34.157  26.685  1.00  0.00     0.163 HD
ATOM     26  O   UNL A   1      32.613  35.523  28.373  1.00  0.00    -0.269 OA
BRANCH  24  27
ATOM     27  C   UNL A   1      34.146  33.793  28.809  1.00  0.00     0.039 A 
ATOM     28  C   UNL A   1      33.944  32.747  29.715  1.00  0.00     0.014 A 
ATOM     29  C   UNL A   1      35.435  34.294  28.609  1.00  0.00     0.014 A 
ATOM     30  C   UNL A   1      35.034  32.176  30.381  1.00  0.00     0.010 A 
ATOM     31  C   UNL A   1      36.529  33.675  29.214  1.00  0.00     0.010 A 
ATOM     32  C   UNL A   1      36.340  32.616  30.116  1.00  0.00    -0.014 A 
BRANCH  32  33
ATOM     33  C   UNL A   1      37.516  32.001  30.792  1.00  0.00     0.031 A 
ATOM     34  C   UNL A   1      38.346  30.972  30.072  1.00  0.00     0.074 A 
ATOM     35  C   UNL A   1      37.801  32.326  32.068  1.00  0.00     0.049 A 
ATOM     36  N   UNL A   1      39.352  30.260  30.514  1.00  0.00    -0.248 NA
ATOM     37  C   UNL A   1      37.975  30.684  28.679  1.00  0.00     0.031 C 
ATOM     38  C   UNL A   1      37.054  33.286  32.885  1.00  0.00     0.029 A 
ATOM     39  N   UNL A   1      38.791  31.880  32.908  1.00  0.00    -0.354 N 
ATOM     40  C   UNL A   1      39.723  29.429  29.462  1.00  0.00     0.074 A 
ATOM     41  C   UNL A   1      38.792  29.685  28.381  1.00  0.00     0.031 C 
ATOM     42  C   UNL A   1      37.625  33.372  34.097  1.00  0.00     0.029 A 
ATOM     43  C   UNL A   1      38.749  32.444  34.163  1.00  0.00     0.049 A 
ATOM     44  H   UNL A   1      39.469  31.219  32.639  1.00  0.00     0.167 HD
ATOM     45  C   UNL A   1      40.754  28.550  29.393  1.00  0.00     0.034 A 
ATOM     46  C   UNL A   1      39.521  32.229  35.249  1.00  0.00     0.034 A 
ATOM     47  C   UNL A   1      41.687  28.322  30.470  1.00  0.00     0.049 A 
ATOM     48  C   UNL A   1      40.655  31.239  35.153  1.00  0.00     0.074 A 
ATOM     49  C   UNL A   1      42.799  27.498  30.489  1.00  0.00     0.029 A 
ATOM     50  N   UNL A   1      41.616  28.917  31.723  1.00  0.00    -0.354 N 
ATOM     51  N   UNL A   1      41.015  30.490  34.136  1.00  0.00    -0.248 NA
ATOM     52  C   UNL A   1      41.492  31.073  36.348  1.00  0.00     0.031 C 
ATOM     53  C   UNL A   1      43.362  27.546  31.769  1.00  0.00     0.029 A 
ATOM     54  C   UNL A   1      42.646  28.456  32.530  1.00  0.00     0.049 A 
ATOM     55  H   UNL A   1      40.933  29.570  31.999  1.00  0.00     0.167 HD
ATOM     56  C   UNL A   1      42.140  29.790  34.561  1.00  0.00     0.074 A 
ATOM     57  C   UNL A   1      42.405  30.215  35.920  1.00  0.00     0.031 C 
ATOM     58  C   UNL A   1      42.891  28.881  33.888  1.00  0.00     0.034 A 
BRANCH  45  59
ATOM     59  C   UNL A   1      40.908  27.755  28.116  1.00  0.00     0.023 A 
ATOM     60  C   UNL A   1      40.454  26.429  28.011  1.00  0.00     0.031 A 
ATOM     61  C   UNL A   1      41.540  28.323  26.996  1.00  0.00     0.131 A 
ATOM     62  C   UNL A   1      40.709  25.690  26.846  1.00  0.00     0.055 A 
ATOM     63  C   UNL A   1      41.716  27.608  25.809  1.00  0.00     0.041 A 
ATOM     64  F   UNL A   1      42.012  29.578  27.040  1.00  0.00    -0.206 F 
ATOM     65  C   UNL A   1      41.314  26.278  25.734  1.00  0.00     0.022 A 
BRANCH  62  66
ATOM     66  S   UNL A   1      40.370  23.907  26.860  1.00  0.00     0.124 S 
ATOM     67  O   UNL A   1      41.503  23.388  26.097  1.00  0.00    -0.237 OA
ATOM     68  O   UNL A   1      40.363  23.599  28.284  1.00  0.00    -0.237 OA
ATOM     69  O   UNL A   1      39.076  23.800  26.190  1.00  0.00    -0.744 OA
ENDBRANCH  62  66
ENDBRANCH  45  59
BRANCH  46  70
ATOM     70  C   UNL A   1      39.249  32.953  36.523  1.00  0.00     0.023 A 
ATOM     71  C   UNL A   1      39.841  34.198  36.787  1.00  0.00     0.031 A 
ATOM     72  C   UNL A   1      38.425  32.391  37.515  1.00  0.00     0.131 A 
ATOM     73  C   UNL A   1      39.641  34.818  38.031  1.00  0.00     0.055 A 
ATOM     74  C   UNL A   1      38.188  33.037  38.729  1.00  0.00     0.041 A 
ATOM     75  F   UNL A   1      37.828  31.205  37.311  1.00  0.00    -0.206 F 
ATOM     76  C   UNL A   1      38.808  34.253  38.998  1.00  0.00     0.022 A 
BRANCH  73  77
ATOM     77  S   UNL A   1      40.559  36.339  38.400  1.00  0.00     0.124 S 
ATOM     78  O   UNL A   1      41.428  36.451  37.234  1.00  0.00    -0.237 OA
ATOM     79  O   UNL A   1      39.487  37.323  38.500  1.00  0.00    -0.237 OA
ATOM     80  O   UNL A   1      41.237  36.028  39.656  1.00  0.00    -0.744 OA
ENDBRANCH  73  77
ENDBRANCH  46  70
BRANCH  58  81
ATOM     81  C   UNL A   1      44.096  28.323  34.604  1.00  0.00     0.023 A 
ATOM     82  C   UNL A   1      44.003  27.202  35.447  1.00  0.00     0.031 A 
ATOM     83  C   UNL A   1      45.354  28.933  34.450  1.00  0.00     0.131 A 
ATOM     84  C   UNL A   1      45.135  26.758  36.147  1.00  0.00     0.055 A 
ATOM     85  C   UNL A   1      46.489  28.451  35.103  1.00  0.00     0.041 A 
ATOM     86  F   UNL A   1      45.500  30.008  33.658  1.00  0.00    -0.206 F 
ATOM     87  C   UNL A   1      46.381  27.365  35.967  1.00  0.00     0.022 A 
BRANCH  84  88
ATOM     88  S   UNL A   1      44.941  25.425  37.362  1.00  0.00     0.124 S 
ATOM     89  O   UNL A   1      43.518  25.120  37.254  1.00  0.00    -0.237 OA
ATOM     90  O   UNL A   1      45.852  24.404  36.855  1.00  0.00    -0.237 OA
ATOM     91  O   UNL A   1      45.348  26.048  38.621  1.00  0.00    -0.744 OA
ENDBRANCH  84  88
ENDBRANCH  58  81
ENDBRANCH  32  33
ENDBRANCH  24  27
ENDBRANCH  22  23
ENDBRANCH  21  22
ENDBRANCH   1  21
TORSDOF 18
ENDMDL
MODEL 3
REMARK VINA RESULT:     -10.6      3.007      8.433
REMARK SMILES CSc1ncccc1C(=O)NCCCC(=O)NCCCNC(=O)c1ccc(-c2c3nc(c(-c4cc(S(=O)(=O)[O-])ccc4F)c4ccc([nH]4)c(-c4cc(S(=O)(=O)[O-])ccc4F)c4nc(c(-c5cc(S(=O)(=O)[O-])ccc5F)c5ccc2[nH]5)C=C4)C=C3)cc1
REMARK SMILES IDX 18 1 17 2 15 3 16 4 14 6 13 7 12 8 11 9 9 10 10 11 8 13 3 14
REMARK SMILES IDX 4 15 5 16 7 17 6 18 2 19 1 20 19 21 20 22 21 23 22 24 23 26
REMARK SMILES IDX 24 27 25 28 86 29 26 30 85 31 27 32 28 33 29 34 79 35 30 36
REMARK SMILES IDX 84 37 78 38 80 39 31 40 83 41 77 42 76 43 32 45 64 46 44 47
REMARK SMILES IDX 63 48 45 49 48 50 62 51 81 52 46 53 47 54 61 56 82 57 49 58
REMARK SMILES IDX 33 59 34 60 42 61 35 62 41 63 43 64 40 65 36 66 37 67 38 68
REMARK SMILES IDX 39 69 65 70 66 71 74 72 67 73 73 74 75 75 72 76 68 77 69 78
REMARK SMILES IDX 70 79 71 80 50 81 51 82 59 83 52 84 58 85 60 86 57 87 53 88
REMARK SMILES IDX 54 89 55 90 56 91
REMARK H PARENT 17 5 11 12 21 25 80 44 48 55
REMARK Flexibility Score: inf
ROOT
ATOM      1  C   UNL A   1      31.473  30.197  25.430  1.00  0.00     0.117 C 
ENDROOT
BRANCH   1   2
ATOM      2  N   UNL A   1      30.658  30.110  24.227  1.00  0.00    -0.356 N 
ATOM      3  C   UNL A   1      30.505  29.100  23.328  1.00  0.00     0.220 C 
ATOM      4  O   UNL A   1      29.825  29.308  22.323  1.00  0.00    -0.275 OA
ATOM      5  H   UNL A   1      30.130  30.917  24.031  1.00  0.00     0.163 HD
BRANCH   3   6
ATOM      6  C   UNL A   1      31.134  27.745  23.566  1.00  0.00     0.102 C 
BRANCH   6   7
ATOM      7  C   UNL A   1      30.444  26.927  24.663  1.00  0.00     0.031 C 
BRANCH   7   8
ATOM      8  C   UNL A   1      31.335  26.466  25.817  1.00  0.00     0.116 C 
BRANCH   8   9
ATOM      9  N   UNL A   1      30.800  25.311  26.516  1.00  0.00    -0.352 N 
ATOM     10  C   UNL A   1      30.967  23.954  26.396  1.00  0.00     0.254 C 
ATOM     11  O   UNL A   1      30.488  23.305  27.324  1.00  0.00    -0.269 OA
ATOM     12  H   UNL A   1      30.178  25.558  27.239  1.00  0.00     0.163 HD
BRANCH  10  13
ATOM     13  C   UNL A   1      31.627  23.294  25.233  1.00  0.00     0.072 A 
ATOM     14  C   UNL A   1      32.865  22.640  25.363  1.00  0.00     0.108 A 
ATOM     15  N   UNL A   1      33.437  21.944  24.339  1.00  0.00    -0.249 NA
ATOM     16  C   UNL A   1      32.827  21.949  23.139  1.00  0.00     0.112 A 
ATOM     17  C   UNL A   1      31.051  23.305  23.956  1.00  0.00     0.018 A 
ATOM     18  C   UNL A   1      31.651  22.624  22.897  1.00  0.00     0.021 A 
BRANCH  14  19
ATOM     19  S   UNL A   1      33.925  22.672  26.802  1.00  0.00    -0.109 SA
ATOM     20  C   UNL A   1      35.280  23.651  26.134  1.00  0.00     0.092 C 
ENDBRANCH  14  19
ENDBRANCH  10  13
ENDBRANCH   8   9
ENDBRANCH   7   8
ENDBRANCH   6   7
ENDBRANCH   3   6
ENDBRANCH   1   2
BRANCH   1  21
ATOM     21  C   UNL A   1      31.273  31.533  26.141  1.00  0.00     0.042 C 
BRANCH  21  22
ATOM     22  C   UNL A   1      32.512  32.020  26.884  1.00  0.00     0.118 C 
BRANCH  22  23
ATOM     23  N   UNL A   1      32.419  33.427  27.238  1.00  0.00    -0.352 N 
ATOM     24  C   UNL A   1      33.118  34.147  28.177  1.00  0.00     0.251 C 
ATOM     25  H   UNL A   1      31.754  33.942  26.726  1.00  0.00     0.163 HD
ATOM     26  O   UNL A   1      32.739  35.281  28.458  1.00  0.00    -0.269 OA
BRANCH  24  27
ATOM     27  C   UNL A   1      34.301  33.568  28.859  1.00  0.00     0.039 A 
ATOM     28  C   UNL A   1      34.108  32.518  29.764  1.00  0.00     0.014 A 
ATOM     29  C   UNL A   1      35.587  34.075  28.654  1.00  0.00     0.014 A 
ATOM     30  C   UNL A   1      35.203  31.951  30.422  1.00  0.00     0.010 A 
ATOM     31  C   UNL A   1      36.687  33.459  29.252  1.00  0.00     0.010 A 
ATOM     32  C   UNL A   1      36.507  32.397  30.152  1.00  0.00    -0.014 A 
BRANCH  32  33
ATOM     33  C   UNL A   1      37.688  31.786  30.822  1.00  0.00     0.031 A 
ATOM     34  C   UNL A   1      38.504  30.742  30.105  1.00  0.00     0.074 A 
ATOM     35  C   UNL A   1      37.992  32.127  32.089  1.00  0.00     0.049 A 
ATOM     36  N   UNL A   1      39.511  30.032  30.544  1.00  0.00    -0.248 NA
ATOM     37  C   UNL A   1      38.112  30.437  28.721  1.00  0.00     0.031 C 
ATOM     38  C   UNL A   1      37.261  33.102  32.902  1.00  0.00     0.029 A 
ATOM     39  N   UNL A   1      38.991  31.688  32.922  1.00  0.00    -0.354 N 
ATOM     40  C   UNL A   1      39.864  29.183  29.498  1.00  0.00     0.074 A 
ATOM     41  C   UNL A   1      38.921  29.430  28.427  1.00  0.00     0.031 C 
ATOM     42  C   UNL A   1      37.848  33.203  34.105  1.00  0.00     0.029 A 
ATOM     43  C   UNL A   1      38.969  32.269  34.169  1.00  0.00     0.049 A 
ATOM     44  H   UNL A   1      39.662  31.020  32.653  1.00  0.00     0.167 HD
ATOM     45  C   UNL A   1      40.890  28.298  29.428  1.00  0.00     0.034 A 
ATOM     46  C   UNL A   1      39.754  32.066  35.247  1.00  0.00     0.034 A 
ATOM     47  C   UNL A   1      41.836  28.081  30.496  1.00  0.00     0.049 A 
ATOM     48  C   UNL A   1      40.881  31.069  35.151  1.00  0.00     0.074 A 
ATOM     49  C   UNL A   1      42.944  27.251  30.512  1.00  0.00     0.029 A 
ATOM     50  N   UNL A   1      41.785  28.693  31.742  1.00  0.00    -0.354 N 
ATOM     51  N   UNL A   1      41.224  30.304  34.140  1.00  0.00    -0.248 NA
ATOM     52  C   UNL A   1      41.733  30.915  36.337  1.00  0.00     0.031 C 
ATOM     53  C   UNL A   1      43.524  27.314  31.784  1.00  0.00     0.029 A 
ATOM     54  C   UNL A   1      42.823  28.239  32.541  1.00  0.00     0.049 A 
ATOM     55  H   UNL A   1      41.109  29.354  32.017  1.00  0.00     0.167 HD
ATOM     56  C   UNL A   1      42.351  29.604  34.560  1.00  0.00     0.074 A 
ATOM     57  C   UNL A   1      42.637  30.047  35.909  1.00  0.00     0.031 C 
ATOM     58  C   UNL A   1      43.088  28.681  33.889  1.00  0.00     0.034 A 
BRANCH  45  59
ATOM     59  C   UNL A   1      41.022  27.485  28.161  1.00  0.00     0.023 A 
ATOM     60  C   UNL A   1      40.657  26.128  28.111  1.00  0.00     0.031 A 
ATOM     61  C   UNL A   1      41.546  28.067  26.993  1.00  0.00     0.131 A 
ATOM     62  C   UNL A   1      40.893  25.380  26.948  1.00  0.00     0.055 A 
ATOM     63  C   UNL A   1      41.700  27.338  25.812  1.00  0.00     0.041 A 
ATOM     64  F   UNL A   1      41.930  29.353  26.983  1.00  0.00    -0.206 F 
ATOM     65  C   UNL A   1      41.389  25.981  25.789  1.00  0.00     0.022 A 
BRANCH  62  66
ATOM     66  S   UNL A   1      40.682  23.580  27.018  1.00  0.00     0.124 S 
ATOM     67  O   UNL A   1      39.239  23.446  26.833  1.00  0.00    -0.237 OA
ATOM     68  O   UNL A   1      41.514  23.122  25.913  1.00  0.00    -0.237 OA
ATOM     69  O   UNL A   1      41.167  23.230  28.352  1.00  0.00    -0.744 OA
ENDBRANCH  62  66
ENDBRANCH  45  59
BRANCH  46  70
ATOM     70  C   UNL A   1      39.502  32.809  36.515  1.00  0.00     0.023 A 
ATOM     71  C   UNL A   1      38.590  32.326  37.467  1.00  0.00     0.031 A 
ATOM     72  C   UNL A   1      40.139  34.036  36.775  1.00  0.00     0.131 A 
ATOM     73  C   UNL A   1      38.303  33.089  38.610  1.00  0.00     0.055 A 
ATOM     74  C   UNL A   1      39.890  34.764  37.939  1.00  0.00     0.041 A 
ATOM     75  F   UNL A   1      41.027  34.539  35.902  1.00  0.00    -0.206 F 
ATOM     76  C   UNL A   1      38.956  34.297  38.859  1.00  0.00     0.022 A 
BRANCH  73  77
ATOM     77  S   UNL A   1      36.994  32.517  39.728  1.00  0.00     0.124 S 
ATOM     78  O   UNL A   1      37.089  33.484  40.816  1.00  0.00    -0.237 OA
ATOM     79  O   UNL A   1      35.809  32.615  38.883  1.00  0.00    -0.237 OA
ATOM     80  O   UNL A   1      37.407  31.156  40.065  1.00  0.00    -0.744 OA
ENDBRANCH  73  77
ENDBRANCH  46  70
BRANCH  58  81
ATOM     81  C   UNL A   1      44.300  28.127  34.597  1.00  0.00     0.023 A 
ATOM     82  C   UNL A   1      44.232  26.961  35.378  1.00  0.00     0.031 A 
ATOM     83  C   UNL A   1      45.539  28.787  34.499  1.00  0.00     0.131 A 
ATOM     84  C   UNL A   1      45.368  26.518  36.074  1.00  0.00     0.055 A 
ATOM     85  C   UNL A   1      46.679  28.310  35.146  1.00  0.00     0.041 A 
ATOM     86  F   UNL A   1      45.660  29.907  33.767  1.00  0.00    -0.206 F 
ATOM     87  C   UNL A   1      46.594  27.176  35.950  1.00  0.00     0.022 A 
BRANCH  84  88
ATOM     88  S   UNL A   1      45.200  25.116  37.213  1.00  0.00     0.124 S 
ATOM     89  O   UNL A   1      46.578  24.912  37.649  1.00  0.00    -0.237 OA
ATOM     90  O   UNL A   1      44.283  25.641  38.221  1.00  0.00    -0.237 OA
ATOM     91  O   UNL A   1      44.651  24.054  36.372  1.00  0.00    -0.744 OA
ENDBRANCH  84  88
ENDBRANCH  58  81
ENDBRANCH  32  33
ENDBRANCH  24  27
ENDBRANCH  22  23
ENDBRANCH  21  22
ENDBRANCH   1  21
TORSDOF 18
ENDMDL
