MODEL 1
REMARK VINA RESULT:     -12.1      0.000      0.000
REMARK SMILES CSCC[C@@H](C(=O)NCCCNC(=O)c1ccc(-c2c3nc(c(-c4cc(S(=O)(=O)[O-])ccc4F)c4ccc([nH]4)c(-c4cc(S(=O)(=O)[O-])ccc4F)c4nc(c(-c5cc(S(=O)(=O)[O-])ccc5F)c5ccc2[nH]5)C=C4)C=C3)cc1)N1C(=O)/C(=C/c2ccc(-c3ccccc3Cl)o2)SC1=S
REMARK SMILES IDX 10 1 9 2 8 3 6 4 7 5 5 7 4 8 3 9 2 10 1 11 78 12 79 13 96 14
REMARK SMILES IDX 80 15 81 16 95 17 97 18 82 19 83 20 84 21 94 22 85 23 86 24
REMARK SMILES IDX 87 25 88 26 92 27 89 28 91 29 93 30 90 31 11 32 12 33 13 34
REMARK SMILES IDX 14 36 15 37 16 38 77 39 17 40 76 41 18 42 19 43 20 44 70 45
REMARK SMILES IDX 21 46 75 47 69 48 71 49 22 50 74 51 68 52 67 53 23 55 55 56
REMARK SMILES IDX 35 57 54 58 36 59 39 60 53 61 72 62 37 63 38 64 52 66 73 67
REMARK SMILES IDX 40 68 24 69 25 70 33 71 26 72 32 73 34 74 31 75 27 76 28 77
REMARK SMILES IDX 29 78 30 79 56 80 57 81 65 82 58 83 64 84 66 85 63 86 59 87
REMARK SMILES IDX 60 88 61 89 62 90 41 91 42 92 50 93 43 94 49 95 51 96 48 97
REMARK SMILES IDX 44 98 45 99 46 100 47 101
REMARK H PARENT 8 6 12 35 71 54 39 65
REMARK Flexibility Score: inf
ROOT
ATOM      1  C   UNL A   1      37.458  19.782  25.007  1.00  0.00     0.042 C 
ENDROOT
BRANCH   1   2
ATOM      2  C   UNL A   1      36.288  20.740  24.883  1.00  0.00     0.117 C 
BRANCH   2   3
ATOM      3  N   UNL A   1      35.883  21.313  26.141  1.00  0.00    -0.354 N 
ATOM      4  C   UNL A   1      34.637  21.589  26.604  1.00  0.00     0.243 C 
ATOM      5  O   UNL A   1      34.518  21.553  27.836  1.00  0.00    -0.273 OA
ATOM      6  H   UNL A   1      36.619  21.537  26.757  1.00  0.00     0.163 HD
BRANCH   4   7
ATOM      7  C   UNL A   1      33.398  21.823  25.683  1.00  0.00     0.182 C 
BRANCH   7   8
ATOM      8  C   UNL A   1      33.260  21.111  24.326  1.00  0.00     0.046 C 
BRANCH   8   9
ATOM      9  C   UNL A   1      32.582  19.739  24.212  1.00  0.00     0.072 C 
BRANCH   9  10
ATOM     10  S   UNL A   1      33.508  18.234  24.683  1.00  0.00    -0.165 SA
ATOM     11  C   UNL A   1      33.388  17.155  23.229  1.00  0.00     0.085 C 
ENDBRANCH   9  10
ENDBRANCH   8   9
ENDBRANCH   7   8
BRANCH   7  12
ATOM     12  N   UNL A   1      33.335  23.299  25.441  1.00  0.00    -0.280 N 
ATOM     13  C   UNL A   1      32.494  24.063  26.232  1.00  0.00     0.267 C 
ATOM     14  C   UNL A   1      33.951  23.966  24.392  1.00  0.00     0.149 C 
ATOM     15  O   UNL A   1      31.780  23.646  27.139  1.00  0.00    -0.268 OA
ATOM     16  C   UNL A   1      32.484  25.477  25.777  1.00  0.00     0.084 C 
ATOM     17  S   UNL A   1      33.622  25.686  24.509  1.00  0.00    -0.054 SA
ATOM     18  S   UNL A   1      34.850  23.364  23.118  1.00  0.00    -0.052 S 
ATOM     19  C   UNL A   1      31.664  26.392  26.312  1.00  0.00     0.068 C 
BRANCH  19  20
ATOM     20  C   UNL A   1      31.624  27.746  25.880  1.00  0.00     0.128 A 
ATOM     21  C   UNL A   1      32.320  28.857  26.347  1.00  0.00     0.051 A 
ATOM     22  O   UNL A   1      30.810  28.171  24.855  1.00  0.00    -0.457 OA
ATOM     23  C   UNL A   1      31.854  29.989  25.643  1.00  0.00     0.051 A 
ATOM     24  C   UNL A   1      30.904  29.525  24.765  1.00  0.00     0.136 A 
BRANCH  24  25
ATOM     25  C   UNL A   1      30.031  30.185  23.806  1.00  0.00     0.036 A 
ATOM     26  C   UNL A   1      29.417  31.392  24.187  1.00  0.00     0.013 A 
ATOM     27  C   UNL A   1      29.709  29.637  22.553  1.00  0.00     0.052 A 
ATOM     28  C   UNL A   1      28.498  32.028  23.350  1.00  0.00     0.001 A 
ATOM     29  C   UNL A   1      28.786  30.278  21.717  1.00  0.00     0.021 A 
ATOM     30  Cl  UNL A   1      30.359  28.133  21.991  1.00  0.00    -0.084 Cl
ATOM     31  C   UNL A   1      28.178  31.467  22.117  1.00  0.00     0.002 A 
ENDBRANCH  24  25
ENDBRANCH  19  20
ENDBRANCH   7  12
ENDBRANCH   4   7
ENDBRANCH   2   3
ENDBRANCH   1   2
BRANCH   1  32
ATOM     32  C   UNL A   1      38.638  20.389  25.747  1.00  0.00     0.118 C 
BRANCH  32  33
ATOM     33  N   UNL A   1      39.715  19.424  25.950  1.00  0.00    -0.352 N 
ATOM     34  C   UNL A   1      41.060  19.624  26.157  1.00  0.00     0.251 C 
ATOM     35  H   UNL A   1      39.434  18.482  25.936  1.00  0.00     0.163 HD
ATOM     36  O   UNL A   1      41.826  18.668  26.076  1.00  0.00    -0.269 OA
BRANCH  34  37
ATOM     37  C   UNL A   1      41.575  20.979  26.448  1.00  0.00     0.039 A 
ATOM     38  C   UNL A   1      41.944  21.814  25.390  1.00  0.00     0.014 A 
ATOM     39  C   UNL A   1      41.694  21.428  27.764  1.00  0.00     0.014 A 
ATOM     40  C   UNL A   1      42.351  23.124  25.654  1.00  0.00     0.010 A 
ATOM     41  C   UNL A   1      41.985  22.763  28.016  1.00  0.00     0.010 A 
ATOM     42  C   UNL A   1      42.330  23.624  26.966  1.00  0.00    -0.014 A 
BRANCH  42  43
ATOM     43  C   UNL A   1      42.688  25.033  27.273  1.00  0.00     0.031 A 
ATOM     44  C   UNL A   1      44.084  25.526  26.995  1.00  0.00     0.074 A 
ATOM     45  C   UNL A   1      41.788  25.840  27.870  1.00  0.00     0.049 A 
ATOM     46  N   UNL A   1      44.631  26.678  27.288  1.00  0.00    -0.248 NA
ATOM     47  C   UNL A   1      44.998  24.581  26.333  1.00  0.00     0.031 C 
ATOM     48  C   UNL A   1      40.418  25.460  28.227  1.00  0.00     0.029 A 
ATOM     49  N   UNL A   1      41.887  27.143  28.288  1.00  0.00    -0.354 N 
ATOM     50  C   UNL A   1      45.953  26.588  26.865  1.00  0.00     0.074 A 
ATOM     51  C   UNL A   1      46.143  25.244  26.365  1.00  0.00     0.031 C 
ATOM     52  C   UNL A   1      39.798  26.516  28.779  1.00  0.00     0.029 A 
ATOM     53  C   UNL A   1      40.737  27.628  28.870  1.00  0.00     0.049 A 
ATOM     54  H   UNL A   1      42.705  27.680  28.183  1.00  0.00     0.167 HD
ATOM     55  C   UNL A   1      46.911  27.546  26.865  1.00  0.00     0.034 A 
ATOM     56  C   UNL A   1      40.476  28.828  29.428  1.00  0.00     0.034 A 
ATOM     57  C   UNL A   1      46.694  28.887  27.351  1.00  0.00     0.049 A 
ATOM     58  C   UNL A   1      41.568  29.869  29.445  1.00  0.00     0.074 A 
ATOM     59  C   UNL A   1      47.572  29.956  27.347  1.00  0.00     0.029 A 
ATOM     60  N   UNL A   1      45.517  29.341  27.934  1.00  0.00    -0.354 N 
ATOM     61  N   UNL A   1      42.799  29.784  28.994  1.00  0.00    -0.248 NA
ATOM     62  C   UNL A   1      41.232  31.169  30.039  1.00  0.00     0.031 C 
ATOM     63  C   UNL A   1      46.956  31.030  27.997  1.00  0.00     0.029 A 
ATOM     64  C   UNL A   1      45.660  30.663  28.326  1.00  0.00     0.049 A 
ATOM     65  H   UNL A   1      44.701  28.803  28.050  1.00  0.00     0.167 HD
ATOM     66  C   UNL A   1      43.372  31.033  29.220  1.00  0.00     0.074 A 
ATOM     67  C   UNL A   1      42.348  31.854  29.832  1.00  0.00     0.031 C 
ATOM     68  C   UNL A   1      44.629  31.465  28.943  1.00  0.00     0.034 A 
BRANCH  55  69
ATOM     69  C   UNL A   1      48.279  27.167  26.346  1.00  0.00     0.023 A 
ATOM     70  C   UNL A   1      49.332  26.826  27.212  1.00  0.00     0.031 A 
ATOM     71  C   UNL A   1      48.542  27.172  24.964  1.00  0.00     0.131 A 
ATOM     72  C   UNL A   1      50.616  26.588  26.699  1.00  0.00     0.055 A 
ATOM     73  C   UNL A   1      49.801  26.845  24.453  1.00  0.00     0.041 A 
ATOM     74  F   UNL A   1      47.586  27.511  24.086  1.00  0.00    -0.206 F 
ATOM     75  C   UNL A   1      50.851  26.567  25.322  1.00  0.00     0.022 A 
BRANCH  72  76
ATOM     76  S   UNL A   1      52.002  26.464  27.860  1.00  0.00     0.124 S 
ATOM     77  O   UNL A   1      51.348  25.905  29.041  1.00  0.00    -0.237 OA
ATOM     78  O   UNL A   1      52.922  25.576  27.160  1.00  0.00    -0.237 OA
ATOM     79  O   UNL A   1      52.455  27.846  28.003  1.00  0.00    -0.744 OA
ENDBRANCH  72  76
ENDBRANCH  55  69
BRANCH  56  80
ATOM     80  C   UNL A   1      39.139  29.111  30.025  1.00  0.00     0.023 A 
ATOM     81  C   UNL A   1      38.185  29.873  29.331  1.00  0.00     0.031 A 
ATOM     82  C   UNL A   1      38.809  28.663  31.316  1.00  0.00     0.131 A 
ATOM     83  C   UNL A   1      36.970  30.207  29.950  1.00  0.00     0.055 A 
ATOM     84  C   UNL A   1      37.574  28.947  31.904  1.00  0.00     0.041 A 
ATOM     85  F   UNL A   1      39.681  27.929  32.025  1.00  0.00    -0.206 F 
ATOM     86  C   UNL A   1      36.651  29.737  31.225  1.00  0.00     0.022 A 
BRANCH  83  87
ATOM     87  S   UNL A   1      35.849  31.353  29.100  1.00  0.00     0.124 S 
ATOM     88  O   UNL A   1      36.788  32.289  28.493  1.00  0.00    -0.237 OA
ATOM     89  O   UNL A   1      35.146  30.462  28.182  1.00  0.00    -0.237 OA
ATOM     90  O   UNL A   1      35.034  31.898  30.183  1.00  0.00    -0.744 OA
ENDBRANCH  83  87
ENDBRANCH  56  80
BRANCH  68  91
ATOM     91  C   UNL A   1      44.946  32.907  29.256  1.00  0.00     0.023 A 
ATOM     92  C   UNL A   1      44.803  33.924  28.296  1.00  0.00     0.031 A 
ATOM     93  C   UNL A   1      45.396  33.267  30.539  1.00  0.00     0.131 A 
ATOM     94  C   UNL A   1      45.159  35.242  28.618  1.00  0.00     0.055 A 
ATOM     95  C   UNL A   1      45.684  34.591  30.873  1.00  0.00     0.041 A 
ATOM     96  F   UNL A   1      45.555  32.336  31.494  1.00  0.00    -0.206 F 
ATOM     97  C   UNL A   1      45.580  35.584  29.905  1.00  0.00     0.022 A 
BRANCH  94  98
ATOM     98  S   UNL A   1      45.158  36.489  27.301  1.00  0.00     0.124 S 
ATOM     99  O   UNL A   1      45.758  35.756  26.190  1.00  0.00    -0.237 OA
ATOM    100  O   UNL A   1      43.739  36.801  27.167  1.00  0.00    -0.237 OA
ATOM    101  O   UNL A   1      45.981  37.567  27.850  1.00  0.00    -0.744 OA
ENDBRANCH  94  98
ENDBRANCH  68  91
ENDBRANCH  42  43
ENDBRANCH  34  37
ENDBRANCH  32  33
ENDBRANCH   1  32
TORSDOF 19
ENDMDL
MODEL 2
REMARK VINA RESULT:     -10.7      5.240     10.593
REMARK SMILES CSCC[C@@H](C(=O)NCCCNC(=O)c1ccc(-c2c3nc(c(-c4cc(S(=O)(=O)[O-])ccc4F)c4ccc([nH]4)c(-c4cc(S(=O)(=O)[O-])ccc4F)c4nc(c(-c5cc(S(=O)(=O)[O-])ccc5F)c5ccc2[nH]5)C=C4)C=C3)cc1)N1C(=O)/C(=C/c2ccc(-c3ccccc3Cl)o2)SC1=S
REMARK SMILES IDX 10 1 9 2 8 3 6 4 7 5 5 7 4 8 3 9 2 10 1 11 78 12 79 13 96 14
REMARK SMILES IDX 80 15 81 16 95 17 97 18 82 19 83 20 84 21 94 22 85 23 86 24
REMARK SMILES IDX 87 25 88 26 92 27 89 28 91 29 93 30 90 31 11 32 12 33 13 34
REMARK SMILES IDX 14 36 15 37 16 38 77 39 17 40 76 41 18 42 19 43 20 44 70 45
REMARK SMILES IDX 21 46 75 47 69 48 71 49 22 50 74 51 68 52 67 53 23 55 55 56
REMARK SMILES IDX 35 57 54 58 36 59 39 60 53 61 72 62 37 63 38 64 52 66 73 67
REMARK SMILES IDX 40 68 24 69 25 70 33 71 26 72 32 73 34 74 31 75 27 76 28 77
REMARK SMILES IDX 29 78 30 79 56 80 57 81 65 82 58 83 64 84 66 85 63 86 59 87
REMARK SMILES IDX 60 88 61 89 62 90 41 91 42 92 50 93 43 94 49 95 51 96 48 97
REMARK SMILES IDX 44 98 45 99 46 100 47 101
REMARK H PARENT 8 6 12 35 71 54 39 65
REMARK Flexibility Score: inf
ROOT
ATOM      1  C   UNL A   1      35.976  34.093  34.694  1.00  0.00     0.042 C 
ENDROOT
BRANCH   1   2
ATOM      2  C   UNL A   1      35.660  33.990  33.213  1.00  0.00     0.117 C 
BRANCH   2   3
ATOM      3  N   UNL A   1      35.257  32.669  32.806  1.00  0.00    -0.354 N 
ATOM      4  C   UNL A   1      35.624  31.952  31.713  1.00  0.00     0.243 C 
ATOM      5  O   UNL A   1      35.591  30.723  31.860  1.00  0.00    -0.273 OA
ATOM      6  H   UNL A   1      34.621  32.219  33.409  1.00  0.00     0.163 HD
BRANCH   4   7
ATOM      7  C   UNL A   1      36.164  32.589  30.394  1.00  0.00     0.182 C 
BRANCH   7   8
ATOM      8  C   UNL A   1      35.236  33.347  29.429  1.00  0.00     0.046 C 
BRANCH   8   9
ATOM      9  C   UNL A   1      34.777  34.781  29.726  1.00  0.00     0.072 C 
BRANCH   9  10
ATOM     10  S   UNL A   1      33.025  35.239  29.465  1.00  0.00    -0.165 SA
ATOM     11  C   UNL A   1      32.544  36.081  30.997  1.00  0.00     0.085 C 
ENDBRANCH   9  10
ENDBRANCH   8   9
ENDBRANCH   7   8
BRANCH   7  12
ATOM     12  N   UNL A   1      36.818  31.478  29.633  1.00  0.00    -0.280 N 
ATOM     13  C   UNL A   1      38.172  31.260  29.815  1.00  0.00     0.267 C 
ATOM     14  C   UNL A   1      36.208  30.717  28.647  1.00  0.00     0.149 C 
ATOM     15  O   UNL A   1      38.913  31.897  30.558  1.00  0.00    -0.268 OA
ATOM     16  C   UNL A   1      38.661  30.194  28.903  1.00  0.00     0.084 C 
ATOM     17  S   UNL A   1      37.339  29.520  28.038  1.00  0.00    -0.054 SA
ATOM     18  S   UNL A   1      34.673  30.833  27.997  1.00  0.00    -0.052 S 
ATOM     19  C   UNL A   1      39.959  29.876  28.809  1.00  0.00     0.068 C 
BRANCH  19  20
ATOM     20  C   UNL A   1      40.451  28.872  27.931  1.00  0.00     0.128 A 
ATOM     21  C   UNL A   1      40.819  28.953  26.591  1.00  0.00     0.051 A 
ATOM     22  O   UNL A   1      40.636  27.568  28.330  1.00  0.00    -0.457 OA
ATOM     23  C   UNL A   1      41.153  27.653  26.152  1.00  0.00     0.051 A 
ATOM     24  C   UNL A   1      40.992  26.832  27.243  1.00  0.00     0.136 A 
BRANCH  24  25
ATOM     25  C   UNL A   1      41.130  25.396  27.433  1.00  0.00     0.036 A 
ATOM     26  C   UNL A   1      39.983  24.593  27.289  1.00  0.00     0.013 A 
ATOM     27  C   UNL A   1      42.329  24.784  27.831  1.00  0.00     0.052 A 
ATOM     28  C   UNL A   1      40.028  23.222  27.548  1.00  0.00     0.001 A 
ATOM     29  C   UNL A   1      42.369  23.408  28.090  1.00  0.00     0.021 A 
ATOM     30  Cl  UNL A   1      43.795  25.670  28.091  1.00  0.00    -0.084 Cl
ATOM     31  C   UNL A   1      41.220  22.630  27.955  1.00  0.00     0.002 A 
ENDBRANCH  24  25
ENDBRANCH  19  20
ENDBRANCH   7  12
ENDBRANCH   4   7
ENDBRANCH   2   3
ENDBRANCH   1   2
BRANCH   1  32
ATOM     32  C   UNL A   1      37.406  33.693  35.018  1.00  0.00     0.118 C 
BRANCH  32  33
ATOM     33  N   UNL A   1      37.468  32.663  36.051  1.00  0.00    -0.352 N 
ATOM     34  C   UNL A   1      38.153  31.472  36.079  1.00  0.00     0.251 C 
ATOM     35  H   UNL A   1      36.934  32.852  36.856  1.00  0.00     0.163 HD
ATOM     36  O   UNL A   1      37.886  30.647  36.949  1.00  0.00    -0.269 OA
BRANCH  34  37
ATOM     37  C   UNL A   1      39.181  31.180  35.056  1.00  0.00     0.039 A 
ATOM     38  C   UNL A   1      40.489  31.632  35.249  1.00  0.00     0.014 A 
ATOM     39  C   UNL A   1      38.856  30.458  33.907  1.00  0.00     0.014 A 
ATOM     40  C   UNL A   1      41.482  31.288  34.329  1.00  0.00     0.010 A 
ATOM     41  C   UNL A   1      39.863  30.018  33.058  1.00  0.00     0.010 A 
ATOM     42  C   UNL A   1      41.187  30.438  33.251  1.00  0.00    -0.014 A 
BRANCH  42  43
ATOM     43  C   UNL A   1      42.234  29.994  32.294  1.00  0.00     0.031 A 
ATOM     44  C   UNL A   1      42.940  28.683  32.518  1.00  0.00     0.074 A 
ATOM     45  C   UNL A   1      42.600  30.800  31.277  1.00  0.00     0.049 A 
ATOM     46  N   UNL A   1      43.952  28.165  31.871  1.00  0.00    -0.248 NA
ATOM     47  C   UNL A   1      42.469  27.863  33.646  1.00  0.00     0.031 C 
ATOM     48  C   UNL A   1      42.016  32.112  30.986  1.00  0.00     0.029 A 
ATOM     49  N   UNL A   1      43.553  30.640  30.304  1.00  0.00    -0.354 N 
ATOM     50  C   UNL A   1      44.249  26.973  32.524  1.00  0.00     0.074 A 
ATOM     51  C   UNL A   1      43.360  26.884  33.661  1.00  0.00     0.031 C 
ATOM     52  C   UNL A   1      42.601  32.620  29.889  1.00  0.00     0.029 A 
ATOM     53  C   UNL A   1      43.638  31.702  29.432  1.00  0.00     0.049 A 
ATOM     54  H   UNL A   1      44.123  29.841  30.235  1.00  0.00     0.167 HD
ATOM     55  C   UNL A   1      45.159  26.026  32.189  1.00  0.00     0.034 A 
ATOM     56  C   UNL A   1      44.470  31.919  28.392  1.00  0.00     0.034 A 
ATOM     57  C   UNL A   1      46.023  26.125  31.038  1.00  0.00     0.049 A 
ATOM     58  C   UNL A   1      45.496  30.865  28.057  1.00  0.00     0.074 A 
ATOM     59  C   UNL A   1      46.941  25.203  30.569  1.00  0.00     0.029 A 
ATOM     60  N   UNL A   1      46.082  27.216  30.179  1.00  0.00    -0.354 N 
ATOM     61  N   UNL A   1      45.730  29.719  28.655  1.00  0.00    -0.248 NA
ATOM     62  C   UNL A   1      46.363  31.130  26.902  1.00  0.00     0.031 C 
ATOM     63  C   UNL A   1      47.608  25.766  29.477  1.00  0.00     0.029 A 
ATOM     64  C   UNL A   1      47.045  27.004  29.206  1.00  0.00     0.049 A 
ATOM     65  H   UNL A   1      45.520  28.021  30.251  1.00  0.00     0.167 HD
ATOM     66  C   UNL A   1      46.749  29.112  27.925  1.00  0.00     0.074 A 
ATOM     67  C   UNL A   1      47.072  30.012  26.837  1.00  0.00     0.031 C 
ATOM     68  C   UNL A   1      47.360  27.917  28.132  1.00  0.00     0.034 A 
BRANCH  55  69
ATOM     69  C   UNL A   1      45.275  24.819  33.091  1.00  0.00     0.023 A 
ATOM     70  C   UNL A   1      46.144  24.801  34.195  1.00  0.00     0.031 A 
ATOM     71  C   UNL A   1      44.526  23.658  32.827  1.00  0.00     0.131 A 
ATOM     72  C   UNL A   1      46.307  23.624  34.943  1.00  0.00     0.055 A 
ATOM     73  C   UNL A   1      44.625  22.519  33.631  1.00  0.00     0.041 A 
ATOM     74  F   UNL A   1      43.696  23.603  31.774  1.00  0.00    -0.206 F 
ATOM     75  C   UNL A   1      45.531  22.492  34.685  1.00  0.00     0.022 A 
BRANCH  72  76
ATOM     76  S   UNL A   1      47.657  23.547  36.151  1.00  0.00     0.124 S 
ATOM     77  O   UNL A   1      48.743  24.198  35.421  1.00  0.00    -0.237 OA
ATOM     78  O   UNL A   1      47.112  24.291  37.281  1.00  0.00    -0.237 OA
ATOM     79  O   UNL A   1      47.836  22.114  36.374  1.00  0.00    -0.744 OA
ENDBRANCH  72  76
ENDBRANCH  55  69
BRANCH  56  80
ATOM     80  C   UNL A   1      44.382  33.181  27.601  1.00  0.00     0.023 A 
ATOM     81  C   UNL A   1      44.811  34.404  28.141  1.00  0.00     0.031 A 
ATOM     82  C   UNL A   1      43.828  33.192  26.309  1.00  0.00     0.131 A 
ATOM     83  C   UNL A   1      44.632  35.592  27.415  1.00  0.00     0.055 A 
ATOM     84  C   UNL A   1      43.708  34.369  25.566  1.00  0.00     0.041 A 
ATOM     85  F   UNL A   1      43.403  32.051  25.741  1.00  0.00    -0.206 F 
ATOM     86  C   UNL A   1      44.098  35.581  26.126  1.00  0.00     0.022 A 
BRANCH  83  87
ATOM     87  S   UNL A   1      45.018  37.170  28.224  1.00  0.00     0.124 S 
ATOM     88  O   UNL A   1      44.413  36.983  29.538  1.00  0.00    -0.237 OA
ATOM     89  O   UNL A   1      46.477  37.181  28.184  1.00  0.00    -0.237 OA
ATOM     90  O   UNL A   1      44.365  38.158  27.369  1.00  0.00    -0.744 OA
ENDBRANCH  83  87
ENDBRANCH  56  80
BRANCH  68  91
ATOM     91  C   UNL A   1      48.406  27.496  27.128  1.00  0.00     0.023 A 
ATOM     92  C   UNL A   1      49.768  27.797  27.304  1.00  0.00     0.031 A 
ATOM     93  C   UNL A   1      48.030  26.780  25.977  1.00  0.00     0.131 A 
ATOM     94  C   UNL A   1      50.696  27.431  26.318  1.00  0.00     0.055 A 
ATOM     95  C   UNL A   1      48.968  26.361  25.033  1.00  0.00     0.041 A 
ATOM     96  F   UNL A   1      46.742  26.469  25.755  1.00  0.00    -0.206 F 
ATOM     97  C   UNL A   1      50.307  26.698  25.194  1.00  0.00     0.022 A 
BRANCH  94  98
ATOM     98  S   UNL A   1      52.407  28.012  26.477  1.00  0.00     0.124 S 
ATOM     99  O   UNL A   1      53.069  26.847  27.056  1.00  0.00    -0.237 OA
ATOM    100  O   UNL A   1      52.760  28.326  25.097  1.00  0.00    -0.237 OA
ATOM    101  O   UNL A   1      52.295  29.168  27.367  1.00  0.00    -0.744 OA
ENDBRANCH  94  98
ENDBRANCH  68  91
ENDBRANCH  42  43
ENDBRANCH  34  37
ENDBRANCH  32  33
ENDBRANCH   1  32
TORSDOF 19
ENDMDL
MODEL 3
REMARK VINA RESULT:     -10.4      9.809     15.392
REMARK SMILES CSCC[C@@H](C(=O)NCCCNC(=O)c1ccc(-c2c3nc(c(-c4cc(S(=O)(=O)[O-])ccc4F)c4ccc([nH]4)c(-c4cc(S(=O)(=O)[O-])ccc4F)c4nc(c(-c5cc(S(=O)(=O)[O-])ccc5F)c5ccc2[nH]5)C=C4)C=C3)cc1)N1C(=O)/C(=C/c2ccc(-c3ccccc3Cl)o2)SC1=S
REMARK SMILES IDX 10 1 9 2 8 3 6 4 7 5 5 7 4 8 3 9 2 10 1 11 78 12 79 13 96 14
REMARK SMILES IDX 80 15 81 16 95 17 97 18 82 19 83 20 84 21 94 22 85 23 86 24
REMARK SMILES IDX 87 25 88 26 92 27 89 28 91 29 93 30 90 31 11 32 12 33 13 34
REMARK SMILES IDX 14 36 15 37 16 38 77 39 17 40 76 41 18 42 19 43 20 44 70 45
REMARK SMILES IDX 21 46 75 47 69 48 71 49 22 50 74 51 68 52 67 53 23 55 55 56
REMARK SMILES IDX 35 57 54 58 36 59 39 60 53 61 72 62 37 63 38 64 52 66 73 67
REMARK SMILES IDX 40 68 24 69 25 70 33 71 26 72 32 73 34 74 31 75 27 76 28 77
REMARK SMILES IDX 29 78 30 79 56 80 57 81 65 82 58 83 64 84 66 85 63 86 59 87
REMARK SMILES IDX 60 88 61 89 62 90 41 91 42 92 50 93 43 94 49 95 51 96 48 97
REMARK SMILES IDX 44 98 45 99 46 100 47 101
REMARK H PARENT 8 6 12 35 71 54 39 65
REMARK Flexibility Score: inf
ROOT
ATOM      1  C   UNL A   1      46.061  23.284  36.723  1.00  0.00     0.042 C 
ENDROOT
BRANCH   1   2
ATOM      2  C   UNL A   1      46.006  21.814  37.096  1.00  0.00     0.117 C 
BRANCH   2   3
ATOM      3  N   UNL A   1      47.254  21.125  36.893  1.00  0.00    -0.354 N 
ATOM      4  C   UNL A   1      48.081  20.549  37.803  1.00  0.00     0.243 C 
ATOM      5  O   UNL A   1      48.751  19.601  37.372  1.00  0.00    -0.273 OA
ATOM      6  H   UNL A   1      47.552  21.063  35.956  1.00  0.00     0.163 HD
BRANCH   4   7
ATOM      7  C   UNL A   1      48.126  20.945  39.312  1.00  0.00     0.182 C 
BRANCH   7   8
ATOM      8  C   UNL A   1      49.402  21.514  39.957  1.00  0.00     0.046 C 
BRANCH   8   9
ATOM      9  C   UNL A   1      50.618  21.904  39.106  1.00  0.00     0.072 C 
BRANCH   9  10
ATOM     10  S   UNL A   1      51.241  23.623  39.161  1.00  0.00    -0.165 SA
ATOM     11  C   UNL A   1      53.031  23.463  38.910  1.00  0.00     0.085 C 
ENDBRANCH   9  10
ENDBRANCH   8   9
ENDBRANCH   7   8
BRANCH   7  12
ATOM     12  N   UNL A   1      47.728  19.718  40.074  1.00  0.00    -0.280 N 
ATOM     13  C   UNL A   1      46.444  19.645  40.585  1.00  0.00     0.267 C 
ATOM     14  C   UNL A   1      48.584  18.688  40.436  1.00  0.00     0.149 C 
ATOM     15  O   UNL A   1      45.571  20.501  40.470  1.00  0.00    -0.268 OA
ATOM     16  C   UNL A   1      46.269  18.413  41.395  1.00  0.00     0.084 C 
ATOM     17  S   UNL A   1      47.688  17.452  41.302  1.00  0.00    -0.054 SA
ATOM     18  S   UNL A   1      50.231  18.530  40.204  1.00  0.00    -0.052 S 
ATOM     19  C   UNL A   1      45.147  18.167  42.087  1.00  0.00     0.068 C 
BRANCH  19  20
ATOM     20  C   UNL A   1      44.965  17.004  42.883  1.00  0.00     0.128 A 
ATOM     21  C   UNL A   1      45.675  16.556  43.993  1.00  0.00     0.051 A 
ATOM     22  O   UNL A   1      43.975  16.082  42.628  1.00  0.00    -0.457 OA
ATOM     23  C   UNL A   1      45.154  15.297  44.363  1.00  0.00     0.051 A 
ATOM     24  C   UNL A   1      44.137  15.032  43.477  1.00  0.00     0.136 A 
BRANCH  24  25
ATOM     25  C   UNL A   1      43.250  13.893  43.296  1.00  0.00     0.036 A 
ATOM     26  C   UNL A   1      42.112  14.059  42.484  1.00  0.00     0.013 A 
ATOM     27  C   UNL A   1      43.429  12.666  43.954  1.00  0.00     0.052 A 
ATOM     28  C   UNL A   1      41.174  13.035  42.343  1.00  0.00     0.001 A 
ATOM     29  C   UNL A   1      42.483  11.642  43.811  1.00  0.00     0.021 A 
ATOM     30  Cl  UNL A   1      44.759  12.356  45.020  1.00  0.00    -0.084 Cl
ATOM     31  C   UNL A   1      41.356  11.828  43.012  1.00  0.00     0.002 A 
ENDBRANCH  24  25
ENDBRANCH  19  20
ENDBRANCH   7  12
ENDBRANCH   4   7
ENDBRANCH   2   3
ENDBRANCH   1   2
BRANCH   1  32
ATOM     32  C   UNL A   1      47.373  23.672  36.061  1.00  0.00     0.118 C 
BRANCH  32  33
ATOM     33  N   UNL A   1      47.947  24.880  36.645  1.00  0.00    -0.352 N 
ATOM     34  C   UNL A   1      47.691  26.205  36.380  1.00  0.00     0.251 C 
ATOM     35  H   UNL A   1      48.626  24.721  37.340  1.00  0.00     0.163 HD
ATOM     36  O   UNL A   1      48.450  27.062  36.824  1.00  0.00    -0.269 OA
BRANCH  34  37
ATOM     37  C   UNL A   1      46.529  26.586  35.548  1.00  0.00     0.039 A 
ATOM     38  C   UNL A   1      45.253  26.145  35.909  1.00  0.00     0.014 A 
ATOM     39  C   UNL A   1      46.697  27.382  34.414  1.00  0.00     0.014 A 
ATOM     40  C   UNL A   1      44.142  26.571  35.176  1.00  0.00     0.010 A 
ATOM     41  C   UNL A   1      45.585  27.898  33.761  1.00  0.00     0.010 A 
ATOM     42  C   UNL A   1      44.295  27.489  34.125  1.00  0.00    -0.014 A 
BRANCH  42  43
ATOM     43  C   UNL A   1      43.128  28.019  33.372  1.00  0.00     0.031 A 
ATOM     44  C   UNL A   1      42.944  27.647  31.924  1.00  0.00     0.074 A 
ATOM     45  C   UNL A   1      42.285  28.888  33.965  1.00  0.00     0.049 A 
ATOM     46  N   UNL A   1      42.063  28.084  31.061  1.00  0.00    -0.248 NA
ATOM     47  C   UNL A   1      43.906  26.685  31.362  1.00  0.00     0.031 C 
ATOM     48  C   UNL A   1      42.387  29.354  35.350  1.00  0.00     0.029 A 
ATOM     49  N   UNL A   1      41.181  29.541  33.479  1.00  0.00    -0.354 N 
ATOM     50  C   UNL A   1      42.376  27.467  29.855  1.00  0.00     0.074 A 
ATOM     51  C   UNL A   1      43.572  26.686  30.081  1.00  0.00     0.031 C 
ATOM     52  C   UNL A   1      41.369  30.190  35.609  1.00  0.00     0.029 A 
ATOM     53  C   UNL A   1      40.575  30.366  34.399  1.00  0.00     0.049 A 
ATOM     54  H   UNL A   1      40.852  29.429  32.558  1.00  0.00     0.167 HD
ATOM     55  C   UNL A   1      41.711  27.522  28.675  1.00  0.00     0.034 A 
ATOM     56  C   UNL A   1      39.510  31.185  34.275  1.00  0.00     0.034 A 
ATOM     57  C   UNL A   1      40.508  28.293  28.477  1.00  0.00     0.049 A 
ATOM     58  C   UNL A   1      38.804  31.255  32.943  1.00  0.00     0.074 A 
ATOM     59  C   UNL A   1      39.718  28.378  27.345  1.00  0.00     0.029 A 
ATOM     60  N   UNL A   1      39.925  29.118  29.432  1.00  0.00    -0.354 N 
ATOM     61  N   UNL A   1      39.083  30.624  31.826  1.00  0.00    -0.248 NA
ATOM     62  C   UNL A   1      37.635  32.139  32.861  1.00  0.00     0.031 C 
ATOM     63  C   UNL A   1      38.705  29.312  27.587  1.00  0.00     0.029 A 
ATOM     64  C   UNL A   1      38.807  29.743  28.902  1.00  0.00     0.049 A 
ATOM     65  H   UNL A   1      40.257  29.239  30.350  1.00  0.00     0.167 HD
ATOM     66  C   UNL A   1      38.101  31.011  30.917  1.00  0.00     0.074 A 
ATOM     67  C   UNL A   1      37.218  31.916  31.623  1.00  0.00     0.031 C 
ATOM     68  C   UNL A   1      37.941  30.649  29.618  1.00  0.00     0.034 A 
BRANCH  55  69
ATOM     69  C   UNL A   1      42.285  26.746  27.513  1.00  0.00     0.023 A 
ATOM     70  C   UNL A   1      41.945  25.402  27.279  1.00  0.00     0.031 A 
ATOM     71  C   UNL A   1      43.209  27.350  26.640  1.00  0.00     0.131 A 
ATOM     72  C   UNL A   1      42.583  24.683  26.257  1.00  0.00     0.055 A 
ATOM     73  C   UNL A   1      43.771  26.654  25.567  1.00  0.00     0.041 A 
ATOM     74  F   UNL A   1      43.592  28.623  26.823  1.00  0.00    -0.206 F 
ATOM     75  C   UNL A   1      43.473  25.308  25.381  1.00  0.00     0.022 A 
BRANCH  72  76
ATOM     76  S   UNL A   1      42.352  22.886  26.190  1.00  0.00     0.124 S 
ATOM     77  O   UNL A   1      40.922  22.762  26.468  1.00  0.00    -0.237 OA
ATOM     78  O   UNL A   1      42.768  22.565  24.830  1.00  0.00    -0.237 OA
ATOM     79  O   UNL A   1      43.230  22.388  27.247  1.00  0.00    -0.744 OA
ENDBRANCH  72  76
ENDBRANCH  55  69
BRANCH  56  80
ATOM     80  C   UNL A   1      39.052  32.013  35.429  1.00  0.00     0.023 A 
ATOM     81  C   UNL A   1      38.412  31.423  36.531  1.00  0.00     0.031 A 
ATOM     82  C   UNL A   1      39.206  33.410  35.428  1.00  0.00     0.131 A 
ATOM     83  C   UNL A   1      37.905  32.231  37.561  1.00  0.00     0.055 A 
ATOM     84  C   UNL A   1      38.753  34.205  36.484  1.00  0.00     0.041 A 
ATOM     85  F   UNL A   1      39.812  34.028  34.401  1.00  0.00    -0.206 F 
ATOM     86  C   UNL A   1      38.084  33.616  37.553  1.00  0.00     0.022 A 
BRANCH  83  87
ATOM     87  S   UNL A   1      36.916  31.452  38.868  1.00  0.00     0.124 S 
ATOM     88  O   UNL A   1      35.708  32.270  38.851  1.00  0.00    -0.237 OA
ATOM     89  O   UNL A   1      36.776  30.089  38.368  1.00  0.00    -0.237 OA
ATOM     90  O   UNL A   1      37.752  31.595  40.057  1.00  0.00    -0.744 OA
ENDBRANCH  83  87
ENDBRANCH  56  80
BRANCH  68  91
ATOM     91  C   UNL A   1      36.734  31.196  28.895  1.00  0.00     0.023 A 
ATOM     92  C   UNL A   1      35.690  30.364  28.457  1.00  0.00     0.031 A 
ATOM     93  C   UNL A   1      36.629  32.577  28.645  1.00  0.00     0.131 A 
ATOM     94  C   UNL A   1      34.614  30.912  27.743  1.00  0.00     0.055 A 
ATOM     95  C   UNL A   1      35.523  33.124  27.994  1.00  0.00     0.041 A 
ATOM     96  F   UNL A   1      37.599  33.419  29.037  1.00  0.00    -0.206 F 
ATOM     97  C   UNL A   1      34.515  32.288  27.527  1.00  0.00     0.022 A 
BRANCH  94  98
ATOM     98  S   UNL A   1      33.391  29.787  27.016  1.00  0.00     0.124 S 
ATOM     99  O   UNL A   1      33.765  28.508  27.610  1.00  0.00    -0.237 OA
ATOM    100  O   UNL A   1      32.129  30.359  27.474  1.00  0.00    -0.237 OA
ATOM    101  O   UNL A   1      33.636  29.898  25.578  1.00  0.00    -0.744 OA
ENDBRANCH  94  98
ENDBRANCH  68  91
ENDBRANCH  42  43
ENDBRANCH  34  37
ENDBRANCH  32  33
ENDBRANCH   1  32
TORSDOF 19
ENDMDL
