MODEL 1
REMARK VINA RESULT:     -12.2      0.000      0.000
REMARK SMILES CCOc1cccc(C(=O)Nc2ccc(Cl)c(C(=O)NCCCNC(=O)c3ccc(-c4c5nc(c(-c6cc(S(=O)(=O)[O-])ccc6F)c6ccc([nH]6)c(-c6cc(S(=O)(=O)[O-])ccc6F)c6nc(c(-c7cc(S(=O)(=O)[O-])ccc7F)c7ccc4[nH]7)C=C6)C=C5)cc3)c2)c1
REMARK SMILES IDX 21 1 20 2 18 3 19 4 17 6 12 7 13 8 90 9 14 10 15 11 16 12
REMARK SMILES IDX 11 13 9 14 10 15 8 17 4 18 5 19 91 20 6 21 7 22 3 23 2 24
REMARK SMILES IDX 1 25 22 26 23 27 24 28 25 29 26 31 27 32 28 33 89 34 29 35
REMARK SMILES IDX 88 36 30 37 31 38 32 39 82 40 33 41 87 42 81 43 83 44 34 45
REMARK SMILES IDX 86 46 80 47 79 48 35 50 67 51 47 52 66 53 48 54 51 55 65 56
REMARK SMILES IDX 84 57 49 58 50 59 64 61 85 62 52 63 36 64 37 65 45 66 38 67
REMARK SMILES IDX 44 68 46 69 43 70 39 71 40 72 41 73 42 74 68 75 69 76 77 77
REMARK SMILES IDX 70 78 76 79 78 80 75 81 71 82 72 83 73 84 74 85 53 86 54 87
REMARK SMILES IDX 62 88 55 89 61 90 63 91 60 92 56 93 57 94 58 95 59 96
REMARK H PARENT 20 5 11 16 24 30 83 49 51 60
REMARK Flexibility Score: inf
ROOT
ATOM      1  C   UNL A   1      31.739  30.756  26.219  1.00  0.00     0.118 C 
ENDROOT
BRANCH   1   2
ATOM      2  N   UNL A   1      33.074  30.250  26.453  1.00  0.00    -0.352 N 
ATOM      3  C   UNL A   1      33.646  29.006  26.356  1.00  0.00     0.252 C 
ATOM      4  O   UNL A   1      34.794  28.918  26.790  1.00  0.00    -0.269 OA
ATOM      5  H   UNL A   1      33.708  30.945  26.744  1.00  0.00     0.163 HD
BRANCH   3   6
ATOM      6  C   UNL A   1      32.973  27.808  25.752  1.00  0.00     0.060 A 
ATOM      7  C   UNL A   1      31.629  25.769  25.951  1.00  0.00     0.042 A 
ATOM      8  C   UNL A   1      31.709  25.562  24.580  1.00  0.00     0.028 A 
ATOM      9  C   UNL A   1      32.343  26.823  26.535  1.00  0.00     0.041 A 
ATOM     10  C   UNL A   1      32.359  26.498  23.783  1.00  0.00     0.023 A 
ATOM     11  C   UNL A   1      32.953  27.635  24.352  1.00  0.00     0.053 A 
ATOM     12  Cl  UNL A   1      33.552  28.789  23.207  1.00  0.00    -0.083 Cl
BRANCH   7  13
ATOM     13  N   UNL A   1      30.800  24.909  26.683  1.00  0.00    -0.322 N 
ATOM     14  C   UNL A   1      30.811  23.535  26.840  1.00  0.00     0.255 C 
ATOM     15  O   UNL A   1      29.829  23.005  27.363  1.00  0.00    -0.269 OA
ATOM     16  H   UNL A   1      30.078  25.365  27.173  1.00  0.00     0.170 HD
BRANCH  14  17
ATOM     17  C   UNL A   1      31.993  22.678  26.521  1.00  0.00     0.043 A 
ATOM     18  C   UNL A   1      33.185  21.052  25.167  1.00  0.00     0.120 A 
ATOM     19  C   UNL A   1      34.212  21.019  26.110  1.00  0.00     0.046 A 
ATOM     20  C   UNL A   1      32.110  21.928  25.339  1.00  0.00     0.060 A 
ATOM     21  C   UNL A   1      34.168  21.851  27.226  1.00  0.00     0.005 A 
ATOM     22  C   UNL A   1      33.053  22.664  27.440  1.00  0.00     0.014 A 
BRANCH  18  23
ATOM     23  O   UNL A   1      33.211  20.045  24.242  1.00  0.00    -0.494 OA
BRANCH  23  24
ATOM     24  C   UNL A   1      33.611  18.748  24.674  1.00  0.00     0.226 C 
ATOM     25  C   UNL A   1      32.431  17.848  25.000  1.00  0.00     0.049 C 
ENDBRANCH  23  24
ENDBRANCH  18  23
ENDBRANCH  14  17
ENDBRANCH   7  13
ENDBRANCH   3   6
ENDBRANCH   1   2
BRANCH   1  26
ATOM     26  C   UNL A   1      31.540  32.107  26.897  1.00  0.00     0.042 C 
BRANCH  26  27
ATOM     27  C   UNL A   1      32.858  32.834  27.110  1.00  0.00     0.118 C 
BRANCH  27  28
ATOM     28  N   UNL A   1      32.644  34.171  27.649  1.00  0.00    -0.352 N 
ATOM     29  C   UNL A   1      33.172  34.748  28.772  1.00  0.00     0.251 C 
ATOM     30  H   UNL A   1      32.030  34.740  27.132  1.00  0.00     0.163 HD
ATOM     31  O   UNL A   1      32.677  35.801  29.192  1.00  0.00    -0.269 OA
BRANCH  29  32
ATOM     32  C   UNL A   1      34.300  34.117  29.489  1.00  0.00     0.039 A 
ATOM     33  C   UNL A   1      35.607  34.441  29.111  1.00  0.00     0.014 A 
ATOM     34  C   UNL A   1      34.083  33.187  30.511  1.00  0.00     0.014 A 
ATOM     35  C   UNL A   1      36.687  33.861  29.780  1.00  0.00     0.010 A 
ATOM     36  C   UNL A   1      35.156  32.682  31.236  1.00  0.00     0.010 A 
ATOM     37  C   UNL A   1      36.471  32.993  30.862  1.00  0.00    -0.014 A 
BRANCH  37  38
ATOM     38  C   UNL A   1      37.612  32.368  31.580  1.00  0.00     0.031 A 
ATOM     39  C   UNL A   1      38.378  31.243  30.935  1.00  0.00     0.074 A 
ATOM     40  C   UNL A   1      37.928  32.784  32.821  1.00  0.00     0.049 A 
ATOM     41  N   UNL A   1      39.379  30.544  31.407  1.00  0.00    -0.248 NA
ATOM     42  C   UNL A   1      37.935  30.824  29.596  1.00  0.00     0.031 C 
ATOM     43  C   UNL A   1      37.220  33.829  33.567  1.00  0.00     0.029 A 
ATOM     44  N   UNL A   1      38.923  32.384  33.676  1.00  0.00    -0.354 N 
ATOM     45  C   UNL A   1      39.672  29.595  30.432  1.00  0.00     0.074 A 
ATOM     46  C   UNL A   1      38.696  29.764  29.377  1.00  0.00     0.031 C 
ATOM     47  C   UNL A   1      37.825  34.008  34.753  1.00  0.00     0.029 A 
ATOM     48  C   UNL A   1      38.937  33.070  34.868  1.00  0.00     0.049 A 
ATOM     49  H   UNL A   1      39.567  31.673  33.456  1.00  0.00     0.167 HD
ATOM     50  C   UNL A   1      40.680  28.686  30.405  1.00  0.00     0.034 A 
ATOM     51  C   UNL A   1      39.754  32.954  35.932  1.00  0.00     0.034 A 
ATOM     52  C   UNL A   1      41.656  28.549  31.459  1.00  0.00     0.049 A 
ATOM     53  C   UNL A   1      40.876  31.950  35.875  1.00  0.00     0.074 A 
ATOM     54  C   UNL A   1      42.751  27.706  31.519  1.00  0.00     0.029 A 
ATOM     55  N   UNL A   1      41.651  29.276  32.644  1.00  0.00    -0.354 N 
ATOM     56  N   UNL A   1      41.177  31.099  34.920  1.00  0.00    -0.248 NA
ATOM     57  C   UNL A   1      41.781  31.907  37.030  1.00  0.00     0.031 C 
ATOM     58  C   UNL A   1      43.371  27.878  32.762  1.00  0.00     0.029 A 
ATOM     59  C   UNL A   1      42.710  28.883  33.450  1.00  0.00     0.049 A 
ATOM     60  H   UNL A   1      40.992  29.969  32.877  1.00  0.00     0.167 HD
ATOM     61  C   UNL A   1      42.325  30.439  35.350  1.00  0.00     0.074 A 
ATOM     62  C   UNL A   1      42.672  31.007  36.637  1.00  0.00     0.031 C 
ATOM     63  C   UNL A   1      43.031  29.452  34.738  1.00  0.00     0.034 A 
BRANCH  50  64
ATOM     64  C   UNL A   1      40.752  27.766  29.209  1.00  0.00     0.023 A 
ATOM     65  C   UNL A   1      41.692  27.959  28.180  1.00  0.00     0.031 A 
ATOM     66  C   UNL A   1      39.842  26.702  29.071  1.00  0.00     0.131 A 
ATOM     67  C   UNL A   1      41.646  27.163  27.025  1.00  0.00     0.055 A 
ATOM     68  C   UNL A   1      39.858  25.857  27.959  1.00  0.00     0.041 A 
ATOM     69  F   UNL A   1      38.906  26.476  30.007  1.00  0.00    -0.206 F 
ATOM     70  C   UNL A   1      40.752  26.096  26.919  1.00  0.00     0.022 A 
BRANCH  67  71
ATOM     71  S   UNL A   1      42.663  27.641  25.602  1.00  0.00     0.124 S 
ATOM     72  O   UNL A   1      43.950  27.912  26.237  1.00  0.00    -0.237 OA
ATOM     73  O   UNL A   1      42.605  26.453  24.758  1.00  0.00    -0.237 OA
ATOM     74  O   UNL A   1      41.980  28.818  25.071  1.00  0.00    -0.744 OA
ENDBRANCH  67  71
ENDBRANCH  50  64
BRANCH  51  75
ATOM     75  C   UNL A   1      39.554  33.812  37.136  1.00  0.00     0.023 A 
ATOM     76  C   UNL A   1      38.900  33.318  38.276  1.00  0.00     0.031 A 
ATOM     77  C   UNL A   1      39.983  35.150  37.149  1.00  0.00     0.131 A 
ATOM     78  C   UNL A   1      38.653  34.169  39.365  1.00  0.00     0.055 A 
ATOM     79  C   UNL A   1      39.781  35.979  38.255  1.00  0.00     0.041 A 
ATOM     80  F   UNL A   1      40.621  35.670  36.088  1.00  0.00    -0.206 F 
ATOM     81  C   UNL A   1      39.100  35.493  39.366  1.00  0.00     0.022 A 
BRANCH  78  82
ATOM     82  S   UNL A   1      37.665  33.543  40.751  1.00  0.00     0.124 S 
ATOM     83  O   UNL A   1      37.325  34.775  41.455  1.00  0.00    -0.237 OA
ATOM     84  O   UNL A   1      36.567  32.873  40.063  1.00  0.00    -0.237 OA
ATOM     85  O   UNL A   1      38.591  32.657  41.454  1.00  0.00    -0.744 OA
ENDBRANCH  78  82
ENDBRANCH  51  75
BRANCH  63  86
ATOM     86  C   UNL A   1      44.271  28.964  35.447  1.00  0.00     0.023 A 
ATOM     87  C   UNL A   1      44.221  27.926  36.394  1.00  0.00     0.031 A 
ATOM     88  C   UNL A   1      45.515  29.572  35.196  1.00  0.00     0.131 A 
ATOM     89  C   UNL A   1      45.377  27.575  37.107  1.00  0.00     0.055 A 
ATOM     90  C   UNL A   1      46.675  29.171  35.860  1.00  0.00     0.041 A 
ATOM     91  F   UNL A   1      45.621  30.569  34.304  1.00  0.00    -0.206 F 
ATOM     92  C   UNL A   1      46.606  28.179  36.834  1.00  0.00     0.022 A 
BRANCH  89  93
ATOM     93  S   UNL A   1      45.226  26.398  38.479  1.00  0.00     0.124 S 
ATOM     94  O   UNL A   1      46.249  26.878  39.403  1.00  0.00    -0.237 OA
ATOM     95  O   UNL A   1      43.843  26.589  38.902  1.00  0.00    -0.237 OA
ATOM     96  O   UNL A   1      45.512  25.107  37.856  1.00  0.00    -0.744 OA
ENDBRANCH  89  93
ENDBRANCH  63  86
ENDBRANCH  37  38
ENDBRANCH  29  32
ENDBRANCH  27  28
ENDBRANCH  26  27
ENDBRANCH   1  26
TORSDOF 17
ENDMDL
MODEL 2
REMARK VINA RESULT:     -11.7      5.250      8.623
REMARK SMILES CCOc1cccc(C(=O)Nc2ccc(Cl)c(C(=O)NCCCNC(=O)c3ccc(-c4c5nc(c(-c6cc(S(=O)(=O)[O-])ccc6F)c6ccc([nH]6)c(-c6cc(S(=O)(=O)[O-])ccc6F)c6nc(c(-c7cc(S(=O)(=O)[O-])ccc7F)c7ccc4[nH]7)C=C6)C=C5)cc3)c2)c1
REMARK SMILES IDX 21 1 20 2 18 3 19 4 17 6 12 7 13 8 90 9 14 10 15 11 16 12
REMARK SMILES IDX 11 13 9 14 10 15 8 17 4 18 5 19 91 20 6 21 7 22 3 23 2 24
REMARK SMILES IDX 1 25 22 26 23 27 24 28 25 29 26 31 27 32 28 33 89 34 29 35
REMARK SMILES IDX 88 36 30 37 31 38 32 39 82 40 33 41 87 42 81 43 83 44 34 45
REMARK SMILES IDX 86 46 80 47 79 48 35 50 67 51 47 52 66 53 48 54 51 55 65 56
REMARK SMILES IDX 84 57 49 58 50 59 64 61 85 62 52 63 36 64 37 65 45 66 38 67
REMARK SMILES IDX 44 68 46 69 43 70 39 71 40 72 41 73 42 74 68 75 69 76 77 77
REMARK SMILES IDX 70 78 76 79 78 80 75 81 71 82 72 83 73 84 74 85 53 86 54 87
REMARK SMILES IDX 62 88 55 89 61 90 63 91 60 92 56 93 57 94 58 95 59 96
REMARK H PARENT 20 5 11 16 24 30 83 49 51 60
REMARK Flexibility Score: inf
ROOT
ATOM      1  C   UNL A   1      35.474  23.473  23.538  1.00  0.00     0.118 C 
ENDROOT
BRANCH   1   2
ATOM      2  N   UNL A   1      34.807  22.191  23.617  1.00  0.00    -0.352 N 
ATOM      3  C   UNL A   1      33.711  21.735  24.305  1.00  0.00     0.252 C 
ATOM      4  O   UNL A   1      33.520  20.521  24.246  1.00  0.00    -0.269 OA
ATOM      5  H   UNL A   1      35.229  21.499  23.058  1.00  0.00     0.163 HD
BRANCH   3   6
ATOM      6  C   UNL A   1      32.766  22.612  25.073  1.00  0.00     0.060 A 
ATOM      7  C   UNL A   1      30.921  24.221  25.165  1.00  0.00     0.042 A 
ATOM      8  C   UNL A   1      30.995  24.252  26.552  1.00  0.00     0.028 A 
ATOM      9  C   UNL A   1      31.867  23.488  24.438  1.00  0.00     0.041 A 
ATOM     10  C   UNL A   1      31.901  23.426  27.208  1.00  0.00     0.023 A 
ATOM     11  C   UNL A   1      32.755  22.580  26.483  1.00  0.00     0.053 A 
ATOM     12  Cl  UNL A   1      33.683  21.484  27.453  1.00  0.00    -0.083 Cl
BRANCH   7  13
ATOM     13  N   UNL A   1      29.865  24.918  24.564  1.00  0.00    -0.322 N 
ATOM     14  C   UNL A   1      29.744  26.234  24.161  1.00  0.00     0.255 C 
ATOM     15  O   UNL A   1      28.623  26.647  23.860  1.00  0.00    -0.269 OA
ATOM     16  H   UNL A   1      29.064  24.370  24.398  1.00  0.00     0.170 HD
BRANCH  14  17
ATOM     17  C   UNL A   1      30.911  27.146  23.958  1.00  0.00     0.043 A 
ATOM     18  C   UNL A   1      32.423  28.914  24.653  1.00  0.00     0.120 A 
ATOM     19  C   UNL A   1      33.032  28.888  23.399  1.00  0.00     0.046 A 
ATOM     20  C   UNL A   1      31.409  28.001  24.954  1.00  0.00     0.060 A 
ATOM     21  C   UNL A   1      32.630  27.959  22.442  1.00  0.00     0.005 A 
ATOM     22  C   UNL A   1      31.561  27.103  22.715  1.00  0.00     0.014 A 
BRANCH  18  23
ATOM     23  O   UNL A   1      32.728  30.000  25.426  1.00  0.00    -0.494 OA
BRANCH  23  24
ATOM     24  C   UNL A   1      32.672  29.853  26.843  1.00  0.00     0.226 C 
ATOM     25  C   UNL A   1      34.045  29.893  27.491  1.00  0.00     0.049 C 
ENDBRANCH  23  24
ENDBRANCH  18  23
ENDBRANCH  14  17
ENDBRANCH   7  13
ENDBRANCH   3   6
ENDBRANCH   1   2
BRANCH   1  26
ATOM     26  C   UNL A   1      36.905  23.377  24.057  1.00  0.00     0.042 C 
BRANCH  26  27
ATOM     27  C   UNL A   1      36.950  23.166  25.562  1.00  0.00     0.118 C 
BRANCH  27  28
ATOM     28  N   UNL A   1      37.984  22.208  25.932  1.00  0.00    -0.352 N 
ATOM     29  C   UNL A   1      39.249  22.436  26.399  1.00  0.00     0.251 C 
ATOM     30  H   UNL A   1      37.736  21.261  25.830  1.00  0.00     0.163 HD
ATOM     31  O   UNL A   1      40.056  21.498  26.421  1.00  0.00    -0.269 OA
BRANCH  29  32
ATOM     32  C   UNL A   1      39.660  23.782  26.850  1.00  0.00     0.039 A 
ATOM     33  C   UNL A   1      39.641  24.071  28.218  1.00  0.00     0.014 A 
ATOM     34  C   UNL A   1      40.035  24.772  25.936  1.00  0.00     0.014 A 
ATOM     35  C   UNL A   1      40.031  25.335  28.666  1.00  0.00     0.010 A 
ATOM     36  C   UNL A   1      40.511  25.998  26.388  1.00  0.00     0.010 A 
ATOM     37  C   UNL A   1      40.490  26.302  27.757  1.00  0.00    -0.014 A 
BRANCH  37  38
ATOM     38  C   UNL A   1      40.906  27.652  28.221  1.00  0.00     0.031 A 
ATOM     39  C   UNL A   1      42.368  28.010  28.273  1.00  0.00     0.074 A 
ATOM     40  C   UNL A   1      39.973  28.533  28.630  1.00  0.00     0.049 A 
ATOM     41  N   UNL A   1      42.936  29.116  28.677  1.00  0.00    -0.248 NA
ATOM     42  C   UNL A   1      43.318  26.969  27.849  1.00  0.00     0.031 C 
ATOM     43  C   UNL A   1      38.530  28.276  28.675  1.00  0.00     0.029 A 
ATOM     44  N   UNL A   1      40.093  29.821  29.085  1.00  0.00    -0.354 N 
ATOM     45  C   UNL A   1      44.307  28.899  28.573  1.00  0.00     0.074 A 
ATOM     46  C   UNL A   1      44.481  27.531  28.136  1.00  0.00     0.031 C 
ATOM     47  C   UNL A   1      37.900  29.383  29.100  1.00  0.00     0.029 A 
ATOM     48  C   UNL A   1      38.891  30.413  29.393  1.00  0.00     0.049 A 
ATOM     49  H   UNL A   1      40.960  30.278  29.181  1.00  0.00     0.167 HD
ATOM     50  C   UNL A   1      45.325  29.769  28.792  1.00  0.00     0.034 A 
ATOM     51  C   UNL A   1      38.620  31.648  29.859  1.00  0.00     0.034 A 
ATOM     52  C   UNL A   1      45.127  31.137  29.208  1.00  0.00     0.049 A 
ATOM     53  C   UNL A   1      39.764  32.603  30.080  1.00  0.00     0.074 A 
ATOM     54  C   UNL A   1      46.075  32.125  29.407  1.00  0.00     0.029 A 
ATOM     55  N   UNL A   1      43.893  31.710  29.491  1.00  0.00    -0.354 N 
ATOM     56  N   UNL A   1      41.053  32.402  29.921  1.00  0.00    -0.248 NA
ATOM     57  C   UNL A   1      39.415  33.958  30.524  1.00  0.00     0.031 C 
ATOM     58  C   UNL A   1      45.422  33.274  29.870  1.00  0.00     0.029 A 
ATOM     59  C   UNL A   1      44.057  33.029  29.886  1.00  0.00     0.049 A 
ATOM     60  H   UNL A   1      43.027  31.246  29.421  1.00  0.00     0.167 HD
ATOM     61  C   UNL A   1      41.665  33.617  30.218  1.00  0.00     0.074 A 
ATOM     62  C   UNL A   1      40.602  34.546  30.543  1.00  0.00     0.031 C 
ATOM     63  C   UNL A   1      42.985  33.937  30.221  1.00  0.00     0.034 A 
BRANCH  50  64
ATOM     64  C   UNL A   1      46.733  29.251  28.607  1.00  0.00     0.023 A 
ATOM     65  C   UNL A   1      47.243  28.931  27.335  1.00  0.00     0.031 A 
ATOM     66  C   UNL A   1      47.566  29.032  29.719  1.00  0.00     0.131 A 
ATOM     67  C   UNL A   1      48.507  28.333  27.214  1.00  0.00     0.055 A 
ATOM     68  C   UNL A   1      48.857  28.518  29.584  1.00  0.00     0.041 A 
ATOM     69  F   UNL A   1      47.131  29.297  30.961  1.00  0.00    -0.206 F 
ATOM     70  C   UNL A   1      49.328  28.148  28.327  1.00  0.00     0.022 A 
BRANCH  67  71
ATOM     71  S   UNL A   1      48.994  27.657  25.603  1.00  0.00     0.124 S 
ATOM     72  O   UNL A   1      50.383  28.097  25.506  1.00  0.00    -0.237 OA
ATOM     73  O   UNL A   1      48.789  26.224  25.787  1.00  0.00    -0.237 OA
ATOM     74  O   UNL A   1      48.077  28.303  24.667  1.00  0.00    -0.744 OA
ENDBRANCH  67  71
ENDBRANCH  50  64
BRANCH  51  75
ATOM     75  C   UNL A   1      37.214  32.058  30.138  1.00  0.00     0.023 A 
ATOM     76  C   UNL A   1      36.449  32.729  29.171  1.00  0.00     0.031 A 
ATOM     77  C   UNL A   1      36.626  31.815  31.392  1.00  0.00     0.131 A 
ATOM     78  C   UNL A   1      35.156  33.176  29.488  1.00  0.00     0.055 A 
ATOM     79  C   UNL A   1      35.320  32.215  31.684  1.00  0.00     0.041 A 
ATOM     80  F   UNL A   1      37.310  31.169  32.350  1.00  0.00    -0.206 F 
ATOM     81  C   UNL A   1      34.583  32.913  30.734  1.00  0.00     0.022 A 
BRANCH  78  82
ATOM     82  S   UNL A   1      34.262  34.180  28.270  1.00  0.00     0.124 S 
ATOM     83  O   UNL A   1      35.268  34.348  27.227  1.00  0.00    -0.237 OA
ATOM     84  O   UNL A   1      33.132  33.318  27.939  1.00  0.00    -0.237 OA
ATOM     85  O   UNL A   1      33.922  35.392  29.012  1.00  0.00    -0.744 OA
ENDBRANCH  78  82
ENDBRANCH  51  75
BRANCH  63  86
ATOM     86  C   UNL A   1      43.336  35.368  30.551  1.00  0.00     0.023 A 
ATOM     87  C   UNL A   1      43.519  35.798  31.877  1.00  0.00     0.031 A 
ATOM     88  C   UNL A   1      43.455  36.322  29.523  1.00  0.00     0.131 A 
ATOM     89  C   UNL A   1      43.738  37.157  32.146  1.00  0.00     0.055 A 
ATOM     90  C   UNL A   1      43.741  37.660  29.794  1.00  0.00     0.041 A 
ATOM     91  F   UNL A   1      43.288  35.968  28.240  1.00  0.00    -0.206 F 
ATOM     92  C   UNL A   1      43.868  38.088  31.113  1.00  0.00     0.022 A 
BRANCH  89  93
ATOM     93  S   UNL A   1      43.736  37.711  33.874  1.00  0.00     0.124 S 
ATOM     94  O   UNL A   1      43.113  36.580  34.553  1.00  0.00    -0.237 OA
ATOM     95  O   UNL A   1      45.156  37.912  34.139  1.00  0.00    -0.237 OA
ATOM     96  O   UNL A   1      42.932  38.932  33.840  1.00  0.00    -0.744 OA
ENDBRANCH  89  93
ENDBRANCH  63  86
ENDBRANCH  37  38
ENDBRANCH  29  32
ENDBRANCH  27  28
ENDBRANCH  26  27
ENDBRANCH   1  26
TORSDOF 17
ENDMDL
MODEL 3
REMARK VINA RESULT:     -11.6      4.997      7.727
REMARK SMILES CCOc1cccc(C(=O)Nc2ccc(Cl)c(C(=O)NCCCNC(=O)c3ccc(-c4c5nc(c(-c6cc(S(=O)(=O)[O-])ccc6F)c6ccc([nH]6)c(-c6cc(S(=O)(=O)[O-])ccc6F)c6nc(c(-c7cc(S(=O)(=O)[O-])ccc7F)c7ccc4[nH]7)C=C6)C=C5)cc3)c2)c1
REMARK SMILES IDX 21 1 20 2 18 3 19 4 17 6 12 7 13 8 90 9 14 10 15 11 16 12
REMARK SMILES IDX 11 13 9 14 10 15 8 17 4 18 5 19 91 20 6 21 7 22 3 23 2 24
REMARK SMILES IDX 1 25 22 26 23 27 24 28 25 29 26 31 27 32 28 33 89 34 29 35
REMARK SMILES IDX 88 36 30 37 31 38 32 39 82 40 33 41 87 42 81 43 83 44 34 45
REMARK SMILES IDX 86 46 80 47 79 48 35 50 67 51 47 52 66 53 48 54 51 55 65 56
REMARK SMILES IDX 84 57 49 58 50 59 64 61 85 62 52 63 36 64 37 65 45 66 38 67
REMARK SMILES IDX 44 68 46 69 43 70 39 71 40 72 41 73 42 74 68 75 69 76 77 77
REMARK SMILES IDX 70 78 76 79 78 80 75 81 71 82 72 83 73 84 74 85 53 86 54 87
REMARK SMILES IDX 62 88 55 89 61 90 63 91 60 92 56 93 57 94 58 95 59 96
REMARK H PARENT 20 5 11 16 24 30 83 49 51 60
REMARK Flexibility Score: inf
ROOT
ATOM      1  C   UNL A   1      34.446  24.032  24.049  1.00  0.00     0.118 C 
ENDROOT
BRANCH   1   2
ATOM      2  N   UNL A   1      34.593  25.472  24.087  1.00  0.00    -0.352 N 
ATOM      3  C   UNL A   1      33.701  26.514  24.129  1.00  0.00     0.252 C 
ATOM      4  O   UNL A   1      34.192  27.634  23.996  1.00  0.00    -0.269 OA
ATOM      5  H   UNL A   1      35.533  25.766  24.082  1.00  0.00     0.163 HD
BRANCH   3   6
ATOM      6  C   UNL A   1      32.224  26.357  24.343  1.00  0.00     0.060 A 
ATOM      7  C   UNL A   1      30.314  25.354  25.504  1.00  0.00     0.042 A 
ATOM      8  C   UNL A   1      29.431  26.090  24.724  1.00  0.00     0.028 A 
ATOM      9  C   UNL A   1      31.688  25.414  25.239  1.00  0.00     0.041 A 
ATOM     10  C   UNL A   1      29.931  27.003  23.800  1.00  0.00     0.023 A 
ATOM     11  C   UNL A   1      31.314  27.170  23.634  1.00  0.00     0.053 A 
ATOM     12  Cl  UNL A   1      31.765  28.474  22.587  1.00  0.00    -0.083 Cl
BRANCH   7  13
ATOM     13  N   UNL A   1      29.768  24.599  26.551  1.00  0.00    -0.322 N 
ATOM     14  C   UNL A   1      30.043  23.322  27.002  1.00  0.00     0.255 C 
ATOM     15  O   UNL A   1      29.260  22.812  27.806  1.00  0.00    -0.269 OA
ATOM     16  H   UNL A   1      29.062  25.063  27.056  1.00  0.00     0.170 HD
BRANCH  14  17
ATOM     17  C   UNL A   1      31.293  22.577  26.662  1.00  0.00     0.043 A 
ATOM     18  C   UNL A   1      32.588  21.019  25.323  1.00  0.00     0.120 A 
ATOM     19  C   UNL A   1      33.655  21.140  26.213  1.00  0.00     0.046 A 
ATOM     20  C   UNL A   1      31.435  21.786  25.511  1.00  0.00     0.060 A 
ATOM     21  C   UNL A   1      33.574  22.017  27.293  1.00  0.00     0.005 A 
ATOM     22  C   UNL A   1      32.390  22.719  27.526  1.00  0.00     0.014 A 
BRANCH  18  23
ATOM     23  O   UNL A   1      32.678  19.976  24.443  1.00  0.00    -0.494 OA
BRANCH  23  24
ATOM     24  C   UNL A   1      33.490  18.862  24.805  1.00  0.00     0.226 C 
ATOM     25  C   UNL A   1      32.703  17.765  25.502  1.00  0.00     0.049 C 
ENDBRANCH  23  24
ENDBRANCH  18  23
ENDBRANCH  14  17
ENDBRANCH   7  13
ENDBRANCH   3   6
ENDBRANCH   1   2
BRANCH   1  26
ATOM     26  C   UNL A   1      35.801  23.342  24.166  1.00  0.00     0.042 C 
BRANCH  26  27
ATOM     27  C   UNL A   1      36.463  23.614  25.507  1.00  0.00     0.118 C 
BRANCH  27  28
ATOM     28  N   UNL A   1      37.470  22.606  25.815  1.00  0.00    -0.352 N 
ATOM     29  C   UNL A   1      38.752  22.770  26.261  1.00  0.00     0.251 C 
ATOM     30  H   UNL A   1      37.186  21.673  25.681  1.00  0.00     0.163 HD
ATOM     31  O   UNL A   1      39.525  21.805  26.227  1.00  0.00    -0.269 OA
BRANCH  29  32
ATOM     32  C   UNL A   1      39.220  24.082  26.757  1.00  0.00     0.039 A 
ATOM     33  C   UNL A   1      38.975  24.428  28.089  1.00  0.00     0.014 A 
ATOM     34  C   UNL A   1      39.873  24.987  25.913  1.00  0.00     0.014 A 
ATOM     35  C   UNL A   1      39.414  25.659  28.579  1.00  0.00     0.010 A 
ATOM     36  C   UNL A   1      40.390  26.171  26.425  1.00  0.00     0.010 A 
ATOM     37  C   UNL A   1      40.144  26.532  27.757  1.00  0.00    -0.014 A 
BRANCH  37  38
ATOM     38  C   UNL A   1      40.615  27.847  28.266  1.00  0.00     0.031 A 
ATOM     39  C   UNL A   1      42.091  28.143  28.328  1.00  0.00     0.074 A 
ATOM     40  C   UNL A   1      39.720  28.751  28.707  1.00  0.00     0.049 A 
ATOM     41  N   UNL A   1      42.704  29.211  28.768  1.00  0.00    -0.248 NA
ATOM     42  C   UNL A   1      42.997  27.080  27.866  1.00  0.00     0.031 C 
ATOM     43  C   UNL A   1      38.268  28.553  28.746  1.00  0.00     0.029 A 
ATOM     44  N   UNL A   1      39.893  30.017  29.205  1.00  0.00    -0.354 N 
ATOM     45  C   UNL A   1      44.065  28.941  28.654  1.00  0.00     0.074 A 
ATOM     46  C   UNL A   1      44.183  27.583  28.170  1.00  0.00     0.031 C 
ATOM     47  C   UNL A   1      37.684  29.670  29.209  1.00  0.00     0.029 A 
ATOM     48  C   UNL A   1      38.717  30.648  29.535  1.00  0.00     0.049 A 
ATOM     49  H   UNL A   1      40.778  30.435  29.316  1.00  0.00     0.167 HD
ATOM     50  C   UNL A   1      45.118  29.761  28.901  1.00  0.00     0.034 A 
ATOM     51  C   UNL A   1      38.497  31.876  30.044  1.00  0.00     0.034 A 
ATOM     52  C   UNL A   1      44.977  31.121  29.363  1.00  0.00     0.049 A 
ATOM     53  C   UNL A   1      39.680  32.775  30.295  1.00  0.00     0.074 A 
ATOM     54  C   UNL A   1      45.965  32.062  29.595  1.00  0.00     0.029 A 
ATOM     55  N   UNL A   1      43.767  31.734  29.668  1.00  0.00    -0.354 N 
ATOM     56  N   UNL A   1      40.959  32.527  30.127  1.00  0.00    -0.248 NA
ATOM     57  C   UNL A   1      39.387  34.127  30.786  1.00  0.00     0.031 C 
ATOM     58  C   UNL A   1      45.359  33.220  30.097  1.00  0.00     0.029 A 
ATOM     59  C   UNL A   1      43.986  33.031  30.107  1.00  0.00     0.049 A 
ATOM     60  H   UNL A   1      42.883  31.309  29.584  1.00  0.00     0.167 HD
ATOM     61  C   UNL A   1      41.620  33.704  30.464  1.00  0.00     0.074 A 
ATOM     62  C   UNL A   1      40.597  34.665  30.823  1.00  0.00     0.031 C 
ATOM     63  C   UNL A   1      42.953  33.970  30.476  1.00  0.00     0.034 A 
BRANCH  50  64
ATOM     64  C   UNL A   1      46.503  29.192  28.695  1.00  0.00     0.023 A 
ATOM     65  C   UNL A   1      47.050  29.020  27.410  1.00  0.00     0.031 A 
ATOM     66  C   UNL A   1      47.275  28.775  29.795  1.00  0.00     0.131 A 
ATOM     67  C   UNL A   1      48.285  28.372  27.252  1.00  0.00     0.055 A 
ATOM     68  C   UNL A   1      48.542  28.210  29.635  1.00  0.00     0.041 A 
ATOM     69  F   UNL A   1      46.802  28.892  31.046  1.00  0.00    -0.206 F 
ATOM     70  C   UNL A   1      49.047  27.988  28.357  1.00  0.00     0.022 A 
BRANCH  67  71
ATOM     71  S   UNL A   1      48.805  27.895  25.580  1.00  0.00     0.124 S 
ATOM     72  O   UNL A   1      47.673  28.352  24.778  1.00  0.00    -0.237 OA
ATOM     73  O   UNL A   1      50.048  28.639  25.412  1.00  0.00    -0.237 OA
ATOM     74  O   UNL A   1      48.953  26.444  25.667  1.00  0.00    -0.744 OA
ENDBRANCH  67  71
ENDBRANCH  50  64
BRANCH  51  75
ATOM     75  C   UNL A   1      37.109  32.333  30.340  1.00  0.00     0.023 A 
ATOM     76  C   UNL A   1      36.226  32.686  29.307  1.00  0.00     0.031 A 
ATOM     77  C   UNL A   1      36.657  32.458  31.666  1.00  0.00     0.131 A 
ATOM     78  C   UNL A   1      34.953  33.191  29.616  1.00  0.00     0.055 A 
ATOM     79  C   UNL A   1      35.370  32.911  31.966  1.00  0.00     0.041 A 
ATOM     80  F   UNL A   1      37.457  32.126  32.691  1.00  0.00    -0.206 F 
ATOM     81  C   UNL A   1      34.515  33.294  30.938  1.00  0.00     0.022 A 
BRANCH  78  82
ATOM     82  S   UNL A   1      33.903  33.787  28.262  1.00  0.00     0.124 S 
ATOM     83  O   UNL A   1      34.872  34.470  27.413  1.00  0.00    -0.237 OA
ATOM     84  O   UNL A   1      33.353  32.543  27.735  1.00  0.00    -0.237 OA
ATOM     85  O   UNL A   1      32.941  34.656  28.936  1.00  0.00    -0.744 OA
ENDBRANCH  78  82
ENDBRANCH  51  75
BRANCH  63  86
ATOM     86  C   UNL A   1      43.362  35.373  30.853  1.00  0.00     0.023 A 
ATOM     87  C   UNL A   1      43.538  35.757  32.194  1.00  0.00     0.031 A 
ATOM     88  C   UNL A   1      43.544  36.350  29.856  1.00  0.00     0.131 A 
ATOM     89  C   UNL A   1      43.815  37.096  32.507  1.00  0.00     0.055 A 
ATOM     90  C   UNL A   1      43.886  37.665  30.171  1.00  0.00     0.041 A 
ATOM     91  F   UNL A   1      43.387  36.040  28.560  1.00  0.00    -0.206 F 
ATOM     92  C   UNL A   1      44.007  38.048  31.504  1.00  0.00     0.022 A 
BRANCH  89  93
ATOM     93  S   UNL A   1      43.803  37.600  34.250  1.00  0.00     0.124 S 
ATOM     94  O   UNL A   1      42.375  37.730  34.518  1.00  0.00    -0.237 OA
ATOM     95  O   UNL A   1      44.477  36.483  34.902  1.00  0.00    -0.237 OA
ATOM     96  O   UNL A   1      44.550  38.858  34.247  1.00  0.00    -0.744 OA
ENDBRANCH  89  93
ENDBRANCH  63  86
ENDBRANCH  37  38
ENDBRANCH  29  32
ENDBRANCH  27  28
ENDBRANCH  26  27
ENDBRANCH   1  26
TORSDOF 17
ENDMDL
