MODEL 1
REMARK VINA RESULT:     -13.0      0.000      0.000
REMARK SMILES O=C(NCCCNC(=O)c1cnc2c(C(F)(F)F)cccc2c1NCc1cccnc1)c1ccc(-c2c3nc(c(-c4cc(S(=O)(=O)[O-])ccc4F)c4ccc([nH]4)c(-c4cc(S(=O)(=O)[O-])ccc4F)c4nc(c(-c5cc(S(=O)(=O)[O-])ccc5F)c5ccc2[nH]5)C=C4)C=C3)cc1
REMARK SMILES IDX 5 1 4 2 3 3 1 4 2 5 32 7 33 8 94 9 34 10 93 11 35 12 36 13
REMARK SMILES IDX 37 14 87 15 38 16 92 17 86 18 88 19 39 20 91 21 85 22 84 23
REMARK SMILES IDX 40 25 72 26 52 27 71 28 53 29 56 30 70 31 89 32 54 33 55 34
REMARK SMILES IDX 69 36 90 37 57 38 41 39 42 40 50 41 43 42 49 43 51 44 48 45
REMARK SMILES IDX 44 46 45 47 46 48 47 49 73 50 74 51 82 52 75 53 81 54 83 55
REMARK SMILES IDX 80 56 76 57 77 58 78 59 79 60 58 61 59 62 67 63 60 64 66 65
REMARK SMILES IDX 68 66 65 67 61 68 62 69 63 70 64 71 6 72 7 73 8 74 9 76
REMARK SMILES IDX 10 77 11 78 23 79 12 80 22 81 13 82 21 83 14 84 20 85 19 86
REMARK SMILES IDX 24 87 25 89 26 90 27 91 31 92 28 93 30 94 29 95 15 96 16 97
REMARK SMILES IDX 17 98 18 99
REMARK H PARENT 3 6 88 24 56 35 7 75 24 88
REMARK Flexibility Score: inf
ROOT
ATOM      1  C   UNL A   1      33.150  28.973  23.549  1.00  0.00     0.042 C 
ENDROOT
BRANCH   1   2
ATOM      2  C   UNL A   1      33.325  29.002  25.060  1.00  0.00     0.118 C 
BRANCH   2   3
ATOM      3  N   UNL A   1      32.695  30.159  25.690  1.00  0.00    -0.352 N 
ATOM      4  O   UNL A   1      32.287  31.753  27.218  1.00  0.00    -0.269 OA
ATOM      5  C   UNL A   1      33.065  30.912  26.783  1.00  0.00     0.251 C 
ATOM      6  H   UNL A   1      31.860  30.452  25.258  1.00  0.00     0.163 HD
BRANCH   5   7
ATOM      7  C   UNL A   1      34.375  30.704  27.444  1.00  0.00     0.039 A 
ATOM      8  C   UNL A   1      34.777  29.437  27.857  1.00  0.00     0.014 A 
ATOM      9  C   UNL A   1      35.237  31.793  27.622  1.00  0.00     0.014 A 
ATOM     10  C   UNL A   1      35.931  29.289  28.614  1.00  0.00     0.010 A 
ATOM     11  C   UNL A   1      36.462  31.620  28.280  1.00  0.00     0.010 A 
ATOM     12  C   UNL A   1      36.803  30.371  28.817  1.00  0.00    -0.014 A 
BRANCH  12  13
ATOM     13  C   UNL A   1      38.079  30.122  29.543  1.00  0.00     0.031 A 
ATOM     14  C   UNL A   1      38.301  30.634  30.940  1.00  0.00     0.074 A 
ATOM     15  C   UNL A   1      39.008  29.344  28.949  1.00  0.00     0.049 A 
ATOM     16  N   UNL A   1      39.315  30.419  31.742  1.00  0.00    -0.248 NA
ATOM     17  C   UNL A   1      37.264  31.506  31.509  1.00  0.00     0.031 C 
ATOM     18  C   UNL A   1      38.908  28.814  27.585  1.00  0.00     0.029 A 
ATOM     19  N   UNL A   1      40.188  28.826  29.416  1.00  0.00    -0.354 N 
ATOM     20  C   UNL A   1      39.043  31.132  32.906  1.00  0.00     0.074 A 
ATOM     21  C   UNL A   1      37.787  31.820  32.687  1.00  0.00     0.031 C 
ATOM     22  C   UNL A   1      39.936  27.987  27.356  1.00  0.00     0.029 A 
ATOM     23  C   UNL A   1      40.809  27.983  28.524  1.00  0.00     0.049 A 
ATOM     24  H   UNL A   1      40.554  29.036  30.306  1.00  0.00     0.167 HD
ATOM     25  C   UNL A   1      39.769  31.197  34.050  1.00  0.00     0.034 A 
ATOM     26  C   UNL A   1      41.959  27.289  28.624  1.00  0.00     0.034 A 
ATOM     27  C   UNL A   1      41.021  30.505  34.251  1.00  0.00     0.049 A 
ATOM     28  C   UNL A   1      42.739  27.377  29.906  1.00  0.00     0.074 A 
ATOM     29  C   UNL A   1      41.839  30.502  35.368  1.00  0.00     0.029 A 
ATOM     30  N   UNL A   1      41.639  29.687  33.311  1.00  0.00    -0.354 N 
ATOM     31  N   UNL A   1      42.461  28.057  30.994  1.00  0.00    -0.248 NA
ATOM     32  C   UNL A   1      43.982  26.602  29.975  1.00  0.00     0.031 C 
ATOM     33  C   UNL A   1      42.973  29.731  35.086  1.00  0.00     0.029 A 
ATOM     34  C   UNL A   1      42.833  29.194  33.817  1.00  0.00     0.049 A 
ATOM     35  H   UNL A   1      41.280  29.487  32.417  1.00  0.00     0.167 HD
ATOM     36  C   UNL A   1      43.500  27.790  31.879  1.00  0.00     0.074 A 
ATOM     37  C   UNL A   1      44.381  26.852  31.213  1.00  0.00     0.031 C 
ATOM     38  C   UNL A   1      43.716  28.284  33.126  1.00  0.00     0.034 A 
BRANCH  25  39
ATOM     39  C   UNL A   1      39.242  32.078  35.160  1.00  0.00     0.023 A 
ATOM     40  C   UNL A   1      38.645  31.539  36.312  1.00  0.00     0.031 A 
ATOM     41  C   UNL A   1      39.337  33.478  35.062  1.00  0.00     0.131 A 
ATOM     42  C   UNL A   1      38.116  32.394  37.293  1.00  0.00     0.055 A 
ATOM     43  C   UNL A   1      38.872  34.321  36.072  1.00  0.00     0.041 A 
ATOM     44  F   UNL A   1      39.881  34.052  33.976  1.00  0.00    -0.206 F 
ATOM     45  C   UNL A   1      38.246  33.781  37.192  1.00  0.00     0.022 A 
BRANCH  42  46
ATOM     46  S   UNL A   1      37.156  31.672  38.653  1.00  0.00     0.124 S 
ATOM     47  O   UNL A   1      38.048  31.882  39.790  1.00  0.00    -0.237 OA
ATOM     48  O   UNL A   1      35.937  32.473  38.642  1.00  0.00    -0.237 OA
ATOM     49  O   UNL A   1      36.988  30.277  38.251  1.00  0.00    -0.744 OA
ENDBRANCH  42  46
ENDBRANCH  25  39
BRANCH  26  50
ATOM     50  C   UNL A   1      42.454  26.485  27.471  1.00  0.00     0.023 A 
ATOM     51  C   UNL A   1      42.116  25.131  27.322  1.00  0.00     0.031 A 
ATOM     52  C   UNL A   1      43.305  27.062  26.509  1.00  0.00     0.131 A 
ATOM     53  C   UNL A   1      42.659  24.389  26.261  1.00  0.00     0.055 A 
ATOM     54  C   UNL A   1      43.796  26.335  25.426  1.00  0.00     0.041 A 
ATOM     55  F   UNL A   1      43.656  28.355  26.601  1.00  0.00    -0.206 F 
ATOM     56  C   UNL A   1      43.484  24.985  25.305  1.00  0.00     0.022 A 
BRANCH  53  57
ATOM     57  S   UNL A   1      42.343  22.604  26.199  1.00  0.00     0.124 S 
ATOM     58  O   UNL A   1      42.894  22.157  27.473  1.00  0.00    -0.237 OA
ATOM     59  O   UNL A   1      40.890  22.558  26.077  1.00  0.00    -0.237 OA
ATOM     60  O   UNL A   1      43.080  22.169  25.013  1.00  0.00    -0.744 OA
ENDBRANCH  53  57
ENDBRANCH  26  50
BRANCH  38  61
ATOM     61  C   UNL A   1      44.957  27.798  33.832  1.00  0.00     0.023 A 
ATOM     62  C   UNL A   1      44.928  26.661  34.660  1.00  0.00     0.031 A 
ATOM     63  C   UNL A   1      46.164  28.509  33.721  1.00  0.00     0.131 A 
ATOM     64  C   UNL A   1      46.064  26.312  35.405  1.00  0.00     0.055 A 
ATOM     65  C   UNL A   1      47.310  28.119  34.416  1.00  0.00     0.041 A 
ATOM     66  F   UNL A   1      46.245  29.602  32.946  1.00  0.00    -0.206 F 
ATOM     67  C   UNL A   1      47.259  27.026  35.278  1.00  0.00     0.022 A 
BRANCH  64  68
ATOM     68  S   UNL A   1      45.923  24.984  36.631  1.00  0.00     0.124 S 
ATOM     69  O   UNL A   1      45.671  23.819  35.790  1.00  0.00    -0.237 OA
ATOM     70  O   UNL A   1      47.226  25.026  37.287  1.00  0.00    -0.237 OA
ATOM     71  O   UNL A   1      44.797  25.403  37.463  1.00  0.00    -0.744 OA
ENDBRANCH  64  68
ENDBRANCH  38  61
ENDBRANCH  12  13
ENDBRANCH   5   7
ENDBRANCH   2   3
ENDBRANCH   1   2
BRANCH   1  72
ATOM     72  C   UNL A   1      33.829  27.799  22.863  1.00  0.00     0.118 C 
BRANCH  72  73
ATOM     73  N   UNL A   1      33.136  27.341  21.663  1.00  0.00    -0.352 N 
ATOM     74  C   UNL A   1      32.316  26.250  21.484  1.00  0.00     0.254 C 
ATOM     75  H   UNL A   1      33.275  27.895  20.862  1.00  0.00     0.163 HD
ATOM     76  O   UNL A   1      31.681  26.113  20.444  1.00  0.00    -0.269 OA
BRANCH  74  77
ATOM     77  C   UNL A   1      32.139  25.294  22.584  1.00  0.00     0.081 A 
ATOM     78  C   UNL A   1      32.917  24.156  22.446  1.00  0.00     0.127 A 
ATOM     79  C   UNL A   1      31.274  25.415  23.686  1.00  0.00     0.058 A 
ATOM     80  N   UNL A   1      32.837  23.079  23.244  1.00  0.00    -0.255 NA
ATOM     81  C   UNL A   1      31.240  24.285  24.594  1.00  0.00     0.025 A 
ATOM     82  C   UNL A   1      32.001  23.122  24.283  1.00  0.00     0.085 A 
ATOM     83  C   UNL A   1      30.477  24.247  25.792  1.00  0.00     0.012 A 
ATOM     84  C   UNL A   1      31.895  21.978  25.070  1.00  0.00     0.082 A 
ATOM     85  C   UNL A   1      30.416  23.115  26.602  1.00  0.00     0.001 A 
ATOM     86  C   UNL A   1      31.105  21.974  26.230  1.00  0.00     0.015 A 
BRANCH  79  87
ATOM     87  N   UNL A   1      30.448  26.502  23.962  1.00  0.00    -0.380 N 
ATOM     88  H   UNL A   1      30.897  27.245  24.425  1.00  0.00     0.160 HD
BRANCH  87  89
ATOM     89  C   UNL A   1      29.039  26.729  23.684  1.00  0.00     0.150 C 
BRANCH  89  90
ATOM     90  C   UNL A   1      28.811  28.128  23.171  1.00  0.00    -0.011 A 
ATOM     91  C   UNL A   1      29.823  28.836  22.516  1.00  0.00     0.009 A 
ATOM     92  C   UNL A   1      27.555  28.727  23.224  1.00  0.00     0.116 A 
ATOM     93  C   UNL A   1      29.554  30.092  21.974  1.00  0.00     0.020 A 
ATOM     94  N   UNL A   1      27.266  29.941  22.704  1.00  0.00    -0.264 NA
ATOM     95  C   UNL A   1      28.271  30.598  22.092  1.00  0.00     0.111 A 
ENDBRANCH  89  90
ENDBRANCH  87  89
ENDBRANCH  79  87
BRANCH  84  96
ATOM     96  C   UNL A   1      32.610  20.723  24.642  1.00  0.00     0.418 C 
ATOM     97  F   UNL A   1      33.970  20.828  24.689  1.00  0.00    -0.166 F 
ATOM     98  F   UNL A   1      32.280  19.619  25.371  1.00  0.00    -0.166 F 
ATOM     99  F   UNL A   1      32.332  20.377  23.347  1.00  0.00    -0.166 F 
ENDBRANCH  84  96
ENDBRANCH  74  77
ENDBRANCH  72  73
ENDBRANCH   1  72
TORSDOF 17
ENDMDL
MODEL 2
REMARK VINA RESULT:     -12.9      1.316      1.588
REMARK SMILES O=C(NCCCNC(=O)c1cnc2c(C(F)(F)F)cccc2c1NCc1cccnc1)c1ccc(-c2c3nc(c(-c4cc(S(=O)(=O)[O-])ccc4F)c4ccc([nH]4)c(-c4cc(S(=O)(=O)[O-])ccc4F)c4nc(c(-c5cc(S(=O)(=O)[O-])ccc5F)c5ccc2[nH]5)C=C4)C=C3)cc1
REMARK SMILES IDX 5 1 4 2 3 3 1 4 2 5 32 7 33 8 94 9 34 10 93 11 35 12 36 13
REMARK SMILES IDX 37 14 87 15 38 16 92 17 86 18 88 19 39 20 91 21 85 22 84 23
REMARK SMILES IDX 40 25 72 26 52 27 71 28 53 29 56 30 70 31 89 32 54 33 55 34
REMARK SMILES IDX 69 36 90 37 57 38 41 39 42 40 50 41 43 42 49 43 51 44 48 45
REMARK SMILES IDX 44 46 45 47 46 48 47 49 73 50 74 51 82 52 75 53 81 54 83 55
REMARK SMILES IDX 80 56 76 57 77 58 78 59 79 60 58 61 59 62 67 63 60 64 66 65
REMARK SMILES IDX 68 66 65 67 61 68 62 69 63 70 64 71 6 72 7 73 8 74 9 76
REMARK SMILES IDX 10 77 11 78 23 79 12 80 22 81 13 82 21 83 14 84 20 85 19 86
REMARK SMILES IDX 24 87 25 89 26 90 27 91 31 92 28 93 30 94 29 95 15 96 16 97
REMARK SMILES IDX 17 98 18 99
REMARK H PARENT 3 6 88 24 56 35 7 75 24 88
REMARK Flexibility Score: inf
ROOT
ATOM      1  C   UNL A   1      33.341  29.152  23.695  1.00  0.00     0.042 C 
ENDROOT
BRANCH   1   2
ATOM      2  C   UNL A   1      33.221  29.084  25.209  1.00  0.00     0.118 C 
BRANCH   2   3
ATOM      3  N   UNL A   1      32.681  30.306  25.799  1.00  0.00    -0.352 N 
ATOM      4  O   UNL A   1      32.403  31.982  27.267  1.00  0.00    -0.269 OA
ATOM      5  C   UNL A   1      33.115  31.073  26.859  1.00  0.00     0.251 C 
ATOM      6  H   UNL A   1      31.863  30.640  25.364  1.00  0.00     0.163 HD
BRANCH   5   7
ATOM      7  C   UNL A   1      34.416  30.799  27.515  1.00  0.00     0.039 A 
ATOM      8  C   UNL A   1      34.726  29.528  27.990  1.00  0.00     0.014 A 
ATOM      9  C   UNL A   1      35.361  31.827  27.625  1.00  0.00     0.014 A 
ATOM     10  C   UNL A   1      35.876  29.331  28.741  1.00  0.00     0.010 A 
ATOM     11  C   UNL A   1      36.579  31.594  28.278  1.00  0.00     0.010 A 
ATOM     12  C   UNL A   1      36.832  30.352  28.877  1.00  0.00    -0.014 A 
BRANCH  12  13
ATOM     13  C   UNL A   1      38.096  30.044  29.600  1.00  0.00     0.031 A 
ATOM     14  C   UNL A   1      38.346  30.549  30.996  1.00  0.00     0.074 A 
ATOM     15  C   UNL A   1      38.984  29.220  29.007  1.00  0.00     0.049 A 
ATOM     16  N   UNL A   1      39.350  30.288  31.796  1.00  0.00    -0.248 NA
ATOM     17  C   UNL A   1      37.354  31.472  31.564  1.00  0.00     0.031 C 
ATOM     18  C   UNL A   1      38.855  28.691  27.645  1.00  0.00     0.029 A 
ATOM     19  N   UNL A   1      40.139  28.647  29.473  1.00  0.00    -0.354 N 
ATOM     20  C   UNL A   1      39.116  31.017  32.958  1.00  0.00     0.074 A 
ATOM     21  C   UNL A   1      37.894  31.764  32.739  1.00  0.00     0.031 C 
ATOM     22  C   UNL A   1      39.842  27.814  27.416  1.00  0.00     0.029 A 
ATOM     23  C   UNL A   1      40.716  27.771  28.582  1.00  0.00     0.049 A 
ATOM     24  H   UNL A   1      40.517  28.841  30.361  1.00  0.00     0.167 HD
ATOM     25  C   UNL A   1      39.847  31.050  34.100  1.00  0.00     0.034 A 
ATOM     26  C   UNL A   1      41.831  27.022  28.682  1.00  0.00     0.034 A 
ATOM     27  C   UNL A   1      41.065  30.298  34.300  1.00  0.00     0.049 A 
ATOM     28  C   UNL A   1      42.618  27.077  29.962  1.00  0.00     0.074 A 
ATOM     29  C   UNL A   1      41.884  30.260  35.416  1.00  0.00     0.029 A 
ATOM     30  N   UNL A   1      41.640  29.448  33.362  1.00  0.00    -0.354 N 
ATOM     31  N   UNL A   1      42.376  27.773  31.049  1.00  0.00    -0.248 NA
ATOM     32  C   UNL A   1      43.822  26.242  30.031  1.00  0.00     0.031 C 
ATOM     33  C   UNL A   1      42.979  29.433  35.133  1.00  0.00     0.029 A 
ATOM     34  C   UNL A   1      42.810  28.899  33.867  1.00  0.00     0.049 A 
ATOM     35  H   UNL A   1      41.270  29.263  32.469  1.00  0.00     0.167 HD
ATOM     36  C   UNL A   1      43.403  27.459  31.932  1.00  0.00     0.074 A 
ATOM     37  C   UNL A   1      44.236  26.477  31.267  1.00  0.00     0.031 C 
ATOM     38  C   UNL A   1      43.646  27.945  33.177  1.00  0.00     0.034 A 
BRANCH  25  39
ATOM     39  C   UNL A   1      39.367  31.959  35.208  1.00  0.00     0.023 A 
ATOM     40  C   UNL A   1      39.813  33.286  35.324  1.00  0.00     0.031 A 
ATOM     41  C   UNL A   1      38.450  31.488  36.166  1.00  0.00     0.131 A 
ATOM     42  C   UNL A   1      39.387  34.079  36.402  1.00  0.00     0.055 A 
ATOM     43  C   UNL A   1      37.976  32.303  37.196  1.00  0.00     0.041 A 
ATOM     44  F   UNL A   1      38.001  30.223  36.119  1.00  0.00    -0.206 F 
ATOM     45  C   UNL A   1      38.453  33.604  37.326  1.00  0.00     0.022 A 
BRANCH  42  46
ATOM     46  S   UNL A   1      40.153  35.705  36.645  1.00  0.00     0.124 S 
ATOM     47  O   UNL A   1      41.575  35.370  36.617  1.00  0.00    -0.237 OA
ATOM     48  O   UNL A   1      39.654  36.464  35.504  1.00  0.00    -0.237 OA
ATOM     49  O   UNL A   1      39.646  36.133  37.947  1.00  0.00    -0.744 OA
ENDBRANCH  42  46
ENDBRANCH  25  39
BRANCH  26  50
ATOM     50  C   UNL A   1      42.284  26.192  27.531  1.00  0.00     0.023 A 
ATOM     51  C   UNL A   1      41.925  24.840  27.415  1.00  0.00     0.031 A 
ATOM     52  C   UNL A   1      43.115  26.741  26.536  1.00  0.00     0.131 A 
ATOM     53  C   UNL A   1      42.429  24.072  26.354  1.00  0.00     0.055 A 
ATOM     54  C   UNL A   1      43.566  25.988  25.452  1.00  0.00     0.041 A 
ATOM     55  F   UNL A   1      43.484  28.030  26.594  1.00  0.00    -0.206 F 
ATOM     56  C   UNL A   1      43.235  24.640  25.365  1.00  0.00     0.022 A 
BRANCH  53  57
ATOM     57  S   UNL A   1      42.090  22.290  26.333  1.00  0.00     0.124 S 
ATOM     58  O   UNL A   1      40.643  22.263  26.154  1.00  0.00    -0.237 OA
ATOM     59  O   UNL A   1      42.885  21.845  25.195  1.00  0.00    -0.237 OA
ATOM     60  O   UNL A   1      42.565  21.838  27.639  1.00  0.00    -0.744 OA
ENDBRANCH  53  57
ENDBRANCH  26  50
BRANCH  38  61
ATOM     61  C   UNL A   1      44.863  27.402  33.881  1.00  0.00     0.023 A 
ATOM     62  C   UNL A   1      44.798  26.227  34.652  1.00  0.00     0.031 A 
ATOM     63  C   UNL A   1      46.085  28.095  33.829  1.00  0.00     0.131 A 
ATOM     64  C   UNL A   1      45.912  25.821  35.400  1.00  0.00     0.055 A 
ATOM     65  C   UNL A   1      47.209  27.650  34.525  1.00  0.00     0.041 A 
ATOM     66  F   UNL A   1      46.201  29.223  33.110  1.00  0.00    -0.206 F 
ATOM     67  C   UNL A   1      47.121  26.517  35.331  1.00  0.00     0.022 A 
BRANCH  64  68
ATOM     68  S   UNL A   1      45.723  24.436  36.557  1.00  0.00     0.124 S 
ATOM     69  O   UNL A   1      44.438  23.876  36.153  1.00  0.00    -0.237 OA
ATOM     70  O   UNL A   1      46.896  23.620  36.260  1.00  0.00    -0.237 OA
ATOM     71  O   UNL A   1      45.734  25.082  37.868  1.00  0.00    -0.744 OA
ENDBRANCH  64  68
ENDBRANCH  38  61
ENDBRANCH  12  13
ENDBRANCH   5   7
ENDBRANCH   2   3
ENDBRANCH   1   2
BRANCH   1  72
ATOM     72  C   UNL A   1      33.836  27.869  23.048  1.00  0.00     0.118 C 
BRANCH  72  73
ATOM     73  N   UNL A   1      33.062  27.466  21.878  1.00  0.00    -0.352 N 
ATOM     74  C   UNL A   1      32.200  26.405  21.718  1.00  0.00     0.254 C 
ATOM     75  H   UNL A   1      33.173  28.038  21.085  1.00  0.00     0.163 HD
ATOM     76  O   UNL A   1      31.502  26.317  20.713  1.00  0.00    -0.269 OA
BRANCH  74  77
ATOM     77  C   UNL A   1      32.056  25.425  22.801  1.00  0.00     0.081 A 
ATOM     78  C   UNL A   1      32.896  24.331  22.660  1.00  0.00     0.127 A 
ATOM     79  C   UNL A   1      31.168  25.482  23.889  1.00  0.00     0.058 A 
ATOM     80  N   UNL A   1      32.860  23.239  23.441  1.00  0.00    -0.255 NA
ATOM     81  C   UNL A   1      31.179  24.339  24.780  1.00  0.00     0.025 A 
ATOM     82  C   UNL A   1      32.006  23.223  24.465  1.00  0.00     0.085 A 
ATOM     83  C   UNL A   1      30.400  24.242  25.964  1.00  0.00     0.012 A 
ATOM     84  C   UNL A   1      31.948  22.062  25.233  1.00  0.00     0.082 A 
ATOM     85  C   UNL A   1      30.385  23.095  26.756  1.00  0.00     0.001 A 
ATOM     86  C   UNL A   1      31.140  21.999  26.379  1.00  0.00     0.015 A 
BRANCH  79  87
ATOM     87  N   UNL A   1      30.281  26.519  24.167  1.00  0.00    -0.380 N 
ATOM     88  H   UNL A   1      30.643  27.216  24.760  1.00  0.00     0.160 HD
BRANCH  87  89
ATOM     89  C   UNL A   1      28.913  26.753  23.732  1.00  0.00     0.150 C 
BRANCH  89  90
ATOM     90  C   UNL A   1      28.744  28.159  23.218  1.00  0.00    -0.011 A 
ATOM     91  C   UNL A   1      29.787  28.826  22.567  1.00  0.00     0.009 A 
ATOM     92  C   UNL A   1      27.514  28.809  23.264  1.00  0.00     0.116 A 
ATOM     93  C   UNL A   1      29.572  30.091  22.023  1.00  0.00     0.020 A 
ATOM     94  N   UNL A   1      27.276  30.033  22.742  1.00  0.00    -0.264 NA
ATOM     95  C   UNL A   1      28.310  30.649  22.135  1.00  0.00     0.111 A 
ENDBRANCH  89  90
ENDBRANCH  87  89
ENDBRANCH  79  87
BRANCH  84  96
ATOM     96  C   UNL A   1      32.736  20.854  24.800  1.00  0.00     0.418 C 
ATOM     97  F   UNL A   1      32.416  20.414  23.548  1.00  0.00    -0.166 F 
ATOM     98  F   UNL A   1      34.087  21.038  24.813  1.00  0.00    -0.166 F 
ATOM     99  F   UNL A   1      32.528  19.773  25.613  1.00  0.00    -0.166 F 
ENDBRANCH  84  96
ENDBRANCH  74  77
ENDBRANCH  72  73
ENDBRANCH   1  72
TORSDOF 17
ENDMDL
MODEL 3
REMARK VINA RESULT:     -12.6      1.063      7.412
REMARK SMILES O=C(NCCCNC(=O)c1cnc2c(C(F)(F)F)cccc2c1NCc1cccnc1)c1ccc(-c2c3nc(c(-c4cc(S(=O)(=O)[O-])ccc4F)c4ccc([nH]4)c(-c4cc(S(=O)(=O)[O-])ccc4F)c4nc(c(-c5cc(S(=O)(=O)[O-])ccc5F)c5ccc2[nH]5)C=C4)C=C3)cc1
REMARK SMILES IDX 5 1 4 2 3 3 1 4 2 5 32 7 33 8 94 9 34 10 93 11 35 12 36 13
REMARK SMILES IDX 37 14 87 15 38 16 92 17 86 18 88 19 39 20 91 21 85 22 84 23
REMARK SMILES IDX 40 25 72 26 52 27 71 28 53 29 56 30 70 31 89 32 54 33 55 34
REMARK SMILES IDX 69 36 90 37 57 38 41 39 42 40 50 41 43 42 49 43 51 44 48 45
REMARK SMILES IDX 44 46 45 47 46 48 47 49 73 50 74 51 82 52 75 53 81 54 83 55
REMARK SMILES IDX 80 56 76 57 77 58 78 59 79 60 58 61 59 62 67 63 60 64 66 65
REMARK SMILES IDX 68 66 65 67 61 68 62 69 63 70 64 71 6 72 7 73 8 74 9 76
REMARK SMILES IDX 10 77 11 78 23 79 12 80 22 81 13 82 21 83 14 84 20 85 19 86
REMARK SMILES IDX 24 87 25 89 26 90 27 91 31 92 28 93 30 94 29 95 15 96 16 97
REMARK SMILES IDX 17 98 18 99
REMARK H PARENT 3 6 88 24 56 35 7 75 24 88
REMARK Flexibility Score: inf
ROOT
ATOM      1  C   UNL A   1      33.153  29.157  23.349  1.00  0.00     0.042 C 
ENDROOT
BRANCH   1   2
ATOM      2  C   UNL A   1      33.222  29.120  24.868  1.00  0.00     0.118 C 
BRANCH   2   3
ATOM      3  N   UNL A   1      32.617  30.288  25.501  1.00  0.00    -0.352 N 
ATOM      4  O   UNL A   1      32.179  31.834  27.069  1.00  0.00    -0.269 OA
ATOM      5  C   UNL A   1      32.936  30.961  26.660  1.00  0.00     0.251 C 
ATOM      6  H   UNL A   1      31.845  30.659  25.014  1.00  0.00     0.163 HD
BRANCH   5   7
ATOM      7  C   UNL A   1      34.165  30.631  27.419  1.00  0.00     0.039 A 
ATOM      8  C   UNL A   1      34.439  29.323  27.807  1.00  0.00     0.014 A 
ATOM      9  C   UNL A   1      35.082  31.646  27.720  1.00  0.00     0.014 A 
ATOM     10  C   UNL A   1      35.508  29.060  28.652  1.00  0.00     0.010 A 
ATOM     11  C   UNL A   1      36.230  31.357  28.471  1.00  0.00     0.010 A 
ATOM     12  C   UNL A   1      36.433  30.066  28.978  1.00  0.00    -0.014 A 
BRANCH  12  13
ATOM     13  C   UNL A   1      37.619  29.695  29.796  1.00  0.00     0.031 A 
ATOM     14  C   UNL A   1      38.729  28.848  29.234  1.00  0.00     0.074 A 
ATOM     15  C   UNL A   1      37.723  30.212  31.038  1.00  0.00     0.049 A 
ATOM     16  N   UNL A   1      39.871  28.519  29.785  1.00  0.00    -0.248 NA
ATOM     17  C   UNL A   1      38.531  28.288  27.889  1.00  0.00     0.031 C 
ATOM     18  C   UNL A   1      36.694  31.025  31.695  1.00  0.00     0.029 A 
ATOM     19  N   UNL A   1      38.744  30.175  31.952  1.00  0.00    -0.354 N 
ATOM     20  C   UNL A   1      40.526  27.710  28.861  1.00  0.00     0.074 A 
ATOM     21  C   UNL A   1      39.631  27.565  27.730  1.00  0.00     0.031 C 
ATOM     22  C   UNL A   1      37.166  31.474  32.866  1.00  0.00     0.029 A 
ATOM     23  C   UNL A   1      38.498  30.923  33.081  1.00  0.00     0.049 A 
ATOM     24  H   UNL A   1      39.574  29.663  31.813  1.00  0.00     0.167 HD
ATOM     25  C   UNL A   1      41.759  27.152  28.946  1.00  0.00     0.034 A 
ATOM     26  C   UNL A   1      39.253  31.136  34.176  1.00  0.00     0.034 A 
ATOM     27  C   UNL A   1      42.638  27.307  30.082  1.00  0.00     0.049 A 
ATOM     28  C   UNL A   1      40.617  30.507  34.239  1.00  0.00     0.074 A 
ATOM     29  C   UNL A   1      43.906  26.784  30.273  1.00  0.00     0.029 A 
ATOM     30  N   UNL A   1      42.342  28.043  31.224  1.00  0.00    -0.354 N 
ATOM     31  N   UNL A   1      41.216  29.748  33.351  1.00  0.00    -0.248 NA
ATOM     32  C   UNL A   1      41.407  30.770  35.447  1.00  0.00     0.031 C 
ATOM     33  C   UNL A   1      44.351  27.156  31.547  1.00  0.00     0.029 A 
ATOM     34  C   UNL A   1      43.393  27.970  32.127  1.00  0.00     0.049 A 
ATOM     35  H   UNL A   1      41.507  28.544  31.370  1.00  0.00     0.167 HD
ATOM     36  C   UNL A   1      42.457  29.440  33.897  1.00  0.00     0.074 A 
ATOM     37  C   UNL A   1      42.535  30.135  35.167  1.00  0.00     0.031 C 
ATOM     38  C   UNL A   1      43.440  28.644  33.403  1.00  0.00     0.034 A 
BRANCH  25  39
ATOM     39  C   UNL A   1      42.215  26.290  27.790  1.00  0.00     0.023 A 
ATOM     40  C   UNL A   1      41.806  24.952  27.659  1.00  0.00     0.031 A 
ATOM     41  C   UNL A   1      43.073  26.815  26.808  1.00  0.00     0.131 A 
ATOM     42  C   UNL A   1      42.299  24.169  26.601  1.00  0.00     0.055 A 
ATOM     43  C   UNL A   1      43.505  26.052  25.721  1.00  0.00     0.041 A 
ATOM     44  F   UNL A   1      43.513  28.082  26.890  1.00  0.00    -0.206 F 
ATOM     45  C   UNL A   1      43.127  24.716  25.619  1.00  0.00     0.022 A 
BRANCH  42  46
ATOM     46  S   UNL A   1      41.930  22.392  26.588  1.00  0.00     0.124 S 
ATOM     47  O   UNL A   1      40.470  22.392  26.630  1.00  0.00    -0.237 OA
ATOM     48  O   UNL A   1      42.534  21.952  25.336  1.00  0.00    -0.237 OA
ATOM     49  O   UNL A   1      42.581  21.898  27.800  1.00  0.00    -0.744 OA
ENDBRANCH  42  46
ENDBRANCH  25  39
BRANCH  26  50
ATOM     50  C   UNL A   1      38.722  31.947  35.308  1.00  0.00     0.023 A 
ATOM     51  C   UNL A   1      38.246  31.345  36.482  1.00  0.00     0.031 A 
ATOM     52  C   UNL A   1      38.658  33.350  35.214  1.00  0.00     0.131 A 
ATOM     53  C   UNL A   1      37.689  32.137  37.498  1.00  0.00     0.055 A 
ATOM     54  C   UNL A   1      38.156  34.138  36.250  1.00  0.00     0.041 A 
ATOM     55  F   UNL A   1      39.105  33.979  34.115  1.00  0.00    -0.206 F 
ATOM     56  C   UNL A   1      37.654  33.530  37.395  1.00  0.00     0.022 A 
BRANCH  53  57
ATOM     57  S   UNL A   1      36.925  31.314  38.922  1.00  0.00     0.124 S 
ATOM     58  O   UNL A   1      37.928  31.517  39.960  1.00  0.00    -0.237 OA
ATOM     59  O   UNL A   1      35.683  32.065  39.074  1.00  0.00    -0.237 OA
ATOM     60  O   UNL A   1      36.764  29.933  38.471  1.00  0.00    -0.744 OA
ENDBRANCH  53  57
ENDBRANCH  26  50
BRANCH  38  61
ATOM     61  C   UNL A   1      44.679  28.505  34.252  1.00  0.00     0.023 A 
ATOM     62  C   UNL A   1      44.712  27.639  35.360  1.00  0.00     0.031 A 
ATOM     63  C   UNL A   1      45.816  29.288  33.988  1.00  0.00     0.131 A 
ATOM     64  C   UNL A   1      45.830  27.631  36.206  1.00  0.00     0.055 A 
ATOM     65  C   UNL A   1      46.951  29.228  34.797  1.00  0.00     0.041 A 
ATOM     66  F   UNL A   1      45.836  30.134  32.944  1.00  0.00    -0.206 F 
ATOM     67  C   UNL A   1      46.955  28.410  35.924  1.00  0.00     0.022 A 
BRANCH  64  68
ATOM     68  S   UNL A   1      45.746  26.676  37.746  1.00  0.00     0.124 S 
ATOM     69  O   UNL A   1      46.970  27.087  38.425  1.00  0.00    -0.237 OA
ATOM     70  O   UNL A   1      44.499  27.148  38.338  1.00  0.00    -0.237 OA
ATOM     71  O   UNL A   1      45.727  25.288  37.287  1.00  0.00    -0.744 OA
ENDBRANCH  64  68
ENDBRANCH  38  61
ENDBRANCH  12  13
ENDBRANCH   5   7
ENDBRANCH   2   3
ENDBRANCH   1   2
BRANCH   1  72
ATOM     72  C   UNL A   1      34.140  28.234  22.654  1.00  0.00     0.118 C 
BRANCH  72  73
ATOM     73  N   UNL A   1      33.547  27.440  21.582  1.00  0.00    -0.352 N 
ATOM     74  C   UNL A   1      32.896  26.229  21.644  1.00  0.00     0.254 C 
ATOM     75  H   UNL A   1      33.624  27.829  20.682  1.00  0.00     0.163 HD
ATOM     76  O   UNL A   1      32.310  25.788  20.661  1.00  0.00    -0.269 OA
BRANCH  74  77
ATOM     77  C   UNL A   1      32.833  25.509  22.921  1.00  0.00     0.081 A 
ATOM     78  C   UNL A   1      34.063  25.021  23.332  1.00  0.00     0.127 A 
ATOM     79  C   UNL A   1      31.691  25.260  23.703  1.00  0.00     0.058 A 
ATOM     80  N   UNL A   1      34.247  24.218  24.392  1.00  0.00    -0.255 NA
ATOM     81  C   UNL A   1      31.897  24.456  24.891  1.00  0.00     0.025 A 
ATOM     82  C   UNL A   1      33.190  23.915  25.147  1.00  0.00     0.085 A 
ATOM     83  C   UNL A   1      30.880  24.152  25.835  1.00  0.00     0.012 A 
ATOM     84  C   UNL A   1      33.391  23.040  26.212  1.00  0.00     0.082 A 
ATOM     85  C   UNL A   1      31.102  23.316  26.928  1.00  0.00     0.001 A 
ATOM     86  C   UNL A   1      32.349  22.743  27.104  1.00  0.00     0.015 A 
BRANCH  79  87
ATOM     87  N   UNL A   1      30.399  25.698  23.426  1.00  0.00    -0.380 N 
ATOM     88  H   UNL A   1      30.015  25.334  22.596  1.00  0.00     0.160 HD
BRANCH  87  89
ATOM     89  C   UNL A   1      29.517  26.601  24.149  1.00  0.00     0.150 C 
BRANCH  89  90
ATOM     90  C   UNL A   1      29.085  27.749  23.272  1.00  0.00    -0.011 A 
ATOM     91  C   UNL A   1      27.788  28.268  23.342  1.00  0.00     0.009 A 
ATOM     92  C   UNL A   1      29.986  28.414  22.445  1.00  0.00     0.116 A 
ATOM     93  C   UNL A   1      27.446  29.387  22.584  1.00  0.00     0.020 A 
ATOM     94  N   UNL A   1      29.682  29.501  21.703  1.00  0.00    -0.264 NA
ATOM     95  C   UNL A   1      28.419  29.963  21.786  1.00  0.00     0.111 A 
ENDBRANCH  89  90
ENDBRANCH  87  89
ENDBRANCH  79  87
BRANCH  84  96
ATOM     96  C   UNL A   1      34.736  22.383  26.379  1.00  0.00     0.418 C 
ATOM     97  F   UNL A   1      34.755  21.417  27.343  1.00  0.00    -0.166 F 
ATOM     98  F   UNL A   1      35.217  21.806  25.241  1.00  0.00    -0.166 F 
ATOM     99  F   UNL A   1      35.710  23.269  26.754  1.00  0.00    -0.166 F 
ENDBRANCH  84  96
ENDBRANCH  74  77
ENDBRANCH  72  73
ENDBRANCH   1  72
TORSDOF 17
ENDMDL
