MODEL 1
REMARK VINA RESULT:     -13.8      0.000      0.000
REMARK SMILES COc1cc(Cl)c(C)cc1N1C(=O)C[C@H](Nc2cc(C(=O)NCCCNC(=O)c3ccc(-c4c5nc(c(-c6cc(S(=O)(=O)[O-])ccc6F)c6ccc([nH]6)c(-c6cc(S(=O)(=O)[O-])ccc6F)c6nc(c(-c7cc(S(=O)(=O)[O-])ccc7F)c7ccc4[nH]7)C=C6)C=C5)cc3)ccc2C)C1=O
REMARK SMILES IDX 23 1 22 2 20 3 21 4 19 6 17 7 18 8 94 9 93 10 95 11 92 12
REMARK SMILES IDX 16 13 15 15 11 16 12 17 96 18 13 19 14 20 97 21 10 22 3 23
REMARK SMILES IDX 4 24 5 25 9 26 6 27 7 28 8 29 2 30 1 31 24 32 25 33 26 34
REMARK SMILES IDX 27 35 28 37 29 38 30 39 91 40 31 41 90 42 32 43 33 44 34 45
REMARK SMILES IDX 84 46 35 47 89 48 83 49 85 50 36 51 88 52 82 53 81 54 37 56
REMARK SMILES IDX 69 57 49 58 68 59 50 60 53 61 67 62 86 63 51 64 52 65 66 67
REMARK SMILES IDX 87 68 54 69 38 70 39 71 47 72 40 73 46 74 48 75 45 76 41 77
REMARK SMILES IDX 42 78 43 79 44 80 70 81 71 82 79 83 72 84 78 85 80 86 77 87
REMARK SMILES IDX 73 88 74 89 75 90 76 91 55 92 56 93 64 94 57 95 63 96 65 97
REMARK SMILES IDX 62 98 58 99 59 100 60 101 61 102
REMARK H PARENT 22 5 16 14 26 36 85 55 53 66
REMARK Flexibility Score: inf
ROOT
ATOM      1  C   UNL A   1      37.380  21.269  25.223  1.00  0.00     0.118 C 
ENDROOT
BRANCH   1   2
ATOM      2  N   UNL A   1      36.413  21.401  26.310  1.00  0.00    -0.352 N 
ATOM      3  C   UNL A   1      35.041  21.449  26.355  1.00  0.00     0.251 C 
ATOM      4  O   UNL A   1      34.510  21.495  27.468  1.00  0.00    -0.269 OA
ATOM      5  H   UNL A   1      36.833  21.470  27.198  1.00  0.00     0.163 HD
BRANCH   3   6
ATOM      6  C   UNL A   1      34.146  21.434  25.156  1.00  0.00     0.041 A 
ATOM      7  C   UNL A   1      32.823  22.487  23.375  1.00  0.00     0.038 A 
ATOM      8  C   UNL A   1      33.649  22.564  24.511  1.00  0.00     0.039 A 
ATOM      9  C   UNL A   1      32.391  21.231  22.932  1.00  0.00    -0.028 A 
ATOM     10  C   UNL A   1      32.859  20.083  23.587  1.00  0.00     0.006 A 
ATOM     11  C   UNL A   1      31.459  21.063  21.766  1.00  0.00     0.046 C 
ATOM     12  C   UNL A   1      33.731  20.185  24.675  1.00  0.00     0.014 A 
BRANCH   7  13
ATOM     13  N   UNL A   1      32.337  23.666  22.797  1.00  0.00    -0.373 N 
ATOM     14  H   UNL A   1      31.748  23.651  22.008  1.00  0.00     0.161 HD
BRANCH  13  15
ATOM     15  C   UNL A   1      32.751  24.931  23.427  1.00  0.00     0.179 C 
ATOM     16  N   UNL A   1      31.985  27.116  23.113  1.00  0.00    -0.245 N 
ATOM     17  C   UNL A   1      33.129  27.042  22.362  1.00  0.00     0.236 C 
ATOM     18  C   UNL A   1      31.585  25.890  23.574  1.00  0.00     0.256 C 
ATOM     19  O   UNL A   1      33.627  27.907  21.671  1.00  0.00    -0.274 OA
ATOM     20  C   UNL A   1      33.722  25.671  22.522  1.00  0.00     0.136 C 
ATOM     21  O   UNL A   1      30.452  25.551  23.897  1.00  0.00    -0.272 OA
BRANCH  16  22
ATOM     22  C   UNL A   1      31.191  28.269  23.244  1.00  0.00     0.094 A 
ATOM     23  C   UNL A   1      31.391  29.142  24.323  1.00  0.00     0.144 A 
ATOM     24  C   UNL A   1      30.577  30.261  24.491  1.00  0.00     0.069 A 
ATOM     25  C   UNL A   1      29.552  30.514  23.577  1.00  0.00     0.047 A 
ATOM     26  C   UNL A   1      30.180  28.544  22.317  1.00  0.00     0.035 A 
ATOM     27  Cl  UNL A   1      28.578  31.922  23.816  1.00  0.00    -0.084 Cl
ATOM     28  C   UNL A   1      29.327  29.648  22.493  1.00  0.00    -0.030 A 
ATOM     29  C   UNL A   1      28.181  29.850  21.541  1.00  0.00     0.046 C 
BRANCH  23  30
ATOM     30  O   UNL A   1      32.373  28.927  25.253  1.00  0.00    -0.495 OA
ATOM     31  C   UNL A   1      31.838  28.763  26.568  1.00  0.00     0.278 C 
ENDBRANCH  23  30
ENDBRANCH  16  22
ENDBRANCH  13  15
ENDBRANCH   7  13
ENDBRANCH   3   6
ENDBRANCH   1   2
BRANCH   1  32
ATOM     32  C   UNL A   1      38.810  21.500  25.709  1.00  0.00     0.042 C 
BRANCH  32  33
ATOM     33  C   UNL A   1      39.060  22.877  26.301  1.00  0.00     0.118 C 
BRANCH  33  34
ATOM     34  N   UNL A   1      40.463  23.106  26.657  1.00  0.00    -0.352 N 
ATOM     35  C   UNL A   1      41.114  24.294  26.930  1.00  0.00     0.251 C 
ATOM     36  H   UNL A   1      41.022  22.297  26.712  1.00  0.00     0.163 HD
ATOM     37  O   UNL A   1      42.318  24.345  27.162  1.00  0.00    -0.269 OA
BRANCH  35  38
ATOM     38  C   UNL A   1      40.287  25.507  27.104  1.00  0.00     0.039 A 
ATOM     39  C   UNL A   1      40.672  26.623  26.351  1.00  0.00     0.014 A 
ATOM     40  C   UNL A   1      39.468  25.636  28.220  1.00  0.00     0.014 A 
ATOM     41  C   UNL A   1      40.493  27.888  26.891  1.00  0.00     0.010 A 
ATOM     42  C   UNL A   1      39.387  26.879  28.809  1.00  0.00     0.010 A 
ATOM     43  C   UNL A   1      39.977  27.983  28.180  1.00  0.00    -0.014 A 
BRANCH  43  44
ATOM     44  C   UNL A   1      40.110  29.178  28.997  1.00  0.00     0.031 A 
ATOM     45  C   UNL A   1      39.070  30.213  28.926  1.00  0.00     0.074 A 
ATOM     46  C   UNL A   1      41.144  29.280  29.861  1.00  0.00     0.049 A 
ATOM     47  N   UNL A   1      39.218  31.429  29.319  1.00  0.00    -0.248 NA
ATOM     48  C   UNL A   1      37.773  29.963  28.309  1.00  0.00     0.031 C 
ATOM     49  C   UNL A   1      41.321  30.255  30.933  1.00  0.00     0.029 A 
ATOM     50  N   UNL A   1      42.381  28.641  29.762  1.00  0.00    -0.354 N 
ATOM     51  C   UNL A   1      37.978  32.025  29.304  1.00  0.00     0.074 A 
ATOM     52  C   UNL A   1      37.150  31.117  28.553  1.00  0.00     0.031 C 
ATOM     53  C   UNL A   1      42.631  30.354  31.214  1.00  0.00     0.029 A 
ATOM     54  C   UNL A   1      43.344  29.554  30.234  1.00  0.00     0.049 A 
ATOM     55  H   UNL A   1      42.548  27.730  29.428  1.00  0.00     0.167 HD
ATOM     56  C   UNL A   1      37.790  33.142  30.064  1.00  0.00     0.034 A 
ATOM     57  C   UNL A   1      44.308  30.030  29.391  1.00  0.00     0.034 A 
ATOM     58  C   UNL A   1      39.083  33.675  30.517  1.00  0.00     0.049 A 
ATOM     59  C   UNL A   1      44.203  31.524  29.156  1.00  0.00     0.074 A 
ATOM     60  C   UNL A   1      39.759  33.647  31.726  1.00  0.00     0.029 A 
ATOM     61  N   UNL A   1      40.018  34.072  29.561  1.00  0.00    -0.354 N 
ATOM     62  N   UNL A   1      43.147  32.244  29.433  1.00  0.00    -0.248 NA
ATOM     63  C   UNL A   1      45.292  32.327  28.611  1.00  0.00     0.031 C 
ATOM     64  C   UNL A   1      41.133  33.921  31.465  1.00  0.00     0.029 A 
ATOM     65  C   UNL A   1      41.284  34.164  30.109  1.00  0.00     0.049 A 
ATOM     66  H   UNL A   1      39.804  34.262  28.618  1.00  0.00     0.167 HD
ATOM     67  C   UNL A   1      43.381  33.560  29.117  1.00  0.00     0.074 A 
ATOM     68  C   UNL A   1      44.751  33.558  28.628  1.00  0.00     0.031 C 
ATOM     69  C   UNL A   1      42.430  34.534  29.280  1.00  0.00     0.034 A 
BRANCH  56  70
ATOM     70  C   UNL A   1      36.446  33.573  30.640  1.00  0.00     0.023 A 
ATOM     71  C   UNL A   1      35.525  34.235  29.796  1.00  0.00     0.031 A 
ATOM     72  C   UNL A   1      36.039  33.481  31.990  1.00  0.00     0.131 A 
ATOM     73  C   UNL A   1      34.343  34.820  30.300  1.00  0.00     0.055 A 
ATOM     74  C   UNL A   1      34.876  34.078  32.495  1.00  0.00     0.041 A 
ATOM     75  F   UNL A   1      36.718  32.788  32.905  1.00  0.00    -0.206 F 
ATOM     76  C   UNL A   1      34.024  34.763  31.652  1.00  0.00     0.022 A 
BRANCH  73  77
ATOM     77  S   UNL A   1      33.222  35.685  29.167  1.00  0.00     0.124 S 
ATOM     78  O   UNL A   1      32.522  34.579  28.522  1.00  0.00    -0.237 OA
ATOM     79  O   UNL A   1      32.436  36.510  30.078  1.00  0.00    -0.237 OA
ATOM     80  O   UNL A   1      34.131  36.429  28.295  1.00  0.00    -0.744 OA
ENDBRANCH  73  77
ENDBRANCH  56  70
BRANCH  57  81
ATOM     81  C   UNL A   1      44.780  28.994  28.423  1.00  0.00     0.023 A 
ATOM     82  C   UNL A   1      45.547  27.929  28.954  1.00  0.00     0.031 A 
ATOM     83  C   UNL A   1      44.164  28.796  27.182  1.00  0.00     0.131 A 
ATOM     84  C   UNL A   1      45.531  26.664  28.346  1.00  0.00     0.055 A 
ATOM     85  C   UNL A   1      44.205  27.548  26.541  1.00  0.00     0.041 A 
ATOM     86  F   UNL A   1      43.399  29.754  26.636  1.00  0.00    -0.206 F 
ATOM     87  C   UNL A   1      44.845  26.463  27.147  1.00  0.00     0.022 A 
BRANCH  84  88
ATOM     88  S   UNL A   1      46.178  25.228  29.259  1.00  0.00     0.124 S 
ATOM     89  O   UNL A   1      46.255  24.207  28.220  1.00  0.00    -0.237 OA
ATOM     90  O   UNL A   1      47.459  25.706  29.772  1.00  0.00    -0.237 OA
ATOM     91  O   UNL A   1      45.175  24.996  30.297  1.00  0.00    -0.744 OA
ENDBRANCH  84  88
ENDBRANCH  57  81
BRANCH  69  92
ATOM     92  C   UNL A   1      42.519  35.956  28.746  1.00  0.00     0.023 A 
ATOM     93  C   UNL A   1      43.056  37.028  29.476  1.00  0.00     0.031 A 
ATOM     94  C   UNL A   1      42.121  36.270  27.422  1.00  0.00     0.131 A 
ATOM     95  C   UNL A   1      43.089  38.333  28.949  1.00  0.00     0.055 A 
ATOM     96  C   UNL A   1      42.243  37.549  26.866  1.00  0.00     0.041 A 
ATOM     97  F   UNL A   1      41.603  35.348  26.598  1.00  0.00    -0.206 F 
ATOM     98  C   UNL A   1      42.710  38.598  27.638  1.00  0.00     0.022 A 
BRANCH  95  99
ATOM     99  S   UNL A   1      43.560  39.689  30.055  1.00  0.00     0.124 S 
ATOM    100  O   UNL A   1      43.801  38.981  31.311  1.00  0.00    -0.237 OA
ATOM    101  O   UNL A   1      44.744  40.232  29.399  1.00  0.00    -0.237 OA
ATOM    102  O   UNL A   1      42.389  40.562  30.050  1.00  0.00    -0.744 OA
ENDBRANCH  95  99
ENDBRANCH  69  92
ENDBRANCH  43  44
ENDBRANCH  35  38
ENDBRANCH  33  34
ENDBRANCH  32  33
ENDBRANCH   1  32
TORSDOF 17
ENDMDL
MODEL 2
REMARK VINA RESULT:     -13.7      4.479     10.955
REMARK SMILES COc1cc(Cl)c(C)cc1N1C(=O)C[C@H](Nc2cc(C(=O)NCCCNC(=O)c3ccc(-c4c5nc(c(-c6cc(S(=O)(=O)[O-])ccc6F)c6ccc([nH]6)c(-c6cc(S(=O)(=O)[O-])ccc6F)c6nc(c(-c7cc(S(=O)(=O)[O-])ccc7F)c7ccc4[nH]7)C=C6)C=C5)cc3)ccc2C)C1=O
REMARK SMILES IDX 23 1 22 2 20 3 21 4 19 6 17 7 18 8 94 9 93 10 95 11 92 12
REMARK SMILES IDX 16 13 15 15 11 16 12 17 96 18 13 19 14 20 97 21 10 22 3 23
REMARK SMILES IDX 4 24 5 25 9 26 6 27 7 28 8 29 2 30 1 31 24 32 25 33 26 34
REMARK SMILES IDX 27 35 28 37 29 38 30 39 91 40 31 41 90 42 32 43 33 44 34 45
REMARK SMILES IDX 84 46 35 47 89 48 83 49 85 50 36 51 88 52 82 53 81 54 37 56
REMARK SMILES IDX 69 57 49 58 68 59 50 60 53 61 67 62 86 63 51 64 52 65 66 67
REMARK SMILES IDX 87 68 54 69 38 70 39 71 47 72 40 73 46 74 48 75 45 76 41 77
REMARK SMILES IDX 42 78 43 79 44 80 70 81 71 82 79 83 72 84 78 85 80 86 77 87
REMARK SMILES IDX 73 88 74 89 75 90 76 91 55 92 56 93 64 94 57 95 63 96 65 97
REMARK SMILES IDX 62 98 58 99 59 100 60 101 61 102
REMARK H PARENT 22 5 16 14 26 36 85 55 53 66
REMARK Flexibility Score: inf
ROOT
ATOM      1  C   UNL A   1      32.195  29.660  26.558  1.00  0.00     0.118 C 
ENDROOT
BRANCH   1   2
ATOM      2  N   UNL A   1      31.438  30.115  25.395  1.00  0.00    -0.352 N 
ATOM      3  C   UNL A   1      30.823  29.466  24.353  1.00  0.00     0.251 C 
ATOM      4  O   UNL A   1      30.189  30.155  23.549  1.00  0.00    -0.269 OA
ATOM      5  H   UNL A   1      31.349  31.095  25.349  1.00  0.00     0.163 HD
BRANCH   3   6
ATOM      6  C   UNL A   1      30.854  27.987  24.131  1.00  0.00     0.041 A 
ATOM      7  C   UNL A   1      31.952  25.858  23.589  1.00  0.00     0.038 A 
ATOM      8  C   UNL A   1      31.981  27.253  23.769  1.00  0.00     0.039 A 
ATOM      9  C   UNL A   1      30.727  25.186  23.671  1.00  0.00    -0.028 A 
ATOM     10  C   UNL A   1      29.577  25.914  24.007  1.00  0.00     0.006 A 
ATOM     11  C   UNL A   1      30.598  23.709  23.432  1.00  0.00     0.046 C 
ATOM     12  C   UNL A   1      29.643  27.291  24.243  1.00  0.00     0.014 A 
BRANCH   7  13
ATOM     13  N   UNL A   1      33.120  25.190  23.196  1.00  0.00    -0.373 N 
ATOM     14  H   UNL A   1      33.201  24.769  22.311  1.00  0.00     0.161 HD
BRANCH  13  15
ATOM     15  C   UNL A   1      34.220  25.151  24.175  1.00  0.00     0.179 C 
ATOM     16  N   UNL A   1      35.425  23.348  25.045  1.00  0.00    -0.245 N 
ATOM     17  C   UNL A   1      34.494  23.635  26.008  1.00  0.00     0.236 C 
ATOM     18  C   UNL A   1      35.191  24.025  23.878  1.00  0.00     0.256 C 
ATOM     19  O   UNL A   1      34.316  23.070  27.069  1.00  0.00    -0.274 OA
ATOM     20  C   UNL A   1      33.678  24.813  25.554  1.00  0.00     0.136 C 
ATOM     21  O   UNL A   1      35.552  23.708  22.749  1.00  0.00    -0.272 OA
BRANCH  16  22
ATOM     22  C   UNL A   1      36.396  22.337  25.151  1.00  0.00     0.094 A 
ATOM     23  C   UNL A   1      36.048  20.999  24.921  1.00  0.00     0.144 A 
ATOM     24  C   UNL A   1      36.990  19.983  25.073  1.00  0.00     0.069 A 
ATOM     25  C   UNL A   1      38.294  20.302  25.460  1.00  0.00     0.047 A 
ATOM     26  C   UNL A   1      37.712  22.652  25.511  1.00  0.00     0.035 A 
ATOM     27  Cl  UNL A   1      39.434  19.012  25.620  1.00  0.00    -0.084 Cl
ATOM     28  C   UNL A   1      38.664  21.636  25.704  1.00  0.00    -0.030 A 
ATOM     29  C   UNL A   1      40.036  21.999  26.200  1.00  0.00     0.046 C 
BRANCH  23  30
ATOM     30  O   UNL A   1      34.778  20.636  24.556  1.00  0.00    -0.495 OA
ATOM     31  C   UNL A   1      34.553  19.235  24.725  1.00  0.00     0.278 C 
ENDBRANCH  23  30
ENDBRANCH  16  22
ENDBRANCH  13  15
ENDBRANCH   7  13
ENDBRANCH   3   6
ENDBRANCH   1   2
BRANCH   1  32
ATOM     32  C   UNL A   1      33.252  30.680  26.979  1.00  0.00     0.042 C 
BRANCH  32  33
ATOM     33  C   UNL A   1      34.504  30.074  27.591  1.00  0.00     0.118 C 
BRANCH  33  34
ATOM     34  N   UNL A   1      35.228  31.005  28.461  1.00  0.00    -0.352 N 
ATOM     35  C   UNL A   1      36.441  30.839  29.103  1.00  0.00     0.251 C 
ATOM     36  H   UNL A   1      34.788  31.873  28.611  1.00  0.00     0.163 HD
ATOM     37  O   UNL A   1      36.909  31.688  29.854  1.00  0.00    -0.269 OA
BRANCH  35  38
ATOM     38  C   UNL A   1      37.262  29.667  28.729  1.00  0.00     0.039 A 
ATOM     39  C   UNL A   1      37.386  28.671  29.705  1.00  0.00     0.014 A 
ATOM     40  C   UNL A   1      38.156  29.754  27.668  1.00  0.00     0.014 A 
ATOM     41  C   UNL A   1      38.574  27.960  29.788  1.00  0.00     0.010 A 
ATOM     42  C   UNL A   1      39.376  29.131  27.812  1.00  0.00     0.010 A 
ATOM     43  C   UNL A   1      39.606  28.305  28.919  1.00  0.00    -0.014 A 
BRANCH  43  44
ATOM     44  C   UNL A   1      40.992  27.936  29.155  1.00  0.00     0.031 A 
ATOM     45  C   UNL A   1      41.505  26.683  28.587  1.00  0.00     0.074 A 
ATOM     46  C   UNL A   1      41.801  28.786  29.825  1.00  0.00     0.049 A 
ATOM     47  N   UNL A   1      42.572  26.081  28.981  1.00  0.00    -0.248 NA
ATOM     48  C   UNL A   1      40.782  25.950  27.555  1.00  0.00     0.031 C 
ATOM     49  C   UNL A   1      43.255  28.730  29.946  1.00  0.00     0.029 A 
ATOM     50  N   UNL A   1      41.411  29.755  30.752  1.00  0.00    -0.354 N 
ATOM     51  C   UNL A   1      42.846  25.083  28.076  1.00  0.00     0.074 A 
ATOM     52  C   UNL A   1      41.643  24.965  27.293  1.00  0.00     0.031 C 
ATOM     53  C   UNL A   1      43.622  29.400  31.050  1.00  0.00     0.029 A 
ATOM     54  C   UNL A   1      42.407  29.783  31.747  1.00  0.00     0.049 A 
ATOM     55  H   UNL A   1      40.599  30.310  30.717  1.00  0.00     0.167 HD
ATOM     56  C   UNL A   1      44.119  24.594  28.019  1.00  0.00     0.034 A 
ATOM     57  C   UNL A   1      42.102  29.434  33.032  1.00  0.00     0.034 A 
ATOM     58  C   UNL A   1      44.887  25.036  29.192  1.00  0.00     0.049 A 
ATOM     59  C   UNL A   1      42.831  28.188  33.496  1.00  0.00     0.074 A 
ATOM     60  C   UNL A   1      45.864  25.998  29.389  1.00  0.00     0.029 A 
ATOM     61  N   UNL A   1      44.442  24.670  30.463  1.00  0.00    -0.354 N 
ATOM     62  N   UNL A   1      43.422  27.337  32.698  1.00  0.00    -0.248 NA
ATOM     63  C   UNL A   1      42.969  27.818  34.899  1.00  0.00     0.031 C 
ATOM     64  C   UNL A   1      45.917  26.287  30.784  1.00  0.00     0.029 A 
ATOM     65  C   UNL A   1      45.012  25.467  31.439  1.00  0.00     0.049 A 
ATOM     66  H   UNL A   1      43.805  23.941  30.642  1.00  0.00     0.167 HD
ATOM     67  C   UNL A   1      43.999  26.331  33.432  1.00  0.00     0.074 A 
ATOM     68  C   UNL A   1      43.704  26.696  34.810  1.00  0.00     0.031 C 
ATOM     69  C   UNL A   1      44.665  25.284  32.847  1.00  0.00     0.034 A 
BRANCH  56  70
ATOM     70  C   UNL A   1      44.748  23.978  26.776  1.00  0.00     0.023 A 
ATOM     71  C   UNL A   1      44.357  22.675  26.390  1.00  0.00     0.031 A 
ATOM     72  C   UNL A   1      45.789  24.530  25.995  1.00  0.00     0.131 A 
ATOM     73  C   UNL A   1      45.023  21.974  25.361  1.00  0.00     0.055 A 
ATOM     74  C   UNL A   1      46.463  23.828  24.988  1.00  0.00     0.041 A 
ATOM     75  F   UNL A   1      46.205  25.790  26.132  1.00  0.00    -0.206 F 
ATOM     76  C   UNL A   1      46.091  22.537  24.672  1.00  0.00     0.022 A 
BRANCH  73  77
ATOM     77  S   UNL A   1      44.492  20.291  24.941  1.00  0.00     0.124 S 
ATOM     78  O   UNL A   1      43.169  20.223  25.552  1.00  0.00    -0.237 OA
ATOM     79  O   UNL A   1      44.534  20.308  23.482  1.00  0.00    -0.237 OA
ATOM     80  O   UNL A   1      45.507  19.448  25.573  1.00  0.00    -0.744 OA
ENDBRANCH  73  77
ENDBRANCH  56  70
BRANCH  57  81
ATOM     81  C   UNL A   1      40.735  29.884  33.435  1.00  0.00     0.023 A 
ATOM     82  C   UNL A   1      40.564  31.270  33.667  1.00  0.00     0.031 A 
ATOM     83  C   UNL A   1      39.590  29.123  33.170  1.00  0.00     0.131 A 
ATOM     84  C   UNL A   1      39.318  31.882  33.455  1.00  0.00     0.055 A 
ATOM     85  C   UNL A   1      38.332  29.729  33.024  1.00  0.00     0.041 A 
ATOM     86  F   UNL A   1      39.686  27.810  32.912  1.00  0.00    -0.206 F 
ATOM     87  C   UNL A   1      38.202  31.117  33.114  1.00  0.00     0.022 A 
BRANCH  84  88
ATOM     88  S   UNL A   1      39.223  33.698  33.360  1.00  0.00     0.124 S 
ATOM     89  O   UNL A   1      39.926  33.981  32.112  1.00  0.00    -0.237 OA
ATOM     90  O   UNL A   1      37.786  33.959  33.349  1.00  0.00    -0.237 OA
ATOM     91  O   UNL A   1      39.896  34.145  34.578  1.00  0.00    -0.744 OA
ENDBRANCH  84  88
ENDBRANCH  57  81
BRANCH  69  92
ATOM     92  C   UNL A   1      45.128  24.021  33.558  1.00  0.00     0.023 A 
ATOM     93  C   UNL A   1      46.436  23.828  34.025  1.00  0.00     0.031 A 
ATOM     94  C   UNL A   1      44.220  22.974  33.859  1.00  0.00     0.131 A 
ATOM     95  C   UNL A   1      46.824  22.628  34.651  1.00  0.00     0.055 A 
ATOM     96  C   UNL A   1      44.585  21.822  34.566  1.00  0.00     0.041 A 
ATOM     97  F   UNL A   1      42.932  23.021  33.490  1.00  0.00    -0.206 F 
ATOM     98  C   UNL A   1      45.901  21.632  34.949  1.00  0.00     0.022 A 
BRANCH  95  99
ATOM     99  S   UNL A   1      48.586  22.369  34.986  1.00  0.00     0.124 S 
ATOM    100  O   UNL A   1      48.670  22.693  36.409  1.00  0.00    -0.237 OA
ATOM    101  O   UNL A   1      48.766  20.962  34.646  1.00  0.00    -0.237 OA
ATOM    102  O   UNL A   1      49.250  23.316  34.095  1.00  0.00    -0.744 OA
ENDBRANCH  95  99
ENDBRANCH  69  92
ENDBRANCH  43  44
ENDBRANCH  35  38
ENDBRANCH  33  34
ENDBRANCH  32  33
ENDBRANCH   1  32
TORSDOF 17
ENDMDL
MODEL 3
REMARK VINA RESULT:     -13.4      4.329     10.238
REMARK SMILES COc1cc(Cl)c(C)cc1N1C(=O)C[C@H](Nc2cc(C(=O)NCCCNC(=O)c3ccc(-c4c5nc(c(-c6cc(S(=O)(=O)[O-])ccc6F)c6ccc([nH]6)c(-c6cc(S(=O)(=O)[O-])ccc6F)c6nc(c(-c7cc(S(=O)(=O)[O-])ccc7F)c7ccc4[nH]7)C=C6)C=C5)cc3)ccc2C)C1=O
REMARK SMILES IDX 23 1 22 2 20 3 21 4 19 6 17 7 18 8 94 9 93 10 95 11 92 12
REMARK SMILES IDX 16 13 15 15 11 16 12 17 96 18 13 19 14 20 97 21 10 22 3 23
REMARK SMILES IDX 4 24 5 25 9 26 6 27 7 28 8 29 2 30 1 31 24 32 25 33 26 34
REMARK SMILES IDX 27 35 28 37 29 38 30 39 91 40 31 41 90 42 32 43 33 44 34 45
REMARK SMILES IDX 84 46 35 47 89 48 83 49 85 50 36 51 88 52 82 53 81 54 37 56
REMARK SMILES IDX 69 57 49 58 68 59 50 60 53 61 67 62 86 63 51 64 52 65 66 67
REMARK SMILES IDX 87 68 54 69 38 70 39 71 47 72 40 73 46 74 48 75 45 76 41 77
REMARK SMILES IDX 42 78 43 79 44 80 70 81 71 82 79 83 72 84 78 85 80 86 77 87
REMARK SMILES IDX 73 88 74 89 75 90 76 91 55 92 56 93 64 94 57 95 63 96 65 97
REMARK SMILES IDX 62 98 58 99 59 100 60 101 61 102
REMARK H PARENT 22 5 16 14 26 36 85 55 53 66
REMARK Flexibility Score: inf
ROOT
ATOM      1  C   UNL A   1      33.037  29.874  26.324  1.00  0.00     0.118 C 
ENDROOT
BRANCH   1   2
ATOM      2  N   UNL A   1      31.908  30.384  25.550  1.00  0.00    -0.352 N 
ATOM      3  C   UNL A   1      31.011  29.801  24.689  1.00  0.00     0.251 C 
ATOM      4  O   UNL A   1      30.108  30.514  24.241  1.00  0.00    -0.269 OA
ATOM      5  H   UNL A   1      31.759  31.350  25.671  1.00  0.00     0.163 HD
BRANCH   3   6
ATOM      6  C   UNL A   1      31.041  28.366  24.267  1.00  0.00     0.041 A 
ATOM      7  C   UNL A   1      32.133  26.335  23.424  1.00  0.00     0.038 A 
ATOM      8  C   UNL A   1      32.163  27.693  23.790  1.00  0.00     0.039 A 
ATOM      9  C   UNL A   1      30.910  25.653  23.434  1.00  0.00    -0.028 A 
ATOM     10  C   UNL A   1      29.765  26.324  23.885  1.00  0.00     0.006 A 
ATOM     11  C   UNL A   1      30.780  24.222  22.999  1.00  0.00     0.046 C 
ATOM     12  C   UNL A   1      29.833  27.657  24.304  1.00  0.00     0.014 A 
BRANCH   7  13
ATOM     13  N   UNL A   1      33.295  25.731  22.925  1.00  0.00    -0.373 N 
ATOM     14  H   UNL A   1      33.548  25.804  21.976  1.00  0.00     0.161 HD
BRANCH  13  15
ATOM     15  C   UNL A   1      34.117  24.982  23.890  1.00  0.00     0.179 C 
ATOM     16  N   UNL A   1      33.982  22.764  24.612  1.00  0.00    -0.245 N 
ATOM     17  C   UNL A   1      33.365  23.485  25.601  1.00  0.00     0.236 C 
ATOM     18  C   UNL A   1      34.242  23.521  23.501  1.00  0.00     0.256 C 
ATOM     19  O   UNL A   1      32.846  23.069  26.617  1.00  0.00    -0.274 OA
ATOM     20  C   UNL A   1      33.427  24.943  25.243  1.00  0.00     0.136 C 
ATOM     21  O   UNL A   1      34.388  23.126  22.349  1.00  0.00    -0.272 OA
BRANCH  16  22
ATOM     22  C   UNL A   1      34.158  21.369  24.634  1.00  0.00     0.094 A 
ATOM     23  C   UNL A   1      35.380  20.821  25.050  1.00  0.00     0.144 A 
ATOM     24  C   UNL A   1      35.583  19.442  25.028  1.00  0.00     0.069 A 
ATOM     25  C   UNL A   1      34.561  18.598  24.588  1.00  0.00     0.047 A 
ATOM     26  C   UNL A   1      33.128  20.516  24.220  1.00  0.00     0.035 A 
ATOM     27  Cl  UNL A   1      34.851  16.895  24.594  1.00  0.00    -0.084 Cl
ATOM     28  C   UNL A   1      33.330  19.126  24.158  1.00  0.00    -0.030 A 
ATOM     29  C   UNL A   1      32.243  18.250  23.602  1.00  0.00     0.046 C 
BRANCH  23  30
ATOM     30  O   UNL A   1      36.416  21.608  25.475  1.00  0.00    -0.495 OA
ATOM     31  C   UNL A   1      37.608  21.376  24.722  1.00  0.00     0.278 C 
ENDBRANCH  23  30
ENDBRANCH  16  22
ENDBRANCH  13  15
ENDBRANCH   7  13
ENDBRANCH   3   6
ENDBRANCH   1   2
BRANCH   1  32
ATOM     32  C   UNL A   1      33.256  30.682  27.602  1.00  0.00     0.042 C 
BRANCH  32  33
ATOM     33  C   UNL A   1      34.267  31.808  27.471  1.00  0.00     0.118 C 
BRANCH  33  34
ATOM     34  N   UNL A   1      34.776  32.280  28.761  1.00  0.00    -0.352 N 
ATOM     35  C   UNL A   1      35.626  31.650  29.650  1.00  0.00     0.251 C 
ATOM     36  H   UNL A   1      34.470  33.176  29.034  1.00  0.00     0.163 HD
ATOM     37  O   UNL A   1      35.929  32.143  30.731  1.00  0.00    -0.269 OA
BRANCH  35  38
ATOM     38  C   UNL A   1      36.310  30.421  29.194  1.00  0.00     0.039 A 
ATOM     39  C   UNL A   1      36.668  29.512  30.196  1.00  0.00     0.014 A 
ATOM     40  C   UNL A   1      36.903  30.381  27.937  1.00  0.00     0.014 A 
ATOM     41  C   UNL A   1      37.829  28.769  30.042  1.00  0.00     0.010 A 
ATOM     42  C   UNL A   1      38.112  29.729  27.825  1.00  0.00     0.010 A 
ATOM     43  C   UNL A   1      38.608  28.998  28.911  1.00  0.00    -0.014 A 
BRANCH  43  44
ATOM     44  C   UNL A   1      40.004  28.602  28.821  1.00  0.00     0.031 A 
ATOM     45  C   UNL A   1      40.333  27.192  28.578  1.00  0.00     0.074 A 
ATOM     46  C   UNL A   1      40.968  29.547  28.886  1.00  0.00     0.049 A 
ATOM     47  N   UNL A   1      41.481  26.656  28.804  1.00  0.00    -0.248 NA
ATOM     48  C   UNL A   1      39.333  26.232  28.125  1.00  0.00     0.031 C 
ATOM     49  C   UNL A   1      42.385  29.402  28.568  1.00  0.00     0.029 A 
ATOM     50  N   UNL A   1      40.874  30.794  29.507  1.00  0.00    -0.354 N 
ATOM     51  C   UNL A   1      41.471  25.399  28.249  1.00  0.00     0.074 A 
ATOM     52  C   UNL A   1      40.085  25.143  27.957  1.00  0.00     0.031 C 
ATOM     53  C   UNL A   1      43.072  30.358  29.215  1.00  0.00     0.029 A 
ATOM     54  C   UNL A   1      42.135  31.052  30.080  1.00  0.00     0.049 A 
ATOM     55  H   UNL A   1      40.083  31.378  29.538  1.00  0.00     0.167 HD
ATOM     56  C   UNL A   1      42.669  24.806  27.972  1.00  0.00     0.034 A 
ATOM     57  C   UNL A   1      42.261  31.167  31.435  1.00  0.00     0.034 A 
ATOM     58  C   UNL A   1      43.762  25.532  28.635  1.00  0.00     0.049 A 
ATOM     59  C   UNL A   1      43.122  30.078  32.043  1.00  0.00     0.074 A 
ATOM     60  C   UNL A   1      44.732  26.415  28.189  1.00  0.00     0.029 A 
ATOM     61  N   UNL A   1      43.752  25.638  30.026  1.00  0.00    -0.354 N 
ATOM     62  N   UNL A   1      43.445  28.965  31.436  1.00  0.00    -0.248 NA
ATOM     63  C   UNL A   1      43.707  30.170  33.376  1.00  0.00     0.031 C 
ATOM     64  C   UNL A   1      45.221  27.132  29.319  1.00  0.00     0.029 A 
ATOM     65  C   UNL A   1      44.587  26.654  30.455  1.00  0.00     0.049 A 
ATOM     66  H   UNL A   1      43.218  25.067  30.625  1.00  0.00     0.167 HD
ATOM     67  C   UNL A   1      44.245  28.202  32.251  1.00  0.00     0.074 A 
ATOM     68  C   UNL A   1      44.396  29.018  33.447  1.00  0.00     0.031 C 
ATOM     69  C   UNL A   1      44.709  26.968  31.877  1.00  0.00     0.034 A 
BRANCH  56  70
ATOM     70  C   UNL A   1      42.881  23.767  26.878  1.00  0.00     0.023 A 
ATOM     71  C   UNL A   1      42.312  22.483  27.040  1.00  0.00     0.031 A 
ATOM     72  C   UNL A   1      43.695  23.904  25.731  1.00  0.00     0.131 A 
ATOM     73  C   UNL A   1      42.614  21.420  26.160  1.00  0.00     0.055 A 
ATOM     74  C   UNL A   1      44.012  22.846  24.869  1.00  0.00     0.041 A 
ATOM     75  F   UNL A   1      44.217  25.071  25.349  1.00  0.00    -0.206 F 
ATOM     76  C   UNL A   1      43.480  21.590  25.086  1.00  0.00     0.022 A 
BRANCH  73  77
ATOM     77  S   UNL A   1      41.876  19.788  26.446  1.00  0.00     0.124 S 
ATOM     78  O   UNL A   1      42.257  19.515  27.828  1.00  0.00    -0.237 OA
ATOM     79  O   UNL A   1      40.460  20.042  26.200  1.00  0.00    -0.237 OA
ATOM     80  O   UNL A   1      42.529  18.941  25.448  1.00  0.00    -0.744 OA
ENDBRANCH  73  77
ENDBRANCH  56  70
BRANCH  57  81
ATOM     81  C   UNL A   1      41.085  31.844  32.061  1.00  0.00     0.023 A 
ATOM     82  C   UNL A   1      40.207  31.028  32.814  1.00  0.00     0.031 A 
ATOM     83  C   UNL A   1      41.059  33.223  32.304  1.00  0.00     0.131 A 
ATOM     84  C   UNL A   1      39.478  31.562  33.888  1.00  0.00     0.055 A 
ATOM     85  C   UNL A   1      40.277  33.765  33.336  1.00  0.00     0.041 A 
ATOM     86  F   UNL A   1      41.886  34.049  31.646  1.00  0.00    -0.206 F 
ATOM     87  C   UNL A   1      39.524  32.929  34.165  1.00  0.00     0.022 A 
BRANCH  84  88
ATOM     88  S   UNL A   1      38.689  30.432  35.079  1.00  0.00     0.124 S 
ATOM     89  O   UNL A   1      38.030  29.469  34.203  1.00  0.00    -0.237 OA
ATOM     90  O   UNL A   1      39.817  29.917  35.851  1.00  0.00    -0.237 OA
ATOM     91  O   UNL A   1      37.797  31.302  35.844  1.00  0.00    -0.744 OA
ENDBRANCH  84  88
ENDBRANCH  57  81
BRANCH  69  92
ATOM     92  C   UNL A   1      45.398  25.966  32.792  1.00  0.00     0.023 A 
ATOM     93  C   UNL A   1      44.711  25.002  33.545  1.00  0.00     0.031 A 
ATOM     94  C   UNL A   1      46.812  25.903  32.880  1.00  0.00     0.131 A 
ATOM     95  C   UNL A   1      45.392  24.115  34.401  1.00  0.00     0.055 A 
ATOM     96  C   UNL A   1      47.491  24.958  33.659  1.00  0.00     0.041 A 
ATOM     97  F   UNL A   1      47.605  26.749  32.206  1.00  0.00    -0.206 F 
ATOM     98  C   UNL A   1      46.780  24.069  34.444  1.00  0.00     0.022 A 
BRANCH  95  99
ATOM     99  S   UNL A   1      44.408  23.085  35.522  1.00  0.00     0.124 S 
ATOM    100  O   UNL A   1      45.054  21.783  35.375  1.00  0.00    -0.237 OA
ATOM    101  O   UNL A   1      44.603  23.746  36.807  1.00  0.00    -0.237 OA
ATOM    102  O   UNL A   1      43.057  23.173  34.975  1.00  0.00    -0.744 OA
ENDBRANCH  95  99
ENDBRANCH  69  92
ENDBRANCH  43  44
ENDBRANCH  35  38
ENDBRANCH  33  34
ENDBRANCH  32  33
ENDBRANCH   1  32
TORSDOF 17
ENDMDL
