MODEL 1
REMARK VINA RESULT:     -10.0      0.000      0.000
REMARK SMILES CCCC[C@@H](Sc1nc(OCCC2CCCCC2)cc(OCCC2CCCCC2)n1)C(=O)NCCCNC(=O)c1ccc(-c2c3nc(c(-c4cc(S(=O)(=O)[O-])ccc4F)c4ccc([nH]4)c(-c4cc(S(=O)(=O)[O-])ccc4F)c4nc(c(-c5cc(S(=O)(=O)[O-])ccc5F)c5ccc2[nH]5)C=C4)C=C3)cc1
REMARK SMILES IDX 31 1 32 2 33 3 5 5 4 6 3 7 2 8 1 9 6 10 7 11 8 12 30 13 9 14
REMARK SMILES IDX 20 15 19 16 10 17 11 18 12 19 13 20 14 21 18 22 15 23 17 24
REMARK SMILES IDX 16 25 21 26 22 27 23 28 24 29 25 30 29 31 26 32 28 33 27 34
REMARK SMILES IDX 34 35 35 36 36 37 37 38 38 39 39 41 40 42 41 43 102 44 42 45
REMARK SMILES IDX 101 46 43 47 44 48 45 49 95 50 46 51 100 52 94 53 96 54
REMARK SMILES IDX 47 55 99 56 93 57 92 58 48 60 80 61 60 62 79 63 61 64 64 65
REMARK SMILES IDX 78 66 97 67 62 68 63 69 77 71 98 72 65 73 49 74 50 75 58 76
REMARK SMILES IDX 51 77 57 78 59 79 56 80 52 81 53 82 54 83 55 84 81 85 82 86
REMARK SMILES IDX 90 87 83 88 89 89 91 90 88 91 84 92 85 93 86 94 87 95 66 96
REMARK SMILES IDX 67 97 75 98 68 99 74 100 76 101 73 102 69 103 70 104 71 105
REMARK SMILES IDX 72 106
REMARK H PARENT 33 4 37 40 96 59 64 70
REMARK Flexibility Score: inf
ROOT
ATOM      1  C   UNL A   1      33.639  24.128  25.351  1.00  0.00     0.233 C 
ATOM      2  O   UNL A   1      33.015  24.936  26.044  1.00  0.00    -0.274 OA
ATOM      3  N   UNL A   1      34.899  24.478  24.935  1.00  0.00    -0.355 N 
ATOM      4  H   UNL A   1      35.185  25.381  25.201  1.00  0.00     0.163 HD
ENDROOT
BRANCH   1   5
ATOM      5  C   UNL A   1      33.017  22.769  24.953  1.00  0.00     0.144 C 
BRANCH   5   6
ATOM      6  C   UNL A   1      32.157  22.331  26.172  1.00  0.00     0.025 C 
BRANCH   6   7
ATOM      7  C   UNL A   1      30.639  22.173  26.115  1.00  0.00     0.001 C 
BRANCH   7   8
ATOM      8  C   UNL A   1      29.794  23.006  27.076  1.00  0.00    -0.003 C 
ATOM      9  C   UNL A   1      28.563  22.273  27.573  1.00  0.00     0.004 C 
ENDBRANCH   7   8
ENDBRANCH   6   7
ENDBRANCH   5   6
BRANCH   5  10
ATOM     10  S   UNL A   1      32.392  23.115  23.211  1.00  0.00    -0.073 SA
BRANCH  10  11
ATOM     11  C   UNL A   1      31.844  24.784  23.243  1.00  0.00     0.195 A 
ATOM     12  N   UNL A   1      30.524  25.004  23.407  1.00  0.00    -0.187 NA
ATOM     13  N   UNL A   1      32.722  25.698  22.858  1.00  0.00    -0.187 NA
ATOM     14  C   UNL A   1      30.055  26.174  22.955  1.00  0.00     0.221 A 
ATOM     15  C   UNL A   1      32.217  26.825  22.381  1.00  0.00     0.221 A 
ATOM     16  C   UNL A   1      30.875  27.050  22.301  1.00  0.00     0.136 A 
BRANCH  14  17
ATOM     17  O   UNL A   1      28.732  26.426  23.233  1.00  0.00    -0.477 OA
BRANCH  17  18
ATOM     18  C   UNL A   1      28.347  27.752  23.615  1.00  0.00     0.231 C 
BRANCH  18  19
ATOM     19  C   UNL A   1      27.920  28.696  22.458  1.00  0.00     0.045 C 
BRANCH  19  20
ATOM     20  C   UNL A   1      28.073  30.203  22.716  1.00  0.00    -0.008 C 
ATOM     21  C   UNL A   1      29.310  30.591  23.542  1.00  0.00     0.004 C 
ATOM     22  C   UNL A   1      28.069  31.032  21.432  1.00  0.00     0.004 C 
ATOM     23  C   UNL A   1      29.227  32.069  23.947  1.00  0.00     0.000 C 
ATOM     24  C   UNL A   1      27.889  32.506  21.789  1.00  0.00     0.000 C 
ATOM     25  C   UNL A   1      28.948  33.010  22.773  1.00  0.00     0.000 C 
ENDBRANCH  19  20
ENDBRANCH  18  19
ENDBRANCH  17  18
ENDBRANCH  14  17
BRANCH  15  26
ATOM     26  O   UNL A   1      33.112  27.613  21.719  1.00  0.00    -0.477 OA
BRANCH  26  27
ATOM     27  C   UNL A   1      33.924  28.452  22.535  1.00  0.00     0.231 C 
BRANCH  27  28
ATOM     28  C   UNL A   1      32.996  29.451  23.259  1.00  0.00     0.045 C 
BRANCH  28  29
ATOM     29  C   UNL A   1      32.849  29.125  24.757  1.00  0.00    -0.008 C 
ATOM     30  C   UNL A   1      34.204  28.863  25.412  1.00  0.00     0.004 C 
ATOM     31  C   UNL A   1      32.153  30.200  25.596  1.00  0.00     0.004 C 
ATOM     32  C   UNL A   1      33.983  28.190  26.758  1.00  0.00     0.000 C 
ATOM     33  C   UNL A   1      31.957  29.693  27.037  1.00  0.00     0.000 C 
ATOM     34  C   UNL A   1      33.231  29.134  27.682  1.00  0.00     0.000 C 
ENDBRANCH  28  29
ENDBRANCH  27  28
ENDBRANCH  26  27
ENDBRANCH  15  26
ENDBRANCH  10  11
ENDBRANCH   5  10
ENDBRANCH   1   5
BRANCH   3  35
ATOM     35  C   UNL A   1      35.886  23.730  24.162  1.00  0.00     0.117 C 
BRANCH  35  36
ATOM     36  C   UNL A   1      36.025  22.289  24.643  1.00  0.00     0.042 C 
BRANCH  36  37
ATOM     37  C   UNL A   1      36.713  22.173  25.995  1.00  0.00     0.118 C 
BRANCH  37  38
ATOM     38  N   UNL A   1      37.800  21.202  25.973  1.00  0.00    -0.352 N 
ATOM     39  C   UNL A   1      39.146  21.394  26.132  1.00  0.00     0.251 C 
ATOM     40  H   UNL A   1      37.525  20.268  25.822  1.00  0.00     0.163 HD
ATOM     41  O   UNL A   1      39.924  20.479  25.848  1.00  0.00    -0.269 OA
BRANCH  39  42
ATOM     42  C   UNL A   1      39.661  22.688  26.619  1.00  0.00     0.039 A 
ATOM     43  C   UNL A   1      40.451  22.715  27.770  1.00  0.00     0.014 A 
ATOM     44  C   UNL A   1      39.358  23.877  25.948  1.00  0.00     0.014 A 
ATOM     45  C   UNL A   1      40.987  23.925  28.212  1.00  0.00     0.010 A 
ATOM     46  C   UNL A   1      39.965  25.066  26.338  1.00  0.00     0.010 A 
ATOM     47  C   UNL A   1      40.779  25.105  27.480  1.00  0.00    -0.014 A 
BRANCH  47  48
ATOM     48  C   UNL A   1      41.394  26.392  27.896  1.00  0.00     0.031 A 
ATOM     49  C   UNL A   1      42.814  26.704  27.509  1.00  0.00     0.074 A 
ATOM     50  C   UNL A   1      40.693  27.244  28.670  1.00  0.00     0.049 A 
ATOM     51  N   UNL A   1      43.556  27.728  27.843  1.00  0.00    -0.248 NA
ATOM     52  C   UNL A   1      43.501  25.716  26.662  1.00  0.00     0.031 C 
ATOM     53  C   UNL A   1      39.321  27.028  29.139  1.00  0.00     0.029 A 
ATOM     54  N   UNL A   1      41.037  28.459  29.208  1.00  0.00    -0.354 N 
ATOM     55  C   UNL A   1      44.798  27.503  27.259  1.00  0.00     0.074 A 
ATOM     56  C   UNL A   1      44.727  26.215  26.605  1.00  0.00     0.031 C 
ATOM     57  C   UNL A   1      38.934  28.085  29.868  1.00  0.00     0.029 A 
ATOM     58  C   UNL A   1      40.042  29.030  29.968  1.00  0.00     0.049 A 
ATOM     59  H   UNL A   1      41.913  28.882  29.063  1.00  0.00     0.167 HD
ATOM     60  C   UNL A   1      45.888  28.309  27.249  1.00  0.00     0.034 A 
ATOM     61  C   UNL A   1      40.029  30.175  30.679  1.00  0.00     0.034 A 
ATOM     62  C   UNL A   1      45.933  29.597  27.896  1.00  0.00     0.049 A 
ATOM     63  C   UNL A   1      41.266  31.040  30.676  1.00  0.00     0.074 A 
ATOM     64  C   UNL A   1      46.964  30.521  27.904  1.00  0.00     0.029 A 
ATOM     65  N   UNL A   1      44.907  30.143  28.657  1.00  0.00    -0.354 N 
ATOM     66  N   UNL A   1      42.416  30.837  30.074  1.00  0.00    -0.248 NA
ATOM     67  C   UNL A   1      41.200  32.293  31.439  1.00  0.00     0.031 C 
ATOM     68  C   UNL A   1      46.592  31.587  28.729  1.00  0.00     0.029 A 
ATOM     69  C   UNL A   1      45.294  31.373  29.167  1.00  0.00     0.049 A 
ATOM     70  H   UNL A   1      44.033  29.718  28.812  1.00  0.00     0.167 HD
ATOM     71  C   UNL A   1      43.195  31.955  30.359  1.00  0.00     0.074 A 
ATOM     72  C   UNL A   1      42.379  32.834  31.171  1.00  0.00     0.031 C 
ATOM     73  C   UNL A   1      44.470  32.235  29.982  1.00  0.00     0.034 A 
BRANCH  60  74
ATOM     74  C   UNL A   1      47.123  27.807  26.539  1.00  0.00     0.023 A 
ATOM     75  C   UNL A   1      47.318  28.006  25.161  1.00  0.00     0.031 A 
ATOM     76  C   UNL A   1      48.116  27.108  27.248  1.00  0.00     0.131 A 
ATOM     77  C   UNL A   1      48.438  27.452  24.524  1.00  0.00     0.055 A 
ATOM     78  C   UNL A   1      49.271  26.631  26.622  1.00  0.00     0.041 A 
ATOM     79  F   UNL A   1      47.977  26.866  28.561  1.00  0.00    -0.206 F 
ATOM     80  C   UNL A   1      49.430  26.791  25.250  1.00  0.00     0.022 A 
BRANCH  77  81
ATOM     81  S   UNL A   1      48.512  27.493  22.712  1.00  0.00     0.124 S 
ATOM     82  O   UNL A   1      49.799  28.147  22.485  1.00  0.00    -0.237 OA
ATOM     83  O   UNL A   1      48.444  26.079  22.361  1.00  0.00    -0.237 OA
ATOM     84  O   UNL A   1      47.343  28.287  22.338  1.00  0.00    -0.744 OA
ENDBRANCH  77  81
ENDBRANCH  60  74
BRANCH  61  85
ATOM     85  C   UNL A   1      38.825  30.570  31.465  1.00  0.00     0.023 A 
ATOM     86  C   UNL A   1      37.817  31.365  30.897  1.00  0.00     0.031 A 
ATOM     87  C   UNL A   1      38.689  30.204  32.816  1.00  0.00     0.131 A 
ATOM     88  C   UNL A   1      36.749  31.816  31.688  1.00  0.00     0.055 A 
ATOM     89  C   UNL A   1      37.593  30.604  33.583  1.00  0.00     0.041 A 
ATOM     90  F   UNL A   1      39.620  29.443  33.412  1.00  0.00    -0.206 F 
ATOM     91  C   UNL A   1      36.623  31.429  33.024  1.00  0.00     0.022 A 
BRANCH  88  92
ATOM     92  S   UNL A   1      35.582  33.006  30.974  1.00  0.00     0.124 S 
ATOM     93  O   UNL A   1      36.133  34.275  31.436  1.00  0.00    -0.237 OA
ATOM     94  O   UNL A   1      35.708  32.734  29.546  1.00  0.00    -0.237 OA
ATOM     95  O   UNL A   1      34.303  32.627  31.569  1.00  0.00    -0.744 OA
ENDBRANCH  88  92
ENDBRANCH  61  85
BRANCH  73  96
ATOM     96  C   UNL A   1      45.034  33.569  30.405  1.00  0.00     0.023 A 
ATOM     97  C   UNL A   1      44.902  34.718  29.606  1.00  0.00     0.031 A 
ATOM     98  C   UNL A   1      45.722  33.687  31.626  1.00  0.00     0.131 A 
ATOM     99  C   UNL A   1      45.500  35.921  30.010  1.00  0.00     0.055 A 
ATOM    100  C   UNL A   1      46.258  34.903  32.054  1.00  0.00     0.041 A 
ATOM    101  F   UNL A   1      45.882  32.622  32.427  1.00  0.00    -0.206 F 
ATOM    102  C   UNL A   1      46.159  36.025  31.237  1.00  0.00     0.022 A 
BRANCH  99 103
ATOM    103  S   UNL A   1      45.490  37.326  28.863  1.00  0.00     0.124 S 
ATOM    104  O   UNL A   1      46.378  38.271  29.532  1.00  0.00    -0.237 OA
ATOM    105  O   UNL A   1      46.004  36.729  27.634  1.00  0.00    -0.237 OA
ATOM    106  O   UNL A   1      44.084  37.721  28.817  1.00  0.00    -0.744 OA
ENDBRANCH  99 103
ENDBRANCH  73  96
ENDBRANCH  47  48
ENDBRANCH  39  42
ENDBRANCH  37  38
ENDBRANCH  36  37
ENDBRANCH  35  36
ENDBRANCH   3  35
TORSDOF 26
ENDMDL
MODEL 2
REMARK VINA RESULT:      -9.2      5.443     12.521
REMARK SMILES CCCC[C@@H](Sc1nc(OCCC2CCCCC2)cc(OCCC2CCCCC2)n1)C(=O)NCCCNC(=O)c1ccc(-c2c3nc(c(-c4cc(S(=O)(=O)[O-])ccc4F)c4ccc([nH]4)c(-c4cc(S(=O)(=O)[O-])ccc4F)c4nc(c(-c5cc(S(=O)(=O)[O-])ccc5F)c5ccc2[nH]5)C=C4)C=C3)cc1
REMARK SMILES IDX 31 1 32 2 33 3 5 5 4 6 3 7 2 8 1 9 6 10 7 11 8 12 30 13 9 14
REMARK SMILES IDX 20 15 19 16 10 17 11 18 12 19 13 20 14 21 18 22 15 23 17 24
REMARK SMILES IDX 16 25 21 26 22 27 23 28 24 29 25 30 29 31 26 32 28 33 27 34
REMARK SMILES IDX 34 35 35 36 36 37 37 38 38 39 39 41 40 42 41 43 102 44 42 45
REMARK SMILES IDX 101 46 43 47 44 48 45 49 95 50 46 51 100 52 94 53 96 54
REMARK SMILES IDX 47 55 99 56 93 57 92 58 48 60 80 61 60 62 79 63 61 64 64 65
REMARK SMILES IDX 78 66 97 67 62 68 63 69 77 71 98 72 65 73 49 74 50 75 58 76
REMARK SMILES IDX 51 77 57 78 59 79 56 80 52 81 53 82 54 83 55 84 81 85 82 86
REMARK SMILES IDX 90 87 83 88 89 89 91 90 88 91 84 92 85 93 86 94 87 95 66 96
REMARK SMILES IDX 67 97 75 98 68 99 74 100 76 101 73 102 69 103 70 104 71 105
REMARK SMILES IDX 72 106
REMARK H PARENT 33 4 37 40 96 59 64 70
REMARK Flexibility Score: inf
ROOT
ATOM      1  C   UNL A   1      45.694  27.429  25.534  1.00  0.00     0.233 C 
ATOM      2  O   UNL A   1      45.740  27.102  24.344  1.00  0.00    -0.274 OA
ATOM      3  N   UNL A   1      46.436  28.514  25.930  1.00  0.00    -0.355 N 
ATOM      4  H   UNL A   1      46.983  28.920  25.219  1.00  0.00     0.163 HD
ENDROOT
BRANCH   1   5
ATOM      5  C   UNL A   1      44.838  26.636  26.548  1.00  0.00     0.144 C 
BRANCH   5   6
ATOM      6  C   UNL A   1      43.716  27.613  27.000  1.00  0.00     0.025 C 
BRANCH   6   7
ATOM      7  C   UNL A   1      42.710  28.238  26.036  1.00  0.00     0.001 C 
BRANCH   7   8
ATOM      8  C   UNL A   1      41.485  28.931  26.627  1.00  0.00    -0.003 C 
ATOM      9  C   UNL A   1      40.412  27.960  27.079  1.00  0.00     0.004 C 
ENDBRANCH   7   8
ENDBRANCH   6   7
ENDBRANCH   5   6
BRANCH   5  10
ATOM     10  S   UNL A   1      44.599  24.991  25.663  1.00  0.00    -0.073 SA
BRANCH  10  11
ATOM     11  C   UNL A   1      43.323  24.173  26.551  1.00  0.00     0.195 A 
ATOM     12  N   UNL A   1      42.053  24.558  26.312  1.00  0.00    -0.187 NA
ATOM     13  N   UNL A   1      43.707  23.416  27.567  1.00  0.00    -0.187 NA
ATOM     14  C   UNL A   1      41.166  24.316  27.286  1.00  0.00     0.221 A 
ATOM     15  C   UNL A   1      42.814  23.234  28.527  1.00  0.00     0.221 A 
ATOM     16  C   UNL A   1      41.564  23.775  28.476  1.00  0.00     0.136 A 
BRANCH  14  17
ATOM     17  O   UNL A   1      39.858  24.611  26.979  1.00  0.00    -0.477 OA
BRANCH  17  18
ATOM     18  C   UNL A   1      39.168  23.787  26.032  1.00  0.00     0.231 C 
BRANCH  18  19
ATOM     19  C   UNL A   1      37.621  23.921  26.015  1.00  0.00     0.045 C 
BRANCH  19  20
ATOM     20  C   UNL A   1      36.824  22.613  25.888  1.00  0.00    -0.008 C 
ATOM     21  C   UNL A   1      35.306  22.798  25.740  1.00  0.00     0.004 C 
ATOM     22  C   UNL A   1      37.317  21.720  24.750  1.00  0.00     0.004 C 
ATOM     23  C   UNL A   1      34.597  21.444  25.875  1.00  0.00     0.000 C 
ATOM     24  C   UNL A   1      36.708  20.328  24.906  1.00  0.00     0.000 C 
ATOM     25  C   UNL A   1      35.179  20.356  24.970  1.00  0.00     0.000 C 
ENDBRANCH  19  20
ENDBRANCH  18  19
ENDBRANCH  17  18
ENDBRANCH  14  17
BRANCH  15  26
ATOM     26  O   UNL A   1      43.320  22.718  29.684  1.00  0.00    -0.477 OA
BRANCH  26  27
ATOM     27  C   UNL A   1      44.557  23.273  30.123  1.00  0.00     0.231 C 
BRANCH  27  28
ATOM     28  C   UNL A   1      44.244  24.349  31.184  1.00  0.00     0.045 C 
BRANCH  28  29
ATOM     29  C   UNL A   1      44.676  25.756  30.729  1.00  0.00    -0.008 C 
ATOM     30  C   UNL A   1      43.827  26.844  31.383  1.00  0.00     0.004 C 
ATOM     31  C   UNL A   1      46.139  26.112  31.002  1.00  0.00     0.004 C 
ATOM     32  C   UNL A   1      44.031  28.151  30.633  1.00  0.00     0.000 C 
ATOM     33  C   UNL A   1      46.467  27.485  30.385  1.00  0.00     0.000 C 
ATOM     34  C   UNL A   1      45.478  28.594  30.765  1.00  0.00     0.000 C 
ENDBRANCH  28  29
ENDBRANCH  27  28
ENDBRANCH  26  27
ENDBRANCH  15  26
ENDBRANCH  10  11
ENDBRANCH   5  10
ENDBRANCH   1   5
BRANCH   3  35
ATOM     35  C   UNL A   1      46.549  29.164  27.232  1.00  0.00     0.117 C 
BRANCH  35  36
ATOM     36  C   UNL A   1      47.564  30.303  27.222  1.00  0.00     0.042 C 
BRANCH  36  37
ATOM     37  C   UNL A   1      46.941  31.663  27.504  1.00  0.00     0.118 C 
BRANCH  37  38
ATOM     38  N   UNL A   1      46.091  32.111  26.409  1.00  0.00    -0.352 N 
ATOM     39  C   UNL A   1      44.744  32.351  26.392  1.00  0.00     0.251 C 
ATOM     40  H   UNL A   1      46.555  32.265  25.553  1.00  0.00     0.163 HD
ATOM     41  O   UNL A   1      44.170  32.501  25.309  1.00  0.00    -0.269 OA
BRANCH  39  42
ATOM     42  C   UNL A   1      43.982  32.413  27.654  1.00  0.00     0.039 A 
ATOM     43  C   UNL A   1      43.490  31.229  28.209  1.00  0.00     0.014 A 
ATOM     44  C   UNL A   1      43.743  33.637  28.287  1.00  0.00     0.014 A 
ATOM     45  C   UNL A   1      42.812  31.267  29.428  1.00  0.00     0.010 A 
ATOM     46  C   UNL A   1      43.147  33.662  29.543  1.00  0.00     0.010 A 
ATOM     47  C   UNL A   1      42.667  32.479  30.123  1.00  0.00    -0.014 A 
BRANCH  47  48
ATOM     48  C   UNL A   1      42.006  32.532  31.453  1.00  0.00     0.031 A 
ATOM     49  C   UNL A   1      40.545  32.879  31.551  1.00  0.00     0.074 A 
ATOM     50  C   UNL A   1      42.736  32.328  32.567  1.00  0.00     0.049 A 
ATOM     51  N   UNL A   1      39.807  33.058  32.616  1.00  0.00    -0.248 NA
ATOM     52  C   UNL A   1      39.828  33.082  30.282  1.00  0.00     0.031 C 
ATOM     53  C   UNL A   1      44.169  32.023  32.595  1.00  0.00     0.029 A 
ATOM     54  N   UNL A   1      42.380  32.354  33.892  1.00  0.00    -0.354 N 
ATOM     55  C   UNL A   1      38.545  33.408  32.148  1.00  0.00     0.074 A 
ATOM     56  C   UNL A   1      38.636  33.478  30.706  1.00  0.00     0.031 C 
ATOM     57  C   UNL A   1      44.561  31.864  33.869  1.00  0.00     0.029 A 
ATOM     58  C   UNL A   1      43.425  32.108  34.752  1.00  0.00     0.049 A 
ATOM     59  H   UNL A   1      41.462  32.532  34.198  1.00  0.00     0.167 HD
ATOM     60  C   UNL A   1      37.410  33.626  32.856  1.00  0.00     0.034 A 
ATOM     61  C   UNL A   1      43.468  32.098  36.100  1.00  0.00     0.034 A 
ATOM     62  C   UNL A   1      37.337  33.537  34.293  1.00  0.00     0.049 A 
ATOM     63  C   UNL A   1      42.197  32.375  36.865  1.00  0.00     0.074 A 
ATOM     64  C   UNL A   1      36.229  33.684  35.110  1.00  0.00     0.029 A 
ATOM     65  N   UNL A   1      38.416  33.287  35.132  1.00  0.00    -0.354 N 
ATOM     66  N   UNL A   1      40.999  32.652  36.404  1.00  0.00    -0.248 NA
ATOM     67  C   UNL A   1      42.282  32.324  38.330  1.00  0.00     0.031 C 
ATOM     68  C   UNL A   1      36.650  33.598  36.440  1.00  0.00     0.029 A 
ATOM     69  C   UNL A   1      38.005  33.310  36.456  1.00  0.00     0.049 A 
ATOM     70  H   UNL A   1      39.337  33.118  34.830  1.00  0.00     0.167 HD
ATOM     71  C   UNL A   1      40.182  32.775  37.525  1.00  0.00     0.074 A 
ATOM     72  C   UNL A   1      41.020  32.525  38.679  1.00  0.00     0.031 C 
ATOM     73  C   UNL A   1      38.857  33.065  37.597  1.00  0.00     0.034 A 
BRANCH  60  74
ATOM     74  C   UNL A   1      36.167  34.006  32.086  1.00  0.00     0.023 A 
ATOM     75  C   UNL A   1      35.535  35.250  32.266  1.00  0.00     0.031 A 
ATOM     76  C   UNL A   1      35.598  33.108  31.166  1.00  0.00     0.131 A 
ATOM     77  C   UNL A   1      34.337  35.532  31.592  1.00  0.00     0.055 A 
ATOM     78  C   UNL A   1      34.451  33.428  30.436  1.00  0.00     0.041 A 
ATOM     79  F   UNL A   1      36.142  31.897  30.966  1.00  0.00    -0.206 F 
ATOM     80  C   UNL A   1      33.806  34.641  30.657  1.00  0.00     0.022 A 
BRANCH  77  81
ATOM     81  S   UNL A   1      33.412  37.021  32.056  1.00  0.00     0.124 S 
ATOM     82  O   UNL A   1      32.953  37.499  30.754  1.00  0.00    -0.237 OA
ATOM     83  O   UNL A   1      32.381  36.489  32.941  1.00  0.00    -0.237 OA
ATOM     84  O   UNL A   1      34.418  37.862  32.702  1.00  0.00    -0.744 OA
ENDBRANCH  77  81
ENDBRANCH  60  74
BRANCH  61  85
ATOM     85  C   UNL A   1      44.749  31.837  36.818  1.00  0.00     0.023 A 
ATOM     86  C   UNL A   1      45.048  30.564  37.327  1.00  0.00     0.031 A 
ATOM     87  C   UNL A   1      45.671  32.872  37.055  1.00  0.00     0.131 A 
ATOM     88  C   UNL A   1      46.206  30.369  38.095  1.00  0.00     0.055 A 
ATOM     89  C   UNL A   1      46.854  32.660  37.768  1.00  0.00     0.041 A 
ATOM     90  F   UNL A   1      45.440  34.110  36.591  1.00  0.00    -0.206 F 
ATOM     91  C   UNL A   1      47.119  31.405  38.307  1.00  0.00     0.022 A 
BRANCH  88  92
ATOM     92  S   UNL A   1      46.451  28.765  38.906  1.00  0.00     0.124 S 
ATOM     93  O   UNL A   1      47.471  29.087  39.898  1.00  0.00    -0.237 OA
ATOM     94  O   UNL A   1      45.117  28.483  39.426  1.00  0.00    -0.237 OA
ATOM     95  O   UNL A   1      46.891  27.897  37.816  1.00  0.00    -0.744 OA
ENDBRANCH  88  92
ENDBRANCH  61  85
BRANCH  73  96
ATOM     96  C   UNL A   1      38.229  33.075  38.969  1.00  0.00     0.023 A 
ATOM     97  C   UNL A   1      38.477  34.104  39.892  1.00  0.00     0.031 A 
ATOM     98  C   UNL A   1      37.372  32.029  39.359  1.00  0.00     0.131 A 
ATOM     99  C   UNL A   1      37.923  34.037  41.180  1.00  0.00     0.055 A 
ATOM    100  C   UNL A   1      36.770  32.002  40.618  1.00  0.00     0.041 A 
ATOM    101  F   UNL A   1      37.102  31.017  38.519  1.00  0.00    -0.206 F 
ATOM    102  C   UNL A   1      37.056  33.003  41.541  1.00  0.00     0.022 A 
BRANCH  99 103
ATOM    103  S   UNL A   1      38.430  35.270  42.411  1.00  0.00     0.124 S 
ATOM    104  O   UNL A   1      39.659  34.685  42.937  1.00  0.00    -0.237 OA
ATOM    105  O   UNL A   1      38.592  36.472  41.599  1.00  0.00    -0.237 OA
ATOM    106  O   UNL A   1      37.307  35.301  43.346  1.00  0.00    -0.744 OA
ENDBRANCH  99 103
ENDBRANCH  73  96
ENDBRANCH  47  48
ENDBRANCH  39  42
ENDBRANCH  37  38
ENDBRANCH  36  37
ENDBRANCH  35  36
ENDBRANCH   3  35
TORSDOF 26
ENDMDL
MODEL 3
REMARK VINA RESULT:      -8.8      6.536     12.451
REMARK SMILES CCCC[C@@H](Sc1nc(OCCC2CCCCC2)cc(OCCC2CCCCC2)n1)C(=O)NCCCNC(=O)c1ccc(-c2c3nc(c(-c4cc(S(=O)(=O)[O-])ccc4F)c4ccc([nH]4)c(-c4cc(S(=O)(=O)[O-])ccc4F)c4nc(c(-c5cc(S(=O)(=O)[O-])ccc5F)c5ccc2[nH]5)C=C4)C=C3)cc1
REMARK SMILES IDX 31 1 32 2 33 3 5 5 4 6 3 7 2 8 1 9 6 10 7 11 8 12 30 13 9 14
REMARK SMILES IDX 20 15 19 16 10 17 11 18 12 19 13 20 14 21 18 22 15 23 17 24
REMARK SMILES IDX 16 25 21 26 22 27 23 28 24 29 25 30 29 31 26 32 28 33 27 34
REMARK SMILES IDX 34 35 35 36 36 37 37 38 38 39 39 41 40 42 41 43 102 44 42 45
REMARK SMILES IDX 101 46 43 47 44 48 45 49 95 50 46 51 100 52 94 53 96 54
REMARK SMILES IDX 47 55 99 56 93 57 92 58 48 60 80 61 60 62 79 63 61 64 64 65
REMARK SMILES IDX 78 66 97 67 62 68 63 69 77 71 98 72 65 73 49 74 50 75 58 76
REMARK SMILES IDX 51 77 57 78 59 79 56 80 52 81 53 82 54 83 55 84 81 85 82 86
REMARK SMILES IDX 90 87 83 88 89 89 91 90 88 91 84 92 85 93 86 94 87 95 66 96
REMARK SMILES IDX 67 97 75 98 68 99 74 100 76 101 73 102 69 103 70 104 71 105
REMARK SMILES IDX 72 106
REMARK H PARENT 33 4 37 40 96 59 64 70
REMARK Flexibility Score: inf
ROOT
ATOM      1  C   UNL A   1      50.535  25.710  27.753  1.00  0.00     0.233 C 
ATOM      2  O   UNL A   1      50.695  24.636  27.167  1.00  0.00    -0.274 OA
ATOM      3  N   UNL A   1      51.611  26.556  27.848  1.00  0.00    -0.355 N 
ATOM      4  H   UNL A   1      52.447  26.205  27.464  1.00  0.00     0.163 HD
ENDROOT
BRANCH   1   5
ATOM      5  C   UNL A   1      49.168  26.087  28.371  1.00  0.00     0.144 C 
BRANCH   5   6
ATOM      6  C   UNL A   1      49.476  26.510  29.835  1.00  0.00     0.025 C 
BRANCH   6   7
ATOM      7  C   UNL A   1      49.142  25.643  31.047  1.00  0.00     0.001 C 
BRANCH   7   8
ATOM      8  C   UNL A   1      50.281  24.881  31.720  1.00  0.00    -0.003 C 
ATOM      9  C   UNL A   1      49.832  24.090  32.933  1.00  0.00     0.004 C 
ENDBRANCH   7   8
ENDBRANCH   6   7
ENDBRANCH   5   6
BRANCH   5  10
ATOM     10  S   UNL A   1      48.412  27.169  27.028  1.00  0.00    -0.073 SA
BRANCH  10  11
ATOM     11  C   UNL A   1      46.822  26.485  26.730  1.00  0.00     0.195 A 
ATOM     12  N   UNL A   1      45.751  27.267  26.976  1.00  0.00    -0.187 NA
ATOM     13  N   UNL A   1      46.773  25.178  26.525  1.00  0.00    -0.187 NA
ATOM     14  C   UNL A   1      44.596  26.634  27.222  1.00  0.00     0.221 A 
ATOM     15  C   UNL A   1      45.627  24.585  26.818  1.00  0.00     0.221 A 
ATOM     16  C   UNL A   1      44.548  25.271  27.288  1.00  0.00     0.136 A 
BRANCH  14  17
ATOM     17  O   UNL A   1      43.496  27.447  27.358  1.00  0.00    -0.477 OA
BRANCH  17  18
ATOM     18  C   UNL A   1      43.180  28.364  26.302  1.00  0.00     0.231 C 
BRANCH  18  19
ATOM     19  C   UNL A   1      41.670  28.645  26.076  1.00  0.00     0.045 C 
BRANCH  19  20
ATOM     20  C   UNL A   1      40.686  27.749  26.844  1.00  0.00    -0.008 C 
ATOM     21  C   UNL A   1      40.843  26.245  26.575  1.00  0.00     0.004 C 
ATOM     22  C   UNL A   1      40.724  27.978  28.355  1.00  0.00     0.004 C 
ATOM     23  C   UNL A   1      39.665  25.476  27.188  1.00  0.00     0.000 C 
ATOM     24  C   UNL A   1      39.509  27.308  28.993  1.00  0.00     0.000 C 
ATOM     25  C   UNL A   1      39.410  25.819  28.658  1.00  0.00     0.000 C 
ENDBRANCH  19  20
ENDBRANCH  18  19
ENDBRANCH  17  18
ENDBRANCH  14  17
BRANCH  15  26
ATOM     26  O   UNL A   1      45.694  23.224  26.890  1.00  0.00    -0.477 OA
BRANCH  26  27
ATOM     27  C   UNL A   1      45.647  22.533  25.645  1.00  0.00     0.231 C 
BRANCH  27  28
ATOM     28  C   UNL A   1      44.180  22.515  25.167  1.00  0.00     0.045 C 
BRANCH  28  29
ATOM     29  C   UNL A   1      43.241  21.861  26.198  1.00  0.00    -0.008 C 
ATOM     30  C   UNL A   1      41.927  22.630  26.331  1.00  0.00     0.004 C 
ATOM     31  C   UNL A   1      42.874  20.402  25.916  1.00  0.00     0.004 C 
ATOM     32  C   UNL A   1      41.215  22.181  27.598  1.00  0.00     0.000 C 
ATOM     33  C   UNL A   1      42.042  19.837  27.083  1.00  0.00     0.000 C 
ATOM     34  C   UNL A   1      40.846  20.711  27.481  1.00  0.00     0.000 C 
ENDBRANCH  28  29
ENDBRANCH  27  28
ENDBRANCH  26  27
ENDBRANCH  15  26
ENDBRANCH  10  11
ENDBRANCH   5  10
ENDBRANCH   1   5
BRANCH   3  35
ATOM     35  C   UNL A   1      51.722  27.893  28.425  1.00  0.00     0.117 C 
BRANCH  35  36
ATOM     36  C   UNL A   1      52.956  28.638  27.924  1.00  0.00     0.042 C 
BRANCH  36  37
ATOM     37  C   UNL A   1      53.302  29.857  28.766  1.00  0.00     0.118 C 
BRANCH  37  38
ATOM     38  N   UNL A   1      53.443  31.058  27.953  1.00  0.00    -0.352 N 
ATOM     39  C   UNL A   1      52.479  31.887  27.446  1.00  0.00     0.251 C 
ATOM     40  H   UNL A   1      54.370  31.313  27.738  1.00  0.00     0.163 HD
ATOM     41  O   UNL A   1      52.788  32.720  26.589  1.00  0.00    -0.269 OA
BRANCH  39  42
ATOM     42  C   UNL A   1      51.081  31.773  27.905  1.00  0.00     0.039 A 
ATOM     43  C   UNL A   1      50.716  32.354  29.122  1.00  0.00     0.014 A 
ATOM     44  C   UNL A   1      50.131  31.086  27.143  1.00  0.00     0.014 A 
ATOM     45  C   UNL A   1      49.387  32.298  29.543  1.00  0.00     0.010 A 
ATOM     46  C   UNL A   1      48.793  31.108  27.520  1.00  0.00     0.010 A 
ATOM     47  C   UNL A   1      48.408  31.706  28.729  1.00  0.00    -0.014 A 
BRANCH  47  48
ATOM     48  C   UNL A   1      46.976  31.693  29.128  1.00  0.00     0.031 A 
ATOM     49  C   UNL A   1      46.118  32.904  28.881  1.00  0.00     0.074 A 
ATOM     50  C   UNL A   1      46.473  30.616  29.763  1.00  0.00     0.049 A 
ATOM     51  N   UNL A   1      44.876  33.122  29.228  1.00  0.00    -0.248 NA
ATOM     52  C   UNL A   1      46.752  34.032  28.179  1.00  0.00     0.031 C 
ATOM     53  C   UNL A   1      47.222  29.400  30.090  1.00  0.00     0.029 A 
ATOM     54  N   UNL A   1      45.216  30.371  30.256  1.00  0.00    -0.354 N 
ATOM     55  C   UNL A   1      44.583  34.413  28.801  1.00  0.00     0.074 A 
ATOM     56  C   UNL A   1      45.798  34.950  28.227  1.00  0.00     0.031 C 
ATOM     57  C   UNL A   1      46.405  28.531  30.703  1.00  0.00     0.029 A 
ATOM     58  C   UNL A   1      45.089  29.142  30.864  1.00  0.00     0.049 A 
ATOM     59  H   UNL A   1      44.475  31.013  30.182  1.00  0.00     0.167 HD
ATOM     60  C   UNL A   1      43.404  35.078  28.860  1.00  0.00     0.034 A 
ATOM     61  C   UNL A   1      44.039  28.580  31.494  1.00  0.00     0.034 A 
ATOM     62  C   UNL A   1      42.200  34.518  29.424  1.00  0.00     0.049 A 
ATOM     63  C   UNL A   1      42.745  29.354  31.573  1.00  0.00     0.074 A 
ATOM     64  C   UNL A   1      40.936  35.080  29.487  1.00  0.00     0.029 A 
ATOM     65  N   UNL A   1      42.109  33.272  30.031  1.00  0.00    -0.354 N 
ATOM     66  N   UNL A   1      42.471  30.554  31.115  1.00  0.00    -0.248 NA
ATOM     67  C   UNL A   1      41.618  28.692  32.242  1.00  0.00     0.031 C 
ATOM     68  C   UNL A   1      40.104  34.209  30.195  1.00  0.00     0.029 A 
ATOM     69  C   UNL A   1      40.821  33.063  30.500  1.00  0.00     0.049 A 
ATOM     70  H   UNL A   1      42.851  32.630  30.114  1.00  0.00     0.167 HD
ATOM     71  C   UNL A   1      41.129  30.774  31.413  1.00  0.00     0.074 A 
ATOM     72  C   UNL A   1      40.648  29.578  32.072  1.00  0.00     0.031 C 
ATOM     73  C   UNL A   1      40.359  31.866  31.162  1.00  0.00     0.034 A 
BRANCH  60  74
ATOM     74  C   UNL A   1      43.369  36.490  28.324  1.00  0.00     0.023 A 
ATOM     75  C   UNL A   1      43.811  37.584  29.090  1.00  0.00     0.031 A 
ATOM     76  C   UNL A   1      42.876  36.749  27.033  1.00  0.00     0.131 A 
ATOM     77  C   UNL A   1      43.686  38.887  28.588  1.00  0.00     0.055 A 
ATOM     78  C   UNL A   1      42.832  38.042  26.507  1.00  0.00     0.041 A 
ATOM     79  F   UNL A   1      42.418  35.750  26.262  1.00  0.00    -0.206 F 
ATOM     80  C   UNL A   1      43.226  39.122  27.291  1.00  0.00     0.022 A 
BRANCH  77  81
ATOM     81  S   UNL A   1      44.007  40.280  29.704  1.00  0.00     0.124 S 
ATOM     82  O   UNL A   1      43.107  41.299  29.168  1.00  0.00    -0.237 OA
ATOM     83  O   UNL A   1      43.646  39.731  31.006  1.00  0.00    -0.237 OA
ATOM     84  O   UNL A   1      45.430  40.553  29.512  1.00  0.00    -0.744 OA
ENDBRANCH  77  81
ENDBRANCH  60  74
BRANCH  61  85
ATOM     85  C   UNL A   1      44.159  27.229  32.115  1.00  0.00     0.023 A 
ATOM     86  C   UNL A   1      44.606  27.076  33.436  1.00  0.00     0.031 A 
ATOM     87  C   UNL A   1      43.879  26.065  31.377  1.00  0.00     0.131 A 
ATOM     88  C   UNL A   1      44.817  25.791  33.961  1.00  0.00     0.055 A 
ATOM     89  C   UNL A   1      44.032  24.789  31.924  1.00  0.00     0.041 A 
ATOM     90  F   UNL A   1      43.446  26.150  30.109  1.00  0.00    -0.206 F 
ATOM     91  C   UNL A   1      44.519  24.647  33.219  1.00  0.00     0.022 A 
BRANCH  88  92
ATOM     92  S   UNL A   1      45.590  25.638  35.595  1.00  0.00     0.124 S 
ATOM     93  O   UNL A   1      45.507  27.006  36.092  1.00  0.00    -0.237 OA
ATOM     94  O   UNL A   1      44.723  24.663  36.249  1.00  0.00    -0.237 OA
ATOM     95  O   UNL A   1      46.939  25.165  35.289  1.00  0.00    -0.744 OA
ENDBRANCH  88  92
ENDBRANCH  61  85
BRANCH  73  96
ATOM     96  C   UNL A   1      38.906  31.787  31.558  1.00  0.00     0.023 A 
ATOM     97  C   UNL A   1      38.384  32.542  32.622  1.00  0.00     0.031 A 
ATOM     98  C   UNL A   1      38.031  30.934  30.861  1.00  0.00     0.131 A 
ATOM     99  C   UNL A   1      37.040  32.387  32.996  1.00  0.00     0.055 A 
ATOM    100  C   UNL A   1      36.679  30.834  31.195  1.00  0.00     0.041 A 
ATOM    101  F   UNL A   1      38.475  30.186  29.838  1.00  0.00    -0.206 F 
ATOM    102  C   UNL A   1      36.181  31.553  32.277  1.00  0.00     0.022 A 
BRANCH  99 103
ATOM    103  S   UNL A   1      36.454  33.217  34.499  1.00  0.00     0.124 S 
ATOM    104  O   UNL A   1      35.005  33.105  34.361  1.00  0.00    -0.237 OA
ATOM    105  O   UNL A   1      37.058  32.411  35.556  1.00  0.00    -0.237 OA
ATOM    106  O   UNL A   1      36.987  34.571  34.373  1.00  0.00    -0.744 OA
ENDBRANCH  99 103
ENDBRANCH  73  96
ENDBRANCH  47  48
ENDBRANCH  39  42
ENDBRANCH  37  38
ENDBRANCH  36  37
ENDBRANCH  35  36
ENDBRANCH   3  35
TORSDOF 26
ENDMDL
