MODEL 1
REMARK VINA RESULT:     -12.8      0.000      0.000
REMARK SMILES COc1ccc(/C=C2/C(=O)N(c3ccccc3)C(=O)[NH+]=C2NCCCNC(=O)c2ccc(-c3c4nc(c(-c5cc(S(=O)(=O)[O-])ccc5F)c5ccc([nH]5)c(-c5cc(S(=O)(=O)[O-])ccc5F)c5nc(c(-c6cc(S(=O)(=O)[O-])ccc6F)c6ccc3[nH]6)C=C5)C=C4)cc2)cc1C(=O)[O-]
REMARK SMILES IDX 25 1 24 2 23 3 22 4 7 5 8 6 9 7 21 8 10 9 11 10 20 11 18 12
REMARK SMILES IDX 19 15 6 16 3 17 4 18 93 19 5 20 92 21 2 22 1 23 94 24 95 25
REMARK SMILES IDX 96 26 12 27 13 28 17 29 14 30 16 31 15 32 26 33 27 34 28 36
REMARK SMILES IDX 29 37 30 38 91 39 31 40 90 41 32 42 33 43 34 44 84 45 35 46
REMARK SMILES IDX 89 47 83 48 85 49 36 50 88 51 82 52 81 53 37 55 69 56 49 57
REMARK SMILES IDX 68 58 50 59 53 60 67 61 86 62 51 63 52 64 66 66 87 67 54 68
REMARK SMILES IDX 38 69 39 70 47 71 40 72 46 73 48 74 45 75 41 76 42 77 43 78
REMARK SMILES IDX 44 79 70 80 71 81 79 82 72 83 78 84 80 85 77 86 73 87 74 88
REMARK SMILES IDX 75 89 76 90 55 91 56 92 64 93 57 94 63 95 65 96 62 97 58 98
REMARK SMILES IDX 59 99 60 100 61 101
REMARK H PARENT 20 13 22 14 26 35 85 54 53 65
REMARK Flexibility Score: inf
ROOT
ATOM      1  C   UNL A   1      33.188  29.102  26.989  1.00  0.00     0.119 C 
ENDROOT
BRANCH   1   2
ATOM      2  C   UNL A   1      31.998  28.695  26.129  1.00  0.00     0.059 C 
BRANCH   2   3
ATOM      3  C   UNL A   1      31.174  27.619  26.797  1.00  0.00     0.195 C 
BRANCH   3   4
ATOM      4  N   UNL A   1      31.783  26.334  26.749  1.00  0.00    -0.305 N 
ATOM      5  C   UNL A   1      31.307  25.602  23.415  1.00  0.00     0.030 C 
ATOM      6  C   UNL A   1      31.781  24.921  24.492  1.00  0.00     0.129 C 
ATOM      7  C   UNL A   1      32.281  23.525  24.104  1.00  0.00     0.328 C 
ATOM      8  C   UNL A   1      31.917  25.243  25.949  1.00  0.00     0.236 C 
ATOM      9  O   UNL A   1      32.328  23.193  22.915  1.00  0.00    -0.249 OA
ATOM     10  N   UNL A   1      32.636  22.667  25.140  1.00  0.00    -0.155 N 
ATOM     11  N   UNL A   1      32.300  24.323  26.793  1.00  0.00    -0.209 N 
ATOM     12  C   UNL A   1      32.611  23.047  26.477  1.00  0.00     0.448 C 
ATOM     13  H   UNL A   1      32.367  24.581  27.741  1.00  0.00     0.270 HD
ATOM     14  H   UNL A   1      32.279  26.182  27.585  1.00  0.00     0.256 HD
ATOM     15  O   UNL A   1      32.933  22.305  27.401  1.00  0.00    -0.212 OA
BRANCH   5  16
ATOM     16  C   UNL A   1      30.727  26.932  23.158  1.00  0.00    -0.024 A 
ATOM     17  C   UNL A   1      29.607  29.496  22.853  1.00  0.00     0.127 A 
ATOM     18  C   UNL A   1      30.890  29.219  22.383  1.00  0.00     0.048 A 
ATOM     19  C   UNL A   1      28.787  28.439  23.247  1.00  0.00     0.040 A 
ATOM     20  C   UNL A   1      31.410  27.922  22.467  1.00  0.00     0.012 A 
ATOM     21  C   UNL A   1      29.373  27.175  23.465  1.00  0.00     0.022 A 
BRANCH  17  22
ATOM     22  O   UNL A   1      29.236  30.813  22.860  1.00  0.00    -0.496 OA
ATOM     23  C   UNL A   1      29.050  31.301  21.524  1.00  0.00     0.278 C 
ENDBRANCH  17  22
BRANCH  19  24
ATOM     24  C   UNL A   1      27.309  28.547  23.368  1.00  0.00     0.075 C 
ATOM     25  O   UNL A   1      26.649  29.523  23.078  1.00  0.00    -0.545 OA
ATOM     26  O   UNL A   1      26.751  27.478  23.968  1.00  0.00    -0.545 OA
ENDBRANCH  19  24
ENDBRANCH   5  16
BRANCH  10  27
ATOM     27  C   UNL A   1      33.142  21.349  24.848  1.00  0.00     0.111 A 
ATOM     28  C   UNL A   1      32.264  20.267  24.657  1.00  0.00     0.044 A 
ATOM     29  C   UNL A   1      34.520  21.086  24.865  1.00  0.00     0.044 A 
ATOM     30  C   UNL A   1      32.740  18.959  24.542  1.00  0.00     0.004 A 
ATOM     31  C   UNL A   1      34.996  19.775  24.761  1.00  0.00     0.004 A 
ATOM     32  C   UNL A   1      34.107  18.713  24.610  1.00  0.00     0.000 A 
ENDBRANCH  10  27
ENDBRANCH   3   4
ENDBRANCH   2   3
ENDBRANCH   1   2
BRANCH   1  33
ATOM     33  N   UNL A   1      33.286  30.526  27.280  1.00  0.00    -0.352 N 
ATOM     34  C   UNL A   1      34.324  31.241  27.832  1.00  0.00     0.251 C 
ATOM     35  H   UNL A   1      32.490  31.057  27.047  1.00  0.00     0.163 HD
ATOM     36  O   UNL A   1      34.185  32.448  28.009  1.00  0.00    -0.269 OA
BRANCH  34  37
ATOM     37  C   UNL A   1      35.565  30.556  28.257  1.00  0.00     0.039 A 
ATOM     38  C   UNL A   1      36.767  30.884  27.621  1.00  0.00     0.014 A 
ATOM     39  C   UNL A   1      35.562  29.619  29.290  1.00  0.00     0.014 A 
ATOM     40  C   UNL A   1      37.968  30.338  28.079  1.00  0.00     0.010 A 
ATOM     41  C   UNL A   1      36.761  29.159  29.813  1.00  0.00     0.010 A 
ATOM     42  C   UNL A   1      37.977  29.501  29.205  1.00  0.00    -0.014 A 
BRANCH  42  43
ATOM     43  C   UNL A   1      39.225  28.907  29.743  1.00  0.00     0.031 A 
ATOM     44  C   UNL A   1      39.898  29.567  30.917  1.00  0.00     0.074 A 
ATOM     45  C   UNL A   1      39.801  27.863  29.117  1.00  0.00     0.049 A 
ATOM     46  N   UNL A   1      41.078  29.342  31.434  1.00  0.00    -0.248 NA
ATOM     47  C   UNL A   1      39.161  30.668  31.558  1.00  0.00     0.031 C 
ATOM     48  C   UNL A   1      39.263  27.177  27.940  1.00  0.00     0.029 A 
ATOM     49  N   UNL A   1      40.980  27.211  29.370  1.00  0.00    -0.354 N 
ATOM     50  C   UNL A   1      41.238  30.298  32.433  1.00  0.00     0.074 A 
ATOM     51  C   UNL A   1      40.066  31.145  32.396  1.00  0.00     0.031 C 
ATOM     52  C   UNL A   1      40.101  26.190  27.585  1.00  0.00     0.029 A 
ATOM     53  C   UNL A   1      41.257  26.201  28.477  1.00  0.00     0.049 A 
ATOM     54  H   UNL A   1      41.573  27.443  30.121  1.00  0.00     0.167 HD
ATOM     55  C   UNL A   1      42.256  30.436  33.317  1.00  0.00     0.034 A 
ATOM     56  C   UNL A   1      42.327  25.388  28.386  1.00  0.00     0.034 A 
ATOM     57  C   UNL A   1      43.392  29.552  33.360  1.00  0.00     0.049 A 
ATOM     58  C   UNL A   1      43.438  25.543  29.395  1.00  0.00     0.074 A 
ATOM     59  C   UNL A   1      44.452  29.547  34.248  1.00  0.00     0.029 A 
ATOM     60  N   UNL A   1      43.612  28.505  32.472  1.00  0.00    -0.354 N 
ATOM     61  N   UNL A   1      43.558  26.423  30.363  1.00  0.00    -0.248 NA
ATOM     62  C   UNL A   1      44.549  24.588  29.307  1.00  0.00     0.031 C 
ATOM     63  C   UNL A   1      45.338  28.532  33.867  1.00  0.00     0.029 A 
ATOM     64  C   UNL A   1      44.798  27.859  32.781  1.00  0.00     0.049 A 
ATOM     65  H   UNL A   1      43.013  28.258  31.731  1.00  0.00     0.167 HD
ATOM     66  C   UNL A   1      44.742  26.104  31.021  1.00  0.00     0.074 A 
ATOM     67  C   UNL A   1      45.292  24.947  30.343  1.00  0.00     0.031 C 
ATOM     68  C   UNL A   1      45.323  26.707  32.089  1.00  0.00     0.034 A 
BRANCH  55  69
ATOM     69  C   UNL A   1      42.178  31.592  34.288  1.00  0.00     0.023 A 
ATOM     70  C   UNL A   1      41.333  31.556  35.411  1.00  0.00     0.031 A 
ATOM     71  C   UNL A   1      42.914  32.768  34.060  1.00  0.00     0.131 A 
ATOM     72  C   UNL A   1      41.167  32.701  36.203  1.00  0.00     0.055 A 
ATOM     73  C   UNL A   1      42.816  33.874  34.907  1.00  0.00     0.041 A 
ATOM     74  F   UNL A   1      43.723  32.873  32.994  1.00  0.00    -0.206 F 
ATOM     75  C   UNL A   1      41.924  33.853  35.975  1.00  0.00     0.022 A 
BRANCH  72  76
ATOM     76  S   UNL A   1      39.829  32.719  37.427  1.00  0.00     0.124 S 
ATOM     77  O   UNL A   1      40.568  32.519  38.672  1.00  0.00    -0.237 OA
ATOM     78  O   UNL A   1      39.243  34.041  37.237  1.00  0.00    -0.237 OA
ATOM     79  O   UNL A   1      38.982  31.597  37.026  1.00  0.00    -0.744 OA
ENDBRANCH  72  76
ENDBRANCH  55  69
BRANCH  56  80
ATOM     80  C   UNL A   1      42.405  24.357  27.314  1.00  0.00     0.023 A 
ATOM     81  C   UNL A   1      41.638  23.182  27.391  1.00  0.00     0.031 A 
ATOM     82  C   UNL A   1      43.267  24.511  26.215  1.00  0.00     0.131 A 
ATOM     83  C   UNL A   1      41.783  22.187  26.412  1.00  0.00     0.055 A 
ATOM     84  C   UNL A   1      43.371  23.539  25.218  1.00  0.00     0.041 A 
ATOM     85  F   UNL A   1      44.012  25.621  26.088  1.00  0.00    -0.206 F 
ATOM     86  C   UNL A   1      42.636  22.362  25.320  1.00  0.00     0.022 A 
BRANCH  83  87
ATOM     87  S   UNL A   1      40.890  20.623  26.629  1.00  0.00     0.124 S 
ATOM     88  O   UNL A   1      39.605  20.926  26.013  1.00  0.00    -0.237 OA
ATOM     89  O   UNL A   1      41.745  19.686  25.906  1.00  0.00    -0.237 OA
ATOM     90  O   UNL A   1      40.863  20.445  28.080  1.00  0.00    -0.744 OA
ENDBRANCH  83  87
ENDBRANCH  56  80
BRANCH  68  91
ATOM     91  C   UNL A   1      46.590  26.085  32.618  1.00  0.00     0.023 A 
ATOM     92  C   UNL A   1      46.567  25.085  33.605  1.00  0.00     0.031 A 
ATOM     93  C   UNL A   1      47.837  26.504  32.125  1.00  0.00     0.131 A 
ATOM     94  C   UNL A   1      47.772  24.571  34.103  1.00  0.00     0.055 A 
ATOM     95  C   UNL A   1      49.032  25.950  32.584  1.00  0.00     0.041 A 
ATOM     96  F   UNL A   1      47.914  27.457  31.181  1.00  0.00    -0.206 F 
ATOM     97  C   UNL A   1      49.004  24.985  33.588  1.00  0.00     0.022 A 
BRANCH  94  98
ATOM     98  S   UNL A   1      47.713  23.408  35.493  1.00  0.00     0.124 S 
ATOM     99  O   UNL A   1      47.711  24.306  36.642  1.00  0.00    -0.237 OA
ATOM    100  O   UNL A   1      46.469  22.687  35.244  1.00  0.00    -0.237 OA
ATOM    101  O   UNL A   1      48.930  22.615  35.327  1.00  0.00    -0.744 OA
ENDBRANCH  94  98
ENDBRANCH  68  91
ENDBRANCH  42  43
ENDBRANCH  34  37
ENDBRANCH   1  33
TORSDOF 16
ENDMDL
MODEL 2
REMARK VINA RESULT:     -12.7      4.691     10.186
REMARK SMILES COc1ccc(/C=C2/C(=O)N(c3ccccc3)C(=O)[NH+]=C2NCCCNC(=O)c2ccc(-c3c4nc(c(-c5cc(S(=O)(=O)[O-])ccc5F)c5ccc([nH]5)c(-c5cc(S(=O)(=O)[O-])ccc5F)c5nc(c(-c6cc(S(=O)(=O)[O-])ccc6F)c6ccc3[nH]6)C=C5)C=C4)cc2)cc1C(=O)[O-]
REMARK SMILES IDX 25 1 24 2 23 3 22 4 7 5 8 6 9 7 21 8 10 9 11 10 20 11 18 12
REMARK SMILES IDX 19 15 6 16 3 17 4 18 93 19 5 20 92 21 2 22 1 23 94 24 95 25
REMARK SMILES IDX 96 26 12 27 13 28 17 29 14 30 16 31 15 32 26 33 27 34 28 36
REMARK SMILES IDX 29 37 30 38 91 39 31 40 90 41 32 42 33 43 34 44 84 45 35 46
REMARK SMILES IDX 89 47 83 48 85 49 36 50 88 51 82 52 81 53 37 55 69 56 49 57
REMARK SMILES IDX 68 58 50 59 53 60 67 61 86 62 51 63 52 64 66 66 87 67 54 68
REMARK SMILES IDX 38 69 39 70 47 71 40 72 46 73 48 74 45 75 41 76 42 77 43 78
REMARK SMILES IDX 44 79 70 80 71 81 79 82 72 83 78 84 80 85 77 86 73 87 74 88
REMARK SMILES IDX 75 89 76 90 55 91 56 92 64 93 57 94 63 95 65 96 62 97 58 98
REMARK SMILES IDX 59 99 60 100 61 101
REMARK H PARENT 20 13 22 14 26 35 85 54 53 65
REMARK Flexibility Score: inf
ROOT
ATOM      1  C   UNL A   1      37.142  22.151  25.807  1.00  0.00     0.119 C 
ENDROOT
BRANCH   1   2
ATOM      2  C   UNL A   1      35.970  21.535  25.053  1.00  0.00     0.059 C 
BRANCH   2   3
ATOM      3  C   UNL A   1      35.834  22.121  23.666  1.00  0.00     0.195 C 
BRANCH   3   4
ATOM      4  N   UNL A   1      35.233  23.410  23.658  1.00  0.00    -0.305 N 
ATOM      5  C   UNL A   1      31.993  22.535  24.438  1.00  0.00     0.030 C 
ATOM      6  C   UNL A   1      32.618  23.686  24.074  1.00  0.00     0.129 C 
ATOM      7  C   UNL A   1      31.657  24.879  24.081  1.00  0.00     0.328 C 
ATOM      8  C   UNL A   1      34.022  24.026  23.675  1.00  0.00     0.236 C 
ATOM      9  O   UNL A   1      30.505  24.743  24.505  1.00  0.00    -0.249 OA
ATOM     10  N   UNL A   1      32.132  26.082  23.566  1.00  0.00    -0.155 N 
ATOM     11  N   UNL A   1      34.310  25.224  23.242  1.00  0.00    -0.209 N 
ATOM     12  C   UNL A   1      33.436  26.245  23.115  1.00  0.00     0.448 C 
ATOM     13  H   UNL A   1      35.245  25.396  22.985  1.00  0.00     0.270 HD
ATOM     14  H   UNL A   1      35.941  24.094  23.629  1.00  0.00     0.256 HD
ATOM     15  O   UNL A   1      33.875  27.303  22.669  1.00  0.00    -0.212 OA
BRANCH   5  16
ATOM     16  C   UNL A   1      32.370  21.123  24.622  1.00  0.00    -0.024 A 
ATOM     17  C   UNL A   1      33.253  18.464  24.890  1.00  0.00     0.127 A 
ATOM     18  C   UNL A   1      32.969  19.236  26.015  1.00  0.00     0.048 A 
ATOM     19  C   UNL A   1      32.860  18.926  23.634  1.00  0.00     0.040 A 
ATOM     20  C   UNL A   1      32.455  20.531  25.874  1.00  0.00     0.012 A 
ATOM     21  C   UNL A   1      32.487  20.279  23.499  1.00  0.00     0.022 A 
BRANCH  17  22
ATOM     22  O   UNL A   1      33.882  17.270  25.119  1.00  0.00    -0.496 OA
ATOM     23  C   UNL A   1      32.990  16.330  25.734  1.00  0.00     0.278 C 
ENDBRANCH  17  22
BRANCH  19  24
ATOM     24  C   UNL A   1      32.728  18.049  22.440  1.00  0.00     0.075 C 
ATOM     25  O   UNL A   1      31.809  18.075  21.648  1.00  0.00    -0.545 OA
ATOM     26  O   UNL A   1      33.683  17.102  22.374  1.00  0.00    -0.545 OA
ENDBRANCH  19  24
ENDBRANCH   5  16
BRANCH  10  27
ATOM     27  C   UNL A   1      31.292  27.253  23.568  1.00  0.00     0.111 A 
ATOM     28  C   UNL A   1      30.460  27.545  22.472  1.00  0.00     0.044 A 
ATOM     29  C   UNL A   1      31.371  28.193  24.606  1.00  0.00     0.044 A 
ATOM     30  C   UNL A   1      29.772  28.757  22.387  1.00  0.00     0.004 A 
ATOM     31  C   UNL A   1      30.690  29.412  24.515  1.00  0.00     0.004 A 
ATOM     32  C   UNL A   1      29.901  29.698  23.403  1.00  0.00     0.000 A 
ENDBRANCH  10  27
ENDBRANCH   3   4
ENDBRANCH   2   3
ENDBRANCH   1   2
BRANCH   1  33
ATOM     33  N   UNL A   1      38.286  21.271  26.005  1.00  0.00    -0.352 N 
ATOM     34  C   UNL A   1      39.537  21.554  26.500  1.00  0.00     0.251 C 
ATOM     35  H   UNL A   1      38.141  20.332  25.745  1.00  0.00     0.163 HD
ATOM     36  O   UNL A   1      40.368  20.652  26.564  1.00  0.00    -0.269 OA
BRANCH  34  37
ATOM     37  C   UNL A   1      39.894  22.935  26.894  1.00  0.00     0.039 A 
ATOM     38  C   UNL A   1      40.741  23.125  27.991  1.00  0.00     0.014 A 
ATOM     39  C   UNL A   1      39.427  24.040  26.182  1.00  0.00     0.014 A 
ATOM     40  C   UNL A   1      41.185  24.409  28.315  1.00  0.00     0.010 A 
ATOM     41  C   UNL A   1      39.949  25.299  26.436  1.00  0.00     0.010 A 
ATOM     42  C   UNL A   1      40.822  25.501  27.514  1.00  0.00    -0.014 A 
BRANCH  42  43
ATOM     43  C   UNL A   1      41.277  26.884  27.802  1.00  0.00     0.031 A 
ATOM     44  C   UNL A   1      42.694  27.268  27.469  1.00  0.00     0.074 A 
ATOM     45  C   UNL A   1      40.467  27.739  28.454  1.00  0.00     0.049 A 
ATOM     46  N   UNL A   1      43.363  28.343  27.795  1.00  0.00    -0.248 NA
ATOM     47  C   UNL A   1      43.478  26.278  26.714  1.00  0.00     0.031 C 
ATOM     48  C   UNL A   1      39.091  27.455  28.871  1.00  0.00     0.029 A 
ATOM     49  N   UNL A   1      40.691  29.016  28.902  1.00  0.00    -0.354 N 
ATOM     50  C   UNL A   1      44.654  28.140  27.319  1.00  0.00     0.074 A 
ATOM     51  C   UNL A   1      44.688  26.811  26.748  1.00  0.00     0.031 C 
ATOM     52  C   UNL A   1      38.590  28.533  29.497  1.00  0.00     0.029 A 
ATOM     53  C   UNL A   1      39.620  29.565  29.568  1.00  0.00     0.049 A 
ATOM     54  H   UNL A   1      41.540  29.494  28.758  1.00  0.00     0.167 HD
ATOM     55  C   UNL A   1      45.705  28.996  27.330  1.00  0.00     0.034 A 
ATOM     56  C   UNL A   1      39.494  30.761  30.176  1.00  0.00     0.034 A 
ATOM     57  C   UNL A   1      45.633  30.331  27.867  1.00  0.00     0.049 A 
ATOM     58  C   UNL A   1      40.667  31.707  30.156  1.00  0.00     0.074 A 
ATOM     59  C   UNL A   1      46.605  31.313  27.878  1.00  0.00     0.029 A 
ATOM     60  N   UNL A   1      44.513  30.873  28.487  1.00  0.00    -0.354 N 
ATOM     61  N   UNL A   1      41.870  31.522  29.663  1.00  0.00    -0.248 NA
ATOM     62  C   UNL A   1      40.461  33.029  30.762  1.00  0.00     0.031 C 
ATOM     63  C   UNL A   1      46.093  32.430  28.548  1.00  0.00     0.029 A 
ATOM     64  C   UNL A   1      44.776  32.169  28.898  1.00  0.00     0.049 A 
ATOM     65  H   UNL A   1      43.657  30.404  28.616  1.00  0.00     0.167 HD
ATOM     66  C   UNL A   1      42.554  32.716  29.870  1.00  0.00     0.074 A 
ATOM     67  C   UNL A   1      41.624  33.616  30.524  1.00  0.00     0.031 C 
ATOM     68  C   UNL A   1      43.830  33.045  29.548  1.00  0.00     0.034 A 
BRANCH  55  69
ATOM     69  C   UNL A   1      47.012  28.497  26.758  1.00  0.00     0.023 A 
ATOM     70  C   UNL A   1      47.226  28.413  25.371  1.00  0.00     0.031 A 
ATOM     71  C   UNL A   1      48.038  28.044  27.606  1.00  0.00     0.131 A 
ATOM     72  C   UNL A   1      48.385  27.801  24.874  1.00  0.00     0.055 A 
ATOM     73  C   UNL A   1      49.232  27.521  27.105  1.00  0.00     0.041 A 
ATOM     74  F   UNL A   1      47.888  28.078  28.940  1.00  0.00    -0.206 F 
ATOM     75  C   UNL A   1      49.403  27.379  25.731  1.00  0.00     0.022 A 
BRANCH  72  76
ATOM     76  S   UNL A   1      48.467  27.414  23.104  1.00  0.00     0.124 S 
ATOM     77  O   UNL A   1      49.807  27.886  22.762  1.00  0.00    -0.237 OA
ATOM     78  O   UNL A   1      48.275  25.969  23.087  1.00  0.00    -0.237 OA
ATOM     79  O   UNL A   1      47.373  28.196  22.531  1.00  0.00    -0.744 OA
ENDBRANCH  72  76
ENDBRANCH  55  69
BRANCH  56  80
ATOM     80  C   UNL A   1      38.217  31.137  30.845  1.00  0.00     0.023 A 
ATOM     81  C   UNL A   1      37.212  31.822  30.143  1.00  0.00     0.031 A 
ATOM     82  C   UNL A   1      37.993  30.848  32.203  1.00  0.00     0.131 A 
ATOM     83  C   UNL A   1      36.049  32.237  30.810  1.00  0.00     0.055 A 
ATOM     84  C   UNL A   1      36.814  31.221  32.851  1.00  0.00     0.041 A 
ATOM     85  F   UNL A   1      38.917  30.185  32.916  1.00  0.00    -0.206 F 
ATOM     86  C   UNL A   1      35.839  31.931  32.158  1.00  0.00     0.022 A 
BRANCH  83  87
ATOM     87  S   UNL A   1      34.846  33.250  29.907  1.00  0.00     0.124 S 
ATOM     88  O   UNL A   1      35.713  34.194  29.214  1.00  0.00    -0.237 OA
ATOM     89  O   UNL A   1      34.182  32.254  29.072  1.00  0.00    -0.237 OA
ATOM     90  O   UNL A   1      34.019  33.821  30.968  1.00  0.00    -0.744 OA
ENDBRANCH  83  87
ENDBRANCH  56  80
BRANCH  68  91
ATOM     91  C   UNL A   1      44.270  34.455  29.850  1.00  0.00     0.023 A 
ATOM     92  C   UNL A   1      44.085  35.500  28.930  1.00  0.00     0.031 A 
ATOM     93  C   UNL A   1      44.883  34.751  31.079  1.00  0.00     0.131 A 
ATOM     94  C   UNL A   1      44.555  36.785  29.233  1.00  0.00     0.055 A 
ATOM     95  C   UNL A   1      45.298  36.043  31.399  1.00  0.00     0.041 A 
ATOM     96  F   UNL A   1      45.083  33.787  31.993  1.00  0.00    -0.206 F 
ATOM     97  C   UNL A   1      45.146  37.067  30.468  1.00  0.00     0.022 A 
BRANCH  94  98
ATOM     98  S   UNL A   1      44.454  38.071  27.959  1.00  0.00     0.124 S 
ATOM     99  O   UNL A   1      44.882  39.259  28.690  1.00  0.00    -0.237 OA
ATOM    100  O   UNL A   1      45.380  37.579  26.944  1.00  0.00    -0.237 OA
ATOM    101  O   UNL A   1      43.045  38.057  27.569  1.00  0.00    -0.744 OA
ENDBRANCH  94  98
ENDBRANCH  68  91
ENDBRANCH  42  43
ENDBRANCH  34  37
ENDBRANCH   1  33
TORSDOF 16
ENDMDL
MODEL 3
REMARK VINA RESULT:     -12.7      4.827      8.593
REMARK SMILES COc1ccc(/C=C2/C(=O)N(c3ccccc3)C(=O)[NH+]=C2NCCCNC(=O)c2ccc(-c3c4nc(c(-c5cc(S(=O)(=O)[O-])ccc5F)c5ccc([nH]5)c(-c5cc(S(=O)(=O)[O-])ccc5F)c5nc(c(-c6cc(S(=O)(=O)[O-])ccc6F)c6ccc3[nH]6)C=C5)C=C4)cc2)cc1C(=O)[O-]
REMARK SMILES IDX 25 1 24 2 23 3 22 4 7 5 8 6 9 7 21 8 10 9 11 10 20 11 18 12
REMARK SMILES IDX 19 15 6 16 3 17 4 18 93 19 5 20 92 21 2 22 1 23 94 24 95 25
REMARK SMILES IDX 96 26 12 27 13 28 17 29 14 30 16 31 15 32 26 33 27 34 28 36
REMARK SMILES IDX 29 37 30 38 91 39 31 40 90 41 32 42 33 43 34 44 84 45 35 46
REMARK SMILES IDX 89 47 83 48 85 49 36 50 88 51 82 52 81 53 37 55 69 56 49 57
REMARK SMILES IDX 68 58 50 59 53 60 67 61 86 62 51 63 52 64 66 66 87 67 54 68
REMARK SMILES IDX 38 69 39 70 47 71 40 72 46 73 48 74 45 75 41 76 42 77 43 78
REMARK SMILES IDX 44 79 70 80 71 81 79 82 72 83 78 84 80 85 77 86 73 87 74 88
REMARK SMILES IDX 75 89 76 90 55 91 56 92 64 93 57 94 63 95 65 96 62 97 58 98
REMARK SMILES IDX 59 99 60 100 61 101
REMARK H PARENT 20 13 22 14 26 35 85 54 53 65
REMARK Flexibility Score: inf
ROOT
ATOM      1  C   UNL A   1      37.420  21.588  24.766  1.00  0.00     0.119 C 
ENDROOT
BRANCH   1   2
ATOM      2  C   UNL A   1      35.926  21.444  25.026  1.00  0.00     0.059 C 
BRANCH   2   3
ATOM      3  C   UNL A   1      35.506  22.188  26.273  1.00  0.00     0.195 C 
BRANCH   3   4
ATOM      4  N   UNL A   1      34.926  23.459  26.000  1.00  0.00    -0.305 N 
ATOM      5  C   UNL A   1      32.080  22.443  24.344  1.00  0.00     0.030 C 
ATOM      6  C   UNL A   1      32.666  23.641  24.605  1.00  0.00     0.129 C 
ATOM      7  C   UNL A   1      31.816  24.810  24.094  1.00  0.00     0.328 C 
ATOM      8  C   UNL A   1      33.943  24.051  25.273  1.00  0.00     0.236 C 
ATOM      9  O   UNL A   1      30.690  24.601  23.633  1.00  0.00    -0.249 OA
ATOM     10  N   UNL A   1      32.383  26.080  24.149  1.00  0.00    -0.155 N 
ATOM     11  N   UNL A   1      34.317  25.303  25.264  1.00  0.00    -0.209 N 
ATOM     12  C   UNL A   1      33.638  26.322  24.694  1.00  0.00     0.448 C 
ATOM     13  H   UNL A   1      35.168  25.521  25.710  1.00  0.00     0.270 HD
ATOM     14  H   UNL A   1      35.404  24.147  26.516  1.00  0.00     0.256 HD
ATOM     15  O   UNL A   1      34.148  27.438  24.761  1.00  0.00    -0.212 OA
BRANCH   5  16
ATOM     16  C   UNL A   1      32.389  21.023  24.587  1.00  0.00    -0.024 A 
ATOM     17  C   UNL A   1      33.152  18.343  24.979  1.00  0.00     0.127 A 
ATOM     18  C   UNL A   1      32.807  19.150  26.062  1.00  0.00     0.048 A 
ATOM     19  C   UNL A   1      32.878  18.789  23.687  1.00  0.00     0.040 A 
ATOM     20  C   UNL A   1      32.353  20.458  25.853  1.00  0.00     0.012 A 
ATOM     21  C   UNL A   1      32.566  20.150  23.495  1.00  0.00     0.022 A 
BRANCH  17  22
ATOM     22  O   UNL A   1      33.717  17.133  25.282  1.00  0.00    -0.496 OA
ATOM     23  C   UNL A   1      32.713  16.169  25.625  1.00  0.00     0.278 C 
ENDBRANCH  17  22
BRANCH  19  24
ATOM     24  C   UNL A   1      32.810  17.890  22.504  1.00  0.00     0.075 C 
ATOM     25  O   UNL A   1      31.877  17.813  21.732  1.00  0.00    -0.545 OA
ATOM     26  O   UNL A   1      33.855  17.044  22.425  1.00  0.00    -0.545 OA
ENDBRANCH  19  24
ENDBRANCH   5  16
BRANCH  10  27
ATOM     27  C   UNL A   1      31.630  27.229  23.714  1.00  0.00     0.111 A 
ATOM     28  C   UNL A   1      31.141  28.165  24.643  1.00  0.00     0.044 A 
ATOM     29  C   UNL A   1      31.262  27.381  22.369  1.00  0.00     0.044 A 
ATOM     30  C   UNL A   1      30.271  29.185  24.255  1.00  0.00     0.004 A 
ATOM     31  C   UNL A   1      30.381  28.397  21.982  1.00  0.00     0.004 A 
ATOM     32  C   UNL A   1      29.878  29.290  22.926  1.00  0.00     0.000 A 
ENDBRANCH  10  27
ENDBRANCH   3   4
ENDBRANCH   2   3
ENDBRANCH   1   2
BRANCH   1  33
ATOM     33  N   UNL A   1      38.244  20.487  25.248  1.00  0.00    -0.352 N 
ATOM     34  C   UNL A   1      39.369  20.512  26.039  1.00  0.00     0.251 C 
ATOM     35  H   UNL A   1      37.952  19.591  24.963  1.00  0.00     0.163 HD
ATOM     36  O   UNL A   1      39.925  19.452  26.312  1.00  0.00    -0.269 OA
BRANCH  34  37
ATOM     37  C   UNL A   1      39.931  21.799  26.505  1.00  0.00     0.039 A 
ATOM     38  C   UNL A   1      40.978  21.780  27.432  1.00  0.00     0.014 A 
ATOM     39  C   UNL A   1      39.458  23.019  26.021  1.00  0.00     0.014 A 
ATOM     40  C   UNL A   1      41.602  22.973  27.803  1.00  0.00     0.010 A 
ATOM     41  C   UNL A   1      40.143  24.190  26.305  1.00  0.00     0.010 A 
ATOM     42  C   UNL A   1      41.213  24.183  27.210  1.00  0.00    -0.014 A 
BRANCH  42  43
ATOM     43  C   UNL A   1      41.852  25.478  27.554  1.00  0.00     0.031 A 
ATOM     44  C   UNL A   1      41.062  26.494  28.336  1.00  0.00     0.074 A 
ATOM     45  C   UNL A   1      43.074  25.776  27.075  1.00  0.00     0.049 A 
ATOM     46  N   UNL A   1      41.338  27.747  28.589  1.00  0.00    -0.248 NA
ATOM     47  C   UNL A   1      39.759  26.049  28.855  1.00  0.00     0.031 C 
ATOM     48  C   UNL A   1      43.909  24.887  26.264  1.00  0.00     0.029 A 
ATOM     49  N   UNL A   1      43.819  26.923  27.181  1.00  0.00    -0.354 N 
ATOM     50  C   UNL A   1      40.227  28.248  29.259  1.00  0.00     0.074 A 
ATOM     51  C   UNL A   1      39.249  27.182  29.308  1.00  0.00     0.031 C 
ATOM     52  C   UNL A   1      45.057  25.515  25.962  1.00  0.00     0.029 A 
ATOM     53  C   UNL A   1      45.022  26.865  26.517  1.00  0.00     0.049 A 
ATOM     54  H   UNL A   1      43.521  27.713  27.688  1.00  0.00     0.167 HD
ATOM     55  C   UNL A   1      40.052  29.474  29.810  1.00  0.00     0.034 A 
ATOM     56  C   UNL A   1      45.979  27.802  26.365  1.00  0.00     0.034 A 
ATOM     57  C   UNL A   1      41.059  30.504  29.784  1.00  0.00     0.049 A 
ATOM     58  C   UNL A   1      45.774  29.151  27.005  1.00  0.00     0.074 A 
ATOM     59  C   UNL A   1      41.027  31.760  30.362  1.00  0.00     0.029 A 
ATOM     60  N   UNL A   1      42.288  30.390  29.147  1.00  0.00    -0.354 N 
ATOM     61  N   UNL A   1      44.737  29.599  27.676  1.00  0.00    -0.248 NA
ATOM     62  C   UNL A   1      46.874  30.117  26.880  1.00  0.00     0.031 C 
ATOM     63  C   UNL A   1      42.214  32.424  30.031  1.00  0.00     0.029 A 
ATOM     64  C   UNL A   1      43.016  31.558  29.303  1.00  0.00     0.049 A 
ATOM     65  H   UNL A   1      42.598  29.595  28.655  1.00  0.00     0.167 HD
ATOM     66  C   UNL A   1      45.075  30.887  28.082  1.00  0.00     0.074 A 
ATOM     67  C   UNL A   1      46.415  31.138  27.587  1.00  0.00     0.031 C 
ATOM     68  C   UNL A   1      44.350  31.781  28.800  1.00  0.00     0.034 A 
BRANCH  55  69
ATOM     69  C   UNL A   1      38.719  29.755  30.465  1.00  0.00     0.023 A 
ATOM     70  C   UNL A   1      37.712  30.483  29.805  1.00  0.00     0.031 A 
ATOM     71  C   UNL A   1      38.469  29.343  31.785  1.00  0.00     0.131 A 
ATOM     72  C   UNL A   1      36.551  30.860  30.495  1.00  0.00     0.055 A 
ATOM     73  C   UNL A   1      37.270  29.641  32.437  1.00  0.00     0.041 A 
ATOM     74  F   UNL A   1      39.398  28.663  32.477  1.00  0.00    -0.206 F 
ATOM     75  C   UNL A   1      36.310  30.421  31.798  1.00  0.00     0.022 A 
BRANCH  72  76
ATOM     76  S   UNL A   1      35.442  32.069  29.722  1.00  0.00     0.124 S 
ATOM     77  O   UNL A   1      36.373  33.145  29.384  1.00  0.00    -0.237 OA
ATOM     78  O   UNL A   1      34.895  31.321  28.595  1.00  0.00    -0.237 OA
ATOM     79  O   UNL A   1      34.489  32.388  30.782  1.00  0.00    -0.744 OA
ENDBRANCH  72  76
ENDBRANCH  55  69
BRANCH  56  80
ATOM     80  C   UNL A   1      47.213  27.503  25.585  1.00  0.00     0.023 A 
ATOM     81  C   UNL A   1      47.291  27.814  24.218  1.00  0.00     0.031 A 
ATOM     82  C   UNL A   1      48.319  26.874  26.183  1.00  0.00     0.131 A 
ATOM     83  C   UNL A   1      48.431  27.455  23.482  1.00  0.00     0.055 A 
ATOM     84  C   UNL A   1      49.470  26.561  25.458  1.00  0.00     0.041 A 
ATOM     85  F   UNL A   1      48.299  26.567  27.489  1.00  0.00    -0.206 F 
ATOM     86  C   UNL A   1      49.526  26.840  24.095  1.00  0.00     0.022 A 
BRANCH  83  87
ATOM     87  S   UNL A   1      48.431  27.736  21.690  1.00  0.00     0.124 S 
ATOM     88  O   UNL A   1      48.679  26.394  21.179  1.00  0.00    -0.237 OA
ATOM     89  O   UNL A   1      47.090  28.270  21.470  1.00  0.00    -0.237 OA
ATOM     90  O   UNL A   1      49.519  28.692  21.496  1.00  0.00    -0.744 OA
ENDBRANCH  83  87
ENDBRANCH  56  80
BRANCH  68  91
ATOM     91  C   UNL A   1      45.020  33.089  29.138  1.00  0.00     0.023 A 
ATOM     92  C   UNL A   1      44.845  34.236  28.346  1.00  0.00     0.031 A 
ATOM     93  C   UNL A   1      45.846  33.183  30.271  1.00  0.00     0.131 A 
ATOM     94  C   UNL A   1      45.527  35.417  28.671  1.00  0.00     0.055 A 
ATOM     95  C   UNL A   1      46.479  34.375  30.621  1.00  0.00     0.041 A 
ATOM     96  F   UNL A   1      46.047  32.115  31.061  1.00  0.00    -0.206 F 
ATOM     97  C   UNL A   1      46.330  35.498  29.812  1.00  0.00     0.022 A 
BRANCH  94  98
ATOM     98  S   UNL A   1      45.414  36.826  27.535  1.00  0.00     0.124 S 
ATOM     99  O   UNL A   1      44.149  36.570  26.857  1.00  0.00    -0.237 OA
ATOM    100  O   UNL A   1      45.430  37.964  28.448  1.00  0.00    -0.237 OA
ATOM    101  O   UNL A   1      46.606  36.688  26.699  1.00  0.00    -0.744 OA
ENDBRANCH  94  98
ENDBRANCH  68  91
ENDBRANCH  42  43
ENDBRANCH  34  37
ENDBRANCH   1  33
TORSDOF 16
ENDMDL
