MODEL 1
REMARK VINA RESULT:     -11.3      0.000      0.000
REMARK SMILES CCN(C=O)[C@](C)(C(=O)NCCCNC(=O)c1ccc(-c2c3nc(c(-c4cc(S(=O)(=O)[O-])ccc4F)c4ccc([nH]4)c(-c4cc(S(=O)(=O)[O-])ccc4F)c4nc(c(-c5cc(S(=O)(=O)[O-])ccc5F)c5ccc2[nH]5)C=C4)C=C3)cc1)c1cc(F)c(C)cc1F
REMARK SMILES IDX 12 1 11 2 10 3 8 4 9 5 6 7 7 8 3 9 2 10 1 11 4 12 5 13 80 14
REMARK SMILES IDX 81 15 87 16 82 17 86 18 88 19 83 20 84 21 85 22 13 23 14 24
REMARK SMILES IDX 15 25 16 27 17 28 18 29 79 30 19 31 78 32 20 33 21 34 22 35
REMARK SMILES IDX 72 36 23 37 77 38 71 39 73 40 24 41 76 42 70 43 69 44 25 46
REMARK SMILES IDX 57 47 37 48 56 49 38 50 41 51 55 52 74 53 39 54 40 55 54 57
REMARK SMILES IDX 75 58 42 59 26 60 27 61 35 62 28 63 34 64 36 65 33 66 29 67
REMARK SMILES IDX 30 68 31 69 32 70 58 71 59 72 67 73 60 74 66 75 68 76 65 77
REMARK SMILES IDX 61 78 62 79 63 80 64 81 43 82 44 83 52 84 45 85 51 86 53 87
REMARK SMILES IDX 50 88 46 89 47 90 48 91 49 92
REMARK H PARENT 10 6 14 26 73 45 41 56
REMARK Flexibility Score: inf
ROOT
ATOM      1  C   UNL A   1      31.403  32.002  26.535  1.00  0.00     0.042 C 
ENDROOT
BRANCH   1   2
ATOM      2  C   UNL A   1      31.383  30.503  26.265  1.00  0.00     0.117 C 
BRANCH   2   3
ATOM      3  N   UNL A   1      32.390  30.148  25.281  1.00  0.00    -0.354 N 
ATOM      4  C   UNL A   1      32.668  28.974  24.639  1.00  0.00     0.250 C 
ATOM      5  O   UNL A   1      33.679  29.009  23.922  1.00  0.00    -0.272 OA
ATOM      6  H   UNL A   1      32.981  30.892  25.028  1.00  0.00     0.163 HD
BRANCH   4   7
ATOM      7  C   UNL A   1      31.866  27.616  24.926  1.00  0.00     0.147 C 
ATOM      8  C   UNL A   1      31.643  27.711  26.471  1.00  0.00     0.051 C 
BRANCH   7   9
ATOM      9  N   UNL A   1      30.528  27.524  24.215  1.00  0.00    -0.327 N 
BRANCH   9  10
ATOM     10  C   UNL A   1      29.914  28.729  23.647  1.00  0.00     0.117 C 
ATOM     11  C   UNL A   1      30.187  28.861  22.143  1.00  0.00     0.027 C 
ENDBRANCH   9  10
BRANCH   9  12
ATOM     12  C   UNL A   1      29.666  26.444  24.342  1.00  0.00     0.341 C 
ATOM     13  O   UNL A   1      28.520  26.329  23.917  1.00  0.00    -0.279 OA
ENDBRANCH   9  12
ENDBRANCH   7   9
BRANCH   7  14
ATOM     14  C   UNL A   1      32.721  26.370  24.535  1.00  0.00     0.026 A 
ATOM     15  C   UNL A   1      33.424  25.644  25.520  1.00  0.00     0.049 A 
ATOM     16  C   UNL A   1      32.955  25.976  23.201  1.00  0.00     0.129 A 
ATOM     17  C   UNL A   1      34.262  24.576  25.179  1.00  0.00     0.126 A 
ATOM     18  C   UNL A   1      33.800  24.916  22.863  1.00  0.00     0.046 A 
ATOM     19  F   UNL A   1      32.468  26.662  22.161  1.00  0.00    -0.207 F 
ATOM     20  F   UNL A   1      34.908  23.922  26.154  1.00  0.00    -0.207 F 
ATOM     21  C   UNL A   1      34.466  24.203  23.852  1.00  0.00    -0.012 A 
ATOM     22  C   UNL A   1      35.410  23.098  23.496  1.00  0.00     0.047 C 
ENDBRANCH   7  14
ENDBRANCH   4   7
ENDBRANCH   2   3
ENDBRANCH   1   2
BRANCH   1  23
ATOM     23  C   UNL A   1      32.710  32.468  27.166  1.00  0.00     0.118 C 
BRANCH  23  24
ATOM     24  N   UNL A   1      32.661  33.874  27.547  1.00  0.00    -0.352 N 
ATOM     25  C   UNL A   1      33.324  34.528  28.557  1.00  0.00     0.251 C 
ATOM     26  H   UNL A   1      32.066  34.438  27.001  1.00  0.00     0.163 HD
ATOM     27  O   UNL A   1      32.978  35.658  28.885  1.00  0.00    -0.269 OA
BRANCH  25  28
ATOM     28  C   UNL A   1      34.438  33.850  29.249  1.00  0.00     0.039 A 
ATOM     29  C   UNL A   1      34.155  32.881  30.214  1.00  0.00     0.014 A 
ATOM     30  C   UNL A   1      35.762  34.164  28.930  1.00  0.00     0.014 A 
ATOM     31  C   UNL A   1      35.204  32.176  30.807  1.00  0.00     0.010 A 
ATOM     32  C   UNL A   1      36.797  33.399  29.454  1.00  0.00     0.010 A 
ATOM     33  C   UNL A   1      36.530  32.401  30.403  1.00  0.00    -0.014 A 
BRANCH  33  34
ATOM     34  C   UNL A   1      37.662  31.625  30.971  1.00  0.00     0.031 A 
ATOM     35  C   UNL A   1      38.143  31.927  32.366  1.00  0.00     0.074 A 
ATOM     36  C   UNL A   1      38.297  30.709  30.213  1.00  0.00     0.049 A 
ATOM     37  N   UNL A   1      39.187  31.463  33.001  1.00  0.00    -0.248 NA
ATOM     38  C   UNL A   1      37.360  32.909  33.134  1.00  0.00     0.031 C 
ATOM     39  C   UNL A   1      37.940  30.352  28.837  1.00  0.00     0.029 A 
ATOM     40  N   UNL A   1      39.383  29.916  30.487  1.00  0.00    -0.354 N 
ATOM     41  C   UNL A   1      39.194  32.103  34.235  1.00  0.00     0.074 A 
ATOM     42  C   UNL A   1      38.090  33.040  34.230  1.00  0.00     0.031 C 
ATOM     43  C   UNL A   1      38.772  29.394  28.401  1.00  0.00     0.029 A 
ATOM     44  C   UNL A   1      39.757  29.106  29.438  1.00  0.00     0.049 A 
ATOM     45  H   UNL A   1      39.852  29.924  31.353  1.00  0.00     0.167 HD
ATOM     46  C   UNL A   1      40.024  31.907  35.288  1.00  0.00     0.034 A 
ATOM     47  C   UNL A   1      40.787  28.243  29.323  1.00  0.00     0.034 A 
ATOM     48  C   UNL A   1      41.107  30.956  35.284  1.00  0.00     0.049 A 
ATOM     49  C   UNL A   1      41.723  28.073  30.496  1.00  0.00     0.074 A 
ATOM     50  C   UNL A   1      41.993  30.652  36.302  1.00  0.00     0.029 A 
ATOM     51  N   UNL A   1      41.451  30.150  34.206  1.00  0.00    -0.354 N 
ATOM     52  N   UNL A   1      41.697  28.667  31.668  1.00  0.00    -0.248 NA
ATOM     53  C   UNL A   1      42.819  27.110  30.335  1.00  0.00     0.031 C 
ATOM     54  C   UNL A   1      42.907  29.710  35.822  1.00  0.00     0.029 A 
ATOM     55  C   UNL A   1      42.547  29.366  34.530  1.00  0.00     0.049 A 
ATOM     56  H   UNL A   1      40.985  30.138  33.339  1.00  0.00     0.167 HD
ATOM     57  C   UNL A   1      42.747  28.113  32.396  1.00  0.00     0.074 A 
ATOM     58  C   UNL A   1      43.376  27.133  31.537  1.00  0.00     0.031 C 
ATOM     59  C   UNL A   1      43.153  28.385  33.662  1.00  0.00     0.034 A 
BRANCH  46  60
ATOM     60  C   UNL A   1      39.794  32.744  36.523  1.00  0.00     0.023 A 
ATOM     61  C   UNL A   1      38.915  32.329  37.539  1.00  0.00     0.031 A 
ATOM     62  C   UNL A   1      40.448  33.977  36.683  1.00  0.00     0.131 A 
ATOM     63  C   UNL A   1      38.663  33.167  38.634  1.00  0.00     0.055 A 
ATOM     64  C   UNL A   1      40.254  34.771  37.816  1.00  0.00     0.041 A 
ATOM     65  F   UNL A   1      41.282  34.438  35.737  1.00  0.00    -0.206 F 
ATOM     66  C   UNL A   1      39.347  34.374  38.793  1.00  0.00     0.022 A 
BRANCH  63  67
ATOM     67  S   UNL A   1      37.332  32.717  39.779  1.00  0.00     0.124 S 
ATOM     68  O   UNL A   1      37.779  31.408  40.249  1.00  0.00    -0.237 OA
ATOM     69  O   UNL A   1      37.377  33.796  40.759  1.00  0.00    -0.237 OA
ATOM     70  O   UNL A   1      36.142  32.694  38.931  1.00  0.00    -0.744 OA
ENDBRANCH  63  67
ENDBRANCH  46  60
BRANCH  47  71
ATOM     71  C   UNL A   1      41.009  27.477  28.061  1.00  0.00     0.023 A 
ATOM     72  C   UNL A   1      40.762  26.096  28.007  1.00  0.00     0.031 A 
ATOM     73  C   UNL A   1      41.543  28.094  26.916  1.00  0.00     0.131 A 
ATOM     74  C   UNL A   1      41.114  25.365  26.861  1.00  0.00     0.055 A 
ATOM     75  C   UNL A   1      41.830  27.374  25.755  1.00  0.00     0.041 A 
ATOM     76  F   UNL A   1      41.797  29.413  26.909  1.00  0.00    -0.206 F 
ATOM     77  C   UNL A   1      41.634  25.997  25.730  1.00  0.00     0.022 A 
BRANCH  74  78
ATOM     78  S   UNL A   1      41.001  23.555  26.921  1.00  0.00     0.124 S 
ATOM     79  O   UNL A   1      41.901  23.168  25.840  1.00  0.00    -0.237 OA
ATOM     80  O   UNL A   1      41.463  23.270  28.275  1.00  0.00    -0.237 OA
ATOM     81  O   UNL A   1      39.585  23.295  26.678  1.00  0.00    -0.744 OA
ENDBRANCH  74  78
ENDBRANCH  47  71
BRANCH  59  82
ATOM     82  C   UNL A   1      44.288  27.559  34.213  1.00  0.00     0.023 A 
ATOM     83  C   UNL A   1      44.081  26.284  34.766  1.00  0.00     0.031 A 
ATOM     84  C   UNL A   1      45.601  28.063  34.183  1.00  0.00     0.131 A 
ATOM     85  C   UNL A   1      45.162  25.577  35.315  1.00  0.00     0.055 A 
ATOM     86  C   UNL A   1      46.681  27.330  34.674  1.00  0.00     0.041 A 
ATOM     87  F   UNL A   1      45.856  29.277  33.667  1.00  0.00    -0.206 F 
ATOM     88  C   UNL A   1      46.463  26.084  35.255  1.00  0.00     0.022 A 
BRANCH  85  89
ATOM     89  S   UNL A   1      44.833  24.020  36.185  1.00  0.00     0.124 S 
ATOM     90  O   UNL A   1      43.588  23.582  35.562  1.00  0.00    -0.237 OA
ATOM     91  O   UNL A   1      46.016  23.229  35.867  1.00  0.00    -0.237 OA
ATOM     92  O   UNL A   1      44.717  24.427  37.584  1.00  0.00    -0.744 OA
ENDBRANCH  85  89
ENDBRANCH  59  82
ENDBRANCH  33  34
ENDBRANCH  25  28
ENDBRANCH  23  24
ENDBRANCH   1  23
TORSDOF 17
ENDMDL
MODEL 2
REMARK VINA RESULT:     -11.2      1.768      7.917
REMARK SMILES CCN(C=O)[C@](C)(C(=O)NCCCNC(=O)c1ccc(-c2c3nc(c(-c4cc(S(=O)(=O)[O-])ccc4F)c4ccc([nH]4)c(-c4cc(S(=O)(=O)[O-])ccc4F)c4nc(c(-c5cc(S(=O)(=O)[O-])ccc5F)c5ccc2[nH]5)C=C4)C=C3)cc1)c1cc(F)c(C)cc1F
REMARK SMILES IDX 12 1 11 2 10 3 8 4 9 5 6 7 7 8 3 9 2 10 1 11 4 12 5 13 80 14
REMARK SMILES IDX 81 15 87 16 82 17 86 18 88 19 83 20 84 21 85 22 13 23 14 24
REMARK SMILES IDX 15 25 16 27 17 28 18 29 79 30 19 31 78 32 20 33 21 34 22 35
REMARK SMILES IDX 72 36 23 37 77 38 71 39 73 40 24 41 76 42 70 43 69 44 25 46
REMARK SMILES IDX 57 47 37 48 56 49 38 50 41 51 55 52 74 53 39 54 40 55 54 57
REMARK SMILES IDX 75 58 42 59 26 60 27 61 35 62 28 63 34 64 36 65 33 66 29 67
REMARK SMILES IDX 30 68 31 69 32 70 58 71 59 72 67 73 60 74 66 75 68 76 65 77
REMARK SMILES IDX 61 78 62 79 63 80 64 81 43 82 44 83 52 84 45 85 51 86 53 87
REMARK SMILES IDX 50 88 46 89 47 90 48 91 49 92
REMARK H PARENT 10 6 14 26 73 45 41 56
REMARK Flexibility Score: inf
ROOT
ATOM      1  C   UNL A   1      32.544  29.076  24.174  1.00  0.00     0.042 C 
ENDROOT
BRANCH   1   2
ATOM      2  C   UNL A   1      31.948  27.677  24.101  1.00  0.00     0.117 C 
BRANCH   2   3
ATOM      3  N   UNL A   1      32.741  26.829  23.229  1.00  0.00    -0.354 N 
ATOM      4  C   UNL A   1      33.316  25.604  23.418  1.00  0.00     0.250 C 
ATOM      5  O   UNL A   1      34.015  25.214  22.472  1.00  0.00    -0.272 OA
ATOM      6  H   UNL A   1      32.890  27.207  22.333  1.00  0.00     0.163 HD
BRANCH   4   7
ATOM      7  C   UNL A   1      33.244  24.818  24.814  1.00  0.00     0.147 C 
ATOM      8  C   UNL A   1      33.420  25.988  25.836  1.00  0.00     0.051 C 
BRANCH   7   9
ATOM      9  N   UNL A   1      31.923  24.111  25.059  1.00  0.00    -0.327 N 
BRANCH   9  10
ATOM     10  C   UNL A   1      31.821  23.084  26.101  1.00  0.00     0.117 C 
ATOM     11  C   UNL A   1      30.500  23.174  26.874  1.00  0.00     0.027 C 
ENDBRANCH   9  10
BRANCH   9  12
ATOM     12  C   UNL A   1      30.871  24.120  24.154  1.00  0.00     0.341 C 
ATOM     13  O   UNL A   1      30.816  23.598  23.044  1.00  0.00    -0.279 OA
ENDBRANCH   9  12
ENDBRANCH   7   9
BRANCH   7  14
ATOM     14  C   UNL A   1      34.394  23.769  24.922  1.00  0.00     0.026 A 
ATOM     15  C   UNL A   1      35.546  24.045  25.689  1.00  0.00     0.049 A 
ATOM     16  C   UNL A   1      34.426  22.570  24.180  1.00  0.00     0.129 A 
ATOM     17  C   UNL A   1      36.624  23.153  25.732  1.00  0.00     0.126 A 
ATOM     18  C   UNL A   1      35.507  21.686  24.216  1.00  0.00     0.046 A 
ATOM     19  F   UNL A   1      33.466  22.251  23.305  1.00  0.00    -0.207 F 
ATOM     20  F   UNL A   1      37.695  23.465  26.474  1.00  0.00    -0.207 F 
ATOM     21  C   UNL A   1      36.623  21.970  24.995  1.00  0.00    -0.012 A 
ATOM     22  C   UNL A   1      37.805  21.053  25.000  1.00  0.00     0.047 C 
ENDBRANCH   7  14
ENDBRANCH   4   7
ENDBRANCH   2   3
ENDBRANCH   1   2
BRANCH   1  23
ATOM     23  C   UNL A   1      33.047  29.428  25.570  1.00  0.00     0.118 C 
BRANCH  23  24
ATOM     24  N   UNL A   1      32.640  30.768  25.975  1.00  0.00    -0.352 N 
ATOM     25  C   UNL A   1      33.141  31.567  26.974  1.00  0.00     0.251 C 
ATOM     26  H   UNL A   1      31.899  31.158  25.457  1.00  0.00     0.163 HD
ATOM     27  O   UNL A   1      32.519  32.562  27.331  1.00  0.00    -0.269 OA
BRANCH  25  28
ATOM     28  C   UNL A   1      34.417  31.203  27.621  1.00  0.00     0.039 A 
ATOM     29  C   UNL A   1      35.393  32.185  27.807  1.00  0.00     0.014 A 
ATOM     30  C   UNL A   1      34.639  29.895  28.057  1.00  0.00     0.014 A 
ATOM     31  C   UNL A   1      36.565  31.865  28.497  1.00  0.00     0.010 A 
ATOM     32  C   UNL A   1      35.762  29.604  28.821  1.00  0.00     0.010 A 
ATOM     33  C   UNL A   1      36.741  30.585  29.044  1.00  0.00    -0.014 A 
BRANCH  33  34
ATOM     34  C   UNL A   1      37.948  30.232  29.834  1.00  0.00     0.031 A 
ATOM     35  C   UNL A   1      38.942  29.250  29.273  1.00  0.00     0.074 A 
ATOM     36  C   UNL A   1      38.110  30.734  31.075  1.00  0.00     0.049 A 
ATOM     37  N   UNL A   1      39.986  28.711  29.844  1.00  0.00    -0.248 NA
ATOM     38  C   UNL A   1      38.706  28.790  27.894  1.00  0.00     0.031 C 
ATOM     39  C   UNL A   1      37.198  31.671  31.736  1.00  0.00     0.029 A 
ATOM     40  N   UNL A   1      39.096  30.522  32.006  1.00  0.00    -0.354 N 
ATOM     41  C   UNL A   1      40.525  27.841  28.901  1.00  0.00     0.074 A 
ATOM     42  C   UNL A   1      39.649  27.873  27.750  1.00  0.00     0.031 C 
ATOM     43  C   UNL A   1      37.681  31.972  32.952  1.00  0.00     0.029 A 
ATOM     44  C   UNL A   1      38.904  31.211  33.183  1.00  0.00     0.049 A 
ATOM     45  H   UNL A   1      39.868  29.931  31.849  1.00  0.00     0.167 HD
ATOM     46  C   UNL A   1      41.662  27.106  28.977  1.00  0.00     0.034 A 
ATOM     47  C   UNL A   1      39.625  31.212  34.323  1.00  0.00     0.034 A 
ATOM     48  C   UNL A   1      42.532  27.100  30.125  1.00  0.00     0.049 A 
ATOM     49  C   UNL A   1      40.864  30.353  34.396  1.00  0.00     0.074 A 
ATOM     50  C   UNL A   1      43.723  26.417  30.301  1.00  0.00     0.029 A 
ATOM     51  N   UNL A   1      42.309  27.814  31.295  1.00  0.00    -0.354 N 
ATOM     52  N   UNL A   1      41.375  29.557  33.484  1.00  0.00    -0.248 NA
ATOM     53  C   UNL A   1      41.630  30.399  35.648  1.00  0.00     0.031 C 
ATOM     54  C   UNL A   1      44.187  26.670  31.595  1.00  0.00     0.029 A 
ATOM     55  C   UNL A   1      43.329  27.572  32.202  1.00  0.00     0.049 A 
ATOM     56  H   UNL A   1      41.538  28.406  31.457  1.00  0.00     0.167 HD
ATOM     57  C   UNL A   1      42.545  29.046  34.039  1.00  0.00     0.074 A 
ATOM     58  C   UNL A   1      42.669  29.631  35.357  1.00  0.00     0.031 C 
ATOM     59  C   UNL A   1      43.440  28.175  33.508  1.00  0.00     0.034 A 
BRANCH  46  60
ATOM     60  C   UNL A   1      42.015  26.246  27.789  1.00  0.00     0.023 A 
ATOM     61  C   UNL A   1      41.667  24.884  27.738  1.00  0.00     0.031 A 
ATOM     62  C   UNL A   1      42.718  26.785  26.698  1.00  0.00     0.131 A 
ATOM     63  C   UNL A   1      42.080  24.094  26.655  1.00  0.00     0.055 A 
ATOM     64  C   UNL A   1      43.057  26.012  25.586  1.00  0.00     0.041 A 
ATOM     65  F   UNL A   1      43.098  28.073  26.698  1.00  0.00    -0.206 F 
ATOM     66  C   UNL A   1      42.749  24.655  25.565  1.00  0.00     0.022 A 
BRANCH  63  67
ATOM     67  S   UNL A   1      41.843  22.300  26.754  1.00  0.00     0.124 S 
ATOM     68  O   UNL A   1      40.461  22.211  27.220  1.00  0.00    -0.237 OA
ATOM     69  O   UNL A   1      42.082  21.872  25.380  1.00  0.00    -0.237 OA
ATOM     70  O   UNL A   1      42.850  21.874  27.724  1.00  0.00    -0.744 OA
ENDBRANCH  63  67
ENDBRANCH  46  60
BRANCH  47  71
ATOM     71  C   UNL A   1      39.205  32.037  35.495  1.00  0.00     0.023 A 
ATOM     72  C   UNL A   1      38.559  31.446  36.592  1.00  0.00     0.031 A 
ATOM     73  C   UNL A   1      39.370  33.433  35.503  1.00  0.00     0.131 A 
ATOM     74  C   UNL A   1      38.038  32.253  37.617  1.00  0.00     0.055 A 
ATOM     75  C   UNL A   1      38.910  34.225  36.557  1.00  0.00     0.041 A 
ATOM     76  F   UNL A   1      39.983  34.052  34.481  1.00  0.00    -0.206 F 
ATOM     77  C   UNL A   1      38.221  33.637  37.614  1.00  0.00     0.022 A 
BRANCH  74  78
ATOM     78  S   UNL A   1      37.006  31.476  38.891  1.00  0.00     0.124 S 
ATOM     79  O   UNL A   1      36.849  30.126  38.361  1.00  0.00    -0.237 OA
ATOM     80  O   UNL A   1      37.844  31.606  40.079  1.00  0.00    -0.237 OA
ATOM     81  O   UNL A   1      35.795  32.292  38.891  1.00  0.00    -0.744 OA
ENDBRANCH  74  78
ENDBRANCH  47  71
BRANCH  59  82
ATOM     82  C   UNL A   1      44.666  27.862  34.329  1.00  0.00     0.023 A 
ATOM     83  C   UNL A   1      44.707  26.776  35.221  1.00  0.00     0.031 A 
ATOM     84  C   UNL A   1      45.812  28.668  34.214  1.00  0.00     0.131 A 
ATOM     85  C   UNL A   1      45.852  26.558  36.002  1.00  0.00     0.055 A 
ATOM     86  C   UNL A   1      46.970  28.410  34.948  1.00  0.00     0.041 A 
ATOM     87  F   UNL A   1      45.827  29.720  33.378  1.00  0.00    -0.206 F 
ATOM     88  C   UNL A   1      46.990  27.356  35.857  1.00  0.00     0.022 A 
BRANCH  85  89
ATOM     89  S   UNL A   1      45.805  25.264  37.273  1.00  0.00     0.124 S 
ATOM     90  O   UNL A   1      47.223  24.986  37.475  1.00  0.00    -0.237 OA
ATOM     91  O   UNL A   1      45.124  25.935  38.375  1.00  0.00    -0.237 OA
ATOM     92  O   UNL A   1      45.045  24.188  36.639  1.00  0.00    -0.744 OA
ENDBRANCH  85  89
ENDBRANCH  59  82
ENDBRANCH  33  34
ENDBRANCH  25  28
ENDBRANCH  23  24
ENDBRANCH   1  23
TORSDOF 17
ENDMDL
MODEL 3
REMARK VINA RESULT:     -11.2      4.689      9.513
REMARK SMILES CCN(C=O)[C@](C)(C(=O)NCCCNC(=O)c1ccc(-c2c3nc(c(-c4cc(S(=O)(=O)[O-])ccc4F)c4ccc([nH]4)c(-c4cc(S(=O)(=O)[O-])ccc4F)c4nc(c(-c5cc(S(=O)(=O)[O-])ccc5F)c5ccc2[nH]5)C=C4)C=C3)cc1)c1cc(F)c(C)cc1F
REMARK SMILES IDX 12 1 11 2 10 3 8 4 9 5 6 7 7 8 3 9 2 10 1 11 4 12 5 13 80 14
REMARK SMILES IDX 81 15 87 16 82 17 86 18 88 19 83 20 84 21 85 22 13 23 14 24
REMARK SMILES IDX 15 25 16 27 17 28 18 29 79 30 19 31 78 32 20 33 21 34 22 35
REMARK SMILES IDX 72 36 23 37 77 38 71 39 73 40 24 41 76 42 70 43 69 44 25 46
REMARK SMILES IDX 57 47 37 48 56 49 38 50 41 51 55 52 74 53 39 54 40 55 54 57
REMARK SMILES IDX 75 58 42 59 26 60 27 61 35 62 28 63 34 64 36 65 33 66 29 67
REMARK SMILES IDX 30 68 31 69 32 70 58 71 59 72 67 73 60 74 66 75 68 76 65 77
REMARK SMILES IDX 61 78 62 79 63 80 64 81 43 82 44 83 52 84 45 85 51 86 53 87
REMARK SMILES IDX 50 88 46 89 47 90 48 91 49 92
REMARK H PARENT 10 6 14 26 73 45 41 56
REMARK Flexibility Score: inf
ROOT
ATOM      1  C   UNL A   1      35.134  23.249  26.247  1.00  0.00     0.042 C 
ENDROOT
BRANCH   1   2
ATOM      2  C   UNL A   1      34.060  24.159  25.667  1.00  0.00     0.117 C 
BRANCH   2   3
ATOM      3  N   UNL A   1      34.356  24.483  24.284  1.00  0.00    -0.354 N 
ATOM      4  C   UNL A   1      33.708  25.262  23.366  1.00  0.00     0.250 C 
ATOM      5  O   UNL A   1      34.202  25.233  22.230  1.00  0.00    -0.272 OA
ATOM      6  H   UNL A   1      35.179  24.064  23.943  1.00  0.00     0.163 HD
BRANCH   4   7
ATOM      7  C   UNL A   1      32.323  26.005  23.683  1.00  0.00     0.147 C 
ATOM      8  C   UNL A   1      31.835  26.373  22.243  1.00  0.00     0.051 C 
BRANCH   7   9
ATOM      9  N   UNL A   1      31.292  25.128  24.370  1.00  0.00    -0.327 N 
BRANCH   9  10
ATOM     10  C   UNL A   1      31.012  25.306  25.799  1.00  0.00     0.117 C 
ATOM     11  C   UNL A   1      29.537  25.635  26.061  1.00  0.00     0.027 C 
ENDBRANCH   9  10
BRANCH   9  12
ATOM     12  C   UNL A   1      30.821  23.938  23.834  1.00  0.00     0.341 C 
ATOM     13  O   UNL A   1      31.391  22.852  23.770  1.00  0.00    -0.279 OA
ENDBRANCH   9  12
ENDBRANCH   7   9
BRANCH   7  14
ATOM     14  C   UNL A   1      32.559  27.273  24.561  1.00  0.00     0.026 A 
ATOM     15  C   UNL A   1      33.715  27.385  25.363  1.00  0.00     0.049 A 
ATOM     16  C   UNL A   1      31.606  28.300  24.716  1.00  0.00     0.129 A 
ATOM     17  C   UNL A   1      33.905  28.475  26.220  1.00  0.00     0.126 A 
ATOM     18  C   UNL A   1      31.792  29.382  25.579  1.00  0.00     0.046 A 
ATOM     19  F   UNL A   1      30.406  28.251  24.126  1.00  0.00    -0.207 F 
ATOM     20  F   UNL A   1      35.020  28.531  26.961  1.00  0.00    -0.207 F 
ATOM     21  C   UNL A   1      32.948  29.482  26.345  1.00  0.00    -0.012 A 
ATOM     22  C   UNL A   1      33.134  30.611  27.308  1.00  0.00     0.047 C 
ENDBRANCH   7  14
ENDBRANCH   4   7
ENDBRANCH   2   3
ENDBRANCH   1   2
BRANCH   1  23
ATOM     23  C   UNL A   1      36.543  23.677  25.853  1.00  0.00     0.118 C 
BRANCH  23  24
ATOM     24  N   UNL A   1      37.517  22.613  26.066  1.00  0.00    -0.352 N 
ATOM     25  C   UNL A   1      38.850  22.702  26.385  1.00  0.00     0.251 C 
ATOM     26  H   UNL A   1      37.168  21.697  25.967  1.00  0.00     0.163 HD
ATOM     27  O   UNL A   1      39.570  21.714  26.286  1.00  0.00    -0.269 OA
BRANCH  25  28
ATOM     28  C   UNL A   1      39.404  23.997  26.826  1.00  0.00     0.039 A 
ATOM     29  C   UNL A   1      39.997  24.843  25.886  1.00  0.00     0.014 A 
ATOM     30  C   UNL A   1      39.321  24.380  28.167  1.00  0.00     0.014 A 
ATOM     31  C   UNL A   1      40.444  26.105  26.284  1.00  0.00     0.010 A 
ATOM     32  C   UNL A   1      39.682  25.668  28.541  1.00  0.00     0.010 A 
ATOM     33  C   UNL A   1      40.253  26.543  27.604  1.00  0.00    -0.014 A 
BRANCH  33  34
ATOM     34  C   UNL A   1      40.661  27.902  28.043  1.00  0.00     0.031 A 
ATOM     35  C   UNL A   1      42.123  28.259  28.087  1.00  0.00     0.074 A 
ATOM     36  C   UNL A   1      39.730  28.780  28.466  1.00  0.00     0.049 A 
ATOM     37  N   UNL A   1      42.699  29.335  28.557  1.00  0.00    -0.248 NA
ATOM     38  C   UNL A   1      43.063  27.254  27.563  1.00  0.00     0.031 C 
ATOM     39  C   UNL A   1      38.286  28.536  28.496  1.00  0.00     0.029 A 
ATOM     40  N   UNL A   1      39.858  30.054  28.961  1.00  0.00    -0.354 N 
ATOM     41  C   UNL A   1      44.066  29.132  28.396  1.00  0.00     0.074 A 
ATOM     42  C   UNL A   1      44.233  27.802  27.852  1.00  0.00     0.031 C 
ATOM     43  C   UNL A   1      37.663  29.632  28.957  1.00  0.00     0.029 A 
ATOM     44  C   UNL A   1      38.660  30.637  29.308  1.00  0.00     0.049 A 
ATOM     45  H   UNL A   1      40.726  30.509  29.059  1.00  0.00     0.167 HD
ATOM     46  C   UNL A   1      45.086  29.988  28.650  1.00  0.00     0.034 A 
ATOM     47  C   UNL A   1      38.400  31.839  29.863  1.00  0.00     0.034 A 
ATOM     48  C   UNL A   1      44.900  31.317  29.175  1.00  0.00     0.049 A 
ATOM     49  C   UNL A   1      39.558  32.757  30.174  1.00  0.00     0.074 A 
ATOM     50  C   UNL A   1      45.857  32.280  29.443  1.00  0.00     0.029 A 
ATOM     51  N   UNL A   1      43.672  31.875  29.508  1.00  0.00    -0.354 N 
ATOM     52  N   UNL A   1      40.844  32.560  29.989  1.00  0.00    -0.248 NA
ATOM     53  C   UNL A   1      39.229  34.063  30.760  1.00  0.00     0.031 C 
ATOM     54  C   UNL A   1      45.216  33.394  29.994  1.00  0.00     0.029 A 
ATOM     55  C   UNL A   1      43.851  33.159  29.998  1.00  0.00     0.049 A 
ATOM     56  H   UNL A   1      42.803  31.423  29.411  1.00  0.00     0.167 HD
ATOM     57  C   UNL A   1      41.470  33.736  30.394  1.00  0.00     0.074 A 
ATOM     58  C   UNL A   1      40.421  34.639  30.821  1.00  0.00     0.031 C 
ATOM     59  C   UNL A   1      42.790  34.047  30.408  1.00  0.00     0.034 A 
BRANCH  46  60
ATOM     60  C   UNL A   1      46.488  29.503  28.370  1.00  0.00     0.023 A 
ATOM     61  C   UNL A   1      47.241  28.831  29.349  1.00  0.00     0.031 A 
ATOM     62  C   UNL A   1      47.085  29.724  27.118  1.00  0.00     0.131 A 
ATOM     63  C   UNL A   1      48.569  28.465  29.084  1.00  0.00     0.055 A 
ATOM     64  C   UNL A   1      48.380  29.285  26.833  1.00  0.00     0.041 A 
ATOM     65  F   UNL A   1      46.424  30.380  26.150  1.00  0.00    -0.206 F 
ATOM     66  C   UNL A   1      49.134  28.663  27.822  1.00  0.00     0.022 A 
BRANCH  63  67
ATOM     67  S   UNL A   1      49.584  27.845  30.451  1.00  0.00     0.124 S 
ATOM     68  O   UNL A   1      49.084  26.479  30.593  1.00  0.00    -0.237 OA
ATOM     69  O   UNL A   1      50.939  27.976  29.925  1.00  0.00    -0.237 OA
ATOM     70  O   UNL A   1      49.255  28.741  31.557  1.00  0.00    -0.744 OA
ENDBRANCH  63  67
ENDBRANCH  46  60
BRANCH  47  71
ATOM     71  C   UNL A   1      37.000  32.253  30.174  1.00  0.00     0.023 A 
ATOM     72  C   UNL A   1      36.229  32.945  29.226  1.00  0.00     0.031 A 
ATOM     73  C   UNL A   1      36.439  32.035  31.445  1.00  0.00     0.131 A 
ATOM     74  C   UNL A   1      34.972  33.457  29.584  1.00  0.00     0.055 A 
ATOM     75  C   UNL A   1      35.160  32.488  31.774  1.00  0.00     0.041 A 
ATOM     76  F   UNL A   1      37.128  31.377  32.390  1.00  0.00    -0.206 F 
ATOM     77  C   UNL A   1      34.426  33.221  30.847  1.00  0.00     0.022 A 
BRANCH  74  78
ATOM     78  S   UNL A   1      34.115  34.545  28.412  1.00  0.00     0.124 S 
ATOM     79  O   UNL A   1      34.094  35.807  29.143  1.00  0.00    -0.237 OA
ATOM     80  O   UNL A   1      34.997  34.490  27.250  1.00  0.00    -0.237 OA
ATOM     81  O   UNL A   1      32.815  33.902  28.239  1.00  0.00    -0.744 OA
ENDBRANCH  74  78
ENDBRANCH  47  71
BRANCH  59  82
ATOM     82  C   UNL A   1      43.164  35.444  30.835  1.00  0.00     0.023 A 
ATOM     83  C   UNL A   1      43.192  35.828  32.187  1.00  0.00     0.031 A 
ATOM     84  C   UNL A   1      43.497  36.408  29.866  1.00  0.00     0.131 A 
ATOM     85  C   UNL A   1      43.494  37.154  32.530  1.00  0.00     0.055 A 
ATOM     86  C   UNL A   1      43.857  37.709  30.217  1.00  0.00     0.041 A 
ATOM     87  F   UNL A   1      43.486  36.097  28.560  1.00  0.00    -0.206 F 
ATOM     88  C   UNL A   1      43.845  38.092  31.555  1.00  0.00     0.022 A 
BRANCH  85  89
ATOM     89  S   UNL A   1      43.340  37.661  34.265  1.00  0.00     0.124 S 
ATOM     90  O   UNL A   1      44.689  37.428  34.770  1.00  0.00    -0.237 OA
ATOM     91  O   UNL A   1      42.938  39.059  34.147  1.00  0.00    -0.237 OA
ATOM     92  O   UNL A   1      42.315  36.764  34.795  1.00  0.00    -0.744 OA
ENDBRANCH  85  89
ENDBRANCH  59  82
ENDBRANCH  33  34
ENDBRANCH  25  28
ENDBRANCH  23  24
ENDBRANCH   1  23
TORSDOF 17
ENDMDL
