MODEL 1
REMARK VINA RESULT:     -12.7      0.000      0.000
REMARK SMILES O=C(NCCCNC(=O)c1ccc(-c2cccc(O)c2)cc1Cl)c1ccc(-c2c3nc(c(-c4cc(S(=O)(=O)[O-])ccc4F)c4ccc([nH]4)c(-c4cc(S(=O)(=O)[O-])ccc4F)c4nc(c(-c5cc(S(=O)(=O)[O-])ccc5F)c5ccc2[nH]5)C=C4)C=C3)cc1
REMARK SMILES IDX 4 1 3 2 1 3 2 4 24 6 25 7 86 8 26 9 85 10 27 11 28 12 29 13
REMARK SMILES IDX 79 14 30 15 84 16 78 17 80 18 31 19 83 20 77 21 76 22 32 24
REMARK SMILES IDX 64 25 44 26 63 27 45 28 48 29 62 30 81 31 46 32 47 33 61 35
REMARK SMILES IDX 82 36 49 37 33 38 34 39 42 40 35 41 41 42 43 43 40 44 36 45
REMARK SMILES IDX 37 46 38 47 39 48 65 49 66 50 74 51 67 52 73 53 75 54 72 55
REMARK SMILES IDX 68 56 69 57 70 58 71 59 50 60 51 61 59 62 52 63 58 64 60 65
REMARK SMILES IDX 57 66 53 67 54 68 55 69 56 70 5 71 6 72 7 73 8 74 9 76 10 77
REMARK SMILES IDX 11 78 22 79 12 80 21 81 23 82 13 83 14 84 15 85 20 86 16 87
REMARK SMILES IDX 18 88 17 89 19 90
REMARK H PARENT 3 5 80 23 48 34 7 75 19 91
REMARK Flexibility Score: inf
ROOT
ATOM      1  C   UNL A   1      33.068  29.030  25.763  1.00  0.00     0.118 C 
ENDROOT
BRANCH   1   2
ATOM      2  N   UNL A   1      32.668  30.398  26.078  1.00  0.00    -0.352 N 
ATOM      3  O   UNL A   1      32.615  32.360  27.177  1.00  0.00    -0.269 OA
ATOM      4  C   UNL A   1      33.214  31.313  26.948  1.00  0.00     0.251 C 
ATOM      5  H   UNL A   1      31.877  30.718  25.586  1.00  0.00     0.163 HD
BRANCH   4   6
ATOM      6  C   UNL A   1      34.504  31.036  27.619  1.00  0.00     0.039 A 
ATOM      7  C   UNL A   1      34.778  29.770  28.134  1.00  0.00     0.014 A 
ATOM      8  C   UNL A   1      35.465  32.048  27.721  1.00  0.00     0.014 A 
ATOM      9  C   UNL A   1      35.908  29.573  28.914  1.00  0.00     0.010 A 
ATOM     10  C   UNL A   1      36.665  31.809  28.401  1.00  0.00     0.010 A 
ATOM     11  C   UNL A   1      36.881  30.579  29.039  1.00  0.00    -0.014 A 
BRANCH  11  12
ATOM     12  C   UNL A   1      38.125  30.264  29.792  1.00  0.00     0.031 A 
ATOM     13  C   UNL A   1      38.310  30.695  31.223  1.00  0.00     0.074 A 
ATOM     14  C   UNL A   1      39.055  29.498  29.188  1.00  0.00     0.049 A 
ATOM     15  N   UNL A   1      39.294  30.421  32.041  1.00  0.00    -0.248 NA
ATOM     16  C   UNL A   1      37.268  31.553  31.804  1.00  0.00     0.031 C 
ATOM     17  C   UNL A   1      38.988  29.042  27.795  1.00  0.00     0.029 A 
ATOM     18  N   UNL A   1      40.207  28.926  29.663  1.00  0.00    -0.354 N 
ATOM     19  C   UNL A   1      38.999  31.079  33.232  1.00  0.00     0.074 A 
ATOM     20  C   UNL A   1      37.760  31.797  33.013  1.00  0.00     0.031 C 
ATOM     21  C   UNL A   1      40.003  28.200  27.556  1.00  0.00     0.029 A 
ATOM     22  C   UNL A   1      40.836  28.114  28.748  1.00  0.00     0.049 A 
ATOM     23  H   UNL A   1      40.550  29.081  30.574  1.00  0.00     0.167 HD
ATOM     24  C   UNL A   1      39.694  31.076  34.397  1.00  0.00     0.034 A 
ATOM     25  C   UNL A   1      41.966  27.388  28.847  1.00  0.00     0.034 A 
ATOM     26  C   UNL A   1      40.928  30.352  34.597  1.00  0.00     0.049 A 
ATOM     27  C   UNL A   1      42.708  27.397  30.154  1.00  0.00     0.074 A 
ATOM     28  C   UNL A   1      41.718  30.284  35.733  1.00  0.00     0.029 A 
ATOM     29  N   UNL A   1      41.557  29.568  33.635  1.00  0.00    -0.354 N 
ATOM     30  N   UNL A   1      42.413  28.031  31.265  1.00  0.00    -0.248 NA
ATOM     31  C   UNL A   1      43.932  26.592  30.221  1.00  0.00     0.031 C 
ATOM     32  C   UNL A   1      42.844  29.504  35.444  1.00  0.00     0.029 A 
ATOM     33  C   UNL A   1      42.729  29.028  34.148  1.00  0.00     0.049 A 
ATOM     34  H   UNL A   1      41.218  29.416  32.724  1.00  0.00     0.167 HD
ATOM     35  C   UNL A   1      43.421  27.703  32.164  1.00  0.00     0.074 A 
ATOM     36  C   UNL A   1      44.302  26.777  31.479  1.00  0.00     0.031 C 
ATOM     37  C   UNL A   1      43.611  28.135  33.437  1.00  0.00     0.034 A 
BRANCH  24  38
ATOM     38  C   UNL A   1      39.154  31.913  35.533  1.00  0.00     0.023 A 
ATOM     39  C   UNL A   1      38.509  31.332  36.640  1.00  0.00     0.031 A 
ATOM     40  C   UNL A   1      39.279  33.313  35.505  1.00  0.00     0.131 A 
ATOM     41  C   UNL A   1      37.967  32.150  37.644  1.00  0.00     0.055 A 
ATOM     42  C   UNL A   1      38.798  34.117  36.542  1.00  0.00     0.041 A 
ATOM     43  F   UNL A   1      39.867  33.927  34.466  1.00  0.00    -0.206 F 
ATOM     44  C   UNL A   1      38.127  33.537  37.614  1.00  0.00     0.022 A 
BRANCH  41  45
ATOM     45  S   UNL A   1      36.949  31.384  38.935  1.00  0.00     0.124 S 
ATOM     46  O   UNL A   1      37.841  31.443  40.091  1.00  0.00    -0.237 OA
ATOM     47  O   UNL A   1      35.784  32.261  38.982  1.00  0.00    -0.237 OA
ATOM     48  O   UNL A   1      36.695  30.039  38.421  1.00  0.00    -0.744 OA
ENDBRANCH  41  45
ENDBRANCH  24  38
BRANCH  25  49
ATOM     49  C   UNL A   1      42.477  26.631  27.670  1.00  0.00     0.023 A 
ATOM     50  C   UNL A   1      42.113  25.295  27.445  1.00  0.00     0.031 A 
ATOM     51  C   UNL A   1      43.366  27.234  26.761  1.00  0.00     0.131 A 
ATOM     52  C   UNL A   1      42.666  24.593  26.362  1.00  0.00     0.055 A 
ATOM     53  C   UNL A   1      43.867  26.552  25.653  1.00  0.00     0.041 A 
ATOM     54  F   UNL A   1      43.743  28.512  26.927  1.00  0.00    -0.206 F 
ATOM     55  C   UNL A   1      43.528  25.217  25.457  1.00  0.00     0.022 A 
BRANCH  52  56
ATOM     56  S   UNL A   1      42.313  22.822  26.201  1.00  0.00     0.124 S 
ATOM     57  O   UNL A   1      43.122  22.256  27.273  1.00  0.00    -0.237 OA
ATOM     58  O   UNL A   1      40.867  22.784  26.398  1.00  0.00    -0.237 OA
ATOM     59  O   UNL A   1      42.763  22.507  24.846  1.00  0.00    -0.744 OA
ENDBRANCH  52  56
ENDBRANCH  25  49
BRANCH  37  60
ATOM     60  C   UNL A   1      44.825  27.594  34.149  1.00  0.00     0.023 A 
ATOM     61  C   UNL A   1      44.761  26.406  34.900  1.00  0.00     0.031 A 
ATOM     62  C   UNL A   1      46.039  28.299  34.126  1.00  0.00     0.131 A 
ATOM     63  C   UNL A   1      45.868  25.999  35.657  1.00  0.00     0.055 A 
ATOM     64  C   UNL A   1      47.157  27.856  34.833  1.00  0.00     0.041 A 
ATOM     65  F   UNL A   1      46.153  29.440  33.427  1.00  0.00    -0.206 F 
ATOM     66  C   UNL A   1      47.070  26.710  35.618  1.00  0.00     0.022 A 
BRANCH  63  67
ATOM     67  S   UNL A   1      45.678  24.591  36.785  1.00  0.00     0.124 S 
ATOM     68  O   UNL A   1      45.014  23.608  35.936  1.00  0.00    -0.237 OA
ATOM     69  O   UNL A   1      47.060  24.292  37.146  1.00  0.00    -0.237 OA
ATOM     70  O   UNL A   1      44.858  25.130  37.869  1.00  0.00    -0.744 OA
ENDBRANCH  63  67
ENDBRANCH  37  60
ENDBRANCH  11  12
ENDBRANCH   4   6
ENDBRANCH   1   2
BRANCH   1  71
ATOM     71  C   UNL A   1      31.916  28.039  25.837  1.00  0.00     0.042 C 
BRANCH  71  72
ATOM     72  C   UNL A   1      32.199  26.719  25.139  1.00  0.00     0.118 C 
BRANCH  72  73
ATOM     73  N   UNL A   1      32.893  26.895  23.870  1.00  0.00    -0.352 N 
ATOM     74  C   UNL A   1      33.392  25.943  23.019  1.00  0.00     0.252 C 
ATOM     75  H   UNL A   1      33.021  27.828  23.584  1.00  0.00     0.163 HD
ATOM     76  O   UNL A   1      34.029  26.260  22.019  1.00  0.00    -0.269 OA
BRANCH  74  77
ATOM     77  C   UNL A   1      33.210  24.520  23.340  1.00  0.00     0.058 A 
ATOM     78  C   UNL A   1      32.148  23.852  22.725  1.00  0.00     0.016 A 
ATOM     79  C   UNL A   1      34.056  23.836  24.213  1.00  0.00     0.054 A 
ATOM     80  C   UNL A   1      31.977  22.480  22.934  1.00  0.00     0.009 A 
ATOM     81  C   UNL A   1      33.898  22.459  24.387  1.00  0.00     0.030 A 
ATOM     82  Cl  UNL A   1      35.313  24.620  25.106  1.00  0.00    -0.083 Cl
ATOM     83  C   UNL A   1      32.864  21.750  23.746  1.00  0.00    -0.017 A 
BRANCH  83  84
ATOM     84  C   UNL A   1      32.726  20.288  23.916  1.00  0.00    -0.015 A 
ATOM     85  C   UNL A   1      32.475  19.444  22.818  1.00  0.00     0.009 A 
ATOM     86  C   UNL A   1      32.821  19.690  25.184  1.00  0.00     0.054 A 
ATOM     87  C   UNL A   1      32.312  18.064  22.982  1.00  0.00     0.004 A 
ATOM     88  C   UNL A   1      32.667  18.314  25.340  1.00  0.00     0.116 A 
ATOM     89  C   UNL A   1      32.409  17.495  24.248  1.00  0.00     0.046 A 
BRANCH  88  90
ATOM     90  O   UNL A   1      32.780  17.807  26.598  1.00  0.00    -0.508 OA
ATOM     91  H   UNL A   1      32.985  18.372  27.316  1.00  0.00     0.293 HD
ENDBRANCH  88  90
ENDBRANCH  83  84
ENDBRANCH  74  77
ENDBRANCH  72  73
ENDBRANCH  71  72
ENDBRANCH   1  71
TORSDOF 15
ENDMDL
MODEL 2
REMARK VINA RESULT:     -12.6      1.554      1.836
REMARK SMILES O=C(NCCCNC(=O)c1ccc(-c2cccc(O)c2)cc1Cl)c1ccc(-c2c3nc(c(-c4cc(S(=O)(=O)[O-])ccc4F)c4ccc([nH]4)c(-c4cc(S(=O)(=O)[O-])ccc4F)c4nc(c(-c5cc(S(=O)(=O)[O-])ccc5F)c5ccc2[nH]5)C=C4)C=C3)cc1
REMARK SMILES IDX 4 1 3 2 1 3 2 4 24 6 25 7 86 8 26 9 85 10 27 11 28 12 29 13
REMARK SMILES IDX 79 14 30 15 84 16 78 17 80 18 31 19 83 20 77 21 76 22 32 24
REMARK SMILES IDX 64 25 44 26 63 27 45 28 48 29 62 30 81 31 46 32 47 33 61 35
REMARK SMILES IDX 82 36 49 37 33 38 34 39 42 40 35 41 41 42 43 43 40 44 36 45
REMARK SMILES IDX 37 46 38 47 39 48 65 49 66 50 74 51 67 52 73 53 75 54 72 55
REMARK SMILES IDX 68 56 69 57 70 58 71 59 50 60 51 61 59 62 52 63 58 64 60 65
REMARK SMILES IDX 57 66 53 67 54 68 55 69 56 70 5 71 6 72 7 73 8 74 9 76 10 77
REMARK SMILES IDX 11 78 22 79 12 80 21 81 23 82 13 83 14 84 15 85 20 86 16 87
REMARK SMILES IDX 18 88 17 89 19 90
REMARK H PARENT 3 5 80 23 48 34 7 75 19 91
REMARK Flexibility Score: inf
ROOT
ATOM      1  C   UNL A   1      32.888  29.017  25.851  1.00  0.00     0.118 C 
ENDROOT
BRANCH   1   2
ATOM      2  N   UNL A   1      32.499  30.391  26.148  1.00  0.00    -0.352 N 
ATOM      3  O   UNL A   1      32.484  32.377  27.205  1.00  0.00    -0.269 OA
ATOM      4  C   UNL A   1      33.074  31.325  26.980  1.00  0.00     0.251 C 
ATOM      5  H   UNL A   1      31.694  30.702  25.675  1.00  0.00     0.163 HD
BRANCH   4   6
ATOM      6  C   UNL A   1      34.384  31.060  27.616  1.00  0.00     0.039 A 
ATOM      7  C   UNL A   1      34.700  29.786  28.085  1.00  0.00     0.014 A 
ATOM      8  C   UNL A   1      35.321  32.093  27.731  1.00  0.00     0.014 A 
ATOM      9  C   UNL A   1      35.851  29.593  28.836  1.00  0.00     0.010 A 
ATOM     10  C   UNL A   1      36.541  31.862  28.380  1.00  0.00     0.010 A 
ATOM     11  C   UNL A   1      36.801  30.620  28.973  1.00  0.00    -0.014 A 
BRANCH  11  12
ATOM     12  C   UNL A   1      38.067  30.313  29.691  1.00  0.00     0.031 A 
ATOM     13  C   UNL A   1      38.316  30.801  31.093  1.00  0.00     0.074 A 
ATOM     14  C   UNL A   1      38.960  29.503  29.085  1.00  0.00     0.049 A 
ATOM     15  N   UNL A   1      39.326  30.543  31.884  1.00  0.00    -0.248 NA
ATOM     16  C   UNL A   1      37.314  31.703  31.676  1.00  0.00     0.031 C 
ATOM     17  C   UNL A   1      38.830  28.990  27.717  1.00  0.00     0.029 A 
ATOM     18  N   UNL A   1      40.119  28.931  29.540  1.00  0.00    -0.354 N 
ATOM     19  C   UNL A   1      39.090  31.257  33.055  1.00  0.00     0.074 A 
ATOM     20  C   UNL A   1      37.856  31.989  32.853  1.00  0.00     0.031 C 
ATOM     21  C   UNL A   1      39.819  28.119  27.476  1.00  0.00     0.029 A 
ATOM     22  C   UNL A   1      40.697  28.068  28.638  1.00  0.00     0.049 A 
ATOM     23  H   UNL A   1      40.500  29.118  30.429  1.00  0.00     0.167 HD
ATOM     24  C   UNL A   1      39.830  31.290  34.192  1.00  0.00     0.034 A 
ATOM     25  C   UNL A   1      41.817  27.326  28.725  1.00  0.00     0.034 A 
ATOM     26  C   UNL A   1      41.059  30.552  34.375  1.00  0.00     0.049 A 
ATOM     27  C   UNL A   1      42.610  27.375  30.001  1.00  0.00     0.074 A 
ATOM     28  C   UNL A   1      41.891  30.517  35.482  1.00  0.00     0.029 A 
ATOM     29  N   UNL A   1      41.635  29.715  33.426  1.00  0.00    -0.354 N 
ATOM     30  N   UNL A   1      42.370  28.062  31.093  1.00  0.00    -0.248 NA
ATOM     31  C   UNL A   1      43.821  26.551  30.055  1.00  0.00     0.031 C 
ATOM     32  C   UNL A   1      42.991  29.704  35.184  1.00  0.00     0.029 A 
ATOM     33  C   UNL A   1      42.816  29.175  33.916  1.00  0.00     0.049 A 
ATOM     34  H   UNL A   1      41.258  29.532  32.536  1.00  0.00     0.167 HD
ATOM     35  C   UNL A   1      43.406  27.753  31.966  1.00  0.00     0.074 A 
ATOM     36  C   UNL A   1      44.243  26.782  31.289  1.00  0.00     0.031 C 
ATOM     37  C   UNL A   1      43.654  28.236  33.211  1.00  0.00     0.034 A 
BRANCH  24  38
ATOM     38  C   UNL A   1      39.350  32.185  35.311  1.00  0.00     0.023 A 
ATOM     39  C   UNL A   1      39.756  33.528  35.412  1.00  0.00     0.031 A 
ATOM     40  C   UNL A   1      38.478  31.686  36.295  1.00  0.00     0.131 A 
ATOM     41  C   UNL A   1      39.336  34.308  36.501  1.00  0.00     0.055 A 
ATOM     42  C   UNL A   1      38.008  32.488  37.339  1.00  0.00     0.041 A 
ATOM     43  F   UNL A   1      38.070  30.408  36.263  1.00  0.00    -0.206 F 
ATOM     44  C   UNL A   1      38.446  33.804  37.453  1.00  0.00     0.022 A 
BRANCH  41  45
ATOM     45  S   UNL A   1      40.058  35.957  36.721  1.00  0.00     0.124 S 
ATOM     46  O   UNL A   1      39.670  36.619  35.477  1.00  0.00    -0.237 OA
ATOM     47  O   UNL A   1      39.397  36.434  37.930  1.00  0.00    -0.237 OA
ATOM     48  O   UNL A   1      41.489  35.692  36.856  1.00  0.00    -0.744 OA
ENDBRANCH  41  45
ENDBRANCH  24  38
BRANCH  25  49
ATOM     49  C   UNL A   1      42.268  26.509  27.563  1.00  0.00     0.023 A 
ATOM     50  C   UNL A   1      41.898  25.162  27.427  1.00  0.00     0.031 A 
ATOM     51  C   UNL A   1      43.104  27.065  26.577  1.00  0.00     0.131 A 
ATOM     52  C   UNL A   1      42.396  24.406  26.354  1.00  0.00     0.055 A 
ATOM     53  C   UNL A   1      43.549  26.327  25.482  1.00  0.00     0.041 A 
ATOM     54  F   UNL A   1      43.484  28.351  26.657  1.00  0.00    -0.206 F 
ATOM     55  C   UNL A   1      43.206  24.983  25.373  1.00  0.00     0.022 A 
BRANCH  52  56
ATOM     56  S   UNL A   1      42.042  22.628  26.304  1.00  0.00     0.124 S 
ATOM     57  O   UNL A   1      42.702  22.225  25.068  1.00  0.00    -0.237 OA
ATOM     58  O   UNL A   1      42.660  22.163  27.542  1.00  0.00    -0.237 OA
ATOM     59  O   UNL A   1      40.582  22.573  26.279  1.00  0.00    -0.744 OA
ENDBRANCH  52  56
ENDBRANCH  25  49
BRANCH  37  60
ATOM     60  C   UNL A   1      44.885  27.702  33.899  1.00  0.00     0.023 A 
ATOM     61  C   UNL A   1      44.829  26.550  34.705  1.00  0.00     0.031 A 
ATOM     62  C   UNL A   1      46.111  28.381  33.795  1.00  0.00     0.131 A 
ATOM     63  C   UNL A   1      45.958  26.155  35.436  1.00  0.00     0.055 A 
ATOM     64  C   UNL A   1      47.248  27.946  34.477  1.00  0.00     0.041 A 
ATOM     65  F   UNL A   1      46.218  29.486  33.041  1.00  0.00    -0.206 F 
ATOM     66  C   UNL A   1      47.170  26.839  35.317  1.00  0.00     0.022 A 
BRANCH  63  67
ATOM     67  S   UNL A   1      45.786  24.804  36.634  1.00  0.00     0.124 S 
ATOM     68  O   UNL A   1      45.840  23.627  35.775  1.00  0.00    -0.237 OA
ATOM     69  O   UNL A   1      46.940  25.011  37.504  1.00  0.00    -0.237 OA
ATOM     70  O   UNL A   1      44.488  25.060  37.255  1.00  0.00    -0.744 OA
ENDBRANCH  63  67
ENDBRANCH  37  60
ENDBRANCH  11  12
ENDBRANCH   4   6
ENDBRANCH   1   2
BRANCH   1  71
ATOM     71  C   UNL A   1      31.812  28.002  26.209  1.00  0.00     0.042 C 
BRANCH  71  72
ATOM     72  C   UNL A   1      31.485  27.034  25.084  1.00  0.00     0.118 C 
BRANCH  72  73
ATOM     73  N   UNL A   1      32.309  27.250  23.903  1.00  0.00    -0.352 N 
ATOM     74  C   UNL A   1      32.973  26.331  23.132  1.00  0.00     0.252 C 
ATOM     75  H   UNL A   1      32.403  28.188  23.618  1.00  0.00     0.163 HD
ATOM     76  O   UNL A   1      33.699  26.686  22.208  1.00  0.00    -0.269 OA
BRANCH  74  77
ATOM     77  C   UNL A   1      32.857  24.901  23.452  1.00  0.00     0.058 A 
ATOM     78  C   UNL A   1      31.901  24.159  22.755  1.00  0.00     0.016 A 
ATOM     79  C   UNL A   1      33.666  24.281  24.405  1.00  0.00     0.054 A 
ATOM     80  C   UNL A   1      31.803  22.781  22.964  1.00  0.00     0.009 A 
ATOM     81  C   UNL A   1      33.584  22.897  24.581  1.00  0.00     0.030 A 
ATOM     82  Cl  UNL A   1      34.784  25.153  25.396  1.00  0.00    -0.083 Cl
ATOM     83  C   UNL A   1      32.660  22.117  23.861  1.00  0.00    -0.017 A 
BRANCH  83  84
ATOM     84  C   UNL A   1      32.605  20.650  24.036  1.00  0.00    -0.015 A 
ATOM     85  C   UNL A   1      32.934  20.046  25.263  1.00  0.00     0.009 A 
ATOM     86  C   UNL A   1      32.243  19.803  22.974  1.00  0.00     0.054 A 
ATOM     87  C   UNL A   1      32.914  18.656  25.421  1.00  0.00     0.004 A 
ATOM     88  C   UNL A   1      32.215  18.420  23.140  1.00  0.00     0.116 A 
ATOM     89  C   UNL A   1      32.553  17.838  24.355  1.00  0.00     0.046 A 
BRANCH  88  90
ATOM     90  O   UNL A   1      31.847  17.665  22.068  1.00  0.00    -0.508 OA
ATOM     91  H   UNL A   1      31.048  17.176  22.091  1.00  0.00     0.293 HD
ENDBRANCH  88  90
ENDBRANCH  83  84
ENDBRANCH  74  77
ENDBRANCH  72  73
ENDBRANCH  71  72
ENDBRANCH   1  71
TORSDOF 15
ENDMDL
MODEL 3
REMARK VINA RESULT:     -12.4      5.313     10.421
REMARK SMILES O=C(NCCCNC(=O)c1ccc(-c2cccc(O)c2)cc1Cl)c1ccc(-c2c3nc(c(-c4cc(S(=O)(=O)[O-])ccc4F)c4ccc([nH]4)c(-c4cc(S(=O)(=O)[O-])ccc4F)c4nc(c(-c5cc(S(=O)(=O)[O-])ccc5F)c5ccc2[nH]5)C=C4)C=C3)cc1
REMARK SMILES IDX 4 1 3 2 1 3 2 4 24 6 25 7 86 8 26 9 85 10 27 11 28 12 29 13
REMARK SMILES IDX 79 14 30 15 84 16 78 17 80 18 31 19 83 20 77 21 76 22 32 24
REMARK SMILES IDX 64 25 44 26 63 27 45 28 48 29 62 30 81 31 46 32 47 33 61 35
REMARK SMILES IDX 82 36 49 37 33 38 34 39 42 40 35 41 41 42 43 43 40 44 36 45
REMARK SMILES IDX 37 46 38 47 39 48 65 49 66 50 74 51 67 52 73 53 75 54 72 55
REMARK SMILES IDX 68 56 69 57 70 58 71 59 50 60 51 61 59 62 52 63 58 64 60 65
REMARK SMILES IDX 57 66 53 67 54 68 55 69 56 70 5 71 6 72 7 73 8 74 9 76 10 77
REMARK SMILES IDX 11 78 22 79 12 80 21 81 23 82 13 83 14 84 15 85 20 86 16 87
REMARK SMILES IDX 18 88 17 89 19 90
REMARK H PARENT 3 5 80 23 48 34 7 75 19 91
REMARK Flexibility Score: inf
ROOT
ATOM      1  C   UNL A   1      36.358  22.605  25.955  1.00  0.00     0.118 C 
ENDROOT
BRANCH   1   2
ATOM      2  N   UNL A   1      37.367  21.557  25.844  1.00  0.00    -0.352 N 
ATOM      3  O   UNL A   1      39.414  20.630  25.723  1.00  0.00    -0.269 OA
ATOM      4  C   UNL A   1      38.730  21.602  26.029  1.00  0.00     0.251 C 
ATOM      5  H   UNL A   1      37.015  20.671  25.596  1.00  0.00     0.163 HD
BRANCH   4   6
ATOM      6  C   UNL A   1      39.374  22.818  26.576  1.00  0.00     0.039 A 
ATOM      7  C   UNL A   1      38.991  24.083  26.133  1.00  0.00     0.014 A 
ATOM      8  C   UNL A   1      40.363  22.697  27.558  1.00  0.00     0.014 A 
ATOM      9  C   UNL A   1      39.722  25.198  26.517  1.00  0.00     0.010 A 
ATOM     10  C   UNL A   1      41.014  23.840  28.040  1.00  0.00     0.010 A 
ATOM     11  C   UNL A   1      40.727  25.099  27.495  1.00  0.00    -0.014 A 
BRANCH  11  12
ATOM     12  C   UNL A   1      41.392  26.350  27.948  1.00  0.00     0.031 A 
ATOM     13  C   UNL A   1      42.800  26.687  27.536  1.00  0.00     0.074 A 
ATOM     14  C   UNL A   1      40.667  27.228  28.670  1.00  0.00     0.049 A 
ATOM     15  N   UNL A   1      43.486  27.776  27.772  1.00  0.00    -0.248 NA
ATOM     16  C   UNL A   1      43.538  25.668  26.776  1.00  0.00     0.031 C 
ATOM     17  C   UNL A   1      39.299  26.993  29.145  1.00  0.00     0.029 A 
ATOM     18  N   UNL A   1      40.945  28.502  29.093  1.00  0.00    -0.354 N 
ATOM     19  C   UNL A   1      44.738  27.575  27.201  1.00  0.00     0.074 A 
ATOM     20  C   UNL A   1      44.728  26.240  26.638  1.00  0.00     0.031 C 
ATOM     21  C   UNL A   1      38.832  28.111  29.717  1.00  0.00     0.029 A 
ATOM     22  C   UNL A   1      39.887  29.116  29.723  1.00  0.00     0.049 A 
ATOM     23  H   UNL A   1      41.819  28.936  28.957  1.00  0.00     0.167 HD
ATOM     24  C   UNL A   1      45.793  28.428  27.146  1.00  0.00     0.034 A 
ATOM     25  C   UNL A   1      39.777  30.346  30.259  1.00  0.00     0.034 A 
ATOM     26  C   UNL A   1      45.784  29.757  27.712  1.00  0.00     0.049 A 
ATOM     27  C   UNL A   1      40.958  31.271  30.172  1.00  0.00     0.074 A 
ATOM     28  C   UNL A   1      46.797  30.702  27.719  1.00  0.00     0.029 A 
ATOM     29  N   UNL A   1      44.706  30.333  28.375  1.00  0.00    -0.354 N 
ATOM     30  N   UNL A   1      42.134  31.057  29.632  1.00  0.00    -0.248 NA
ATOM     31  C   UNL A   1      40.795  32.602  30.766  1.00  0.00     0.031 C 
ATOM     32  C   UNL A   1      46.351  31.824  28.427  1.00  0.00     0.029 A 
ATOM     33  C   UNL A   1      45.036  31.611  28.807  1.00  0.00     0.049 A 
ATOM     34  H   UNL A   1      43.834  29.899  28.516  1.00  0.00     0.167 HD
ATOM     35  C   UNL A   1      42.856  32.229  29.825  1.00  0.00     0.074 A 
ATOM     36  C   UNL A   1      41.963  33.160  30.488  1.00  0.00     0.031 C 
ATOM     37  C   UNL A   1      44.143  32.510  29.497  1.00  0.00     0.034 A 
BRANCH  24  38
ATOM     38  C   UNL A   1      47.056  27.932  26.483  1.00  0.00     0.023 A 
ATOM     39  C   UNL A   1      47.267  28.061  25.099  1.00  0.00     0.031 A 
ATOM     40  C   UNL A   1      48.063  27.313  27.246  1.00  0.00     0.131 A 
ATOM     41  C   UNL A   1      48.428  27.531  24.513  1.00  0.00     0.055 A 
ATOM     42  C   UNL A   1      49.247  26.850  26.667  1.00  0.00     0.041 A 
ATOM     43  F   UNL A   1      47.911  27.144  28.569  1.00  0.00    -0.206 F 
ATOM     44  C   UNL A   1      49.430  26.947  25.291  1.00  0.00     0.022 A 
BRANCH  41  45
ATOM     45  S   UNL A   1      48.560  27.514  22.704  1.00  0.00     0.124 S 
ATOM     46  O   UNL A   1      48.559  26.080  22.421  1.00  0.00    -0.237 OA
ATOM     47  O   UNL A   1      47.368  28.247  22.292  1.00  0.00    -0.237 OA
ATOM     48  O   UNL A   1      49.829  28.191  22.445  1.00  0.00    -0.744 OA
ENDBRANCH  41  45
ENDBRANCH  24  38
BRANCH  25  49
ATOM     49  C   UNL A   1      38.521  30.753  30.951  1.00  0.00     0.023 A 
ATOM     50  C   UNL A   1      37.493  31.422  30.269  1.00  0.00     0.031 A 
ATOM     51  C   UNL A   1      38.345  30.497  32.324  1.00  0.00     0.131 A 
ATOM     52  C   UNL A   1      36.353  31.848  30.970  1.00  0.00     0.055 A 
ATOM     53  C   UNL A   1      37.186  30.870  33.002  1.00  0.00     0.041 A 
ATOM     54  F   UNL A   1      39.296  29.856  33.022  1.00  0.00    -0.206 F 
ATOM     55  C   UNL A   1      36.187  31.563  32.327  1.00  0.00     0.022 A 
BRANCH  52  56
ATOM     56  S   UNL A   1      35.126  32.861  30.100  1.00  0.00     0.124 S 
ATOM     57  O   UNL A   1      35.951  33.933  29.559  1.00  0.00    -0.237 OA
ATOM     58  O   UNL A   1      34.587  31.913  29.129  1.00  0.00    -0.237 OA
ATOM     59  O   UNL A   1      34.200  33.257  31.159  1.00  0.00    -0.744 OA
ENDBRANCH  52  56
ENDBRANCH  25  49
BRANCH  37  60
ATOM     60  C   UNL A   1      44.637  33.888  29.859  1.00  0.00     0.023 A 
ATOM     61  C   UNL A   1      44.499  34.970  28.971  1.00  0.00     0.031 A 
ATOM     62  C   UNL A   1      45.302  34.109  31.077  1.00  0.00     0.131 A 
ATOM     63  C   UNL A   1      45.084  36.205  29.280  1.00  0.00     0.055 A 
ATOM     64  C   UNL A   1      45.829  35.359  31.406  1.00  0.00     0.041 A 
ATOM     65  F   UNL A   1      45.463  33.110  31.959  1.00  0.00    -0.206 F 
ATOM     66  C   UNL A   1      45.737  36.410  30.498  1.00  0.00     0.022 A 
BRANCH  63  67
ATOM     67  S   UNL A   1      45.080  37.507  28.018  1.00  0.00     0.124 S 
ATOM     68  O   UNL A   1      43.683  37.522  27.600  1.00  0.00    -0.237 OA
ATOM     69  O   UNL A   1      45.532  38.673  28.771  1.00  0.00    -0.237 OA
ATOM     70  O   UNL A   1      46.022  37.014  27.015  1.00  0.00    -0.744 OA
ENDBRANCH  63  67
ENDBRANCH  37  60
ENDBRANCH  11  12
ENDBRANCH   4   6
ENDBRANCH   1   2
BRANCH   1  71
ATOM     71  C   UNL A   1      35.790  23.032  24.609  1.00  0.00     0.042 C 
BRANCH  71  72
ATOM     72  C   UNL A   1      34.319  23.407  24.656  1.00  0.00     0.118 C 
BRANCH  72  73
ATOM     73  N   UNL A   1      33.678  23.002  25.900  1.00  0.00    -0.352 N 
ATOM     74  C   UNL A   1      32.505  23.446  26.454  1.00  0.00     0.252 C 
ATOM     75  H   UNL A   1      34.155  22.312  26.416  1.00  0.00     0.163 HD
ATOM     76  O   UNL A   1      32.140  23.059  27.560  1.00  0.00    -0.269 OA
BRANCH  74  77
ATOM     77  C   UNL A   1      31.700  24.444  25.734  1.00  0.00     0.058 A 
ATOM     78  C   UNL A   1      31.623  25.727  26.282  1.00  0.00     0.016 A 
ATOM     79  C   UNL A   1      31.037  24.151  24.542  1.00  0.00     0.054 A 
ATOM     80  C   UNL A   1      30.937  26.734  25.598  1.00  0.00     0.009 A 
ATOM     81  C   UNL A   1      30.384  25.173  23.848  1.00  0.00     0.030 A 
ATOM     82  Cl  UNL A   1      30.983  22.559  23.868  1.00  0.00    -0.083 Cl
ATOM     83  C   UNL A   1      30.327  26.485  24.355  1.00  0.00    -0.017 A 
BRANCH  83  84
ATOM     84  C   UNL A   1      29.657  27.564  23.596  1.00  0.00    -0.015 A 
ATOM     85  C   UNL A   1      30.398  28.531  22.891  1.00  0.00     0.009 A 
ATOM     86  C   UNL A   1      28.257  27.674  23.569  1.00  0.00     0.054 A 
ATOM     87  C   UNL A   1      29.767  29.570  22.199  1.00  0.00     0.004 A 
ATOM     88  C   UNL A   1      27.634  28.706  22.871  1.00  0.00     0.116 A 
ATOM     89  C   UNL A   1      28.378  29.660  22.188  1.00  0.00     0.046 A 
BRANCH  88  90
ATOM     90  O   UNL A   1      26.272  28.743  22.884  1.00  0.00    -0.508 OA
ATOM     91  H   UNL A   1      25.787  28.025  23.239  1.00  0.00     0.293 HD
ENDBRANCH  88  90
ENDBRANCH  83  84
ENDBRANCH  74  77
ENDBRANCH  72  73
ENDBRANCH  71  72
ENDBRANCH   1  71
TORSDOF 15
ENDMDL
