MODEL 1
REMARK VINA RESULT:     -12.2      0.000      0.000
REMARK SMILES C[C@@H](C(=O)NCCCNC(=O)c1ccc(-c2c3nc(c(-c4cc(S(=O)(=O)[O-])ccc4F)c4ccc([nH]4)c(-c4cc(S(=O)(=O)[O-])ccc4F)c4nc(c(-c5cc(S(=O)(=O)[O-])ccc5F)c5ccc2[nH]5)C=C4)C=C3)cc1)c1ccc(C[C@H]2CCCC2=O)cc1F
REMARK SMILES IDX 7 1 6 2 5 3 3 4 4 5 2 7 1 8 75 9 76 10 87 11 77 12 86 13
REMARK SMILES IDX 88 14 78 15 79 16 80 17 81 18 84 19 82 20 83 21 85 22 8 23
REMARK SMILES IDX 9 24 10 25 11 27 12 28 13 29 74 30 14 31 73 32 15 33 16 34
REMARK SMILES IDX 17 35 67 36 18 37 72 38 66 39 68 40 19 41 71 42 65 43 64 44
REMARK SMILES IDX 20 46 52 47 32 48 51 49 33 50 36 51 50 52 69 53 34 54 35 55
REMARK SMILES IDX 49 57 70 58 37 59 21 60 22 61 30 62 23 63 29 64 31 65 28 66
REMARK SMILES IDX 24 67 25 68 26 69 27 70 53 71 54 72 62 73 55 74 61 75 63 76
REMARK SMILES IDX 60 77 56 78 57 79 58 80 59 81 38 82 39 83 47 84 40 85 46 86
REMARK SMILES IDX 48 87 45 88 41 89 42 90 43 91 44 92
REMARK H PARENT 5 6 9 26 68 45 36 56
REMARK Flexibility Score: inf
ROOT
ATOM      1  C   UNL A   1      31.625  28.845  26.744  1.00  0.00     0.042 C 
ENDROOT
BRANCH   1   2
ATOM      2  C   UNL A   1      31.909  27.344  26.763  1.00  0.00     0.117 C 
BRANCH   2   3
ATOM      3  N   UNL A   1      32.692  26.918  25.620  1.00  0.00    -0.356 N 
ATOM      4  C   UNL A   1      32.315  26.312  24.456  1.00  0.00     0.227 C 
ATOM      5  O   UNL A   1      33.202  26.124  23.622  1.00  0.00    -0.274 OA
ATOM      6  H   UNL A   1      33.658  27.094  25.696  1.00  0.00     0.163 HD
BRANCH   4   7
ATOM      7  C   UNL A   1      30.838  25.965  24.209  1.00  0.00     0.108 C 
ATOM      8  C   UNL A   1      30.650  24.644  23.456  1.00  0.00     0.023 C 
BRANCH   7   9
ATOM      9  C   UNL A   1      30.096  27.078  23.480  1.00  0.00    -0.000 A 
ATOM     10  C   UNL A   1      30.802  28.019  22.717  1.00  0.00     0.008 A 
ATOM     11  C   UNL A   1      28.705  27.208  23.567  1.00  0.00     0.127 A 
ATOM     12  C   UNL A   1      30.131  29.078  22.098  1.00  0.00     0.004 A 
ATOM     13  C   UNL A   1      28.033  28.263  22.957  1.00  0.00     0.043 A 
ATOM     14  F   UNL A   1      27.987  26.329  24.280  1.00  0.00    -0.207 F 
ATOM     15  C   UNL A   1      28.744  29.228  22.237  1.00  0.00    -0.044 A 
BRANCH  15  16
ATOM     16  C   UNL A   1      28.031  30.426  21.661  1.00  0.00     0.047 C 
BRANCH  16  17
ATOM     17  C   UNL A   1      27.669  31.532  22.661  1.00  0.00     0.060 C 
ATOM     18  C   UNL A   1      28.313  31.441  24.049  1.00  0.00     0.012 C 
ATOM     19  C   UNL A   1      28.117  32.900  22.197  1.00  0.00     0.136 C 
ATOM     20  C   UNL A   1      29.527  32.364  24.019  1.00  0.00     0.009 C 
ATOM     21  C   UNL A   1      29.125  33.526  23.123  1.00  0.00     0.076 C 
ATOM     22  O   UNL A   1      27.687  33.451  21.190  1.00  0.00    -0.299 OA
ENDBRANCH  16  17
ENDBRANCH  15  16
ENDBRANCH   7   9
ENDBRANCH   4   7
ENDBRANCH   2   3
ENDBRANCH   1   2
BRANCH   1  23
ATOM     23  C   UNL A   1      32.686  29.689  26.040  1.00  0.00     0.118 C 
BRANCH  23  24
ATOM     24  N   UNL A   1      32.568  31.107  26.340  1.00  0.00    -0.352 N 
ATOM     25  C   UNL A   1      33.278  31.900  27.203  1.00  0.00     0.251 C 
ATOM     26  H   UNL A   1      31.859  31.573  25.843  1.00  0.00     0.163 HD
ATOM     27  O   UNL A   1      32.866  33.042  27.420  1.00  0.00    -0.269 OA
BRANCH  25  28
ATOM     28  C   UNL A   1      34.500  31.413  27.887  1.00  0.00     0.039 A 
ATOM     29  C   UNL A   1      35.554  32.313  28.077  1.00  0.00     0.014 A 
ATOM     30  C   UNL A   1      34.648  30.082  28.289  1.00  0.00     0.014 A 
ATOM     31  C   UNL A   1      36.725  31.896  28.716  1.00  0.00     0.010 A 
ATOM     32  C   UNL A   1      35.790  29.684  28.989  1.00  0.00     0.010 A 
ATOM     33  C   UNL A   1      36.842  30.585  29.207  1.00  0.00    -0.014 A 
BRANCH  33  34
ATOM     34  C   UNL A   1      38.057  30.168  29.957  1.00  0.00     0.031 A 
ATOM     35  C   UNL A   1      38.298  30.649  31.362  1.00  0.00     0.074 A 
ATOM     36  C   UNL A   1      38.960  29.369  29.355  1.00  0.00     0.049 A 
ATOM     37  N   UNL A   1      39.293  30.380  32.170  1.00  0.00    -0.248 NA
ATOM     38  C   UNL A   1      37.303  31.574  31.925  1.00  0.00     0.031 C 
ATOM     39  C   UNL A   1      38.866  28.880  27.977  1.00  0.00     0.029 A 
ATOM     40  N   UNL A   1      40.130  28.823  29.819  1.00  0.00    -0.354 N 
ATOM     41  C   UNL A   1      39.047  31.101  33.334  1.00  0.00     0.074 A 
ATOM     42  C   UNL A   1      37.840  31.867  33.099  1.00  0.00     0.031 C 
ATOM     43  C   UNL A   1      39.915  28.085  27.718  1.00  0.00     0.029 A 
ATOM     44  C   UNL A   1      40.776  28.033  28.896  1.00  0.00     0.049 A 
ATOM     45  H   UNL A   1      40.476  28.984  30.726  1.00  0.00     0.167 HD
ATOM     46  C   UNL A   1      39.746  31.104  34.498  1.00  0.00     0.034 A 
ATOM     47  C   UNL A   1      41.929  27.342  28.987  1.00  0.00     0.034 A 
ATOM     48  C   UNL A   1      40.948  30.334  34.717  1.00  0.00     0.049 A 
ATOM     49  C   UNL A   1      42.688  27.362  30.287  1.00  0.00     0.074 A 
ATOM     50  C   UNL A   1      41.707  30.227  35.870  1.00  0.00     0.029 A 
ATOM     51  N   UNL A   1      41.572  29.542  33.761  1.00  0.00    -0.354 N 
ATOM     52  N   UNL A   1      42.408  28.002  31.399  1.00  0.00    -0.248 NA
ATOM     53  C   UNL A   1      43.908  26.548  30.349  1.00  0.00     0.031 C 
ATOM     54  C   UNL A   1      42.821  29.424  35.592  1.00  0.00     0.029 A 
ATOM     55  C   UNL A   1      42.721  28.969  34.288  1.00  0.00     0.049 A 
ATOM     56  H   UNL A   1      41.246  29.407  32.842  1.00  0.00     0.167 HD
ATOM     57  C   UNL A   1      43.411  27.654  32.298  1.00  0.00     0.074 A 
ATOM     58  C   UNL A   1      44.281  26.723  31.608  1.00  0.00     0.031 C 
ATOM     59  C   UNL A   1      43.598  28.067  33.579  1.00  0.00     0.034 A 
BRANCH  46  60
ATOM     60  C   UNL A   1      39.234  31.989  35.611  1.00  0.00     0.023 A 
ATOM     61  C   UNL A   1      39.636  33.332  35.729  1.00  0.00     0.031 A 
ATOM     62  C   UNL A   1      38.354  31.481  36.582  1.00  0.00     0.131 A 
ATOM     63  C   UNL A   1      39.221  34.096  36.830  1.00  0.00     0.055 A 
ATOM     64  C   UNL A   1      37.880  32.270  37.633  1.00  0.00     0.041 A 
ATOM     65  F   UNL A   1      37.948  30.202  36.536  1.00  0.00    -0.206 F 
ATOM     66  C   UNL A   1      38.325  33.582  37.771  1.00  0.00     0.022 A 
BRANCH  63  67
ATOM     67  S   UNL A   1      39.979  35.723  37.092  1.00  0.00     0.124 S 
ATOM     68  O   UNL A   1      39.281  36.185  38.289  1.00  0.00    -0.237 OA
ATOM     69  O   UNL A   1      41.389  35.391  37.261  1.00  0.00    -0.237 OA
ATOM     70  O   UNL A   1      39.653  36.453  35.868  1.00  0.00    -0.744 OA
ENDBRANCH  63  67
ENDBRANCH  46  60
BRANCH  47  71
ATOM     71  C   UNL A   1      42.441  26.577  27.815  1.00  0.00     0.023 A 
ATOM     72  C   UNL A   1      42.052  25.246  27.591  1.00  0.00     0.031 A 
ATOM     73  C   UNL A   1      43.358  27.158  26.920  1.00  0.00     0.131 A 
ATOM     74  C   UNL A   1      42.611  24.526  26.524  1.00  0.00     0.055 A 
ATOM     75  C   UNL A   1      43.873  26.452  25.832  1.00  0.00     0.041 A 
ATOM     76  F   UNL A   1      43.754  28.429  27.085  1.00  0.00    -0.206 F 
ATOM     77  C   UNL A   1      43.510  25.123  25.637  1.00  0.00     0.022 A 
BRANCH  74  78
ATOM     78  S   UNL A   1      42.203  22.767  26.357  1.00  0.00     0.124 S 
ATOM     79  O   UNL A   1      42.989  22.174  27.432  1.00  0.00    -0.237 OA
ATOM     80  O   UNL A   1      40.756  22.773  26.547  1.00  0.00    -0.237 OA
ATOM     81  O   UNL A   1      42.648  22.442  25.003  1.00  0.00    -0.744 OA
ENDBRANCH  74  78
ENDBRANCH  47  71
BRANCH  59  82
ATOM     82  C   UNL A   1      44.787  27.488  34.309  1.00  0.00     0.023 A 
ATOM     83  C   UNL A   1      44.685  26.298  35.052  1.00  0.00     0.031 A 
ATOM     84  C   UNL A   1      46.022  28.158  34.302  1.00  0.00     0.131 A 
ATOM     85  C   UNL A   1      45.775  25.854  35.815  1.00  0.00     0.055 A 
ATOM     86  C   UNL A   1      47.124  27.676  35.012  1.00  0.00     0.041 A 
ATOM     87  F   UNL A   1      46.177  29.300  33.612  1.00  0.00    -0.206 F 
ATOM     88  C   UNL A   1      46.998  26.528  35.788  1.00  0.00     0.022 A 
BRANCH  85  89
ATOM     89  S   UNL A   1      45.534  24.449  36.939  1.00  0.00     0.124 S 
ATOM     90  O   UNL A   1      45.085  23.404  36.025  1.00  0.00    -0.237 OA
ATOM     91  O   UNL A   1      46.867  24.273  37.505  1.00  0.00    -0.237 OA
ATOM     92  O   UNL A   1      44.521  24.931  37.876  1.00  0.00    -0.744 OA
ENDBRANCH  85  89
ENDBRANCH  59  82
ENDBRANCH  33  34
ENDBRANCH  25  28
ENDBRANCH  23  24
ENDBRANCH   1  23
TORSDOF 16
ENDMDL
MODEL 2
REMARK VINA RESULT:     -12.2      1.438      1.742
REMARK SMILES C[C@@H](C(=O)NCCCNC(=O)c1ccc(-c2c3nc(c(-c4cc(S(=O)(=O)[O-])ccc4F)c4ccc([nH]4)c(-c4cc(S(=O)(=O)[O-])ccc4F)c4nc(c(-c5cc(S(=O)(=O)[O-])ccc5F)c5ccc2[nH]5)C=C4)C=C3)cc1)c1ccc(C[C@H]2CCCC2=O)cc1F
REMARK SMILES IDX 7 1 6 2 5 3 3 4 4 5 2 7 1 8 75 9 76 10 87 11 77 12 86 13
REMARK SMILES IDX 88 14 78 15 79 16 80 17 81 18 84 19 82 20 83 21 85 22 8 23
REMARK SMILES IDX 9 24 10 25 11 27 12 28 13 29 74 30 14 31 73 32 15 33 16 34
REMARK SMILES IDX 17 35 67 36 18 37 72 38 66 39 68 40 19 41 71 42 65 43 64 44
REMARK SMILES IDX 20 46 52 47 32 48 51 49 33 50 36 51 50 52 69 53 34 54 35 55
REMARK SMILES IDX 49 57 70 58 37 59 21 60 22 61 30 62 23 63 29 64 31 65 28 66
REMARK SMILES IDX 24 67 25 68 26 69 27 70 53 71 54 72 62 73 55 74 61 75 63 76
REMARK SMILES IDX 60 77 56 78 57 79 58 80 59 81 38 82 39 83 47 84 40 85 46 86
REMARK SMILES IDX 48 87 45 88 41 89 42 90 43 91 44 92
REMARK H PARENT 5 6 9 26 68 45 36 56
REMARK Flexibility Score: inf
ROOT
ATOM      1  C   UNL A   1      31.687  29.051  26.951  1.00  0.00     0.042 C 
ENDROOT
BRANCH   1   2
ATOM      2  C   UNL A   1      31.676  27.526  26.879  1.00  0.00     0.117 C 
BRANCH   2   3
ATOM      3  N   UNL A   1      32.519  27.019  25.814  1.00  0.00    -0.356 N 
ATOM      4  C   UNL A   1      32.205  26.329  24.679  1.00  0.00     0.227 C 
ATOM      5  O   UNL A   1      33.137  26.082  23.910  1.00  0.00    -0.274 OA
ATOM      6  H   UNL A   1      33.481  27.203  25.929  1.00  0.00     0.163 HD
BRANCH   4   7
ATOM      7  C   UNL A   1      30.744  25.959  24.379  1.00  0.00     0.108 C 
ATOM      8  C   UNL A   1      30.601  24.621  23.648  1.00  0.00     0.023 C 
BRANCH   7   9
ATOM      9  C   UNL A   1      30.021  27.049  23.596  1.00  0.00    -0.000 A 
ATOM     10  C   UNL A   1      30.745  27.956  22.811  1.00  0.00     0.008 A 
ATOM     11  C   UNL A   1      28.630  27.190  23.656  1.00  0.00     0.127 A 
ATOM     12  C   UNL A   1      30.091  28.994  22.141  1.00  0.00     0.004 A 
ATOM     13  C   UNL A   1      27.974  28.225  22.996  1.00  0.00     0.043 A 
ATOM     14  F   UNL A   1      27.895  26.343  24.391  1.00  0.00    -0.207 F 
ATOM     15  C   UNL A   1      28.704  29.157  22.251  1.00  0.00    -0.044 A 
BRANCH  15  16
ATOM     16  C   UNL A   1      28.008  30.337  21.619  1.00  0.00     0.047 C 
BRANCH  16  17
ATOM     17  C   UNL A   1      27.610  31.469  22.575  1.00  0.00     0.060 C 
ATOM     18  C   UNL A   1      28.191  31.407  23.993  1.00  0.00     0.012 C 
ATOM     19  C   UNL A   1      28.088  32.822  22.099  1.00  0.00     0.136 C 
ATOM     20  C   UNL A   1      29.412  32.321  23.994  1.00  0.00     0.009 C 
ATOM     21  C   UNL A   1      29.060  33.464  23.054  1.00  0.00     0.076 C 
ATOM     22  O   UNL A   1      27.709  33.352  21.061  1.00  0.00    -0.299 OA
ENDBRANCH  16  17
ENDBRANCH  15  16
ENDBRANCH   7   9
ENDBRANCH   4   7
ENDBRANCH   2   3
ENDBRANCH   1   2
BRANCH   1  23
ATOM     23  C   UNL A   1      33.018  29.701  26.578  1.00  0.00     0.118 C 
BRANCH  23  24
ATOM     24  N   UNL A   1      33.046  31.128  26.857  1.00  0.00    -0.352 N 
ATOM     25  C   UNL A   1      33.901  31.872  27.629  1.00  0.00     0.251 C 
ATOM     26  H   UNL A   1      32.331  31.645  26.421  1.00  0.00     0.163 HD
ATOM     27  O   UNL A   1      33.606  33.046  27.860  1.00  0.00    -0.269 OA
BRANCH  25  28
ATOM     28  C   UNL A   1      35.140  31.294  28.200  1.00  0.00     0.039 A 
ATOM     29  C   UNL A   1      36.307  32.065  28.163  1.00  0.00     0.014 A 
ATOM     30  C   UNL A   1      35.189  29.995  28.715  1.00  0.00     0.014 A 
ATOM     31  C   UNL A   1      37.499  31.559  28.688  1.00  0.00     0.010 A 
ATOM     32  C   UNL A   1      36.362  29.517  29.304  1.00  0.00     0.010 A 
ATOM     33  C   UNL A   1      37.531  30.292  29.293  1.00  0.00    -0.014 A 
BRANCH  33  34
ATOM     34  C   UNL A   1      38.781  29.791  29.924  1.00  0.00     0.031 A 
ATOM     35  C   UNL A   1      39.221  30.294  31.272  1.00  0.00     0.074 A 
ATOM     36  C   UNL A   1      39.537  28.892  29.262  1.00  0.00     0.049 A 
ATOM     37  N   UNL A   1      40.273  29.962  31.976  1.00  0.00    -0.248 NA
ATOM     38  C   UNL A   1      38.381  31.325  31.899  1.00  0.00     0.031 C 
ATOM     39  C   UNL A   1      39.245  28.368  27.925  1.00  0.00     0.029 A 
ATOM     40  N   UNL A   1      40.699  28.256  29.618  1.00  0.00    -0.354 N 
ATOM     41  C   UNL A   1      40.225  30.741  33.128  1.00  0.00     0.074 A 
ATOM     42  C   UNL A   1      39.071  31.607  32.994  1.00  0.00     0.031 C 
ATOM     43  C   UNL A   1      40.185  27.471  27.588  1.00  0.00     0.029 A 
ATOM     44  C   UNL A   1      41.165  27.379  28.666  1.00  0.00     0.049 A 
ATOM     45  H   UNL A   1      41.159  28.415  30.475  1.00  0.00     0.167 HD
ATOM     46  C   UNL A   1      41.048  30.719  34.207  1.00  0.00     0.034 A 
ATOM     47  C   UNL A   1      42.256  26.589  28.660  1.00  0.00     0.034 A 
ATOM     48  C   UNL A   1      42.195  29.849  34.327  1.00  0.00     0.049 A 
ATOM     49  C   UNL A   1      43.156  26.582  29.868  1.00  0.00     0.074 A 
ATOM     50  C   UNL A   1      43.067  29.712  35.394  1.00  0.00     0.029 A 
ATOM     51  N   UNL A   1      42.635  28.972  33.344  1.00  0.00    -0.354 N 
ATOM     52  N   UNL A   1      43.060  27.282  30.974  1.00  0.00    -0.248 NA
ATOM     53  C   UNL A   1      44.298  25.661  29.832  1.00  0.00     0.031 C 
ATOM     54  C   UNL A   1      44.067  28.801  35.031  1.00  0.00     0.029 A 
ATOM     55  C   UNL A   1      43.781  28.313  33.767  1.00  0.00     0.049 A 
ATOM     56  H   UNL A   1      42.197  28.837  32.473  1.00  0.00     0.167 HD
ATOM     57  C   UNL A   1      44.124  26.873  31.773  1.00  0.00     0.074 A 
ATOM     58  C   UNL A   1      44.826  25.844  31.033  1.00  0.00     0.031 C 
ATOM     59  C   UNL A   1      44.490  27.310  33.006  1.00  0.00     0.034 A 
BRANCH  46  60
ATOM     60  C   UNL A   1      40.744  31.685  35.330  1.00  0.00     0.023 A 
ATOM     61  C   UNL A   1      39.642  31.499  36.183  1.00  0.00     0.031 A 
ATOM     62  C   UNL A   1      41.549  32.819  35.537  1.00  0.00     0.131 A 
ATOM     63  C   UNL A   1      39.331  32.467  37.151  1.00  0.00     0.055 A 
ATOM     64  C   UNL A   1      41.281  33.738  36.554  1.00  0.00     0.041 A 
ATOM     65  F   UNL A   1      42.605  33.061  34.744  1.00  0.00    -0.206 F 
ATOM     66  C   UNL A   1      40.157  33.573  37.359  1.00  0.00     0.022 A 
BRANCH  63  67
ATOM     67  S   UNL A   1      37.754  32.331  38.037  1.00  0.00     0.124 S 
ATOM     68  O   UNL A   1      37.460  30.907  37.899  1.00  0.00    -0.237 OA
ATOM     69  O   UNL A   1      38.105  32.786  39.377  1.00  0.00    -0.237 OA
ATOM     70  O   UNL A   1      36.864  33.218  37.291  1.00  0.00    -0.744 OA
ENDBRANCH  63  67
ENDBRANCH  46  60
BRANCH  47  71
ATOM     71  C   UNL A   1      42.563  25.740  27.475  1.00  0.00     0.023 A 
ATOM     72  C   UNL A   1      42.116  24.412  27.396  1.00  0.00     0.031 A 
ATOM     73  C   UNL A   1      43.343  26.238  26.415  1.00  0.00     0.131 A 
ATOM     74  C   UNL A   1      42.486  23.612  26.304  1.00  0.00     0.055 A 
ATOM     75  C   UNL A   1      43.667  25.455  25.307  1.00  0.00     0.041 A 
ATOM     76  F   UNL A   1      43.787  27.504  26.436  1.00  0.00    -0.206 F 
ATOM     77  C   UNL A   1      43.249  24.129  25.254  1.00  0.00     0.022 A 
BRANCH  74  78
ATOM     78  S   UNL A   1      42.019  21.861  26.312  1.00  0.00     0.124 S 
ATOM     79  O   UNL A   1      40.612  21.926  25.933  1.00  0.00    -0.237 OA
ATOM     80  O   UNL A   1      42.927  21.301  25.318  1.00  0.00    -0.237 OA
ATOM     81  O   UNL A   1      42.276  21.446  27.690  1.00  0.00    -0.744 OA
ENDBRANCH  74  78
ENDBRANCH  47  71
BRANCH  59  82
ATOM     82  C   UNL A   1      45.698  26.650  33.626  1.00  0.00     0.023 A 
ATOM     83  C   UNL A   1      45.580  25.483  34.403  1.00  0.00     0.031 A 
ATOM     84  C   UNL A   1      46.975  27.218  33.480  1.00  0.00     0.131 A 
ATOM     85  C   UNL A   1      46.704  24.965  35.063  1.00  0.00     0.055 A 
ATOM     86  C   UNL A   1      48.102  26.661  34.087  1.00  0.00     0.041 A 
ATOM     87  F   UNL A   1      47.147  28.334  32.752  1.00  0.00    -0.206 F 
ATOM     88  C   UNL A   1      47.966  25.538  34.898  1.00  0.00     0.022 A 
BRANCH  85  89
ATOM     89  S   UNL A   1      46.470  23.601  36.238  1.00  0.00     0.124 S 
ATOM     90  O   UNL A   1      45.016  23.472  36.267  1.00  0.00    -0.237 OA
ATOM     91  O   UNL A   1      47.193  22.510  35.595  1.00  0.00    -0.237 OA
ATOM     92  O   UNL A   1      47.073  24.104  37.471  1.00  0.00    -0.744 OA
ENDBRANCH  85  89
ENDBRANCH  59  82
ENDBRANCH  33  34
ENDBRANCH  25  28
ENDBRANCH  23  24
ENDBRANCH   1  23
TORSDOF 16
ENDMDL
MODEL 3
REMARK VINA RESULT:     -11.9      2.837      5.160
REMARK SMILES C[C@@H](C(=O)NCCCNC(=O)c1ccc(-c2c3nc(c(-c4cc(S(=O)(=O)[O-])ccc4F)c4ccc([nH]4)c(-c4cc(S(=O)(=O)[O-])ccc4F)c4nc(c(-c5cc(S(=O)(=O)[O-])ccc5F)c5ccc2[nH]5)C=C4)C=C3)cc1)c1ccc(C[C@H]2CCCC2=O)cc1F
REMARK SMILES IDX 7 1 6 2 5 3 3 4 4 5 2 7 1 8 75 9 76 10 87 11 77 12 86 13
REMARK SMILES IDX 88 14 78 15 79 16 80 17 81 18 84 19 82 20 83 21 85 22 8 23
REMARK SMILES IDX 9 24 10 25 11 27 12 28 13 29 74 30 14 31 73 32 15 33 16 34
REMARK SMILES IDX 17 35 67 36 18 37 72 38 66 39 68 40 19 41 71 42 65 43 64 44
REMARK SMILES IDX 20 46 52 47 32 48 51 49 33 50 36 51 50 52 69 53 34 54 35 55
REMARK SMILES IDX 49 57 70 58 37 59 21 60 22 61 30 62 23 63 29 64 31 65 28 66
REMARK SMILES IDX 24 67 25 68 26 69 27 70 53 71 54 72 62 73 55 74 61 75 63 76
REMARK SMILES IDX 60 77 56 78 57 79 58 80 59 81 38 82 39 83 47 84 40 85 46 86
REMARK SMILES IDX 48 87 45 88 41 89 42 90 43 91 44 92
REMARK H PARENT 5 6 9 26 68 45 36 56
REMARK Flexibility Score: inf
ROOT
ATOM      1  C   UNL A   1      31.754  28.927  26.360  1.00  0.00     0.042 C 
ENDROOT
BRANCH   1   2
ATOM      2  C   UNL A   1      31.875  27.725  27.295  1.00  0.00     0.117 C 
BRANCH   2   3
ATOM      3  N   UNL A   1      31.238  26.540  26.755  1.00  0.00    -0.356 N 
ATOM      4  C   UNL A   1      31.752  25.501  26.034  1.00  0.00     0.227 C 
ATOM      5  O   UNL A   1      30.976  24.583  25.762  1.00  0.00    -0.274 OA
ATOM      6  H   UNL A   1      30.273  26.474  26.938  1.00  0.00     0.163 HD
BRANCH   4   7
ATOM      7  C   UNL A   1      33.244  25.482  25.663  1.00  0.00     0.108 C 
ATOM      8  C   UNL A   1      33.569  26.346  24.440  1.00  0.00     0.023 C 
BRANCH   7   9
ATOM      9  C   UNL A   1      33.767  24.067  25.442  1.00  0.00    -0.000 A 
ATOM     10  C   UNL A   1      34.162  23.650  24.164  1.00  0.00     0.008 A 
ATOM     11  C   UNL A   1      33.845  23.146  26.492  1.00  0.00     0.127 A 
ATOM     12  C   UNL A   1      34.582  22.335  23.945  1.00  0.00     0.004 A 
ATOM     13  C   UNL A   1      34.258  21.834  26.279  1.00  0.00     0.043 A 
ATOM     14  F   UNL A   1      33.483  23.501  27.733  1.00  0.00    -0.207 F 
ATOM     15  C   UNL A   1      34.606  21.406  24.994  1.00  0.00    -0.044 A 
BRANCH  15  16
ATOM     16  C   UNL A   1      34.956  19.960  24.743  1.00  0.00     0.047 C 
BRANCH  16  17
ATOM     17  C   UNL A   1      33.803  18.958  24.891  1.00  0.00     0.060 C 
ATOM     18  C   UNL A   1      32.491  19.310  24.180  1.00  0.00     0.012 C 
ATOM     19  C   UNL A   1      34.131  17.608  24.294  1.00  0.00     0.136 C 
ATOM     20  C   UNL A   1      32.505  18.550  22.858  1.00  0.00     0.009 C 
ATOM     21  C   UNL A   1      33.218  17.239  23.155  1.00  0.00     0.076 C 
ATOM     22  O   UNL A   1      35.027  16.880  24.707  1.00  0.00    -0.299 OA
ENDBRANCH  16  17
ENDBRANCH  15  16
ENDBRANCH   7   9
ENDBRANCH   4   7
ENDBRANCH   2   3
ENDBRANCH   1   2
BRANCH   1  23
ATOM     23  C   UNL A   1      33.052  29.704  26.144  1.00  0.00     0.118 C 
BRANCH  23  24
ATOM     24  N   UNL A   1      32.948  31.096  26.552  1.00  0.00    -0.352 N 
ATOM     25  C   UNL A   1      33.696  31.826  27.440  1.00  0.00     0.251 C 
ATOM     26  H   UNL A   1      32.220  31.597  26.120  1.00  0.00     0.163 HD
ATOM     27  O   UNL A   1      33.295  32.947  27.757  1.00  0.00    -0.269 OA
BRANCH  25  28
ATOM     28  C   UNL A   1      34.944  31.292  28.034  1.00  0.00     0.039 A 
ATOM     29  C   UNL A   1      36.062  32.131  28.088  1.00  0.00     0.014 A 
ATOM     30  C   UNL A   1      35.051  29.972  28.483  1.00  0.00     0.014 A 
ATOM     31  C   UNL A   1      37.260  31.668  28.638  1.00  0.00     0.010 A 
ATOM     32  C   UNL A   1      36.227  29.533  29.097  1.00  0.00     0.010 A 
ATOM     33  C   UNL A   1      37.345  30.375  29.177  1.00  0.00    -0.014 A 
BRANCH  33  34
ATOM     34  C   UNL A   1      38.598  29.914  29.834  1.00  0.00     0.031 A 
ATOM     35  C   UNL A   1      38.986  30.422  31.197  1.00  0.00     0.074 A 
ATOM     36  C   UNL A   1      39.402  29.048  29.185  1.00  0.00     0.049 A 
ATOM     37  N   UNL A   1      40.032  30.123  31.925  1.00  0.00    -0.248 NA
ATOM     38  C   UNL A   1      38.093  31.417  31.810  1.00  0.00     0.031 C 
ATOM     39  C   UNL A   1      39.162  28.525  27.838  1.00  0.00     0.029 A 
ATOM     40  N   UNL A   1      40.578  28.453  29.566  1.00  0.00    -0.354 N 
ATOM     41  C   UNL A   1      39.926  30.891  33.081  1.00  0.00     0.074 A 
ATOM     42  C   UNL A   1      38.746  31.715  32.923  1.00  0.00     0.031 C 
ATOM     43  C   UNL A   1      40.142  27.665  27.518  1.00  0.00     0.029 A 
ATOM     44  C   UNL A   1      41.098  27.601  28.619  1.00  0.00     0.049 A 
ATOM     45  H   UNL A   1      41.010  28.621  30.434  1.00  0.00     0.167 HD
ATOM     46  C   UNL A   1      40.724  30.890  34.179  1.00  0.00     0.034 A 
ATOM     47  C   UNL A   1      42.217  26.851  28.634  1.00  0.00     0.034 A 
ATOM     48  C   UNL A   1      41.898  30.062  34.321  1.00  0.00     0.049 A 
ATOM     49  C   UNL A   1      43.087  26.867  29.864  1.00  0.00     0.074 A 
ATOM     50  C   UNL A   1      42.749  29.947  35.408  1.00  0.00     0.029 A 
ATOM     51  N   UNL A   1      42.394  29.208  33.343  1.00  0.00    -0.354 N 
ATOM     52  N   UNL A   1      42.939  27.554  30.973  1.00  0.00    -0.248 NA
ATOM     53  C   UNL A   1      44.263  25.989  29.850  1.00  0.00     0.031 C 
ATOM     54  C   UNL A   1      43.790  29.076  35.064  1.00  0.00     0.029 A 
ATOM     55  C   UNL A   1      43.553  28.589  33.789  1.00  0.00     0.049 A 
ATOM     56  H   UNL A   1      41.983  29.065  32.460  1.00  0.00     0.167 HD
ATOM     57  C   UNL A   1      43.997  27.179  31.794  1.00  0.00     0.074 A 
ATOM     58  C   UNL A   1      44.754  26.182  31.065  1.00  0.00     0.031 C 
ATOM     59  C   UNL A   1      44.316  27.619  33.039  1.00  0.00     0.034 A 
BRANCH  46  60
ATOM     60  C   UNL A   1      40.357  31.835  35.301  1.00  0.00     0.023 A 
ATOM     61  C   UNL A   1      39.413  31.482  36.282  1.00  0.00     0.031 A 
ATOM     62  C   UNL A   1      40.939  33.112  35.380  1.00  0.00     0.131 A 
ATOM     63  C   UNL A   1      39.022  32.420  37.250  1.00  0.00     0.055 A 
ATOM     64  C   UNL A   1      40.605  34.013  36.394  1.00  0.00     0.041 A 
ATOM     65  F   UNL A   1      41.833  33.514  34.463  1.00  0.00    -0.206 F 
ATOM     66  C   UNL A   1      39.630  33.675  37.328  1.00  0.00     0.022 A 
BRANCH  63  67
ATOM     67  S   UNL A   1      37.608  32.027  38.317  1.00  0.00     0.124 S 
ATOM     68  O   UNL A   1      36.649  33.056  37.926  1.00  0.00    -0.237 OA
ATOM     69  O   UNL A   1      37.283  30.662  37.919  1.00  0.00    -0.237 OA
ATOM     70  O   UNL A   1      38.149  32.170  39.668  1.00  0.00    -0.744 OA
ENDBRANCH  63  67
ENDBRANCH  46  60
BRANCH  47  71
ATOM     71  C   UNL A   1      42.585  26.024  27.451  1.00  0.00     0.023 A 
ATOM     72  C   UNL A   1      42.184  24.682  27.350  1.00  0.00     0.031 A 
ATOM     73  C   UNL A   1      43.375  26.557  26.417  1.00  0.00     0.131 A 
ATOM     74  C   UNL A   1      42.610  23.905  26.262  1.00  0.00     0.055 A 
ATOM     75  C   UNL A   1      43.755  25.794  25.312  1.00  0.00     0.041 A 
ATOM     76  F   UNL A   1      43.777  27.837  26.460  1.00  0.00    -0.206 F 
ATOM     77  C   UNL A   1      43.383  24.456  25.237  1.00  0.00     0.022 A 
BRANCH  74  78
ATOM     78  S   UNL A   1      42.201  22.139  26.243  1.00  0.00     0.124 S 
ATOM     79  O   UNL A   1      43.008  21.658  25.128  1.00  0.00    -0.237 OA
ATOM     80  O   UNL A   1      42.626  21.716  27.573  1.00  0.00    -0.237 OA
ATOM     81  O   UNL A   1      40.756  22.127  26.020  1.00  0.00    -0.744 OA
ENDBRANCH  74  78
ENDBRANCH  47  71
BRANCH  59  82
ATOM     82  C   UNL A   1      45.533  26.998  33.684  1.00  0.00     0.023 A 
ATOM     83  C   UNL A   1      45.432  25.843  34.482  1.00  0.00     0.031 A 
ATOM     84  C   UNL A   1      46.798  27.593  33.541  1.00  0.00     0.131 A 
ATOM     85  C   UNL A   1      46.561  25.364  35.163  1.00  0.00     0.055 A 
ATOM     86  C   UNL A   1      47.930  27.072  34.170  1.00  0.00     0.041 A 
ATOM     87  F   UNL A   1      46.952  28.698  32.794  1.00  0.00    -0.206 F 
ATOM     88  C   UNL A   1      47.812  25.962  35.001  1.00  0.00     0.022 A 
BRANCH  85  89
ATOM     89  S   UNL A   1      46.345  24.017  36.361  1.00  0.00     0.124 S 
ATOM     90  O   UNL A   1      47.691  23.878  36.906  1.00  0.00    -0.237 OA
ATOM     91  O   UNL A   1      45.343  24.566  37.268  1.00  0.00    -0.237 OA
ATOM     92  O   UNL A   1      45.890  22.897  35.539  1.00  0.00    -0.744 OA
ENDBRANCH  85  89
ENDBRANCH  59  82
ENDBRANCH  33  34
ENDBRANCH  25  28
ENDBRANCH  23  24
ENDBRANCH   1  23
TORSDOF 16
ENDMDL
