MODEL 1
REMARK VINA RESULT:     -12.5      0.000      0.000
REMARK SMILES Cc1ccc(NS(=O)(=O)N2CCCC[C@@H]2C(=O)NCCCNC(=O)c2ccc(-c3c4nc(c(-c5cc(S(=O)(=O)[O-])ccc5F)c5ccc([nH]5)c(-c5cc(S(=O)(=O)[O-])ccc5F)c5nc(c(-c6cc(S(=O)(=O)[O-])ccc6F)c6ccc3[nH]6)C=C5)C=C4)cc2)c(C)n1
REMARK SMILES IDX 20 1 19 2 18 3 16 4 17 5 15 7 10 8 11 9 12 10 14 11 13 12
REMARK SMILES IDX 7 13 8 14 9 15 6 16 5 18 1 19 2 20 3 21 90 22 4 23 88 24
REMARK SMILES IDX 89 25 21 26 22 27 23 28 24 30 25 31 26 32 87 33 27 34 86 35
REMARK SMILES IDX 28 36 29 37 30 38 80 39 31 40 85 41 79 42 81 43 32 44 84 45
REMARK SMILES IDX 78 46 77 47 33 49 65 50 45 51 64 52 46 53 49 54 63 55 82 56
REMARK SMILES IDX 47 57 48 58 62 60 83 61 50 62 34 63 35 64 43 65 36 66 42 67
REMARK SMILES IDX 44 68 41 69 37 70 38 71 39 72 40 73 66 74 67 75 75 76 68 77
REMARK SMILES IDX 74 78 76 79 73 80 69 81 70 82 71 83 72 84 51 85 52 86 60 87
REMARK SMILES IDX 53 88 59 89 61 90 58 91 54 92 55 93 56 94 57 95
REMARK H PARENT 18 6 6 17 22 29 81 48 49 59
REMARK Flexibility Score: inf
ROOT
ATOM      1  C   UNL A   1      34.772  22.585  27.204  1.00  0.00     0.042 C 
ENDROOT
BRANCH   1   2
ATOM      2  C   UNL A   1      33.992  21.283  26.981  1.00  0.00     0.117 C 
BRANCH   2   3
ATOM      3  N   UNL A   1      32.577  21.494  26.707  1.00  0.00    -0.355 N 
ATOM      4  C   UNL A   1      31.870  22.063  25.700  1.00  0.00     0.238 C 
ATOM      5  O   UNL A   1      30.652  21.830  25.741  1.00  0.00    -0.273 OA
ATOM      6  H   UNL A   1      31.997  21.139  27.421  1.00  0.00     0.163 HD
BRANCH   4   7
ATOM      7  C   UNL A   1      32.435  22.947  24.579  1.00  0.00     0.163 C 
ATOM      8  N   UNL A   1      32.034  24.405  24.562  1.00  0.00    -0.172 NA
ATOM      9  C   UNL A   1      32.780  25.156  23.501  1.00  0.00     0.105 C 
ATOM     10  C   UNL A   1      32.507  24.552  22.132  1.00  0.00     0.017 C 
ATOM     11  C   UNL A   1      32.271  22.309  23.189  1.00  0.00     0.030 C 
ATOM     12  C   UNL A   1      32.972  23.105  22.093  1.00  0.00     0.004 C 
BRANCH   8  13
ATOM     13  S   UNL A   1      32.150  25.213  26.061  1.00  0.00     0.302 S 
ATOM     14  O   UNL A   1      33.498  25.692  26.254  1.00  0.00    -0.189 OA
ATOM     15  O   UNL A   1      31.553  24.375  27.073  1.00  0.00    -0.189 OA
BRANCH  13  16
ATOM     16  N   UNL A   1      31.173  26.523  25.847  1.00  0.00    -0.269 N 
ATOM     17  H   UNL A   1      30.213  26.332  25.744  1.00  0.00     0.181 HD
BRANCH  16  18
ATOM     18  C   UNL A   1      31.550  27.910  25.794  1.00  0.00     0.071 A 
ATOM     19  C   UNL A   1      31.342  32.095  26.539  1.00  0.00     0.067 C 
ATOM     20  C   UNL A   1      31.631  30.649  26.279  1.00  0.00     0.038 A 
ATOM     21  C   UNL A   1      31.985  29.786  27.296  1.00  0.00     0.026 A 
ATOM     22  N   UNL A   1      31.364  30.202  25.038  1.00  0.00    -0.256 NA
ATOM     23  C   UNL A   1      31.924  28.415  27.052  1.00  0.00     0.030 A 
ATOM     24  C   UNL A   1      31.357  28.861  24.780  1.00  0.00     0.062 A 
ATOM     25  C   UNL A   1      31.083  28.609  23.337  1.00  0.00     0.069 C 
ENDBRANCH  16  18
ENDBRANCH  13  16
ENDBRANCH   8  13
ENDBRANCH   4   7
ENDBRANCH   2   3
ENDBRANCH   1   2
BRANCH   1  26
ATOM     26  C   UNL A   1      35.828  22.921  26.149  1.00  0.00     0.118 C 
BRANCH  26  27
ATOM     27  N   UNL A   1      36.697  21.817  25.775  1.00  0.00    -0.352 N 
ATOM     28  C   UNL A   1      38.063  21.664  25.819  1.00  0.00     0.251 C 
ATOM     29  H   UNL A   1      36.218  21.032  25.425  1.00  0.00     0.163 HD
ATOM     30  O   UNL A   1      38.561  20.629  25.377  1.00  0.00    -0.269 OA
BRANCH  28  31
ATOM     31  C   UNL A   1      38.949  22.725  26.343  1.00  0.00     0.039 A 
ATOM     32  C   UNL A   1      39.995  22.376  27.211  1.00  0.00     0.014 A 
ATOM     33  C   UNL A   1      38.712  24.066  26.058  1.00  0.00     0.014 A 
ATOM     34  C   UNL A   1      40.833  23.365  27.739  1.00  0.00     0.010 A 
ATOM     35  C   UNL A   1      39.594  25.039  26.512  1.00  0.00     0.010 A 
ATOM     36  C   UNL A   1      40.650  24.704  27.373  1.00  0.00    -0.014 A 
BRANCH  36  37
ATOM     37  C   UNL A   1      41.463  25.819  27.921  1.00  0.00     0.031 A 
ATOM     38  C   UNL A   1      40.758  26.892  28.708  1.00  0.00     0.074 A 
ATOM     39  C   UNL A   1      42.759  25.953  27.581  1.00  0.00     0.049 A 
ATOM     40  N   UNL A   1      41.140  28.110  28.988  1.00  0.00    -0.248 NA
ATOM     41  C   UNL A   1      39.406  26.560  29.185  1.00  0.00     0.031 C 
ATOM     42  C   UNL A   1      43.538  24.982  26.810  1.00  0.00     0.029 A 
ATOM     43  N   UNL A   1      43.636  26.986  27.798  1.00  0.00    -0.354 N 
ATOM     44  C   UNL A   1      40.049  28.714  29.607  1.00  0.00     0.074 A 
ATOM     45  C   UNL A   1      38.986  27.732  29.638  1.00  0.00     0.031 C 
ATOM     46  C   UNL A   1      44.769  25.476  26.599  1.00  0.00     0.029 A 
ATOM     47  C   UNL A   1      44.848  26.818  27.168  1.00  0.00     0.049 A 
ATOM     48  H   UNL A   1      43.419  27.771  28.349  1.00  0.00     0.167 HD
ATOM     49  C   UNL A   1      39.951  29.972  30.101  1.00  0.00     0.034 A 
ATOM     50  C   UNL A   1      45.885  27.668  27.030  1.00  0.00     0.034 A 
ATOM     51  C   UNL A   1      41.053  30.903  30.109  1.00  0.00     0.049 A 
ATOM     52  C   UNL A   1      45.776  29.043  27.641  1.00  0.00     0.074 A 
ATOM     53  C   UNL A   1      41.110  32.170  30.662  1.00  0.00     0.029 A 
ATOM     54  N   UNL A   1      42.299  30.659  29.545  1.00  0.00    -0.354 N 
ATOM     55  N   UNL A   1      44.749  29.598  28.247  1.00  0.00    -0.248 NA
ATOM     56  C   UNL A   1      46.963  29.903  27.558  1.00  0.00     0.031 C 
ATOM     57  C   UNL A   1      42.371  32.711  30.387  1.00  0.00     0.029 A 
ATOM     58  C   UNL A   1      43.125  31.757  29.720  1.00  0.00     0.049 A 
ATOM     59  H   UNL A   1      42.557  29.827  29.086  1.00  0.00     0.167 HD
ATOM     60  C   UNL A   1      45.178  30.862  28.639  1.00  0.00     0.074 A 
ATOM     61  C   UNL A   1      46.560  30.979  28.217  1.00  0.00     0.031 C 
ATOM     62  C   UNL A   1      44.498  31.843  29.287  1.00  0.00     0.034 A 
BRANCH  49  63
ATOM     63  C   UNL A   1      38.610  30.418  30.634  1.00  0.00     0.023 A 
ATOM     64  C   UNL A   1      37.676  31.098  29.834  1.00  0.00     0.031 A 
ATOM     65  C   UNL A   1      38.271  30.184  31.980  1.00  0.00     0.131 A 
ATOM     66  C   UNL A   1      36.490  31.589  30.402  1.00  0.00     0.055 A 
ATOM     67  C   UNL A   1      37.051  30.600  32.519  1.00  0.00     0.041 A 
ATOM     68  F   UNL A   1      39.128  29.557  32.802  1.00  0.00    -0.206 F 
ATOM     69  C   UNL A   1      36.158  31.322  31.732  1.00  0.00     0.022 A 
BRANCH  66  70
ATOM     70  S   UNL A   1      35.450  32.698  29.414  1.00  0.00     0.124 S 
ATOM     71  O   UNL A   1      35.471  32.036  28.112  1.00  0.00    -0.237 OA
ATOM     72  O   UNL A   1      34.180  32.661  30.128  1.00  0.00    -0.237 OA
ATOM     73  O   UNL A   1      36.160  33.974  29.468  1.00  0.00    -0.744 OA
ENDBRANCH  66  70
ENDBRANCH  49  63
BRANCH  50  74
ATOM     74  C   UNL A   1      47.100  27.267  26.264  1.00  0.00     0.023 A 
ATOM     75  C   UNL A   1      47.263  27.645  24.921  1.00  0.00     0.031 A 
ATOM     76  C   UNL A   1      48.101  26.469  26.848  1.00  0.00     0.131 A 
ATOM     77  C   UNL A   1      48.373  27.188  24.193  1.00  0.00     0.055 A 
ATOM     78  C   UNL A   1      49.229  26.060  26.134  1.00  0.00     0.041 A 
ATOM     79  F   UNL A   1      48.000  26.086  28.131  1.00  0.00    -0.206 F 
ATOM     80  C   UNL A   1      49.363  26.408  24.795  1.00  0.00     0.022 A 
BRANCH  77  81
ATOM     81  S   UNL A   1      48.459  27.560  22.420  1.00  0.00     0.124 S 
ATOM     82  O   UNL A   1      47.225  28.311  22.214  1.00  0.00    -0.237 OA
ATOM     83  O   UNL A   1      49.697  28.326  22.334  1.00  0.00    -0.237 OA
ATOM     84  O   UNL A   1      48.498  26.239  21.798  1.00  0.00    -0.744 OA
ENDBRANCH  77  81
ENDBRANCH  50  74
BRANCH  62  85
ATOM     85  C   UNL A   1      45.265  33.097  29.615  1.00  0.00     0.023 A 
ATOM     86  C   UNL A   1      45.294  34.194  28.736  1.00  0.00     0.031 A 
ATOM     87  C   UNL A   1      45.981  33.191  30.821  1.00  0.00     0.131 A 
ATOM     88  C   UNL A   1      46.072  35.317  29.052  1.00  0.00     0.055 A 
ATOM     89  C   UNL A   1      46.708  34.334  31.154  1.00  0.00     0.041 A 
ATOM     90  F   UNL A   1      45.984  32.171  31.694  1.00  0.00    -0.206 F 
ATOM     91  C   UNL A   1      46.767  35.400  30.261  1.00  0.00     0.022 A 
BRANCH  88  92
ATOM     92  S   UNL A   1      46.235  36.634  27.816  1.00  0.00     0.124 S 
ATOM     93  O   UNL A   1      46.746  35.905  26.660  1.00  0.00    -0.237 OA
ATOM     94  O   UNL A   1      44.866  37.128  27.704  1.00  0.00    -0.237 OA
ATOM     95  O   UNL A   1      47.180  37.565  28.431  1.00  0.00    -0.744 OA
ENDBRANCH  88  92
ENDBRANCH  62  85
ENDBRANCH  36  37
ENDBRANCH  28  31
ENDBRANCH  26  27
ENDBRANCH   1  26
TORSDOF 16
ENDMDL
MODEL 2
REMARK VINA RESULT:     -12.4      5.128     10.078
REMARK SMILES Cc1ccc(NS(=O)(=O)N2CCCC[C@@H]2C(=O)NCCCNC(=O)c2ccc(-c3c4nc(c(-c5cc(S(=O)(=O)[O-])ccc5F)c5ccc([nH]5)c(-c5cc(S(=O)(=O)[O-])ccc5F)c5nc(c(-c6cc(S(=O)(=O)[O-])ccc6F)c6ccc3[nH]6)C=C5)C=C4)cc2)c(C)n1
REMARK SMILES IDX 20 1 19 2 18 3 16 4 17 5 15 7 10 8 11 9 12 10 14 11 13 12
REMARK SMILES IDX 7 13 8 14 9 15 6 16 5 18 1 19 2 20 3 21 90 22 4 23 88 24
REMARK SMILES IDX 89 25 21 26 22 27 23 28 24 30 25 31 26 32 87 33 27 34 86 35
REMARK SMILES IDX 28 36 29 37 30 38 80 39 31 40 85 41 79 42 81 43 32 44 84 45
REMARK SMILES IDX 78 46 77 47 33 49 65 50 45 51 64 52 46 53 49 54 63 55 82 56
REMARK SMILES IDX 47 57 48 58 62 60 83 61 50 62 34 63 35 64 43 65 36 66 42 67
REMARK SMILES IDX 44 68 41 69 37 70 38 71 39 72 40 73 66 74 67 75 75 76 68 77
REMARK SMILES IDX 74 78 76 79 73 80 69 81 70 82 71 83 72 84 51 85 52 86 60 87
REMARK SMILES IDX 53 88 59 89 61 90 58 91 54 92 55 93 56 94 57 95
REMARK H PARENT 18 6 6 17 22 29 81 48 49 59
REMARK Flexibility Score: inf
ROOT
ATOM      1  C   UNL A   1      32.833  29.096  23.695  1.00  0.00     0.042 C 
ENDROOT
BRANCH   1   2
ATOM      2  C   UNL A   1      33.789  28.305  22.793  1.00  0.00     0.117 C 
BRANCH   2   3
ATOM      3  N   UNL A   1      33.147  27.201  22.092  1.00  0.00    -0.355 N 
ATOM      4  C   UNL A   1      32.258  26.236  22.435  1.00  0.00     0.238 C 
ATOM      5  O   UNL A   1      31.784  25.618  21.469  1.00  0.00    -0.273 OA
ATOM      6  H   UNL A   1      33.423  27.141  21.148  1.00  0.00     0.163 HD
BRANCH   4   7
ATOM      7  C   UNL A   1      31.831  25.858  23.860  1.00  0.00     0.163 C 
ATOM      8  N   UNL A   1      32.362  24.564  24.435  1.00  0.00    -0.172 NA
ATOM      9  C   UNL A   1      31.973  24.415  25.875  1.00  0.00     0.105 C 
ATOM     10  C   UNL A   1      30.459  24.436  26.021  1.00  0.00     0.017 C 
ATOM     11  C   UNL A   1      30.312  25.977  24.069  1.00  0.00     0.030 C 
ATOM     12  C   UNL A   1      29.902  25.759  25.523  1.00  0.00     0.004 C 
BRANCH   8  13
ATOM     13  S   UNL A   1      34.038  24.309  24.237  1.00  0.00     0.302 S 
ATOM     14  O   UNL A   1      34.772  25.369  24.888  1.00  0.00    -0.189 OA
ATOM     15  O   UNL A   1      34.292  24.034  22.845  1.00  0.00    -0.189 OA
BRANCH  13  16
ATOM     16  N   UNL A   1      34.299  22.919  25.084  1.00  0.00    -0.269 N 
ATOM     17  H   UNL A   1      34.544  23.031  26.031  1.00  0.00     0.181 HD
BRANCH  16  18
ATOM     18  C   UNL A   1      34.212  21.564  24.611  1.00  0.00     0.071 A 
ATOM     19  C   UNL A   1      33.049  17.471  24.533  1.00  0.00     0.067 C 
ATOM     20  C   UNL A   1      33.453  18.900  24.344  1.00  0.00     0.038 A 
ATOM     21  C   UNL A   1      32.527  19.883  24.059  1.00  0.00     0.026 A 
ATOM     22  N   UNL A   1      34.734  19.200  24.630  1.00  0.00    -0.256 NA
ATOM     23  C   UNL A   1      32.909  21.215  24.213  1.00  0.00     0.030 A 
ATOM     24  C   UNL A   1      35.125  20.505  24.728  1.00  0.00     0.062 A 
ATOM     25  C   UNL A   1      36.586  20.591  25.006  1.00  0.00     0.069 C 
ENDBRANCH  16  18
ENDBRANCH  13  16
ENDBRANCH   8  13
ENDBRANCH   4   7
ENDBRANCH   2   3
ENDBRANCH   1   2
BRANCH   1  26
ATOM     26  C   UNL A   1      33.305  29.320  25.134  1.00  0.00     0.118 C 
BRANCH  26  27
ATOM     27  N   UNL A   1      32.694  30.452  25.811  1.00  0.00    -0.352 N 
ATOM     28  C   UNL A   1      33.105  31.222  26.874  1.00  0.00     0.251 C 
ATOM     29  H   UNL A   1      31.821  30.717  25.440  1.00  0.00     0.163 HD
ATOM     30  O   UNL A   1      32.355  32.100  27.298  1.00  0.00    -0.269 OA
BRANCH  28  31
ATOM     31  C   UNL A   1      34.403  30.994  27.545  1.00  0.00     0.039 A 
ATOM     32  C   UNL A   1      34.688  29.722  28.067  1.00  0.00     0.014 A 
ATOM     33  C   UNL A   1      35.304  32.034  27.741  1.00  0.00     0.014 A 
ATOM     34  C   UNL A   1      35.900  29.487  28.727  1.00  0.00     0.010 A 
ATOM     35  C   UNL A   1      36.542  31.781  28.318  1.00  0.00     0.010 A 
ATOM     36  C   UNL A   1      36.846  30.513  28.837  1.00  0.00    -0.014 A 
BRANCH  36  37
ATOM     37  C   UNL A   1      38.134  30.362  29.560  1.00  0.00     0.031 A 
ATOM     38  C   UNL A   1      39.147  29.391  29.012  1.00  0.00     0.074 A 
ATOM     39  C   UNL A   1      38.319  30.949  30.757  1.00  0.00     0.049 A 
ATOM     40  N   UNL A   1      40.162  28.820  29.605  1.00  0.00    -0.248 NA
ATOM     41  C   UNL A   1      38.939  28.956  27.621  1.00  0.00     0.031 C 
ATOM     42  C   UNL A   1      37.398  31.895  31.389  1.00  0.00     0.029 A 
ATOM     43  N   UNL A   1      39.323  30.795  31.680  1.00  0.00    -0.354 N 
ATOM     44  C   UNL A   1      40.668  27.905  28.685  1.00  0.00     0.074 A 
ATOM     45  C   UNL A   1      39.831  27.985  27.507  1.00  0.00     0.031 C 
ATOM     46  C   UNL A   1      37.868  32.219  32.605  1.00  0.00     0.029 A 
ATOM     47  C   UNL A   1      39.090  31.462  32.861  1.00  0.00     0.049 A 
ATOM     48  H   UNL A   1      40.131  30.258  31.514  1.00  0.00     0.167 HD
ATOM     49  C   UNL A   1      41.734  27.079  28.820  1.00  0.00     0.034 A 
ATOM     50  C   UNL A   1      39.762  31.430  34.028  1.00  0.00     0.034 A 
ATOM     51  C   UNL A   1      42.584  27.072  29.985  1.00  0.00     0.049 A 
ATOM     52  C   UNL A   1      40.981  30.547  34.134  1.00  0.00     0.074 A 
ATOM     53  C   UNL A   1      43.744  26.351  30.205  1.00  0.00     0.029 A 
ATOM     54  N   UNL A   1      42.367  27.836  31.126  1.00  0.00    -0.354 N 
ATOM     55  N   UNL A   1      41.468  29.704  33.252  1.00  0.00    -0.248 NA
ATOM     56  C   UNL A   1      41.745  30.616  35.386  1.00  0.00     0.031 C 
ATOM     57  C   UNL A   1      44.201  26.640  31.496  1.00  0.00     0.029 A 
ATOM     58  C   UNL A   1      43.362  27.591  32.059  1.00  0.00     0.049 A 
ATOM     59  H   UNL A   1      41.617  28.460  31.253  1.00  0.00     0.167 HD
ATOM     60  C   UNL A   1      42.610  29.162  33.835  1.00  0.00     0.074 A 
ATOM     61  C   UNL A   1      42.748  29.788  35.134  1.00  0.00     0.031 C 
ATOM     62  C   UNL A   1      43.470  28.231  33.347  1.00  0.00     0.034 A 
BRANCH  49  63
ATOM     63  C   UNL A   1      42.013  26.100  27.704  1.00  0.00     0.023 A 
ATOM     64  C   UNL A   1      41.360  24.859  27.617  1.00  0.00     0.031 A 
ATOM     65  C   UNL A   1      42.976  26.404  26.722  1.00  0.00     0.131 A 
ATOM     66  C   UNL A   1      41.731  23.938  26.624  1.00  0.00     0.055 A 
ATOM     67  C   UNL A   1      43.280  25.517  25.686  1.00  0.00     0.041 A 
ATOM     68  F   UNL A   1      43.649  27.564  26.761  1.00  0.00    -0.206 F 
ATOM     69  C   UNL A   1      42.667  24.268  25.642  1.00  0.00     0.022 A 
BRANCH  66  70
ATOM     70  S   UNL A   1      41.071  22.252  26.717  1.00  0.00     0.124 S 
ATOM     71  O   UNL A   1      41.894  21.560  25.727  1.00  0.00    -0.237 OA
ATOM     72  O   UNL A   1      41.313  21.893  28.110  1.00  0.00    -0.237 OA
ATOM     73  O   UNL A   1      39.667  22.411  26.349  1.00  0.00    -0.744 OA
ENDBRANCH  66  70
ENDBRANCH  49  63
BRANCH  50  74
ATOM     74  C   UNL A   1      39.292  32.227  35.198  1.00  0.00     0.023 A 
ATOM     75  C   UNL A   1      38.646  31.608  36.280  1.00  0.00     0.031 A 
ATOM     76  C   UNL A   1      39.448  33.625  35.239  1.00  0.00     0.131 A 
ATOM     77  C   UNL A   1      38.138  32.384  37.333  1.00  0.00     0.055 A 
ATOM     78  C   UNL A   1      38.986  34.388  36.313  1.00  0.00     0.041 A 
ATOM     79  F   UNL A   1      40.065  34.268  34.235  1.00  0.00    -0.206 F 
ATOM     80  C   UNL A   1      38.314  33.769  37.362  1.00  0.00     0.022 A 
BRANCH  77  81
ATOM     81  S   UNL A   1      37.165  31.563  38.624  1.00  0.00     0.124 S 
ATOM     82  O   UNL A   1      38.026  31.722  39.792  1.00  0.00    -0.237 OA
ATOM     83  O   UNL A   1      35.937  32.350  38.622  1.00  0.00    -0.237 OA
ATOM     84  O   UNL A   1      37.029  30.195  38.130  1.00  0.00    -0.744 OA
ENDBRANCH  77  81
ENDBRANCH  50  74
BRANCH  62  85
ATOM     85  C   UNL A   1      44.654  27.883  34.211  1.00  0.00     0.023 A 
ATOM     86  C   UNL A   1      44.610  26.817  35.127  1.00  0.00     0.031 A 
ATOM     87  C   UNL A   1      45.839  28.634  34.121  1.00  0.00     0.131 A 
ATOM     88  C   UNL A   1      45.712  26.568  35.957  1.00  0.00     0.055 A 
ATOM     89  C   UNL A   1      46.952  28.345  34.910  1.00  0.00     0.041 A 
ATOM     90  F   UNL A   1      45.931  29.661  33.261  1.00  0.00    -0.206 F 
ATOM     91  C   UNL A   1      46.887  27.314  35.844  1.00  0.00     0.022 A 
BRANCH  88  92
ATOM     92  S   UNL A   1      45.556  25.307  37.251  1.00  0.00     0.124 S 
ATOM     93  O   UNL A   1      45.024  26.082  38.367  1.00  0.00    -0.237 OA
ATOM     94  O   UNL A   1      44.636  24.349  36.644  1.00  0.00    -0.237 OA
ATOM     95  O   UNL A   1      46.924  24.824  37.425  1.00  0.00    -0.744 OA
ENDBRANCH  88  92
ENDBRANCH  62  85
ENDBRANCH  36  37
ENDBRANCH  28  31
ENDBRANCH  26  27
ENDBRANCH   1  26
TORSDOF 16
ENDMDL
MODEL 3
REMARK VINA RESULT:     -12.4      5.075      9.872
REMARK SMILES Cc1ccc(NS(=O)(=O)N2CCCC[C@@H]2C(=O)NCCCNC(=O)c2ccc(-c3c4nc(c(-c5cc(S(=O)(=O)[O-])ccc5F)c5ccc([nH]5)c(-c5cc(S(=O)(=O)[O-])ccc5F)c5nc(c(-c6cc(S(=O)(=O)[O-])ccc6F)c6ccc3[nH]6)C=C5)C=C4)cc2)c(C)n1
REMARK SMILES IDX 20 1 19 2 18 3 16 4 17 5 15 7 10 8 11 9 12 10 14 11 13 12
REMARK SMILES IDX 7 13 8 14 9 15 6 16 5 18 1 19 2 20 3 21 90 22 4 23 88 24
REMARK SMILES IDX 89 25 21 26 22 27 23 28 24 30 25 31 26 32 87 33 27 34 86 35
REMARK SMILES IDX 28 36 29 37 30 38 80 39 31 40 85 41 79 42 81 43 32 44 84 45
REMARK SMILES IDX 78 46 77 47 33 49 65 50 45 51 64 52 46 53 49 54 63 55 82 56
REMARK SMILES IDX 47 57 48 58 62 60 83 61 50 62 34 63 35 64 43 65 36 66 42 67
REMARK SMILES IDX 44 68 41 69 37 70 38 71 39 72 40 73 66 74 67 75 75 76 68 77
REMARK SMILES IDX 74 78 76 79 73 80 69 81 70 82 71 83 72 84 51 85 52 86 60 87
REMARK SMILES IDX 53 88 59 89 61 90 58 91 54 92 55 93 56 94 57 95
REMARK H PARENT 18 6 6 17 22 29 81 48 49 59
REMARK Flexibility Score: inf
ROOT
ATOM      1  C   UNL A   1      33.488  27.579  26.153  1.00  0.00     0.042 C 
ENDROOT
BRANCH   1   2
ATOM      2  C   UNL A   1      32.192  27.491  26.970  1.00  0.00     0.117 C 
BRANCH   2   3
ATOM      3  N   UNL A   1      31.486  26.228  26.805  1.00  0.00    -0.355 N 
ATOM      4  C   UNL A   1      30.969  25.550  25.750  1.00  0.00     0.238 C 
ATOM      5  O   UNL A   1      30.643  24.381  26.010  1.00  0.00    -0.273 OA
ATOM      6  H   UNL A   1      31.352  25.756  27.659  1.00  0.00     0.163 HD
BRANCH   4   7
ATOM      7  C   UNL A   1      30.750  26.100  24.334  1.00  0.00     0.163 C 
ATOM      8  N   UNL A   1      31.908  26.030  23.364  1.00  0.00    -0.172 NA
ATOM      9  C   UNL A   1      31.489  26.470  21.993  1.00  0.00     0.105 C 
ATOM     10  C   UNL A   1      30.961  27.896  22.032  1.00  0.00     0.017 C 
ATOM     11  C   UNL A   1      30.113  27.500  24.340  1.00  0.00     0.030 C 
ATOM     12  C   UNL A   1      29.746  27.983  22.940  1.00  0.00     0.004 C 
BRANCH   8  13
ATOM     13  S   UNL A   1      32.712  24.526  23.291  1.00  0.00     0.302 S 
ATOM     14  O   UNL A   1      33.763  24.583  22.303  1.00  0.00    -0.189 OA
ATOM     15  O   UNL A   1      31.716  23.487  23.195  1.00  0.00    -0.189 OA
BRANCH  13  16
ATOM     16  N   UNL A   1      33.418  24.416  24.776  1.00  0.00    -0.269 N 
ATOM     17  H   UNL A   1      33.126  25.078  25.442  1.00  0.00     0.181 HD
BRANCH  16  18
ATOM     18  C   UNL A   1      34.407  23.470  25.219  1.00  0.00     0.071 A 
ATOM     19  C   UNL A   1      37.781  20.886  25.001  1.00  0.00     0.067 C 
ATOM     20  C   UNL A   1      36.654  21.829  25.283  1.00  0.00     0.038 A 
ATOM     21  C   UNL A   1      36.834  23.197  25.277  1.00  0.00     0.026 A 
ATOM     22  N   UNL A   1      35.428  21.281  25.377  1.00  0.00    -0.256 NA
ATOM     23  C   UNL A   1      35.705  24.013  25.225  1.00  0.00     0.030 A 
ATOM     24  C   UNL A   1      34.320  22.080  25.383  1.00  0.00     0.062 A 
ATOM     25  C   UNL A   1      33.087  21.258  25.539  1.00  0.00     0.069 C 
ENDBRANCH  16  18
ENDBRANCH  13  16
ENDBRANCH   8  13
ENDBRANCH   4   7
ENDBRANCH   2   3
ENDBRANCH   1   2
BRANCH   1  26
ATOM     26  C   UNL A   1      33.712  28.889  25.394  1.00  0.00     0.118 C 
BRANCH  26  27
ATOM     27  N   UNL A   1      33.014  30.042  25.938  1.00  0.00    -0.352 N 
ATOM     28  C   UNL A   1      33.336  30.925  26.942  1.00  0.00     0.251 C 
ATOM     29  H   UNL A   1      32.148  30.225  25.506  1.00  0.00     0.163 HD
ATOM     30  O   UNL A   1      32.525  31.797  27.251  1.00  0.00    -0.269 OA
BRANCH  28  31
ATOM     31  C   UNL A   1      34.610  30.828  27.685  1.00  0.00     0.039 A 
ATOM     32  C   UNL A   1      35.517  31.898  27.630  1.00  0.00     0.014 A 
ATOM     33  C   UNL A   1      34.960  29.666  28.365  1.00  0.00     0.014 A 
ATOM     34  C   UNL A   1      36.741  31.820  28.306  1.00  0.00     0.010 A 
ATOM     35  C   UNL A   1      36.134  29.622  29.107  1.00  0.00     0.010 A 
ATOM     36  C   UNL A   1      37.047  30.687  29.069  1.00  0.00    -0.014 A 
BRANCH  36  37
ATOM     37  C   UNL A   1      38.339  30.504  29.778  1.00  0.00     0.031 A 
ATOM     38  C   UNL A   1      39.332  29.528  29.205  1.00  0.00     0.074 A 
ATOM     39  C   UNL A   1      38.542  31.066  30.984  1.00  0.00     0.049 A 
ATOM     40  N   UNL A   1      40.343  28.932  29.778  1.00  0.00    -0.248 NA
ATOM     41  C   UNL A   1      39.106  29.123  27.808  1.00  0.00     0.031 C 
ATOM     42  C   UNL A   1      37.640  32.014  31.641  1.00  0.00     0.029 A 
ATOM     43  N   UNL A   1      39.551  30.881  31.896  1.00  0.00    -0.354 N 
ATOM     44  C   UNL A   1      40.828  28.027  28.838  1.00  0.00     0.074 A 
ATOM     45  C   UNL A   1      39.982  28.140  27.668  1.00  0.00     0.031 C 
ATOM     46  C   UNL A   1      38.125  32.309  32.859  1.00  0.00     0.029 A 
ATOM     47  C   UNL A   1      39.337  31.529  33.091  1.00  0.00     0.049 A 
ATOM     48  H   UNL A   1      40.349  30.335  31.713  1.00  0.00     0.167 HD
ATOM     49  C   UNL A   1      41.882  27.182  28.948  1.00  0.00     0.034 A 
ATOM     50  C   UNL A   1      40.019  31.466  34.252  1.00  0.00     0.034 A 
ATOM     51  C   UNL A   1      42.741  27.141  30.107  1.00  0.00     0.049 A 
ATOM     52  C   UNL A   1      41.225  30.563  34.331  1.00  0.00     0.074 A 
ATOM     53  C   UNL A   1      43.892  26.399  30.304  1.00  0.00     0.029 A 
ATOM     54  N   UNL A   1      42.546  27.887  31.263  1.00  0.00    -0.354 N 
ATOM     55  N   UNL A   1      41.692  29.729  33.429  1.00  0.00    -0.248 NA
ATOM     56  C   UNL A   1      41.999  30.598  35.578  1.00  0.00     0.031 C 
ATOM     57  C   UNL A   1      44.363  26.657  31.596  1.00  0.00     0.029 A 
ATOM     58  C   UNL A   1      43.544  27.610  32.183  1.00  0.00     0.049 A 
ATOM     59  H   UNL A   1      41.805  28.519  31.407  1.00  0.00     0.167 HD
ATOM     60  C   UNL A   1      42.830  29.159  33.993  1.00  0.00     0.074 A 
ATOM     61  C   UNL A   1      42.988  29.760  35.303  1.00  0.00     0.031 C 
ATOM     62  C   UNL A   1      43.672  28.225  33.481  1.00  0.00     0.034 A 
BRANCH  49  63
ATOM     63  C   UNL A   1      42.137  26.220  27.812  1.00  0.00     0.023 A 
ATOM     64  C   UNL A   1      41.592  24.925  27.792  1.00  0.00     0.031 A 
ATOM     65  C   UNL A   1      42.968  26.597  26.740  1.00  0.00     0.131 A 
ATOM     66  C   UNL A   1      41.945  24.030  26.770  1.00  0.00     0.055 A 
ATOM     67  C   UNL A   1      43.248  25.730  25.681  1.00  0.00     0.041 A 
ATOM     68  F   UNL A   1      43.536  27.813  26.711  1.00  0.00    -0.206 F 
ATOM     69  C   UNL A   1      42.748  24.430  25.700  1.00  0.00     0.022 A 
BRANCH  66  70
ATOM     70  S   UNL A   1      41.451  22.292  26.931  1.00  0.00     0.124 S 
ATOM     71  O   UNL A   1      41.759  21.776  25.599  1.00  0.00    -0.237 OA
ATOM     72  O   UNL A   1      42.308  21.818  28.012  1.00  0.00    -0.237 OA
ATOM     73  O   UNL A   1      40.028  22.367  27.250  1.00  0.00    -0.744 OA
ENDBRANCH  66  70
ENDBRANCH  49  63
BRANCH  50  74
ATOM     74  C   UNL A   1      39.570  32.248  35.440  1.00  0.00     0.023 A 
ATOM     75  C   UNL A   1      38.778  31.656  36.436  1.00  0.00     0.031 A 
ATOM     76  C   UNL A   1      39.896  33.609  35.582  1.00  0.00     0.131 A 
ATOM     77  C   UNL A   1      38.297  32.430  37.504  1.00  0.00     0.055 A 
ATOM     78  C   UNL A   1      39.458  34.363  36.673  1.00  0.00     0.041 A 
ATOM     79  F   UNL A   1      40.657  34.225  34.664  1.00  0.00    -0.206 F 
ATOM     80  C   UNL A   1      38.641  33.777  37.635  1.00  0.00     0.022 A 
BRANCH  77  81
ATOM     81  S   UNL A   1      37.141  31.668  38.675  1.00  0.00     0.124 S 
ATOM     82  O   UNL A   1      35.963  32.514  38.524  1.00  0.00    -0.237 OA
ATOM     83  O   UNL A   1      37.028  30.312  38.147  1.00  0.00    -0.237 OA
ATOM     84  O   UNL A   1      37.833  31.781  39.957  1.00  0.00    -0.744 OA
ENDBRANCH  77  81
ENDBRANCH  50  74
BRANCH  62  85
ATOM     85  C   UNL A   1      44.857  27.843  34.329  1.00  0.00     0.023 A 
ATOM     86  C   UNL A   1      44.810  26.751  35.212  1.00  0.00     0.031 A 
ATOM     87  C   UNL A   1      46.047  28.589  34.256  1.00  0.00     0.131 A 
ATOM     88  C   UNL A   1      45.914  26.469  36.029  1.00  0.00     0.055 A 
ATOM     89  C   UNL A   1      47.161  28.269  35.030  1.00  0.00     0.041 A 
ATOM     90  F   UNL A   1      46.142  29.641  33.427  1.00  0.00    -0.206 F 
ATOM     91  C   UNL A   1      47.094  27.211  35.933  1.00  0.00     0.022 A 
BRANCH  88  92
ATOM     92  S   UNL A   1      45.756  25.170  37.285  1.00  0.00     0.124 S 
ATOM     93  O   UNL A   1      44.320  25.175  37.546  1.00  0.00    -0.237 OA
ATOM     94  O   UNL A   1      46.272  23.997  36.587  1.00  0.00    -0.237 OA
ATOM     95  O   UNL A   1      46.589  25.653  38.384  1.00  0.00    -0.744 OA
ENDBRANCH  88  92
ENDBRANCH  62  85
ENDBRANCH  36  37
ENDBRANCH  28  31
ENDBRANCH  26  27
ENDBRANCH   1  26
TORSDOF 16
ENDMDL
