MODEL 1
REMARK VINA RESULT:     -11.8      0.000      0.000
REMARK SMILES O=C(Cc1ccccc1Nc1c(Cl)cccc1Cl)NCCCNC(=O)c1ccc(-c2c3nc(c(-c4cc(S(=O)(=O)[O-])ccc4F)c4ccc([nH]4)c(-c4cc(S(=O)(=O)[O-])ccc4F)c4nc(c(-c5cc(S(=O)(=O)[O-])ccc5F)c5ccc2[nH]5)C=C4)C=C3)cc1
REMARK SMILES IDX 21 1 20 2 19 3 1 4 2 5 3 7 4 8 5 9 9 10 6 11 8 12 7 13 10 14
REMARK SMILES IDX 11 16 12 17 17 18 13 19 14 20 16 21 18 22 15 23 22 24 23 25
REMARK SMILES IDX 24 26 25 28 26 29 27 30 88 31 28 32 87 33 29 34 30 35 31 36
REMARK SMILES IDX 81 37 32 38 86 39 80 40 82 41 33 42 85 43 79 44 78 45 34 47
REMARK SMILES IDX 66 48 46 49 65 50 47 51 50 52 64 53 83 54 48 55 49 56 63 58
REMARK SMILES IDX 84 59 51 60 35 61 36 62 44 63 37 64 43 65 45 66 42 67 38 68
REMARK SMILES IDX 39 69 40 70 41 71 67 72 68 73 76 74 69 75 75 76 77 77 74 78
REMARK SMILES IDX 70 79 71 80 72 81 73 82 52 83 53 84 61 85 54 86 60 87 62 88
REMARK SMILES IDX 59 89 55 90 56 91 57 92 58 93
REMARK H PARENT 19 6 10 15 23 27 82 46 50 57
REMARK Flexibility Score: inf
ROOT
ATOM      1  C   UNL A   1      31.635  29.103  26.498  1.00  0.00     0.042 C 
ENDROOT
BRANCH   1   2
ATOM      2  C   UNL A   1      31.950  27.850  27.311  1.00  0.00     0.117 C 
BRANCH   2   3
ATOM      3  N   UNL A   1      31.150  26.715  26.895  1.00  0.00    -0.356 N 
ATOM      4  O   UNL A   1      32.852  25.370  26.115  1.00  0.00    -0.275 OA
ATOM      5  C   UNL A   1      31.663  25.552  26.357  1.00  0.00     0.224 C 
ATOM      6  H   UNL A   1      30.173  26.778  27.003  1.00  0.00     0.163 HD
BRANCH   5   7
ATOM      7  C   UNL A   1      30.603  24.487  26.086  1.00  0.00     0.137 C 
BRANCH   7   8
ATOM      8  C   UNL A   1      31.145  23.370  25.216  1.00  0.00    -0.015 A 
ATOM      9  C   UNL A   1      31.721  22.252  25.860  1.00  0.00     0.006 A 
ATOM     10  C   UNL A   1      31.155  23.434  23.807  1.00  0.00     0.042 A 
ATOM     11  C   UNL A   1      32.358  21.248  25.136  1.00  0.00     0.000 A 
ATOM     12  C   UNL A   1      31.802  22.404  23.101  1.00  0.00     0.026 A 
ATOM     13  C   UNL A   1      32.410  21.331  23.754  1.00  0.00     0.002 A 
BRANCH  10  14
ATOM     14  N   UNL A   1      30.483  24.467  23.118  1.00  0.00    -0.353 N 
ATOM     15  H   UNL A   1      29.625  24.209  22.708  1.00  0.00     0.167 HD
BRANCH  14  16
ATOM     16  C   UNL A   1      30.857  25.824  22.926  1.00  0.00     0.076 A 
ATOM     17  C   UNL A   1      29.977  26.842  23.349  1.00  0.00     0.066 A 
ATOM     18  C   UNL A   1      32.112  26.232  22.422  1.00  0.00     0.066 A 
ATOM     19  Cl  UNL A   1      28.394  26.458  23.935  1.00  0.00    -0.082 Cl
ATOM     20  C   UNL A   1      30.346  28.193  23.324  1.00  0.00     0.023 A 
ATOM     21  C   UNL A   1      32.483  27.585  22.407  1.00  0.00     0.023 A 
ATOM     22  Cl  UNL A   1      33.234  25.125  21.700  1.00  0.00    -0.082 Cl
ATOM     23  C   UNL A   1      31.608  28.563  22.869  1.00  0.00     0.003 A 
ENDBRANCH  14  16
ENDBRANCH  10  14
ENDBRANCH   7   8
ENDBRANCH   5   7
ENDBRANCH   2   3
ENDBRANCH   1   2
BRANCH   1  24
ATOM     24  C   UNL A   1      32.842  29.970  26.134  1.00  0.00     0.118 C 
BRANCH  24  25
ATOM     25  N   UNL A   1      32.754  31.336  26.629  1.00  0.00    -0.352 N 
ATOM     26  C   UNL A   1      33.598  32.021  27.474  1.00  0.00     0.251 C 
ATOM     27  H   UNL A   1      31.973  31.845  26.313  1.00  0.00     0.163 HD
ATOM     28  O   UNL A   1      33.275  33.140  27.865  1.00  0.00    -0.269 OA
BRANCH  26  29
ATOM     29  C   UNL A   1      34.863  31.408  27.943  1.00  0.00     0.039 A 
ATOM     30  C   UNL A   1      36.006  32.210  28.023  1.00  0.00     0.014 A 
ATOM     31  C   UNL A   1      34.935  30.061  28.308  1.00  0.00     0.014 A 
ATOM     32  C   UNL A   1      37.190  31.687  28.552  1.00  0.00     0.010 A 
ATOM     33  C   UNL A   1      36.096  29.559  28.898  1.00  0.00     0.010 A 
ATOM     34  C   UNL A   1      37.232  30.371  29.044  1.00  0.00    -0.014 A 
BRANCH  34  35
ATOM     35  C   UNL A   1      38.434  29.852  29.754  1.00  0.00     0.031 A 
ATOM     36  C   UNL A   1      38.811  30.377  31.113  1.00  0.00     0.074 A 
ATOM     37  C   UNL A   1      39.226  28.948  29.142  1.00  0.00     0.049 A 
ATOM     38  N   UNL A   1      39.862  30.104  31.844  1.00  0.00    -0.248 NA
ATOM     39  C   UNL A   1      37.895  31.354  31.719  1.00  0.00     0.031 C 
ATOM     40  C   UNL A   1      38.987  28.382  27.812  1.00  0.00     0.029 A 
ATOM     41  N   UNL A   1      40.396  28.354  29.546  1.00  0.00    -0.354 N 
ATOM     42  C   UNL A   1      39.741  30.879  32.993  1.00  0.00     0.074 A 
ATOM     43  C   UNL A   1      38.540  31.674  32.831  1.00  0.00     0.031 C 
ATOM     44  C   UNL A   1      39.964  27.508  27.522  1.00  0.00     0.029 A 
ATOM     45  C   UNL A   1      40.932  27.491  28.614  1.00  0.00     0.049 A 
ATOM     46  H   UNL A   1      40.814  28.527  30.420  1.00  0.00     0.167 HD
ATOM     47  C   UNL A   1      40.545  30.911  34.085  1.00  0.00     0.034 A 
ATOM     48  C   UNL A   1      42.080  26.784  28.624  1.00  0.00     0.034 A 
ATOM     49  C   UNL A   1      41.740  30.112  34.230  1.00  0.00     0.049 A 
ATOM     50  C   UNL A   1      42.987  26.882  29.825  1.00  0.00     0.074 A 
ATOM     51  C   UNL A   1      42.593  30.031  35.317  1.00  0.00     0.029 A 
ATOM     52  N   UNL A   1      42.263  29.271  33.255  1.00  0.00    -0.354 N 
ATOM     53  N   UNL A   1      42.829  27.582  30.925  1.00  0.00    -0.248 NA
ATOM     54  C   UNL A   1      44.222  26.090  29.788  1.00  0.00     0.031 C 
ATOM     55  C   UNL A   1      43.671  29.210  34.970  1.00  0.00     0.029 A 
ATOM     56  C   UNL A   1      43.449  28.704  33.701  1.00  0.00     0.049 A 
ATOM     57  H   UNL A   1      41.851  29.101  32.377  1.00  0.00     0.167 HD
ATOM     58  C   UNL A   1      43.934  27.292  31.721  1.00  0.00     0.074 A 
ATOM     59  C   UNL A   1      44.737  26.338  30.983  1.00  0.00     0.031 C 
ATOM     60  C   UNL A   1      44.255  27.768  32.951  1.00  0.00     0.034 A 
BRANCH  47  61
ATOM     61  C   UNL A   1      40.173  31.864  35.198  1.00  0.00     0.023 A 
ATOM     62  C   UNL A   1      39.308  31.485  36.240  1.00  0.00     0.031 A 
ATOM     63  C   UNL A   1      40.681  33.175  35.212  1.00  0.00     0.131 A 
ATOM     64  C   UNL A   1      38.922  32.424  37.208  1.00  0.00     0.055 A 
ATOM     65  C   UNL A   1      40.360  34.081  36.226  1.00  0.00     0.041 A 
ATOM     66  F   UNL A   1      41.495  33.604  34.234  1.00  0.00    -0.206 F 
ATOM     67  C   UNL A   1      39.463  33.712  37.223  1.00  0.00     0.022 A 
BRANCH  64  68
ATOM     68  S   UNL A   1      37.589  31.985  38.356  1.00  0.00     0.124 S 
ATOM     69  O   UNL A   1      38.256  32.118  39.649  1.00  0.00    -0.237 OA
ATOM     70  O   UNL A   1      36.571  32.985  38.055  1.00  0.00    -0.237 OA
ATOM     71  O   UNL A   1      37.250  30.614  37.979  1.00  0.00    -0.744 OA
ENDBRANCH  64  68
ENDBRANCH  47  61
BRANCH  48  72
ATOM     72  C   UNL A   1      42.461  25.943  27.452  1.00  0.00     0.023 A 
ATOM     73  C   UNL A   1      42.044  24.606  27.354  1.00  0.00     0.031 A 
ATOM     74  C   UNL A   1      43.291  26.450  26.435  1.00  0.00     0.131 A 
ATOM     75  C   UNL A   1      42.496  23.807  26.292  1.00  0.00     0.055 A 
ATOM     76  C   UNL A   1      43.688  25.668  25.348  1.00  0.00     0.041 A 
ATOM     77  F   UNL A   1      43.720  27.721  26.478  1.00  0.00    -0.206 F 
ATOM     78  C   UNL A   1      43.302  24.333  25.280  1.00  0.00     0.022 A 
BRANCH  75  79
ATOM     79  S   UNL A   1      42.096  22.038  26.305  1.00  0.00     0.124 S 
ATOM     80  O   UNL A   1      42.949  21.534  25.234  1.00  0.00    -0.237 OA
ATOM     81  O   UNL A   1      42.473  21.652  27.661  1.00  0.00    -0.237 OA
ATOM     82  O   UNL A   1      40.662  22.012  26.027  1.00  0.00    -0.744 OA
ENDBRANCH  75  79
ENDBRANCH  48  72
BRANCH  60  83
ATOM     83  C   UNL A   1      45.517  27.234  33.588  1.00  0.00     0.023 A 
ATOM     84  C   UNL A   1      45.515  26.065  34.369  1.00  0.00     0.031 A 
ATOM     85  C   UNL A   1      46.737  27.916  33.425  1.00  0.00     0.131 A 
ATOM     86  C   UNL A   1      46.694  25.646  35.006  1.00  0.00     0.055 A 
ATOM     87  C   UNL A   1      47.921  27.456  34.006  1.00  0.00     0.041 A 
ATOM     88  F   UNL A   1      46.799  29.042  32.697  1.00  0.00    -0.206 F 
ATOM     89  C   UNL A   1      47.900  26.322  34.812  1.00  0.00     0.022 A 
BRANCH  86  90
ATOM     90  S   UNL A   1      46.607  24.260  36.173  1.00  0.00     0.124 S 
ATOM     91  O   UNL A   1      47.270  23.195  35.428  1.00  0.00    -0.237 OA
ATOM     92  O   UNL A   1      47.334  24.778  37.328  1.00  0.00    -0.237 OA
ATOM     93  O   UNL A   1      45.172  24.074  36.379  1.00  0.00    -0.744 OA
ENDBRANCH  86  90
ENDBRANCH  60  83
ENDBRANCH  34  35
ENDBRANCH  26  29
ENDBRANCH  24  25
ENDBRANCH   1  24
TORSDOF 16
ENDMDL
MODEL 2
REMARK VINA RESULT:     -11.8      5.165      7.779
REMARK SMILES O=C(Cc1ccccc1Nc1c(Cl)cccc1Cl)NCCCNC(=O)c1ccc(-c2c3nc(c(-c4cc(S(=O)(=O)[O-])ccc4F)c4ccc([nH]4)c(-c4cc(S(=O)(=O)[O-])ccc4F)c4nc(c(-c5cc(S(=O)(=O)[O-])ccc5F)c5ccc2[nH]5)C=C4)C=C3)cc1
REMARK SMILES IDX 21 1 20 2 19 3 1 4 2 5 3 7 4 8 5 9 9 10 6 11 8 12 7 13 10 14
REMARK SMILES IDX 11 16 12 17 17 18 13 19 14 20 16 21 18 22 15 23 22 24 23 25
REMARK SMILES IDX 24 26 25 28 26 29 27 30 88 31 28 32 87 33 29 34 30 35 31 36
REMARK SMILES IDX 81 37 32 38 86 39 80 40 82 41 33 42 85 43 79 44 78 45 34 47
REMARK SMILES IDX 66 48 46 49 65 50 47 51 50 52 64 53 83 54 48 55 49 56 63 58
REMARK SMILES IDX 84 59 51 60 35 61 36 62 44 63 37 64 43 65 45 66 42 67 38 68
REMARK SMILES IDX 39 69 40 70 41 71 67 72 68 73 76 74 69 75 75 76 77 77 74 78
REMARK SMILES IDX 70 79 71 80 72 81 73 82 52 83 53 84 61 85 54 86 60 87 62 88
REMARK SMILES IDX 59 89 55 90 56 91 57 92 58 93
REMARK H PARENT 19 6 10 15 23 27 82 46 50 57
REMARK Flexibility Score: inf
ROOT
ATOM      1  C   UNL A   1      37.010  21.534  23.880  1.00  0.00     0.042 C 
ENDROOT
BRANCH   1   2
ATOM      2  C   UNL A   1      36.568  22.931  23.452  1.00  0.00     0.117 C 
BRANCH   2   3
ATOM      3  N   UNL A   1      35.959  23.668  24.541  1.00  0.00    -0.356 N 
ATOM      4  O   UNL A   1      34.405  24.854  23.320  1.00  0.00    -0.275 OA
ATOM      5  C   UNL A   1      34.907  24.549  24.398  1.00  0.00     0.224 C 
ATOM      6  H   UNL A   1      36.322  23.531  25.446  1.00  0.00     0.163 HD
BRANCH   5   7
ATOM      7  C   UNL A   1      34.408  25.123  25.722  1.00  0.00     0.137 C 
BRANCH   7   8
ATOM      8  C   UNL A   1      33.177  25.987  25.526  1.00  0.00    -0.015 A 
ATOM      9  C   UNL A   1      33.364  27.305  25.054  1.00  0.00     0.006 A 
ATOM     10  C   UNL A   1      31.876  25.551  25.855  1.00  0.00     0.042 A 
ATOM     11  C   UNL A   1      32.304  28.202  24.972  1.00  0.00     0.000 A 
ATOM     12  C   UNL A   1      30.823  26.478  25.760  1.00  0.00     0.026 A 
ATOM     13  C   UNL A   1      31.032  27.791  25.338  1.00  0.00     0.002 A 
BRANCH  10  14
ATOM     14  N   UNL A   1      31.625  24.208  26.212  1.00  0.00    -0.353 N 
ATOM     15  H   UNL A   1      31.037  24.085  26.994  1.00  0.00     0.167 HD
BRANCH  14  16
ATOM     16  C   UNL A   1      32.091  23.007  25.615  1.00  0.00     0.076 A 
ATOM     17  C   UNL A   1      31.758  22.737  24.271  1.00  0.00     0.066 A 
ATOM     18  C   UNL A   1      32.961  22.095  26.252  1.00  0.00     0.066 A 
ATOM     19  Cl  UNL A   1      30.659  23.760  23.408  1.00  0.00    -0.082 Cl
ATOM     20  C   UNL A   1      32.305  21.649  23.579  1.00  0.00     0.023 A 
ATOM     21  C   UNL A   1      33.515  21.011  25.555  1.00  0.00     0.023 A 
ATOM     22  Cl  UNL A   1      33.328  22.181  27.945  1.00  0.00    -0.082 Cl
ATOM     23  C   UNL A   1      33.199  20.795  24.218  1.00  0.00     0.003 A 
ENDBRANCH  14  16
ENDBRANCH  10  14
ENDBRANCH   7   8
ENDBRANCH   5   7
ENDBRANCH   2   3
ENDBRANCH   1   2
BRANCH   1  24
ATOM     24  C   UNL A   1      37.313  21.368  25.369  1.00  0.00     0.118 C 
BRANCH  24  25
ATOM     25  N   UNL A   1      38.364  20.401  25.650  1.00  0.00    -0.352 N 
ATOM     26  C   UNL A   1      39.615  20.595  26.190  1.00  0.00     0.251 C 
ATOM     27  H   UNL A   1      38.147  19.469  25.419  1.00  0.00     0.163 HD
ATOM     28  O   UNL A   1      40.401  19.651  26.235  1.00  0.00    -0.269 OA
BRANCH  26  29
ATOM     29  C   UNL A   1      40.033  21.931  26.678  1.00  0.00     0.039 A 
ATOM     30  C   UNL A   1      41.009  22.005  27.676  1.00  0.00     0.014 A 
ATOM     31  C   UNL A   1      39.480  23.106  26.160  1.00  0.00     0.014 A 
ATOM     32  C   UNL A   1      41.493  23.250  28.088  1.00  0.00     0.010 A 
ATOM     33  C   UNL A   1      40.012  24.345  26.523  1.00  0.00     0.010 A 
ATOM     34  C   UNL A   1      41.037  24.431  27.478  1.00  0.00    -0.014 A 
BRANCH  34  35
ATOM     35  C   UNL A   1      41.655  25.750  27.792  1.00  0.00     0.031 A 
ATOM     36  C   UNL A   1      40.879  26.807  28.529  1.00  0.00     0.074 A 
ATOM     37  C   UNL A   1      42.902  26.017  27.352  1.00  0.00     0.049 A 
ATOM     38  N   UNL A   1      41.223  28.037  28.817  1.00  0.00    -0.248 NA
ATOM     39  C   UNL A   1      39.531  26.438  28.982  1.00  0.00     0.031 C 
ATOM     40  C   UNL A   1      43.748  25.088  26.600  1.00  0.00     0.029 A 
ATOM     41  N   UNL A   1      43.673  27.149  27.459  1.00  0.00    -0.354 N 
ATOM     42  C   UNL A   1      40.134  28.594  29.478  1.00  0.00     0.074 A 
ATOM     43  C   UNL A   1      39.098  27.580  29.497  1.00  0.00     0.031 C 
ATOM     44  C   UNL A   1      44.926  25.677  26.336  1.00  0.00     0.029 A 
ATOM     45  C   UNL A   1      44.901  27.044  26.845  1.00  0.00     0.049 A 
ATOM     46  H   UNL A   1      43.376  27.959  27.932  1.00  0.00     0.167 HD
ATOM     47  C   UNL A   1      40.016  29.826  30.033  1.00  0.00     0.034 A 
ATOM     48  C   UNL A   1      45.888  27.950  26.687  1.00  0.00     0.034 A 
ATOM     49  C   UNL A   1      41.058  30.826  30.005  1.00  0.00     0.049 A 
ATOM     50  C   UNL A   1      45.709  29.332  27.261  1.00  0.00     0.074 A 
ATOM     51  C   UNL A   1      41.059  32.084  30.582  1.00  0.00     0.029 A 
ATOM     52  N   UNL A   1      42.277  30.693  29.352  1.00  0.00    -0.354 N 
ATOM     53  N   UNL A   1      44.691  29.825  27.929  1.00  0.00    -0.248 NA
ATOM     54  C   UNL A   1      46.814  30.279  27.065  1.00  0.00     0.031 C 
ATOM     55  C   UNL A   1      42.237  32.740  30.210  1.00  0.00     0.029 A 
ATOM     56  C   UNL A   1      43.016  31.862  29.475  1.00  0.00     0.049 A 
ATOM     57  H   UNL A   1      42.574  29.886  28.872  1.00  0.00     0.167 HD
ATOM     58  C   UNL A   1      45.048  31.130  28.255  1.00  0.00     0.074 A 
ATOM     59  C   UNL A   1      46.381  31.339  27.730  1.00  0.00     0.031 C 
ATOM     60  C   UNL A   1      44.338  32.071  28.931  1.00  0.00     0.034 A 
BRANCH  47  61
ATOM     61  C   UNL A   1      38.700  30.173  30.692  1.00  0.00     0.023 A 
ATOM     62  C   UNL A   1      37.682  30.854  30.001  1.00  0.00     0.031 A 
ATOM     63  C   UNL A   1      38.463  29.828  32.035  1.00  0.00     0.131 A 
ATOM     64  C   UNL A   1      36.510  31.231  30.672  1.00  0.00     0.055 A 
ATOM     65  C   UNL A   1      37.258  30.131  32.673  1.00  0.00     0.041 A 
ATOM     66  F   UNL A   1      39.403  29.196  32.755  1.00  0.00    -0.206 F 
ATOM     67  C   UNL A   1      36.279  30.851  31.997  1.00  0.00     0.022 A 
BRANCH  64  68
ATOM     68  S   UNL A   1      35.357  32.354  29.836  1.00  0.00     0.124 S 
ATOM     69  O   UNL A   1      36.239  33.455  29.457  1.00  0.00    -0.237 OA
ATOM     70  O   UNL A   1      34.854  31.532  28.741  1.00  0.00    -0.237 OA
ATOM     71  O   UNL A   1      34.380  32.678  30.874  1.00  0.00    -0.744 OA
ENDBRANCH  64  68
ENDBRANCH  47  61
BRANCH  48  72
ATOM     72  C   UNL A   1      47.124  27.596  25.929  1.00  0.00     0.023 A 
ATOM     73  C   UNL A   1      47.240  27.880  24.559  1.00  0.00     0.031 A 
ATOM     74  C   UNL A   1      48.190  26.922  26.554  1.00  0.00     0.131 A 
ATOM     75  C   UNL A   1      48.371  27.450  23.847  1.00  0.00     0.055 A 
ATOM     76  C   UNL A   1      49.340  26.551  25.854  1.00  0.00     0.041 A 
ATOM     77  F   UNL A   1      48.133  26.624  27.861  1.00  0.00    -0.206 F 
ATOM     78  C   UNL A   1      49.429  26.802  24.489  1.00  0.00     0.022 A 
BRANCH  75  79
ATOM     79  S   UNL A   1      48.397  27.663  22.046  1.00  0.00     0.124 S 
ATOM     80  O   UNL A   1      47.080  28.241  21.798  1.00  0.00    -0.237 OA
ATOM     81  O   UNL A   1      49.535  28.557  21.863  1.00  0.00    -0.237 OA
ATOM     82  O   UNL A   1      48.588  26.303  21.546  1.00  0.00    -0.744 OA
ENDBRANCH  75  79
ENDBRANCH  48  72
BRANCH  60  83
ATOM     83  C   UNL A   1      45.011  33.403  29.166  1.00  0.00     0.023 A 
ATOM     84  C   UNL A   1      44.823  34.491  28.297  1.00  0.00     0.031 A 
ATOM     85  C   UNL A   1      45.868  33.579  30.268  1.00  0.00     0.131 A 
ATOM     86  C   UNL A   1      45.527  35.687  28.509  1.00  0.00     0.055 A 
ATOM     87  C   UNL A   1      46.512  34.794  30.512  1.00  0.00     0.041 A 
ATOM     88  F   UNL A   1      46.091  32.574  31.129  1.00  0.00    -0.206 F 
ATOM     89  C   UNL A   1      46.354  35.852  29.622  1.00  0.00     0.022 A 
BRANCH  86  90
ATOM     90  S   UNL A   1      45.426  36.992  27.253  1.00  0.00     0.124 S 
ATOM     91  O   UNL A   1      46.327  36.489  26.221  1.00  0.00    -0.237 OA
ATOM     92  O   UNL A   1      44.006  36.992  26.915  1.00  0.00    -0.237 OA
ATOM     93  O   UNL A   1      45.894  38.184  27.958  1.00  0.00    -0.744 OA
ENDBRANCH  86  90
ENDBRANCH  60  83
ENDBRANCH  34  35
ENDBRANCH  26  29
ENDBRANCH  24  25
ENDBRANCH   1  24
TORSDOF 16
ENDMDL
MODEL 3
REMARK VINA RESULT:     -11.8      5.160      7.482
REMARK SMILES O=C(Cc1ccccc1Nc1c(Cl)cccc1Cl)NCCCNC(=O)c1ccc(-c2c3nc(c(-c4cc(S(=O)(=O)[O-])ccc4F)c4ccc([nH]4)c(-c4cc(S(=O)(=O)[O-])ccc4F)c4nc(c(-c5cc(S(=O)(=O)[O-])ccc5F)c5ccc2[nH]5)C=C4)C=C3)cc1
REMARK SMILES IDX 21 1 20 2 19 3 1 4 2 5 3 7 4 8 5 9 9 10 6 11 8 12 7 13 10 14
REMARK SMILES IDX 11 16 12 17 17 18 13 19 14 20 16 21 18 22 15 23 22 24 23 25
REMARK SMILES IDX 24 26 25 28 26 29 27 30 88 31 28 32 87 33 29 34 30 35 31 36
REMARK SMILES IDX 81 37 32 38 86 39 80 40 82 41 33 42 85 43 79 44 78 45 34 47
REMARK SMILES IDX 66 48 46 49 65 50 47 51 50 52 64 53 83 54 48 55 49 56 63 58
REMARK SMILES IDX 84 59 51 60 35 61 36 62 44 63 37 64 43 65 45 66 42 67 38 68
REMARK SMILES IDX 39 69 40 70 41 71 67 72 68 73 76 74 69 75 75 76 77 77 74 78
REMARK SMILES IDX 70 79 71 80 72 81 73 82 52 83 53 84 61 85 54 86 60 87 62 88
REMARK SMILES IDX 59 89 55 90 56 91 57 92 58 93
REMARK H PARENT 19 6 10 15 23 27 82 46 50 57
REMARK Flexibility Score: inf
ROOT
ATOM      1  C   UNL A   1      36.277  22.475  23.947  1.00  0.00     0.042 C 
ENDROOT
BRANCH   1   2
ATOM      2  C   UNL A   1      34.813  22.647  23.548  1.00  0.00     0.117 C 
BRANCH   2   3
ATOM      3  N   UNL A   1      34.470  24.036  23.317  1.00  0.00    -0.356 N 
ATOM      4  O   UNL A   1      32.743  24.216  24.832  1.00  0.00    -0.275 OA
ATOM      5  C   UNL A   1      33.484  24.722  23.995  1.00  0.00     0.224 C 
ATOM      6  H   UNL A   1      34.977  24.524  22.628  1.00  0.00     0.163 HD
BRANCH   5   7
ATOM      7  C   UNL A   1      33.392  26.197  23.610  1.00  0.00     0.137 C 
BRANCH   7   8
ATOM      8  C   UNL A   1      32.993  27.057  24.793  1.00  0.00    -0.015 A 
ATOM      9  C   UNL A   1      34.005  27.446  25.699  1.00  0.00     0.006 A 
ATOM     10  C   UNL A   1      31.656  27.425  25.055  1.00  0.00     0.042 A 
ATOM     11  C   UNL A   1      33.703  28.123  26.876  1.00  0.00     0.000 A 
ATOM     12  C   UNL A   1      31.380  28.112  26.251  1.00  0.00     0.026 A 
ATOM     13  C   UNL A   1      32.385  28.445  27.159  1.00  0.00     0.002 A 
BRANCH  10  14
ATOM     14  N   UNL A   1      30.631  27.168  24.118  1.00  0.00    -0.353 N 
ATOM     15  H   UNL A   1      30.421  26.215  23.979  1.00  0.00     0.167 HD
BRANCH  14  16
ATOM     16  C   UNL A   1      29.859  28.074  23.345  1.00  0.00     0.076 A 
ATOM     17  C   UNL A   1      28.452  27.967  23.370  1.00  0.00     0.066 A 
ATOM     18  C   UNL A   1      30.404  29.154  22.617  1.00  0.00     0.066 A 
ATOM     19  Cl  UNL A   1      27.678  26.651  24.189  1.00  0.00    -0.082 Cl
ATOM     20  C   UNL A   1      27.628  28.916  22.751  1.00  0.00     0.023 A 
ATOM     21  C   UNL A   1      29.577  30.109  22.006  1.00  0.00     0.023 A 
ATOM     22  Cl  UNL A   1      32.106  29.329  22.339  1.00  0.00    -0.082 Cl
ATOM     23  C   UNL A   1      28.193  29.998  22.083  1.00  0.00     0.003 A 
ENDBRANCH  14  16
ENDBRANCH  10  14
ENDBRANCH   7   8
ENDBRANCH   5   7
ENDBRANCH   2   3
ENDBRANCH   1   2
BRANCH   1  24
ATOM     24  C   UNL A   1      36.515  21.971  25.371  1.00  0.00     0.118 C 
BRANCH  24  25
ATOM     25  N   UNL A   1      37.522  20.923  25.462  1.00  0.00    -0.352 N 
ATOM     26  C   UNL A   1      38.836  20.999  25.864  1.00  0.00     0.251 C 
ATOM     27  H   UNL A   1      37.215  20.026  25.195  1.00  0.00     0.163 HD
ATOM     28  O   UNL A   1      39.554  20.008  25.753  1.00  0.00    -0.269 OA
BRANCH  26  29
ATOM     29  C   UNL A   1      39.398  22.267  26.387  1.00  0.00     0.039 A 
ATOM     30  C   UNL A   1      40.526  22.210  27.210  1.00  0.00     0.014 A 
ATOM     31  C   UNL A   1      38.831  23.505  26.073  1.00  0.00     0.014 A 
ATOM     32  C   UNL A   1      41.136  23.392  27.641  1.00  0.00     0.010 A 
ATOM     33  C   UNL A   1      39.479  24.684  26.446  1.00  0.00     0.010 A 
ATOM     34  C   UNL A   1      40.650  24.641  27.220  1.00  0.00    -0.014 A 
BRANCH  34  35
ATOM     35  C   UNL A   1      41.380  25.900  27.538  1.00  0.00     0.031 A 
ATOM     36  C   UNL A   1      40.719  26.992  28.335  1.00  0.00     0.074 A 
ATOM     37  C   UNL A   1      42.623  26.085  27.049  1.00  0.00     0.049 A 
ATOM     38  N   UNL A   1      41.169  28.184  28.637  1.00  0.00    -0.248 NA
ATOM     39  C   UNL A   1      39.367  26.714  28.839  1.00  0.00     0.031 C 
ATOM     40  C   UNL A   1      43.363  25.116  26.238  1.00  0.00     0.029 A 
ATOM     41  N   UNL A   1      43.483  27.152  27.150  1.00  0.00    -0.354 N 
ATOM     42  C   UNL A   1      40.154  28.803  29.360  1.00  0.00     0.074 A 
ATOM     43  C   UNL A   1      39.046  27.870  29.400  1.00  0.00     0.031 C 
ATOM     44  C   UNL A   1      44.570  25.621  25.936  1.00  0.00     0.029 A 
ATOM     45  C   UNL A   1      44.673  26.972  26.479  1.00  0.00     0.049 A 
ATOM     46  H   UNL A   1      43.269  27.969  27.655  1.00  0.00     0.167 HD
ATOM     47  C   UNL A   1      40.155  30.025  29.949  1.00  0.00     0.034 A 
ATOM     48  C   UNL A   1      45.718  27.804  26.299  1.00  0.00     0.034 A 
ATOM     49  C   UNL A   1      41.268  30.944  29.898  1.00  0.00     0.049 A 
ATOM     50  C   UNL A   1      45.670  29.180  26.914  1.00  0.00     0.074 A 
ATOM     51  C   UNL A   1      41.390  32.182  30.506  1.00  0.00     0.029 A 
ATOM     52  N   UNL A   1      42.445  30.737  29.188  1.00  0.00    -0.354 N 
ATOM     53  N   UNL A   1      44.722  29.729  27.639  1.00  0.00    -0.248 NA
ATOM     54  C   UNL A   1      46.835  30.046  26.692  1.00  0.00     0.031 C 
ATOM     55  C   UNL A   1      42.598  32.757  30.097  1.00  0.00     0.029 A 
ATOM     56  C   UNL A   1      43.275  31.843  29.307  1.00  0.00     0.049 A 
ATOM     57  H   UNL A   1      42.658  29.924  28.676  1.00  0.00     0.167 HD
ATOM     58  C   UNL A   1      45.191  30.995  27.980  1.00  0.00     0.074 A 
ATOM     59  C   UNL A   1      46.513  31.117  27.401  1.00  0.00     0.031 C 
ATOM     60  C   UNL A   1      44.585  31.967  28.709  1.00  0.00     0.034 A 
BRANCH  47  61
ATOM     61  C   UNL A   1      38.898  30.451  30.674  1.00  0.00     0.023 A 
ATOM     62  C   UNL A   1      37.853  31.122  30.014  1.00  0.00     0.031 A 
ATOM     63  C   UNL A   1      38.747  30.195  32.048  1.00  0.00     0.131 A 
ATOM     64  C   UNL A   1      36.742  31.575  30.739  1.00  0.00     0.055 A 
ATOM     65  C   UNL A   1      37.599  30.573  32.748  1.00  0.00     0.041 A 
ATOM     66  F   UNL A   1      39.719  29.577  32.740  1.00  0.00    -0.206 F 
ATOM     67  C   UNL A   1      36.595  31.282  32.097  1.00  0.00     0.022 A 
BRANCH  64  68
ATOM     68  S   UNL A   1      35.564  32.682  29.916  1.00  0.00     0.124 S 
ATOM     69  O   UNL A   1      36.306  33.940  29.896  1.00  0.00    -0.237 OA
ATOM     70  O   UNL A   1      35.370  32.032  28.626  1.00  0.00    -0.237 OA
ATOM     71  O   UNL A   1      34.403  32.668  30.804  1.00  0.00    -0.744 OA
ENDBRANCH  64  68
ENDBRANCH  47  61
BRANCH  48  72
ATOM     72  C   UNL A   1      46.890  27.380  25.479  1.00  0.00     0.023 A 
ATOM     73  C   UNL A   1      47.058  27.839  24.162  1.00  0.00     0.031 A 
ATOM     74  C   UNL A   1      47.835  26.466  25.982  1.00  0.00     0.131 A 
ATOM     75  C   UNL A   1      48.113  27.350  23.378  1.00  0.00     0.055 A 
ATOM     76  C   UNL A   1      48.919  26.029  25.218  1.00  0.00     0.041 A 
ATOM     77  F   UNL A   1      47.723  25.993  27.233  1.00  0.00    -0.206 F 
ATOM     78  C   UNL A   1      49.055  26.460  23.902  1.00  0.00     0.022 A 
BRANCH  75  79
ATOM     79  S   UNL A   1      48.184  27.816  21.627  1.00  0.00     0.124 S 
ATOM     80  O   UNL A   1      46.822  28.285  21.391  1.00  0.00    -0.237 OA
ATOM     81  O   UNL A   1      49.224  28.839  21.627  1.00  0.00    -0.237 OA
ATOM     82  O   UNL A   1      48.540  26.568  20.957  1.00  0.00    -0.744 OA
ENDBRANCH  75  79
ENDBRANCH  48  72
BRANCH  60  83
ATOM     83  C   UNL A   1      45.367  33.237  28.947  1.00  0.00     0.023 A 
ATOM     84  C   UNL A   1      45.329  34.311  28.040  1.00  0.00     0.031 A 
ATOM     85  C   UNL A   1      46.178  33.368  30.089  1.00  0.00     0.131 A 
ATOM     86  C   UNL A   1      46.130  35.442  28.260  1.00  0.00     0.055 A 
ATOM     87  C   UNL A   1      46.920  34.524  30.337  1.00  0.00     0.041 A 
ATOM     88  F   UNL A   1      46.260  32.373  30.987  1.00  0.00    -0.206 F 
ATOM     89  C   UNL A   1      46.910  35.564  29.413  1.00  0.00     0.022 A 
BRANCH  86  90
ATOM     90  S   UNL A   1      46.218  36.712  26.967  1.00  0.00     0.124 S 
ATOM     91  O   UNL A   1      47.394  37.474  27.372  1.00  0.00    -0.237 OA
ATOM     92  O   UNL A   1      46.362  35.913  25.753  1.00  0.00    -0.237 OA
ATOM     93  O   UNL A   1      44.945  37.420  27.094  1.00  0.00    -0.744 OA
ENDBRANCH  86  90
ENDBRANCH  60  83
ENDBRANCH  34  35
ENDBRANCH  26  29
ENDBRANCH  24  25
ENDBRANCH   1  24
TORSDOF 16
ENDMDL
