MODEL 1
REMARK VINA RESULT:     -11.7      0.000      0.000
REMARK SMILES C=CC[N@H+]1C[C@@H](C(=O)NCCCNC(=O)c2ccc(-c3c4nc(c(-c5cc(S(=O)(=O)[O-])ccc5F)c5ccc([nH]5)c(-c5cc(S(=O)(=O)[O-])ccc5F)c5nc(c(-c6cc(S(=O)(=O)[O-])ccc6F)c6ccc3[nH]6)C=C5)C=C4)cc2)C2(CC[NH+](C)CC2)C1
REMARK SMILES IDX 11 1 10 2 9 3 7 4 8 5 6 7 4 8 5 9 86 10 79 12 80 13 85 14
REMARK SMILES IDX 81 15 84 16 82 17 83 18 3 20 2 21 1 22 12 23 13 24 14 25
REMARK SMILES IDX 15 27 16 28 17 29 78 30 18 31 77 32 19 33 20 34 21 35 71 36
REMARK SMILES IDX 22 37 76 38 70 39 72 40 23 41 75 42 69 43 68 44 24 46 56 47
REMARK SMILES IDX 36 48 55 49 37 50 40 51 54 52 73 53 38 54 39 55 53 57 74 58
REMARK SMILES IDX 41 59 25 60 26 61 34 62 27 63 33 64 35 65 32 66 28 67 29 68
REMARK SMILES IDX 30 69 31 70 57 71 58 72 66 73 59 74 65 75 67 76 64 77 60 78
REMARK SMILES IDX 61 79 62 80 63 81 42 82 43 83 51 84 44 85 50 86 52 87 49 88
REMARK SMILES IDX 45 89 46 90 47 91 48 92
REMARK H PARENT 9 6 4 11 82 19 13 26 72 45 40 56
REMARK Flexibility Score: inf
ROOT
ATOM      1  C   UNL A   1      31.037  32.010  26.374  1.00  0.00     0.042 C 
ENDROOT
BRANCH   1   2
ATOM      2  C   UNL A   1      31.026  30.854  25.380  1.00  0.00     0.117 C 
BRANCH   2   3
ATOM      3  N   UNL A   1      32.250  30.075  25.355  1.00  0.00    -0.356 N 
ATOM      4  C   UNL A   1      32.714  29.102  24.532  1.00  0.00     0.229 C 
ATOM      5  O   UNL A   1      33.889  28.761  24.720  1.00  0.00    -0.275 OA
ATOM      6  H   UNL A   1      32.872  30.300  26.085  1.00  0.00     0.163 HD
BRANCH   4   7
ATOM      7  C   UNL A   1      31.900  28.387  23.450  1.00  0.00     0.145 C 
ATOM      8  N   UNL A   1      29.803  28.857  22.433  1.00  0.00    -0.331 N 
ATOM      9  C   UNL A   1      31.183  29.333  22.478  1.00  0.00     0.276 C 
ATOM     10  C   UNL A   1      29.517  28.112  23.652  1.00  0.00     0.270 C 
ATOM     11  H   UNL A   1      29.722  28.199  21.657  1.00  0.00     0.348 HD
ATOM     12  C   UNL A   1      30.833  27.343  23.894  1.00  0.00     0.047 C 
ATOM     13  C   UNL A   1      30.966  26.822  25.338  1.00  0.00     0.075 C 
ATOM     14  C   UNL A   1      30.859  26.100  22.945  1.00  0.00     0.075 C 
ATOM     15  C   UNL A   1      32.136  25.850  25.529  1.00  0.00     0.262 C 
ATOM     16  C   UNL A   1      32.010  25.129  23.232  1.00  0.00     0.262 C 
ATOM     17  N   UNL A   1      32.098  24.696  24.628  1.00  0.00    -0.337 N 
ATOM     18  C   UNL A   1      31.056  23.741  24.995  1.00  0.00     0.332 C 
ATOM     19  H   UNL A   1      32.978  24.191  24.730  1.00  0.00     0.347 HD
BRANCH   8  20
ATOM     20  C   UNL A   1      28.796  29.789  21.953  1.00  0.00     0.290 C 
BRANCH  20  21
ATOM     21  C   UNL A   1      27.730  30.205  22.928  1.00  0.00     0.025 C 
ATOM     22  C   UNL A   1      27.652  31.417  23.496  1.00  0.00     0.010 C 
ENDBRANCH  20  21
ENDBRANCH   8  20
ENDBRANCH   4   7
ENDBRANCH   2   3
ENDBRANCH   1   2
BRANCH   1  23
ATOM     23  C   UNL A   1      32.424  32.352  26.900  1.00  0.00     0.118 C 
BRANCH  23  24
ATOM     24  N   UNL A   1      32.505  33.746  27.305  1.00  0.00    -0.352 N 
ATOM     25  C   UNL A   1      33.232  34.322  28.315  1.00  0.00     0.251 C 
ATOM     26  H   UNL A   1      31.956  34.369  26.776  1.00  0.00     0.163 HD
ATOM     27  O   UNL A   1      32.921  35.452  28.700  1.00  0.00    -0.269 OA
BRANCH  25  28
ATOM     28  C   UNL A   1      34.367  33.610  28.945  1.00  0.00     0.039 A 
ATOM     29  C   UNL A   1      35.673  33.993  28.621  1.00  0.00     0.014 A 
ATOM     30  C   UNL A   1      34.158  32.523  29.799  1.00  0.00     0.014 A 
ATOM     31  C   UNL A   1      36.760  33.316  29.182  1.00  0.00     0.010 A 
ATOM     32  C   UNL A   1      35.241  31.898  30.418  1.00  0.00     0.010 A 
ATOM     33  C   UNL A   1      36.555  32.276  30.104  1.00  0.00    -0.014 A 
BRANCH  33  34
ATOM     34  C   UNL A   1      37.699  31.546  30.715  1.00  0.00     0.031 A 
ATOM     35  C   UNL A   1      38.133  31.872  32.120  1.00  0.00     0.074 A 
ATOM     36  C   UNL A   1      38.374  30.630  29.992  1.00  0.00     0.049 A 
ATOM     37  N   UNL A   1      39.155  31.416  32.799  1.00  0.00    -0.248 NA
ATOM     38  C   UNL A   1      37.326  32.863  32.849  1.00  0.00     0.031 C 
ATOM     39  C   UNL A   1      38.070  30.250  28.611  1.00  0.00     0.029 A 
ATOM     40  N   UNL A   1      39.462  29.857  30.314  1.00  0.00    -0.354 N 
ATOM     41  C   UNL A   1      39.123  32.073  34.025  1.00  0.00     0.074 A 
ATOM     42  C   UNL A   1      38.014  33.002  33.972  1.00  0.00     0.031 C 
ATOM     43  C   UNL A   1      38.936  29.304  28.214  1.00  0.00     0.029 A 
ATOM     44  C   UNL A   1      39.883  29.039  29.291  1.00  0.00     0.049 A 
ATOM     45  H   UNL A   1      39.900  29.885  31.196  1.00  0.00     0.167 HD
ATOM     46  C   UNL A   1      39.926  31.902  35.104  1.00  0.00     0.034 A 
ATOM     47  C   UNL A   1      40.922  28.182  29.225  1.00  0.00     0.034 A 
ATOM     48  C   UNL A   1      41.015  30.957  35.153  1.00  0.00     0.049 A 
ATOM     49  C   UNL A   1      41.808  28.017  30.436  1.00  0.00     0.074 A 
ATOM     50  C   UNL A   1      41.869  30.677  36.206  1.00  0.00     0.029 A 
ATOM     51  N   UNL A   1      41.398  30.133  34.103  1.00  0.00    -0.354 N 
ATOM     52  N   UNL A   1      41.741  28.626  31.598  1.00  0.00    -0.248 NA
ATOM     53  C   UNL A   1      42.901  27.040  30.331  1.00  0.00     0.031 C 
ATOM     54  C   UNL A   1      42.798  29.723  35.778  1.00  0.00     0.029 A 
ATOM     55  C   UNL A   1      42.485  29.358  34.479  1.00  0.00     0.049 A 
ATOM     56  H   UNL A   1      40.961  30.102  33.221  1.00  0.00     0.167 HD
ATOM     57  C   UNL A   1      42.760  28.077  32.372  1.00  0.00     0.074 A 
ATOM     58  C   UNL A   1      43.415  27.080  31.550  1.00  0.00     0.031 C 
ATOM     59  C   UNL A   1      43.122  28.366  33.647  1.00  0.00     0.034 A 
BRANCH  46  60
ATOM     60  C   UNL A   1      39.663  32.768  36.313  1.00  0.00     0.023 A 
ATOM     61  C   UNL A   1      38.841  32.331  37.365  1.00  0.00     0.031 A 
ATOM     62  C   UNL A   1      40.233  34.050  36.411  1.00  0.00     0.131 A 
ATOM     63  C   UNL A   1      38.556  33.191  38.435  1.00  0.00     0.055 A 
ATOM     64  C   UNL A   1      40.007  34.873  37.517  1.00  0.00     0.041 A 
ATOM     65  F   UNL A   1      41.012  34.529  35.428  1.00  0.00    -0.206 F 
ATOM     66  C   UNL A   1      39.154  34.450  38.532  1.00  0.00     0.022 A 
BRANCH  63  67
ATOM     67  S   UNL A   1      37.297  32.688  39.641  1.00  0.00     0.124 S 
ATOM     68  O   UNL A   1      36.087  32.703  38.824  1.00  0.00    -0.237 OA
ATOM     69  O   UNL A   1      37.769  31.374  40.061  1.00  0.00    -0.237 OA
ATOM     70  O   UNL A   1      37.365  33.731  40.662  1.00  0.00    -0.744 OA
ENDBRANCH  63  67
ENDBRANCH  46  60
BRANCH  47  71
ATOM     71  C   UNL A   1      41.201  27.417  27.976  1.00  0.00     0.023 A 
ATOM     72  C   UNL A   1      40.960  26.035  27.907  1.00  0.00     0.031 A 
ATOM     73  C   UNL A   1      41.772  28.042  26.854  1.00  0.00     0.131 A 
ATOM     74  C   UNL A   1      41.344  25.312  26.768  1.00  0.00     0.055 A 
ATOM     75  C   UNL A   1      42.101  27.328  25.699  1.00  0.00     0.041 A 
ATOM     76  F   UNL A   1      42.018  29.361  26.862  1.00  0.00    -0.206 F 
ATOM     77  C   UNL A   1      41.903  25.952  25.658  1.00  0.00     0.022 A 
BRANCH  74  78
ATOM     78  S   UNL A   1      41.205  23.504  26.799  1.00  0.00     0.124 S 
ATOM     79  O   UNL A   1      42.139  23.116  25.748  1.00  0.00    -0.237 OA
ATOM     80  O   UNL A   1      41.613  23.195  28.166  1.00  0.00    -0.237 OA
ATOM     81  O   UNL A   1      39.795  23.267  26.502  1.00  0.00    -0.744 OA
ENDBRANCH  74  78
ENDBRANCH  47  71
BRANCH  59  82
ATOM     82  C   UNL A   1      44.243  27.551  34.242  1.00  0.00     0.023 A 
ATOM     83  C   UNL A   1      44.015  26.287  34.812  1.00  0.00     0.031 A 
ATOM     84  C   UNL A   1      45.554  28.058  34.250  1.00  0.00     0.131 A 
ATOM     85  C   UNL A   1      45.075  25.594  35.417  1.00  0.00     0.055 A 
ATOM     86  C   UNL A   1      46.614  27.339  34.803  1.00  0.00     0.041 A 
ATOM     87  F   UNL A   1      45.826  29.260  33.718  1.00  0.00    -0.206 F 
ATOM     88  C   UNL A   1      46.376  26.107  35.403  1.00  0.00     0.022 A 
BRANCH  85  89
ATOM     89  S   UNL A   1      44.715  24.051  36.299  1.00  0.00     0.124 S 
ATOM     90  O   UNL A   1      44.731  24.485  37.691  1.00  0.00    -0.237 OA
ATOM     91  O   UNL A   1      43.410  23.682  35.761  1.00  0.00    -0.237 OA
ATOM     92  O   UNL A   1      45.815  23.170  35.911  1.00  0.00    -0.744 OA
ENDBRANCH  85  89
ENDBRANCH  59  82
ENDBRANCH  33  34
ENDBRANCH  25  28
ENDBRANCH  23  24
ENDBRANCH   1  23
TORSDOF 15
ENDMDL
MODEL 2
REMARK VINA RESULT:     -11.7      1.575      7.860
REMARK SMILES C=CC[N@H+]1C[C@@H](C(=O)NCCCNC(=O)c2ccc(-c3c4nc(c(-c5cc(S(=O)(=O)[O-])ccc5F)c5ccc([nH]5)c(-c5cc(S(=O)(=O)[O-])ccc5F)c5nc(c(-c6cc(S(=O)(=O)[O-])ccc6F)c6ccc3[nH]6)C=C5)C=C4)cc2)C2(CC[NH+](C)CC2)C1
REMARK SMILES IDX 11 1 10 2 9 3 7 4 8 5 6 7 4 8 5 9 86 10 79 12 80 13 85 14
REMARK SMILES IDX 81 15 84 16 82 17 83 18 3 20 2 21 1 22 12 23 13 24 14 25
REMARK SMILES IDX 15 27 16 28 17 29 78 30 18 31 77 32 19 33 20 34 21 35 71 36
REMARK SMILES IDX 22 37 76 38 70 39 72 40 23 41 75 42 69 43 68 44 24 46 56 47
REMARK SMILES IDX 36 48 55 49 37 50 40 51 54 52 73 53 38 54 39 55 53 57 74 58
REMARK SMILES IDX 41 59 25 60 26 61 34 62 27 63 33 64 35 65 32 66 28 67 29 68
REMARK SMILES IDX 30 69 31 70 57 71 58 72 66 73 59 74 65 75 67 76 64 77 60 78
REMARK SMILES IDX 61 79 62 80 63 81 42 82 43 83 51 84 44 85 50 86 52 87 49 88
REMARK SMILES IDX 45 89 46 90 47 91 48 92
REMARK H PARENT 9 6 4 11 82 19 13 26 72 45 40 56
REMARK Flexibility Score: inf
ROOT
ATOM      1  C   UNL A   1      31.313  31.962  26.729  1.00  0.00     0.042 C 
ENDROOT
BRANCH   1   2
ATOM      2  C   UNL A   1      31.399  30.834  25.706  1.00  0.00     0.117 C 
BRANCH   2   3
ATOM      3  N   UNL A   1      32.576  29.997  25.837  1.00  0.00    -0.356 N 
ATOM      4  C   UNL A   1      33.064  28.962  25.108  1.00  0.00     0.229 C 
ATOM      5  O   UNL A   1      34.196  28.574  25.425  1.00  0.00    -0.275 OA
ATOM      6  H   UNL A   1      33.137  30.228  26.613  1.00  0.00     0.163 HD
BRANCH   4   7
ATOM      7  C   UNL A   1      32.321  28.235  23.984  1.00  0.00     0.145 C 
ATOM      8  N   UNL A   1      30.400  28.789  22.696  1.00  0.00    -0.331 N 
ATOM      9  C   UNL A   1      31.803  29.159  22.875  1.00  0.00     0.276 C 
ATOM     10  C   UNL A   1      29.916  28.160  23.917  1.00  0.00     0.270 C 
ATOM     11  H   UNL A   1      30.353  28.084  21.960  1.00  0.00     0.348 HD
ATOM     12  C   UNL A   1      31.126  27.312  24.364  1.00  0.00     0.047 C 
ATOM     13  C   UNL A   1      31.048  26.890  25.844  1.00  0.00     0.075 C 
ATOM     14  C   UNL A   1      31.154  26.005  23.506  1.00  0.00     0.075 C 
ATOM     15  C   UNL A   1      32.102  25.846  26.235  1.00  0.00     0.262 C 
ATOM     16  C   UNL A   1      32.177  24.971  23.990  1.00  0.00     0.262 C 
ATOM     17  N   UNL A   1      32.068  24.636  25.411  1.00  0.00    -0.337 N 
ATOM     18  C   UNL A   1      30.914  23.794  25.711  1.00  0.00     0.332 C 
ATOM     19  H   UNL A   1      32.885  24.074  25.649  1.00  0.00     0.347 HD
BRANCH   8  20
ATOM     20  C   UNL A   1      29.538  29.759  22.041  1.00  0.00     0.290 C 
BRANCH  20  21
ATOM     21  C   UNL A   1      28.148  29.918  22.591  1.00  0.00     0.025 C 
ATOM     22  C   UNL A   1      27.731  30.973  23.306  1.00  0.00     0.010 C 
ENDBRANCH  20  21
ENDBRANCH   8  20
ENDBRANCH   4   7
ENDBRANCH   2   3
ENDBRANCH   1   2
BRANCH   1  23
ATOM     23  C   UNL A   1      32.670  32.508  27.153  1.00  0.00     0.118 C 
BRANCH  23  24
ATOM     24  N   UNL A   1      32.578  33.907  27.538  1.00  0.00    -0.352 N 
ATOM     25  C   UNL A   1      33.163  34.565  28.590  1.00  0.00     0.251 C 
ATOM     26  H   UNL A   1      32.011  34.466  26.958  1.00  0.00     0.163 HD
ATOM     27  O   UNL A   1      32.711  35.661  28.930  1.00  0.00    -0.269 OA
BRANCH  25  28
ATOM     28  C   UNL A   1      34.313  33.978  29.316  1.00  0.00     0.039 A 
ATOM     29  C   UNL A   1      35.610  34.346  28.943  1.00  0.00     0.014 A 
ATOM     30  C   UNL A   1      34.127  33.019  30.316  1.00  0.00     0.014 A 
ATOM     31  C   UNL A   1      36.711  33.783  29.596  1.00  0.00     0.010 A 
ATOM     32  C   UNL A   1      35.223  32.517  31.018  1.00  0.00     0.010 A 
ATOM     33  C   UNL A   1      36.528  32.880  30.656  1.00  0.00    -0.014 A 
BRANCH  33  34
ATOM     34  C   UNL A   1      37.687  32.274  31.366  1.00  0.00     0.031 A 
ATOM     35  C   UNL A   1      38.444  31.136  30.732  1.00  0.00     0.074 A 
ATOM     36  C   UNL A   1      38.027  32.713  32.594  1.00  0.00     0.049 A 
ATOM     37  N   UNL A   1      39.421  30.416  31.221  1.00  0.00    -0.248 NA
ATOM     38  C   UNL A   1      38.027  30.737  29.378  1.00  0.00     0.031 C 
ATOM     39  C   UNL A   1      37.352  33.787  33.326  1.00  0.00     0.029 A 
ATOM     40  N   UNL A   1      39.021  32.305  33.450  1.00  0.00    -0.354 N 
ATOM     41  C   UNL A   1      39.725  29.472  30.244  1.00  0.00     0.074 A 
ATOM     42  C   UNL A   1      38.788  29.675  29.161  1.00  0.00     0.031 C 
ATOM     43  C   UNL A   1      37.963  33.966  34.508  1.00  0.00     0.029 A 
ATOM     44  C   UNL A   1      39.044  32.994  34.641  1.00  0.00     0.049 A 
ATOM     45  H   UNL A   1      39.657  31.586  33.231  1.00  0.00     0.167 HD
ATOM     46  C   UNL A   1      40.709  28.538  30.240  1.00  0.00     0.034 A 
ATOM     47  C   UNL A   1      39.837  32.850  35.721  1.00  0.00     0.034 A 
ATOM     48  C   UNL A   1      41.652  28.360  31.317  1.00  0.00     0.049 A 
ATOM     49  C   UNL A   1      40.918  31.797  35.696  1.00  0.00     0.074 A 
ATOM     50  C   UNL A   1      42.709  27.470  31.401  1.00  0.00     0.029 A 
ATOM     51  N   UNL A   1      41.655  29.090  32.498  1.00  0.00    -0.354 N 
ATOM     52  N   UNL A   1      41.209  30.935  34.749  1.00  0.00    -0.248 NA
ATOM     53  C   UNL A   1      41.786  31.707  36.878  1.00  0.00     0.031 C 
ATOM     54  C   UNL A   1      43.318  27.627  32.651  1.00  0.00     0.029 A 
ATOM     55  C   UNL A   1      42.684  28.659  33.322  1.00  0.00     0.049 A 
ATOM     56  H   UNL A   1      41.019  29.810  32.719  1.00  0.00     0.167 HD
ATOM     57  C   UNL A   1      42.316  30.227  35.209  1.00  0.00     0.074 A 
ATOM     58  C   UNL A   1      42.647  30.773  36.509  1.00  0.00     0.031 C 
ATOM     59  C   UNL A   1      43.000  29.219  34.613  1.00  0.00     0.034 A 
BRANCH  46  60
ATOM     60  C   UNL A   1      40.802  27.630  29.038  1.00  0.00     0.023 A 
ATOM     61  C   UNL A   1      41.740  27.857  28.017  1.00  0.00     0.031 A 
ATOM     62  C   UNL A   1      39.937  26.531  28.904  1.00  0.00     0.131 A 
ATOM     63  C   UNL A   1      41.747  27.040  26.877  1.00  0.00     0.055 A 
ATOM     64  C   UNL A   1      40.000  25.674  27.802  1.00  0.00     0.041 A 
ATOM     65  F   UNL A   1      39.007  26.274  29.838  1.00  0.00    -0.206 F 
ATOM     66  C   UNL A   1      40.901  25.934  26.774  1.00  0.00     0.022 A 
BRANCH  63  67
ATOM     67  S   UNL A   1      42.797  27.514  25.476  1.00  0.00     0.124 S 
ATOM     68  O   UNL A   1      44.066  27.794  26.142  1.00  0.00    -0.237 OA
ATOM     69  O   UNL A   1      42.765  26.321  24.638  1.00  0.00    -0.237 OA
ATOM     70  O   UNL A   1      42.121  28.685  24.921  1.00  0.00    -0.744 OA
ENDBRANCH  63  67
ENDBRANCH  46  60
BRANCH  47  71
ATOM     71  C   UNL A   1      39.647  33.708  36.926  1.00  0.00     0.023 A 
ATOM     72  C   UNL A   1      39.019  33.204  38.078  1.00  0.00     0.031 A 
ATOM     73  C   UNL A   1      40.030  35.060  36.924  1.00  0.00     0.131 A 
ATOM     74  C   UNL A   1      38.738  34.060  39.154  1.00  0.00     0.055 A 
ATOM     75  C   UNL A   1      39.799  35.895  38.019  1.00  0.00     0.041 A 
ATOM     76  F   UNL A   1      40.640  35.592  35.853  1.00  0.00    -0.206 F 
ATOM     77  C   UNL A   1      39.135  35.399  39.137  1.00  0.00     0.022 A 
BRANCH  74  78
ATOM     78  S   UNL A   1      37.747  33.423  40.533  1.00  0.00     0.124 S 
ATOM     79  O   UNL A   1      38.646  32.433  41.113  1.00  0.00    -0.237 OA
ATOM     80  O   UNL A   1      37.524  34.629  41.324  1.00  0.00    -0.237 OA
ATOM     81  O   UNL A   1      36.559  32.882  39.876  1.00  0.00    -0.744 OA
ENDBRANCH  74  78
ENDBRANCH  47  71
BRANCH  59  82
ATOM     82  C   UNL A   1      44.208  28.685  35.343  1.00  0.00     0.023 A 
ATOM     83  C   UNL A   1      44.102  27.659  36.296  1.00  0.00     0.031 A 
ATOM     84  C   UNL A   1      45.480  29.228  35.088  1.00  0.00     0.131 A 
ATOM     85  C   UNL A   1      45.241  27.241  37.001  1.00  0.00     0.055 A 
ATOM     86  C   UNL A   1      46.618  28.770  35.753  1.00  0.00     0.041 A 
ATOM     87  F   UNL A   1      45.636  30.211  34.187  1.00  0.00    -0.206 F 
ATOM     88  C   UNL A   1      46.501  27.782  36.725  1.00  0.00     0.022 A 
BRANCH  85  89
ATOM     89  S   UNL A   1      45.042  26.042  38.347  1.00  0.00     0.124 S 
ATOM     90  O   UNL A   1      44.528  24.875  37.639  1.00  0.00    -0.237 OA
ATOM     91  O   UNL A   1      46.400  25.926  38.866  1.00  0.00    -0.237 OA
ATOM     92  O   UNL A   1      44.089  26.691  39.246  1.00  0.00    -0.744 OA
ENDBRANCH  85  89
ENDBRANCH  59  82
ENDBRANCH  33  34
ENDBRANCH  25  28
ENDBRANCH  23  24
ENDBRANCH   1  23
TORSDOF 15
ENDMDL
MODEL 3
REMARK VINA RESULT:     -11.4      5.990      9.980
REMARK SMILES C=CC[N@H+]1C[C@@H](C(=O)NCCCNC(=O)c2ccc(-c3c4nc(c(-c5cc(S(=O)(=O)[O-])ccc5F)c5ccc([nH]5)c(-c5cc(S(=O)(=O)[O-])ccc5F)c5nc(c(-c6cc(S(=O)(=O)[O-])ccc6F)c6ccc3[nH]6)C=C5)C=C4)cc2)C2(CC[NH+](C)CC2)C1
REMARK SMILES IDX 11 1 10 2 9 3 7 4 8 5 6 7 4 8 5 9 86 10 79 12 80 13 85 14
REMARK SMILES IDX 81 15 84 16 82 17 83 18 3 20 2 21 1 22 12 23 13 24 14 25
REMARK SMILES IDX 15 27 16 28 17 29 78 30 18 31 77 32 19 33 20 34 21 35 71 36
REMARK SMILES IDX 22 37 76 38 70 39 72 40 23 41 75 42 69 43 68 44 24 46 56 47
REMARK SMILES IDX 36 48 55 49 37 50 40 51 54 52 73 53 38 54 39 55 53 57 74 58
REMARK SMILES IDX 41 59 25 60 26 61 34 62 27 63 33 64 35 65 32 66 28 67 29 68
REMARK SMILES IDX 30 69 31 70 57 71 58 72 66 73 59 74 65 75 67 76 64 77 60 78
REMARK SMILES IDX 61 79 62 80 63 81 42 82 43 83 51 84 44 85 50 86 52 87 49 88
REMARK SMILES IDX 45 89 46 90 47 91 48 92
REMARK H PARENT 9 6 4 11 82 19 13 26 72 45 40 56
REMARK Flexibility Score: inf
ROOT
ATOM      1  C   UNL A   1      37.829  19.506  24.818  1.00  0.00     0.042 C 
ENDROOT
BRANCH   1   2
ATOM      2  C   UNL A   1      36.414  20.052  24.972  1.00  0.00     0.117 C 
BRANCH   2   3
ATOM      3  N   UNL A   1      36.348  21.394  25.521  1.00  0.00    -0.356 N 
ATOM      4  C   UNL A   1      35.321  22.177  25.934  1.00  0.00     0.229 C 
ATOM      5  O   UNL A   1      35.647  23.228  26.501  1.00  0.00    -0.275 OA
ATOM      6  H   UNL A   1      37.230  21.823  25.612  1.00  0.00     0.163 HD
BRANCH   4   7
ATOM      7  C   UNL A   1      33.833  21.884  25.719  1.00  0.00     0.145 C 
ATOM      8  N   UNL A   1      32.657  19.941  25.017  1.00  0.00    -0.331 N 
ATOM      9  C   UNL A   1      33.403  20.476  26.153  1.00  0.00     0.276 C 
ATOM     10  C   UNL A   1      33.067  20.640  23.806  1.00  0.00     0.270 C 
ATOM     11  H   UNL A   1      31.669  20.152  25.162  1.00  0.00     0.348 HD
ATOM     12  C   UNL A   1      33.236  22.094  24.297  1.00  0.00     0.047 C 
ATOM     13  C   UNL A   1      34.078  22.955  23.336  1.00  0.00     0.075 C 
ATOM     14  C   UNL A   1      31.820  22.749  24.392  1.00  0.00     0.075 C 
ATOM     15  C   UNL A   1      34.046  24.451  23.674  1.00  0.00     0.262 C 
ATOM     16  C   UNL A   1      31.855  24.258  24.660  1.00  0.00     0.262 C 
ATOM     17  N   UNL A   1      32.696  25.015  23.730  1.00  0.00    -0.337 N 
ATOM     18  C   UNL A   1      32.098  25.154  22.406  1.00  0.00     0.332 C 
ATOM     19  H   UNL A   1      32.769  25.963  24.098  1.00  0.00     0.347 HD
BRANCH   8  20
ATOM     20  C   UNL A   1      32.499  18.497  24.949  1.00  0.00     0.290 C 
BRANCH  20  21
ATOM     21  C   UNL A   1      32.866  17.830  23.653  1.00  0.00     0.025 C 
ATOM     22  C   UNL A   1      33.952  17.063  23.475  1.00  0.00     0.010 C 
ENDBRANCH  20  21
ENDBRANCH   8  20
ENDBRANCH   4   7
ENDBRANCH   2   3
ENDBRANCH   1   2
BRANCH   1  23
ATOM     23  C   UNL A   1      38.831  20.115  25.790  1.00  0.00     0.118 C 
BRANCH  23  24
ATOM     24  N   UNL A   1      39.956  19.223  26.016  1.00  0.00    -0.352 N 
ATOM     25  C   UNL A   1      41.292  19.513  26.134  1.00  0.00     0.251 C 
ATOM     26  H   UNL A   1      39.726  18.269  26.095  1.00  0.00     0.163 HD
ATOM     27  O   UNL A   1      42.111  18.600  26.000  1.00  0.00    -0.269 OA
BRANCH  25  28
ATOM     28  C   UNL A   1      41.755  20.891  26.410  1.00  0.00     0.039 A 
ATOM     29  C   UNL A   1      42.091  21.244  27.721  1.00  0.00     0.014 A 
ATOM     30  C   UNL A   1      41.797  21.860  25.402  1.00  0.00     0.014 A 
ATOM     31  C   UNL A   1      42.504  22.549  28.010  1.00  0.00     0.010 A 
ATOM     32  C   UNL A   1      42.282  23.138  25.676  1.00  0.00     0.010 A 
ATOM     33  C   UNL A   1      42.626  23.503  26.986  1.00  0.00    -0.014 A 
BRANCH  33  34
ATOM     34  C   UNL A   1      43.068  24.894  27.273  1.00  0.00     0.031 A 
ATOM     35  C   UNL A   1      42.121  25.861  27.936  1.00  0.00     0.074 A 
ATOM     36  C   UNL A   1      44.297  25.300  26.897  1.00  0.00     0.049 A 
ATOM     37  N   UNL A   1      42.281  27.135  28.190  1.00  0.00    -0.248 NA
ATOM     38  C   UNL A   1      40.809  25.330  28.340  1.00  0.00     0.031 C 
ATOM     39  C   UNL A   1      45.293  24.467  26.220  1.00  0.00     0.029 A 
ATOM     40  N   UNL A   1      44.917  26.519  27.021  1.00  0.00    -0.354 N 
ATOM     41  C   UNL A   1      41.088  27.560  28.770  1.00  0.00     0.074 A 
ATOM     42  C   UNL A   1      40.196  26.421  28.773  1.00  0.00     0.031 C 
ATOM     43  C   UNL A   1      46.403  25.193  26.009  1.00  0.00     0.029 A 
ATOM     44  C   UNL A   1      46.187  26.552  26.492  1.00  0.00     0.049 A 
ATOM     45  H   UNL A   1      44.491  27.298  27.449  1.00  0.00     0.167 HD
ATOM     46  C   UNL A   1      40.774  28.779  29.274  1.00  0.00     0.034 A 
ATOM     47  C   UNL A   1      47.071  27.565  26.398  1.00  0.00     0.034 A 
ATOM     48  C   UNL A   1      41.681  29.901  29.285  1.00  0.00     0.049 A 
ATOM     49  C   UNL A   1      46.694  28.915  26.957  1.00  0.00     0.074 A 
ATOM     50  C   UNL A   1      41.479  31.170  29.801  1.00  0.00     0.029 A 
ATOM     51  N   UNL A   1      42.965  29.889  28.758  1.00  0.00    -0.354 N 
ATOM     52  N   UNL A   1      45.573  29.288  27.530  1.00  0.00    -0.248 NA
ATOM     53  C   UNL A   1      47.707  29.976  26.870  1.00  0.00     0.031 C 
ATOM     54  C   UNL A   1      42.619  31.938  29.543  1.00  0.00     0.029 A 
ATOM     55  C   UNL A   1      43.559  31.131  28.922  1.00  0.00     0.049 A 
ATOM     56  H   UNL A   1      43.393  29.112  28.330  1.00  0.00     0.167 HD
ATOM     57  C   UNL A   1      45.762  30.616  27.903  1.00  0.00     0.074 A 
ATOM     58  C   UNL A   1      47.107  30.972  27.503  1.00  0.00     0.031 C 
ATOM     59  C   UNL A   1      44.904  31.466  28.521  1.00  0.00     0.034 A 
BRANCH  46  60
ATOM     60  C   UNL A   1      39.387  28.962  29.841  1.00  0.00     0.023 A 
ATOM     61  C   UNL A   1      38.368  29.586  29.102  1.00  0.00     0.031 A 
ATOM     62  C   UNL A   1      39.081  28.518  31.139  1.00  0.00     0.131 A 
ATOM     63  C   UNL A   1      37.113  29.810  29.688  1.00  0.00     0.055 A 
ATOM     64  C   UNL A   1      37.807  28.674  31.689  1.00  0.00     0.041 A 
ATOM     65  F   UNL A   1      40.020  27.931  31.899  1.00  0.00    -0.206 F 
ATOM     66  C   UNL A   1      36.818  29.334  30.967  1.00  0.00     0.022 A 
BRANCH  63  67
ATOM     67  S   UNL A   1      35.911  30.836  28.799  1.00  0.00     0.124 S 
ATOM     68  O   UNL A   1      35.150  29.827  28.066  1.00  0.00    -0.237 OA
ATOM     69  O   UNL A   1      35.203  31.506  29.884  1.00  0.00    -0.237 OA
ATOM     70  O   UNL A   1      36.746  31.702  27.970  1.00  0.00    -0.744 OA
ENDBRANCH  63  67
ENDBRANCH  46  60
BRANCH  47  71
ATOM     71  C   UNL A   1      48.396  27.362  25.743  1.00  0.00     0.023 A 
ATOM     72  C   UNL A   1      48.550  27.542  24.359  1.00  0.00     0.031 A 
ATOM     73  C   UNL A   1      49.510  26.924  26.479  1.00  0.00     0.131 A 
ATOM     74  C   UNL A   1      49.772  27.226  23.744  1.00  0.00     0.055 A 
ATOM     75  C   UNL A   1      50.741  26.666  25.871  1.00  0.00     0.041 A 
ATOM     76  F   UNL A   1      49.420  26.743  27.806  1.00  0.00    -0.206 F 
ATOM     77  C   UNL A   1      50.872  26.801  24.492  1.00  0.00     0.022 A 
BRANCH  74  78
ATOM     78  S   UNL A   1      49.870  27.275  21.933  1.00  0.00     0.124 S 
ATOM     79  O   UNL A   1      51.202  26.733  21.693  1.00  0.00    -0.237 OA
ATOM     80  O   UNL A   1      48.751  26.420  21.549  1.00  0.00    -0.237 OA
ATOM     81  O   UNL A   1      49.704  28.692  21.622  1.00  0.00    -0.744 OA
ENDBRANCH  74  78
ENDBRANCH  47  71
BRANCH  59  82
ATOM     82  C   UNL A   1      45.423  32.843  28.851  1.00  0.00     0.023 A 
ATOM     83  C   UNL A   1      45.375  33.894  27.920  1.00  0.00     0.031 A 
ATOM     84  C   UNL A   1      45.988  33.098  30.113  1.00  0.00     0.131 A 
ATOM     85  C   UNL A   1      45.933  35.140  28.245  1.00  0.00     0.055 A 
ATOM     86  C   UNL A   1      46.491  34.355  30.450  1.00  0.00     0.041 A 
ATOM     87  F   UNL A   1      46.059  32.129  31.039  1.00  0.00    -0.206 F 
ATOM     88  C   UNL A   1      46.478  35.381  29.510  1.00  0.00     0.022 A 
BRANCH  85  89
ATOM     89  S   UNL A   1      46.014  36.419  26.962  1.00  0.00     0.124 S 
ATOM     90  O   UNL A   1      46.153  35.623  25.747  1.00  0.00    -0.237 OA
ATOM     91  O   UNL A   1      44.740  37.110  27.129  1.00  0.00    -0.237 OA
ATOM     92  O   UNL A   1      47.194  37.199  27.330  1.00  0.00    -0.744 OA
ENDBRANCH  85  89
ENDBRANCH  59  82
ENDBRANCH  33  34
ENDBRANCH  25  28
ENDBRANCH  23  24
ENDBRANCH   1  23
TORSDOF 15
ENDMDL
