MODEL 1
REMARK VINA RESULT:     -11.7      0.000      0.000
REMARK SMILES Cc1ccccc1CCNS(=O)(=O)c1ccc(C(=O)NCCCNC(=O)c2ccc(-c3c4nc(c(-c5cc(S(=O)(=O)[O-])ccc5F)c5ccc([nH]5)c(-c5cc(S(=O)(=O)[O-])ccc5F)c5nc(c(-c6cc(S(=O)(=O)[O-])ccc6F)c6ccc3[nH]6)C=C5)C=C4)cc2)o1
REMARK SMILES IDX 21 1 20 2 18 3 19 4 17 6 14 7 15 8 90 9 16 10 11 11 12 12
REMARK SMILES IDX 13 13 10 14 9 16 8 17 7 18 1 19 2 20 3 21 4 22 6 23 5 24
REMARK SMILES IDX 22 25 23 26 24 27 25 28 26 30 27 31 28 32 89 33 29 34 88 35
REMARK SMILES IDX 30 36 31 37 32 38 82 39 33 40 87 41 81 42 83 43 34 44 86 45
REMARK SMILES IDX 80 46 79 47 35 49 67 50 47 51 66 52 48 53 51 54 65 55 84 56
REMARK SMILES IDX 49 57 50 58 64 60 85 61 52 62 36 63 37 64 45 65 38 66 44 67
REMARK SMILES IDX 46 68 43 69 39 70 40 71 41 72 42 73 68 74 69 75 77 76 70 77
REMARK SMILES IDX 76 78 78 79 75 80 71 81 72 82 73 83 74 84 53 85 54 86 62 87
REMARK SMILES IDX 55 88 61 89 63 90 60 91 56 92 57 93 58 94 59 95
REMARK H PARENT 20 5 10 15 24 29 83 48 51 59
REMARK Flexibility Score: inf
ROOT
ATOM      1  C   UNL A   1      33.002  30.331  26.844  1.00  0.00     0.118 C 
ENDROOT
BRANCH   1   2
ATOM      2  N   UNL A   1      32.017  29.378  27.334  1.00  0.00    -0.349 N 
ATOM      3  C   UNL A   1      31.805  28.064  26.991  1.00  0.00     0.287 C 
ATOM      4  O   UNL A   1      30.944  27.449  27.625  1.00  0.00    -0.266 OA
ATOM      5  H   UNL A   1      31.406  29.731  28.019  1.00  0.00     0.163 HD
BRANCH   3   6
ATOM      6  C   UNL A   1      32.575  27.433  25.929  1.00  0.00     0.193 A 
ATOM      7  C   UNL A   1      32.722  26.429  23.931  1.00  0.00     0.234 A 
ATOM      8  C   UNL A   1      34.002  26.502  24.456  1.00  0.00     0.065 A 
ATOM      9  O   UNL A   1      31.866  27.020  24.829  1.00  0.00    -0.438 OA
ATOM     10  C   UNL A   1      33.909  27.147  25.709  1.00  0.00     0.058 A 
BRANCH   7  11
ATOM     11  S   UNL A   1      32.133  25.770  22.386  1.00  0.00     0.273 S 
ATOM     12  O   UNL A   1      33.298  25.405  21.611  1.00  0.00    -0.204 OA
ATOM     13  O   UNL A   1      31.168  26.729  21.895  1.00  0.00    -0.204 OA
BRANCH  11  14
ATOM     14  N   UNL A   1      31.266  24.359  22.712  1.00  0.00    -0.208 NA
ATOM     15  H   UNL A   1      30.281  24.559  22.537  1.00  0.00     0.141 HD
BRANCH  14  16
ATOM     16  C   UNL A   1      31.370  23.792  24.082  1.00  0.00     0.104 C 
BRANCH  16  17
ATOM     17  C   UNL A   1      32.250  22.525  24.059  1.00  0.00     0.052 C 
BRANCH  17  18
ATOM     18  C   UNL A   1      33.680  22.792  24.499  1.00  0.00    -0.044 A 
ATOM     19  C   UNL A   1      33.167  22.759  27.026  1.00  0.00     0.044 C 
ATOM     20  C   UNL A   1      34.069  22.977  25.841  1.00  0.00    -0.048 A 
ATOM     21  C   UNL A   1      35.399  23.350  26.118  1.00  0.00     0.004 A 
ATOM     22  C   UNL A   1      36.329  23.543  25.096  1.00  0.00     0.000 A 
ATOM     23  C   UNL A   1      34.654  22.930  23.487  1.00  0.00     0.004 A 
ATOM     24  C   UNL A   1      35.958  23.323  23.778  1.00  0.00     0.000 A 
ENDBRANCH  17  18
ENDBRANCH  16  17
ENDBRANCH  14  16
ENDBRANCH  11  14
ENDBRANCH   7  11
ENDBRANCH   3   6
ENDBRANCH   1   2
BRANCH   1  25
ATOM     25  C   UNL A   1      34.192  30.422  27.792  1.00  0.00     0.042 C 
BRANCH  25  26
ATOM     26  C   UNL A   1      35.113  31.580  27.462  1.00  0.00     0.118 C 
BRANCH  26  27
ATOM     27  N   UNL A   1      35.816  32.111  28.624  1.00  0.00    -0.352 N 
ATOM     28  C   UNL A   1      36.585  31.457  29.569  1.00  0.00     0.251 C 
ATOM     29  H   UNL A   1      35.729  33.084  28.755  1.00  0.00     0.163 HD
ATOM     30  O   UNL A   1      36.872  31.996  30.635  1.00  0.00    -0.269 OA
BRANCH  28  31
ATOM     31  C   UNL A   1      37.256  30.186  29.200  1.00  0.00     0.039 A 
ATOM     32  C   UNL A   1      37.184  29.165  30.161  1.00  0.00     0.014 A 
ATOM     33  C   UNL A   1      38.250  30.174  28.235  1.00  0.00     0.014 A 
ATOM     34  C   UNL A   1      38.285  28.350  30.361  1.00  0.00     0.010 A 
ATOM     35  C   UNL A   1      39.405  29.516  28.545  1.00  0.00     0.010 A 
ATOM     36  C   UNL A   1      39.431  28.654  29.645  1.00  0.00    -0.014 A 
BRANCH  36  37
ATOM     37  C   UNL A   1      40.728  28.070  29.872  1.00  0.00     0.031 A 
ATOM     38  C   UNL A   1      40.928  26.721  29.331  1.00  0.00     0.074 A 
ATOM     39  C   UNL A   1      41.716  28.888  30.290  1.00  0.00     0.049 A 
ATOM     40  N   UNL A   1      41.946  25.985  29.569  1.00  0.00    -0.248 NA
ATOM     41  C   UNL A   1      39.937  26.068  28.475  1.00  0.00     0.031 C 
ATOM     42  C   UNL A   1      43.157  28.700  30.201  1.00  0.00     0.029 A 
ATOM     43  N   UNL A   1      41.565  29.992  31.131  1.00  0.00    -0.354 N 
ATOM     44  C   UNL A   1      41.922  24.953  28.659  1.00  0.00     0.074 A 
ATOM     45  C   UNL A   1      40.600  24.976  28.092  1.00  0.00     0.031 C 
ATOM     46  C   UNL A   1      43.747  29.441  31.158  1.00  0.00     0.029 A 
ATOM     47  C   UNL A   1      42.685  29.980  31.992  1.00  0.00     0.049 A 
ATOM     48  H   UNL A   1      40.829  30.645  31.124  1.00  0.00     0.167 HD
ATOM     49  C   UNL A   1      43.096  24.319  28.396  1.00  0.00     0.034 A 
ATOM     50  C   UNL A   1      42.490  29.680  33.315  1.00  0.00     0.034 A 
ATOM     51  C   UNL A   1      44.134  24.803  29.311  1.00  0.00     0.049 A 
ATOM     52  C   UNL A   1      43.100  28.342  33.713  1.00  0.00     0.074 A 
ATOM     53  C   UNL A   1      45.151  25.738  29.223  1.00  0.00     0.029 A 
ATOM     54  N   UNL A   1      43.958  24.559  30.657  1.00  0.00    -0.354 N 
ATOM     55  N   UNL A   1      43.580  27.470  32.863  1.00  0.00    -0.248 NA
ATOM     56  C   UNL A   1      43.186  27.865  35.090  1.00  0.00     0.031 C 
ATOM     57  C   UNL A   1      45.514  26.109  30.558  1.00  0.00     0.029 A 
ATOM     58  C   UNL A   1      44.746  25.370  31.442  1.00  0.00     0.049 A 
ATOM     59  H   UNL A   1      43.339  23.882  31.015  1.00  0.00     0.167 HD
ATOM     60  C   UNL A   1      44.022  26.357  33.527  1.00  0.00     0.074 A 
ATOM     61  C   UNL A   1      43.723  26.642  34.922  1.00  0.00     0.031 C 
ATOM     62  C   UNL A   1      44.587  25.285  32.886  1.00  0.00     0.034 A 
BRANCH  49  63
ATOM     63  C   UNL A   1      43.396  23.444  27.208  1.00  0.00     0.023 A 
ATOM     64  C   UNL A   1      42.745  22.196  27.152  1.00  0.00     0.031 A 
ATOM     65  C   UNL A   1      44.295  23.697  26.153  1.00  0.00     0.131 A 
ATOM     66  C   UNL A   1      43.027  21.257  26.151  1.00  0.00     0.055 A 
ATOM     67  C   UNL A   1      44.590  22.755  25.158  1.00  0.00     0.041 A 
ATOM     68  F   UNL A   1      44.914  24.870  25.997  1.00  0.00    -0.206 F 
ATOM     69  C   UNL A   1      43.960  21.521  25.155  1.00  0.00     0.022 A 
BRANCH  66  70
ATOM     70  S   UNL A   1      42.152  19.675  26.187  1.00  0.00     0.124 S 
ATOM     71  O   UNL A   1      42.591  19.114  27.461  1.00  0.00    -0.237 OA
ATOM     72  O   UNL A   1      40.757  20.093  26.110  1.00  0.00    -0.237 OA
ATOM     73  O   UNL A   1      42.656  18.984  25.002  1.00  0.00    -0.744 OA
ENDBRANCH  66  70
ENDBRANCH  49  63
BRANCH  50  74
ATOM     74  C   UNL A   1      41.196  30.270  33.811  1.00  0.00     0.023 A 
ATOM     75  C   UNL A   1      41.181  31.676  33.990  1.00  0.00     0.031 A 
ATOM     76  C   UNL A   1      39.968  29.634  33.581  1.00  0.00     0.131 A 
ATOM     77  C   UNL A   1      40.029  32.415  33.672  1.00  0.00     0.055 A 
ATOM     78  C   UNL A   1      38.793  30.376  33.380  1.00  0.00     0.041 A 
ATOM     79  F   UNL A   1      39.909  28.307  33.390  1.00  0.00    -0.206 F 
ATOM     80  C   UNL A   1      38.834  31.771  33.356  1.00  0.00     0.022 A 
BRANCH  77  81
ATOM     81  S   UNL A   1      40.225  34.199  33.354  1.00  0.00     0.124 S 
ATOM     82  O   UNL A   1      38.985  34.523  32.656  1.00  0.00    -0.237 OA
ATOM     83  O   UNL A   1      40.364  34.745  34.704  1.00  0.00    -0.237 OA
ATOM     84  O   UNL A   1      41.442  34.292  32.550  1.00  0.00    -0.744 OA
ENDBRANCH  77  81
ENDBRANCH  50  74
BRANCH  62  85
ATOM     85  C   UNL A   1      45.023  24.027  33.596  1.00  0.00     0.023 A 
ATOM     86  C   UNL A   1      46.365  23.801  33.911  1.00  0.00     0.031 A 
ATOM     87  C   UNL A   1      44.122  22.987  33.936  1.00  0.00     0.131 A 
ATOM     88  C   UNL A   1      46.747  22.659  34.634  1.00  0.00     0.055 A 
ATOM     89  C   UNL A   1      44.524  21.797  34.543  1.00  0.00     0.041 A 
ATOM     90  F   UNL A   1      42.798  23.097  33.755  1.00  0.00    -0.206 F 
ATOM     91  C   UNL A   1      45.844  21.638  34.923  1.00  0.00     0.022 A 
BRANCH  88  92
ATOM     92  S   UNL A   1      48.421  22.609  35.311  1.00  0.00     0.124 S 
ATOM     93  O   UNL A   1      48.356  21.485  36.239  1.00  0.00    -0.237 OA
ATOM     94  O   UNL A   1      49.216  22.391  34.105  1.00  0.00    -0.237 OA
ATOM     95  O   UNL A   1      48.581  23.923  35.931  1.00  0.00    -0.744 OA
ENDBRANCH  88  92
ENDBRANCH  62  85
ENDBRANCH  36  37
ENDBRANCH  28  31
ENDBRANCH  26  27
ENDBRANCH  25  26
ENDBRANCH   1  25
TORSDOF 18
ENDMDL
MODEL 2
REMARK VINA RESULT:     -11.6      2.862      4.596
REMARK SMILES Cc1ccccc1CCNS(=O)(=O)c1ccc(C(=O)NCCCNC(=O)c2ccc(-c3c4nc(c(-c5cc(S(=O)(=O)[O-])ccc5F)c5ccc([nH]5)c(-c5cc(S(=O)(=O)[O-])ccc5F)c5nc(c(-c6cc(S(=O)(=O)[O-])ccc6F)c6ccc3[nH]6)C=C5)C=C4)cc2)o1
REMARK SMILES IDX 21 1 20 2 18 3 19 4 17 6 14 7 15 8 90 9 16 10 11 11 12 12
REMARK SMILES IDX 13 13 10 14 9 16 8 17 7 18 1 19 2 20 3 21 4 22 6 23 5 24
REMARK SMILES IDX 22 25 23 26 24 27 25 28 26 30 27 31 28 32 89 33 29 34 88 35
REMARK SMILES IDX 30 36 31 37 32 38 82 39 33 40 87 41 81 42 83 43 34 44 86 45
REMARK SMILES IDX 80 46 79 47 35 49 67 50 47 51 66 52 48 53 51 54 65 55 84 56
REMARK SMILES IDX 49 57 50 58 64 60 85 61 52 62 36 63 37 64 45 65 38 66 44 67
REMARK SMILES IDX 46 68 43 69 39 70 40 71 41 72 42 73 68 74 69 75 77 76 70 77
REMARK SMILES IDX 76 78 78 79 75 80 71 81 72 82 73 83 74 84 53 85 54 86 62 87
REMARK SMILES IDX 55 88 61 89 63 90 60 91 56 92 57 93 58 94 59 95
REMARK H PARENT 20 5 10 15 24 29 83 48 51 59
REMARK Flexibility Score: inf
ROOT
ATOM      1  C   UNL A   1      35.141  29.265  27.318  1.00  0.00     0.118 C 
ENDROOT
BRANCH   1   2
ATOM      2  N   UNL A   1      33.786  28.909  27.710  1.00  0.00    -0.349 N 
ATOM      3  C   UNL A   1      32.943  27.942  27.215  1.00  0.00     0.287 C 
ATOM      4  O   UNL A   1      31.862  27.792  27.788  1.00  0.00    -0.266 OA
ATOM      5  H   UNL A   1      33.414  29.445  28.446  1.00  0.00     0.163 HD
BRANCH   3   6
ATOM      6  C   UNL A   1      33.325  27.131  26.068  1.00  0.00     0.193 A 
ATOM      7  C   UNL A   1      33.494  26.798  23.859  1.00  0.00     0.234 A 
ATOM      8  C   UNL A   1      34.000  25.673  24.490  1.00  0.00     0.065 A 
ATOM      9  O   UNL A   1      33.107  27.687  24.833  1.00  0.00    -0.438 OA
ATOM     10  C   UNL A   1      33.905  25.891  25.883  1.00  0.00     0.058 A 
BRANCH   7  11
ATOM     11  S   UNL A   1      33.343  27.194  22.130  1.00  0.00     0.273 S 
ATOM     12  O   UNL A   1      33.336  25.940  21.409  1.00  0.00    -0.204 OA
ATOM     13  O   UNL A   1      34.343  28.207  21.874  1.00  0.00    -0.204 OA
BRANCH  11  14
ATOM     14  N   UNL A   1      31.849  27.938  21.889  1.00  0.00    -0.208 NA
ATOM     15  H   UNL A   1      31.863  28.823  22.397  1.00  0.00     0.141 HD
BRANCH  14  16
ATOM     16  C   UNL A   1      30.636  27.195  22.321  1.00  0.00     0.104 C 
BRANCH  16  17
ATOM     17  C   UNL A   1      30.069  27.821  23.612  1.00  0.00     0.052 C 
BRANCH  17  18
ATOM     18  C   UNL A   1      29.454  29.191  23.382  1.00  0.00    -0.044 A 
ATOM     19  C   UNL A   1      31.031  30.440  24.994  1.00  0.00     0.044 C 
ATOM     20  C   UNL A   1      29.843  30.355  24.074  1.00  0.00    -0.048 A 
ATOM     21  C   UNL A   1      29.111  31.542  23.873  1.00  0.00     0.004 A 
ATOM     22  C   UNL A   1      28.014  31.584  23.013  1.00  0.00     0.000 A 
ATOM     23  C   UNL A   1      28.381  29.274  22.469  1.00  0.00     0.004 A 
ATOM     24  C   UNL A   1      27.654  30.449  22.302  1.00  0.00     0.000 A 
ENDBRANCH  17  18
ENDBRANCH  16  17
ENDBRANCH  14  16
ENDBRANCH  11  14
ENDBRANCH   7  11
ENDBRANCH   3   6
ENDBRANCH   1   2
BRANCH   1  25
ATOM     25  C   UNL A   1      35.418  30.740  27.588  1.00  0.00     0.042 C 
BRANCH  25  26
ATOM     26  C   UNL A   1      34.971  31.174  28.970  1.00  0.00     0.118 C 
BRANCH  26  27
ATOM     27  N   UNL A   1      34.305  32.471  28.983  1.00  0.00    -0.352 N 
ATOM     28  C   UNL A   1      34.623  33.623  29.680  1.00  0.00     0.251 C 
ATOM     29  H   UNL A   1      33.508  32.536  28.409  1.00  0.00     0.163 HD
ATOM     30  O   UNL A   1      33.808  34.534  29.801  1.00  0.00    -0.269 OA
BRANCH  28  31
ATOM     31  C   UNL A   1      36.031  33.854  30.088  1.00  0.00     0.039 A 
ATOM     32  C   UNL A   1      36.946  34.006  29.035  1.00  0.00     0.014 A 
ATOM     33  C   UNL A   1      36.465  33.475  31.349  1.00  0.00     0.014 A 
ATOM     34  C   UNL A   1      38.210  33.454  29.157  1.00  0.00     0.010 A 
ATOM     35  C   UNL A   1      37.627  32.762  31.414  1.00  0.00     0.010 A 
ATOM     36  C   UNL A   1      38.462  32.706  30.294  1.00  0.00    -0.014 A 
BRANCH  36  37
ATOM     37  C   UNL A   1      39.625  31.879  30.501  1.00  0.00     0.031 A 
ATOM     38  C   UNL A   1      39.515  30.492  30.039  1.00  0.00     0.074 A 
ATOM     39  C   UNL A   1      40.781  32.497  30.821  1.00  0.00     0.049 A 
ATOM     40  N   UNL A   1      40.374  29.575  30.278  1.00  0.00    -0.248 NA
ATOM     41  C   UNL A   1      38.365  30.011  29.272  1.00  0.00     0.031 C 
ATOM     42  C   UNL A   1      42.146  32.012  30.681  1.00  0.00     0.029 A 
ATOM     43  N   UNL A   1      40.905  33.652  31.595  1.00  0.00    -0.354 N 
ATOM     44  C   UNL A   1      40.089  28.523  29.438  1.00  0.00     0.074 A 
ATOM     45  C   UNL A   1      38.770  28.788  28.931  1.00  0.00     0.031 C 
ATOM     46  C   UNL A   1      42.927  32.665  31.561  1.00  0.00     0.029 A 
ATOM     47  C   UNL A   1      42.046  33.456  32.404  1.00  0.00     0.049 A 
ATOM     48  H   UNL A   1      40.318  34.441  31.579  1.00  0.00     0.167 HD
ATOM     49  C   UNL A   1      41.093  27.647  29.165  1.00  0.00     0.034 A 
ATOM     50  C   UNL A   1      41.870  33.275  33.751  1.00  0.00     0.034 A 
ATOM     51  C   UNL A   1      42.258  27.955  30.000  1.00  0.00     0.049 A 
ATOM     52  C   UNL A   1      42.216  31.862  34.207  1.00  0.00     0.074 A 
ATOM     53  C   UNL A   1      43.437  28.654  29.807  1.00  0.00     0.029 A 
ATOM     54  N   UNL A   1      42.113  27.826  31.365  1.00  0.00    -0.354 N 
ATOM     55  N   UNL A   1      42.460  30.866  33.395  1.00  0.00    -0.248 NA
ATOM     56  C   UNL A   1      42.282  31.453  35.607  1.00  0.00     0.031 C 
ATOM     57  C   UNL A   1      43.944  29.014  31.098  1.00  0.00     0.029 A 
ATOM     58  C   UNL A   1      43.093  28.497  32.060  1.00  0.00     0.049 A 
ATOM     59  H   UNL A   1      41.390  27.311  31.794  1.00  0.00     0.167 HD
ATOM     60  C   UNL A   1      42.704  29.723  34.108  1.00  0.00     0.074 A 
ATOM     61  C   UNL A   1      42.548  30.138  35.494  1.00  0.00     0.031 C 
ATOM     62  C   UNL A   1      43.002  28.525  33.513  1.00  0.00     0.034 A 
BRANCH  49  63
ATOM     63  C   UNL A   1      41.141  26.666  28.023  1.00  0.00     0.023 A 
ATOM     64  C   UNL A   1      41.398  25.320  28.348  1.00  0.00     0.031 A 
ATOM     65  C   UNL A   1      41.007  26.935  26.647  1.00  0.00     0.131 A 
ATOM     66  C   UNL A   1      41.570  24.339  27.361  1.00  0.00     0.055 A 
ATOM     67  C   UNL A   1      41.194  25.960  25.657  1.00  0.00     0.041 A 
ATOM     68  F   UNL A   1      40.660  28.135  26.175  1.00  0.00    -0.206 F 
ATOM     69  C   UNL A   1      41.483  24.652  26.010  1.00  0.00     0.022 A 
BRANCH  66  70
ATOM     70  S   UNL A   1      41.920  22.645  27.887  1.00  0.00     0.124 S 
ATOM     71  O   UNL A   1      42.859  22.196  26.864  1.00  0.00    -0.237 OA
ATOM     72  O   UNL A   1      42.467  22.845  29.224  1.00  0.00    -0.237 OA
ATOM     73  O   UNL A   1      40.608  22.002  27.847  1.00  0.00    -0.744 OA
ENDBRANCH  66  70
ENDBRANCH  49  63
BRANCH  50  74
ATOM     74  C   UNL A   1      40.752  34.144  34.265  1.00  0.00     0.023 A 
ATOM     75  C   UNL A   1      39.492  33.512  34.416  1.00  0.00     0.031 A 
ATOM     76  C   UNL A   1      41.009  35.272  35.056  1.00  0.00     0.131 A 
ATOM     77  C   UNL A   1      38.665  33.839  35.503  1.00  0.00     0.055 A 
ATOM     78  C   UNL A   1      40.118  35.667  36.067  1.00  0.00     0.041 A 
ATOM     79  F   UNL A   1      42.185  35.913  34.975  1.00  0.00    -0.206 F 
ATOM     80  C   UNL A   1      38.977  34.911  36.339  1.00  0.00     0.022 A 
BRANCH  77  81
ATOM     81  S   UNL A   1      37.381  32.640  35.986  1.00  0.00     0.124 S 
ATOM     82  O   UNL A   1      36.901  33.196  37.247  1.00  0.00    -0.237 OA
ATOM     83  O   UNL A   1      36.450  32.705  34.860  1.00  0.00    -0.237 OA
ATOM     84  O   UNL A   1      38.094  31.368  36.090  1.00  0.00    -0.744 OA
ENDBRANCH  77  81
ENDBRANCH  50  74
BRANCH  62  85
ATOM     85  C   UNL A   1      43.213  27.244  34.282  1.00  0.00     0.023 A 
ATOM     86  C   UNL A   1      44.469  26.636  34.346  1.00  0.00     0.031 A 
ATOM     87  C   UNL A   1      42.157  26.559  34.934  1.00  0.00     0.131 A 
ATOM     88  C   UNL A   1      44.666  25.483  35.124  1.00  0.00     0.055 A 
ATOM     89  C   UNL A   1      42.333  25.346  35.601  1.00  0.00     0.041 A 
ATOM     90  F   UNL A   1      40.917  27.059  35.012  1.00  0.00    -0.206 F 
ATOM     91  C   UNL A   1      43.602  24.813  35.724  1.00  0.00     0.022 A 
BRANCH  88  92
ATOM     92  S   UNL A   1      46.365  24.963  35.448  1.00  0.00     0.124 S 
ATOM     93  O   UNL A   1      46.928  24.858  34.107  1.00  0.00    -0.237 OA
ATOM     94  O   UNL A   1      46.859  26.075  36.258  1.00  0.00    -0.237 OA
ATOM     95  O   UNL A   1      46.208  23.698  36.162  1.00  0.00    -0.744 OA
ENDBRANCH  88  92
ENDBRANCH  62  85
ENDBRANCH  36  37
ENDBRANCH  28  31
ENDBRANCH  26  27
ENDBRANCH  25  26
ENDBRANCH   1  25
TORSDOF 18
ENDMDL
MODEL 3
REMARK VINA RESULT:     -11.4      2.673      4.013
REMARK SMILES Cc1ccccc1CCNS(=O)(=O)c1ccc(C(=O)NCCCNC(=O)c2ccc(-c3c4nc(c(-c5cc(S(=O)(=O)[O-])ccc5F)c5ccc([nH]5)c(-c5cc(S(=O)(=O)[O-])ccc5F)c5nc(c(-c6cc(S(=O)(=O)[O-])ccc6F)c6ccc3[nH]6)C=C5)C=C4)cc2)o1
REMARK SMILES IDX 21 1 20 2 18 3 19 4 17 6 14 7 15 8 90 9 16 10 11 11 12 12
REMARK SMILES IDX 13 13 10 14 9 16 8 17 7 18 1 19 2 20 3 21 4 22 6 23 5 24
REMARK SMILES IDX 22 25 23 26 24 27 25 28 26 30 27 31 28 32 89 33 29 34 88 35
REMARK SMILES IDX 30 36 31 37 32 38 82 39 33 40 87 41 81 42 83 43 34 44 86 45
REMARK SMILES IDX 80 46 79 47 35 49 67 50 47 51 66 52 48 53 51 54 65 55 84 56
REMARK SMILES IDX 49 57 50 58 64 60 85 61 52 62 36 63 37 64 45 65 38 66 44 67
REMARK SMILES IDX 46 68 43 69 39 70 40 71 41 72 42 73 68 74 69 75 77 76 70 77
REMARK SMILES IDX 76 78 78 79 75 80 71 81 72 82 73 83 74 84 53 85 54 86 62 87
REMARK SMILES IDX 55 88 61 89 63 90 60 91 56 92 57 93 58 94 59 95
REMARK H PARENT 20 5 10 15 24 29 83 48 51 59
REMARK Flexibility Score: inf
ROOT
ATOM      1  C   UNL A   1      33.557  30.585  26.971  1.00  0.00     0.118 C 
ENDROOT
BRANCH   1   2
ATOM      2  N   UNL A   1      32.540  29.711  27.533  1.00  0.00    -0.349 N 
ATOM      3  C   UNL A   1      32.251  28.394  27.262  1.00  0.00     0.287 C 
ATOM      4  O   UNL A   1      31.378  27.857  27.948  1.00  0.00    -0.266 OA
ATOM      5  H   UNL A   1      31.968  30.128  28.216  1.00  0.00     0.163 HD
BRANCH   3   6
ATOM      6  C   UNL A   1      32.956  27.673  26.212  1.00  0.00     0.193 A 
ATOM      7  C   UNL A   1      33.975  25.841  25.422  1.00  0.00     0.234 A 
ATOM      8  C   UNL A   1      34.025  26.806  24.429  1.00  0.00     0.065 A 
ATOM      9  O   UNL A   1      33.302  26.376  26.494  1.00  0.00    -0.438 OA
ATOM     10  C   UNL A   1      33.369  27.956  24.924  1.00  0.00     0.058 A 
BRANCH   7  11
ATOM     11  S   UNL A   1      34.579  24.167  25.449  1.00  0.00     0.273 S 
ATOM     12  O   UNL A   1      33.654  23.398  26.252  1.00  0.00    -0.204 OA
ATOM     13  O   UNL A   1      35.980  24.264  25.795  1.00  0.00    -0.204 OA
BRANCH  11  14
ATOM     14  N   UNL A   1      34.526  23.562  23.876  1.00  0.00    -0.208 NA
ATOM     15  H   UNL A   1      34.383  24.354  23.248  1.00  0.00     0.141 HD
BRANCH  14  16
ATOM     16  C   UNL A   1      33.479  22.552  23.565  1.00  0.00     0.104 C 
BRANCH  16  17
ATOM     17  C   UNL A   1      32.628  23.030  22.371  1.00  0.00     0.052 C 
BRANCH  17  18
ATOM     18  C   UNL A   1      31.781  24.248  22.699  1.00  0.00    -0.044 A 
ATOM     19  C   UNL A   1      32.565  25.643  20.677  1.00  0.00     0.044 C 
ATOM     20  C   UNL A   1      31.822  25.455  21.972  1.00  0.00    -0.048 A 
ATOM     21  C   UNL A   1      31.089  26.560  22.449  1.00  0.00     0.004 A 
ATOM     22  C   UNL A   1      30.336  26.484  23.620  1.00  0.00     0.000 A 
ATOM     23  C   UNL A   1      30.960  24.176  23.845  1.00  0.00     0.004 A 
ATOM     24  C   UNL A   1      30.264  25.286  24.315  1.00  0.00     0.000 A 
ENDBRANCH  17  18
ENDBRANCH  16  17
ENDBRANCH  14  16
ENDBRANCH  11  14
ENDBRANCH   7  11
ENDBRANCH   3   6
ENDBRANCH   1   2
BRANCH   1  25
ATOM     25  C   UNL A   1      34.916  30.326  27.612  1.00  0.00     0.042 C 
BRANCH  25  26
ATOM     26  C   UNL A   1      35.042  30.951  28.987  1.00  0.00     0.118 C 
BRANCH  26  27
ATOM     27  N   UNL A   1      34.323  32.213  29.118  1.00  0.00    -0.352 N 
ATOM     28  C   UNL A   1      34.550  33.276  29.973  1.00  0.00     0.251 C 
ATOM     29  H   UNL A   1      33.561  32.325  28.505  1.00  0.00     0.163 HD
ATOM     30  O   UNL A   1      33.692  34.137  30.153  1.00  0.00    -0.269 OA
BRANCH  28  31
ATOM     31  C   UNL A   1      35.918  33.500  30.500  1.00  0.00     0.039 A 
ATOM     32  C   UNL A   1      36.892  33.809  29.537  1.00  0.00     0.014 A 
ATOM     33  C   UNL A   1      36.287  32.983  31.732  1.00  0.00     0.014 A 
ATOM     34  C   UNL A   1      38.166  33.287  29.676  1.00  0.00     0.010 A 
ATOM     35  C   UNL A   1      37.471  32.304  31.788  1.00  0.00     0.010 A 
ATOM     36  C   UNL A   1      38.376  32.413  30.729  1.00  0.00    -0.014 A 
BRANCH  36  37
ATOM     37  C   UNL A   1      39.555  31.605  30.912  1.00  0.00     0.031 A 
ATOM     38  C   UNL A   1      39.502  30.255  30.340  1.00  0.00     0.074 A 
ATOM     39  C   UNL A   1      40.681  32.226  31.320  1.00  0.00     0.049 A 
ATOM     40  N   UNL A   1      40.380  29.346  30.537  1.00  0.00    -0.248 NA
ATOM     41  C   UNL A   1      38.393  29.806  29.498  1.00  0.00     0.031 C 
ATOM     42  C   UNL A   1      42.064  31.791  31.191  1.00  0.00     0.029 A 
ATOM     43  N   UNL A   1      40.745  33.320  32.185  1.00  0.00    -0.354 N 
ATOM     44  C   UNL A   1      40.155  28.356  29.608  1.00  0.00     0.074 A 
ATOM     45  C   UNL A   1      38.846  28.624  29.077  1.00  0.00     0.031 C 
ATOM     46  C   UNL A   1      42.795  32.394  32.146  1.00  0.00     0.029 A 
ATOM     47  C   UNL A   1      41.864  33.092  33.017  1.00  0.00     0.049 A 
ATOM     48  H   UNL A   1      40.135  34.092  32.210  1.00  0.00     0.167 HD
ATOM     49  C   UNL A   1      41.193  27.532  29.304  1.00  0.00     0.034 A 
ATOM     50  C   UNL A   1      41.648  32.800  34.338  1.00  0.00     0.034 A 
ATOM     51  C   UNL A   1      42.319  27.805  30.201  1.00  0.00     0.049 A 
ATOM     52  C   UNL A   1      42.021  31.366  34.695  1.00  0.00     0.074 A 
ATOM     53  C   UNL A   1      43.483  28.549  30.105  1.00  0.00     0.029 A 
ATOM     54  N   UNL A   1      42.133  27.564  31.546  1.00  0.00    -0.354 N 
ATOM     55  N   UNL A   1      42.321  30.444  33.817  1.00  0.00    -0.248 NA
ATOM     56  C   UNL A   1      42.052  30.849  36.061  1.00  0.00     0.031 C 
ATOM     57  C   UNL A   1      43.935  28.819  31.437  1.00  0.00     0.029 A 
ATOM     58  C   UNL A   1      43.068  28.205  32.326  1.00  0.00     0.049 A 
ATOM     59  H   UNL A   1      41.412  26.998  31.907  1.00  0.00     0.167 HD
ATOM     60  C   UNL A   1      42.575  29.255  34.447  1.00  0.00     0.074 A 
ATOM     61  C   UNL A   1      42.361  29.555  35.855  1.00  0.00     0.031 C 
ATOM     62  C   UNL A   1      42.928  28.116  33.772  1.00  0.00     0.034 A 
BRANCH  49  63
ATOM     63  C   UNL A   1      41.308  26.646  28.092  1.00  0.00     0.023 A 
ATOM     64  C   UNL A   1      41.575  25.282  28.321  1.00  0.00     0.031 A 
ATOM     65  C   UNL A   1      41.228  27.020  26.736  1.00  0.00     0.131 A 
ATOM     66  C   UNL A   1      41.808  24.385  27.268  1.00  0.00     0.055 A 
ATOM     67  C   UNL A   1      41.475  26.130  25.681  1.00  0.00     0.041 A 
ATOM     68  F   UNL A   1      40.879  28.249  26.345  1.00  0.00    -0.206 F 
ATOM     69  C   UNL A   1      41.774  24.804  25.943  1.00  0.00     0.022 A 
BRANCH  66  70
ATOM     70  S   UNL A   1      42.167  22.660  27.674  1.00  0.00     0.124 S 
ATOM     71  O   UNL A   1      43.111  22.798  28.779  1.00  0.00    -0.237 OA
ATOM     72  O   UNL A   1      40.846  22.142  28.012  1.00  0.00    -0.237 OA
ATOM     73  O   UNL A   1      42.739  22.135  26.435  1.00  0.00    -0.744 OA
ENDBRANCH  66  70
ENDBRANCH  49  63
BRANCH  50  74
ATOM     74  C   UNL A   1      40.488  33.595  34.878  1.00  0.00     0.023 A 
ATOM     75  C   UNL A   1      39.444  32.845  35.474  1.00  0.00     0.031 A 
ATOM     76  C   UNL A   1      40.643  34.927  35.288  1.00  0.00     0.131 A 
ATOM     77  C   UNL A   1      38.785  33.334  36.615  1.00  0.00     0.055 A 
ATOM     78  C   UNL A   1      39.896  35.448  36.356  1.00  0.00     0.041 A 
ATOM     79  F   UNL A   1      41.620  35.692  34.777  1.00  0.00    -0.206 F 
ATOM     80  C   UNL A   1      39.014  34.633  37.067  1.00  0.00     0.022 A 
BRANCH  77  81
ATOM     81  S   UNL A   1      37.901  32.137  37.665  1.00  0.00     0.124 S 
ATOM     82  O   UNL A   1      37.911  30.936  36.836  1.00  0.00    -0.237 OA
ATOM     83  O   UNL A   1      38.736  32.095  38.866  1.00  0.00    -0.237 OA
ATOM     84  O   UNL A   1      36.588  32.742  37.880  1.00  0.00    -0.744 OA
ENDBRANCH  77  81
ENDBRANCH  50  74
BRANCH  62  85
ATOM     85  C   UNL A   1      43.152  26.785  34.446  1.00  0.00     0.023 A 
ATOM     86  C   UNL A   1      44.428  26.225  34.540  1.00  0.00     0.031 A 
ATOM     87  C   UNL A   1      42.091  26.004  34.972  1.00  0.00     0.131 A 
ATOM     88  C   UNL A   1      44.631  25.020  35.232  1.00  0.00     0.055 A 
ATOM     89  C   UNL A   1      42.282  24.748  35.548  1.00  0.00     0.041 A 
ATOM     90  F   UNL A   1      40.827  26.445  35.011  1.00  0.00    -0.206 F 
ATOM     91  C   UNL A   1      43.565  24.259  35.707  1.00  0.00     0.022 A 
BRANCH  88  92
ATOM     92  S   UNL A   1      46.330  24.545  35.621  1.00  0.00     0.124 S 
ATOM     93  O   UNL A   1      47.104  25.651  35.069  1.00  0.00    -0.237 OA
ATOM     94  O   UNL A   1      46.284  24.469  37.080  1.00  0.00    -0.237 OA
ATOM     95  O   UNL A   1      46.494  23.264  34.938  1.00  0.00    -0.744 OA
ENDBRANCH  88  92
ENDBRANCH  62  85
ENDBRANCH  36  37
ENDBRANCH  28  31
ENDBRANCH  26  27
ENDBRANCH  25  26
ENDBRANCH   1  25
TORSDOF 18
ENDMDL
