MODEL 1
REMARK VINA RESULT:     -14.1      0.000      0.000
REMARK SMILES Cc1cccc(CNC(=O)N[C@@H](CC2=c3ccccc3=NC2)C(=O)NCCCNC(=O)c2ccc(-c3c4nc(c(-c5cc(S(=O)(=O)[O-])ccc5F)c5ccc([nH]5)c(-c5cc(S(=O)(=O)[O-])ccc5F)c5nc(c(-c6cc(S(=O)(=O)[O-])ccc6F)c6ccc3[nH]6)C=C5)C=C4)cc2)c1
REMARK SMILES IDX 27 1 26 2 25 3 23 4 24 5 12 7 11 8 8 9 9 10 10 12 7 14 6 15
REMARK SMILES IDX 1 16 2 17 3 18 95 19 4 20 5 21 13 22 14 23 15 24 22 25 16 26
REMARK SMILES IDX 20 27 21 28 17 29 19 30 18 31 28 32 29 33 30 34 31 36 32 37
REMARK SMILES IDX 33 38 94 39 34 40 93 41 35 42 36 43 37 44 87 45 38 46 92 47
REMARK SMILES IDX 86 48 88 49 39 50 91 51 85 52 84 53 40 55 72 56 52 57 71 58
REMARK SMILES IDX 53 59 56 60 70 61 89 62 54 63 55 64 69 66 90 67 57 68 41 69
REMARK SMILES IDX 42 70 50 71 43 72 49 73 51 74 48 75 44 76 45 77 46 78 47 79
REMARK SMILES IDX 73 80 74 81 82 82 75 83 81 84 83 85 80 86 76 87 77 88 78 89
REMARK SMILES IDX 79 90 58 91 59 92 67 93 60 94 66 95 68 96 65 97 61 98 62 99
REMARK SMILES IDX 63 100 64 101
REMARK H PARENT 25 6 8 11 11 13 29 35 88 54 56 65
REMARK Flexibility Score: inf
ROOT
ATOM      1  C   UNL A   1      31.971  30.127  26.808  1.00  0.00     0.042 C 
ENDROOT
BRANCH   1   2
ATOM      2  C   UNL A   1      31.876  29.698  25.355  1.00  0.00     0.117 C 
BRANCH   2   3
ATOM      3  N   UNL A   1      33.140  29.646  24.639  1.00  0.00    -0.354 N 
ATOM      4  C   UNL A   1      33.745  28.587  24.019  1.00  0.00     0.242 C 
ATOM      5  O   UNL A   1      34.568  28.860  23.136  1.00  0.00    -0.273 OA
ATOM      6  H   UNL A   1      33.632  30.497  24.594  1.00  0.00     0.163 HD
BRANCH   4   7
ATOM      7  C   UNL A   1      33.419  27.096  24.322  1.00  0.00     0.177 C 
BRANCH   7   8
ATOM      8  N   UNL A   1      33.467  26.283  23.105  1.00  0.00    -0.326 N 
ATOM      9  N   UNL A   1      31.459  26.878  22.030  1.00  0.00    -0.334 N 
ATOM     10  C   UNL A   1      32.720  26.424  21.994  1.00  0.00     0.315 C 
ATOM     11  H   UNL A   1      31.188  27.408  21.245  1.00  0.00     0.165 HD
ATOM     12  O   UNL A   1      33.222  26.143  20.905  1.00  0.00    -0.249 OA
ATOM     13  H   UNL A   1      34.122  25.548  23.099  1.00  0.00     0.166 HD
BRANCH   9  14
ATOM     14  C   UNL A   1      30.429  26.716  23.038  1.00  0.00     0.153 C 
BRANCH  14  15
ATOM     15  C   UNL A   1      29.373  27.794  23.008  1.00  0.00    -0.028 A 
ATOM     16  C   UNL A   1      29.102  31.434  21.866  1.00  0.00     0.044 C 
ATOM     17  C   UNL A   1      28.746  30.085  22.416  1.00  0.00    -0.051 A 
ATOM     18  C   UNL A   1      27.454  29.849  22.896  1.00  0.00     0.003 A 
ATOM     19  C   UNL A   1      29.696  29.055  22.476  1.00  0.00     0.009 A 
ATOM     20  C   UNL A   1      27.111  28.596  23.402  1.00  0.00     0.001 A 
ATOM     21  C   UNL A   1      28.061  27.575  23.449  1.00  0.00     0.005 A 
ENDBRANCH  14  15
ENDBRANCH   9  14
ENDBRANCH   7   8
BRANCH   7  22
ATOM     22  C   UNL A   1      34.142  26.429  25.524  1.00  0.00     0.068 C 
BRANCH  22  23
ATOM     23  C   UNL A   1      33.916  24.973  25.759  1.00  0.00    -0.037 C 
ATOM     24  C   UNL A   1      34.840  24.018  25.698  1.00  0.00     0.001 A 
ATOM     25  C   UNL A   1      32.570  24.368  25.996  1.00  0.00     0.174 C 
ATOM     26  C   UNL A   1      36.235  24.035  25.418  1.00  0.00     0.010 A 
ATOM     27  C   UNL A   1      34.034  22.786  25.627  1.00  0.00     0.065 A 
ATOM     28  N   UNL A   1      32.743  22.914  25.764  1.00  0.00    -0.280 NA
ATOM     29  C   UNL A   1      36.805  22.913  24.958  1.00  0.00     0.001 A 
ATOM     30  C   UNL A   1      34.754  21.572  25.180  1.00  0.00     0.028 A 
ATOM     31  C   UNL A   1      36.044  21.683  24.811  1.00  0.00     0.002 A 
ENDBRANCH  22  23
ENDBRANCH   7  22
ENDBRANCH   4   7
ENDBRANCH   2   3
ENDBRANCH   1   2
BRANCH   1  32
ATOM     32  C   UNL A   1      33.391  30.022  27.353  1.00  0.00     0.118 C 
BRANCH  32  33
ATOM     33  N   UNL A   1      33.986  31.244  27.902  1.00  0.00    -0.352 N 
ATOM     34  C   UNL A   1      35.184  31.423  28.586  1.00  0.00     0.251 C 
ATOM     35  H   UNL A   1      33.457  32.063  27.765  1.00  0.00     0.163 HD
ATOM     36  O   UNL A   1      35.463  32.526  29.054  1.00  0.00    -0.269 OA
BRANCH  34  37
ATOM     37  C   UNL A   1      36.186  30.330  28.662  1.00  0.00     0.039 A 
ATOM     38  C   UNL A   1      36.447  29.700  29.893  1.00  0.00     0.014 A 
ATOM     39  C   UNL A   1      36.999  30.062  27.575  1.00  0.00     0.014 A 
ATOM     40  C   UNL A   1      37.647  29.014  30.075  1.00  0.00     0.010 A 
ATOM     41  C   UNL A   1      38.255  29.582  27.799  1.00  0.00     0.010 A 
ATOM     42  C   UNL A   1      38.582  29.071  29.052  1.00  0.00    -0.014 A 
BRANCH  42  43
ATOM     43  C   UNL A   1      39.956  28.625  29.114  1.00  0.00     0.031 A 
ATOM     44  C   UNL A   1      40.244  27.229  28.758  1.00  0.00     0.074 A 
ATOM     45  C   UNL A   1      40.887  29.596  29.133  1.00  0.00     0.049 A 
ATOM     46  N   UNL A   1      41.349  26.627  28.999  1.00  0.00    -0.248 NA
ATOM     47  C   UNL A   1      39.257  26.377  28.099  1.00  0.00     0.031 C 
ATOM     48  C   UNL A   1      42.283  29.556  28.726  1.00  0.00     0.029 A 
ATOM     49  N   UNL A   1      40.728  30.861  29.692  1.00  0.00    -0.354 N 
ATOM     50  C   UNL A   1      41.349  25.464  28.256  1.00  0.00     0.074 A 
ATOM     51  C   UNL A   1      39.989  25.299  27.815  1.00  0.00     0.031 C 
ATOM     52  C   UNL A   1      42.916  30.618  29.259  1.00  0.00     0.029 A 
ATOM     53  C   UNL A   1      41.981  31.272  30.168  1.00  0.00     0.049 A 
ATOM     54  H   UNL A   1      39.889  31.374  29.743  1.00  0.00     0.167 HD
ATOM     55  C   UNL A   1      42.545  24.882  27.960  1.00  0.00     0.034 A 
ATOM     56  C   UNL A   1      42.158  31.347  31.522  1.00  0.00     0.034 A 
ATOM     57  C   UNL A   1      43.636  25.645  28.579  1.00  0.00     0.049 A 
ATOM     58  C   UNL A   1      43.055  30.241  32.056  1.00  0.00     0.074 A 
ATOM     59  C   UNL A   1      44.517  26.590  28.079  1.00  0.00     0.029 A 
ATOM     60  N   UNL A   1      43.683  25.764  29.965  1.00  0.00    -0.354 N 
ATOM     61  N   UNL A   1      43.371  29.151  31.407  1.00  0.00    -0.248 NA
ATOM     62  C   UNL A   1      43.690  30.310  33.366  1.00  0.00     0.031 C 
ATOM     63  C   UNL A   1      45.018  27.343  29.178  1.00  0.00     0.029 A 
ATOM     64  C   UNL A   1      44.475  26.832  30.346  1.00  0.00     0.049 A 
ATOM     65  H   UNL A   1      43.215  25.167  30.592  1.00  0.00     0.167 HD
ATOM     66  C   UNL A   1      44.207  28.374  32.172  1.00  0.00     0.074 A 
ATOM     67  C   UNL A   1      44.403  29.171  33.374  1.00  0.00     0.031 C 
ATOM     68  C   UNL A   1      44.653  27.143  31.762  1.00  0.00     0.034 A 
BRANCH  55  69
ATOM     69  C   UNL A   1      42.767  23.846  26.875  1.00  0.00     0.023 A 
ATOM     70  C   UNL A   1      42.202  22.565  27.046  1.00  0.00     0.031 A 
ATOM     71  C   UNL A   1      43.523  24.005  25.695  1.00  0.00     0.131 A 
ATOM     72  C   UNL A   1      42.463  21.513  26.148  1.00  0.00     0.055 A 
ATOM     73  C   UNL A   1      43.825  22.948  24.824  1.00  0.00     0.041 A 
ATOM     74  F   UNL A   1      43.962  25.199  25.282  1.00  0.00    -0.206 F 
ATOM     75  C   UNL A   1      43.300  21.689  25.051  1.00  0.00     0.022 A 
BRANCH  72  76
ATOM     76  S   UNL A   1      41.674  19.906  26.428  1.00  0.00     0.124 S 
ATOM     77  O   UNL A   1      42.144  19.564  27.765  1.00  0.00    -0.237 OA
ATOM     78  O   UNL A   1      40.258  20.231  26.300  1.00  0.00    -0.237 OA
ATOM     79  O   UNL A   1      42.212  19.074  25.352  1.00  0.00    -0.744 OA
ENDBRANCH  72  76
ENDBRANCH  55  69
BRANCH  56  80
ATOM     80  C   UNL A   1      40.961  31.910  32.233  1.00  0.00     0.023 A 
ATOM     81  C   UNL A   1      40.231  31.078  33.111  1.00  0.00     0.031 A 
ATOM     82  C   UNL A   1      40.800  33.299  32.370  1.00  0.00     0.131 A 
ATOM     83  C   UNL A   1      39.448  31.640  34.138  1.00  0.00     0.055 A 
ATOM     84  C   UNL A   1      40.050  33.851  33.419  1.00  0.00     0.041 A 
ATOM     85  F   UNL A   1      41.477  34.146  31.580  1.00  0.00    -0.206 F 
ATOM     86  C   UNL A   1      39.399  33.022  34.329  1.00  0.00     0.022 A 
BRANCH  83  87
ATOM     87  S   UNL A   1      38.593  30.549  35.323  1.00  0.00     0.124 S 
ATOM     88  O   UNL A   1      39.713  29.975  36.059  1.00  0.00    -0.237 OA
ATOM     89  O   UNL A   1      37.754  31.475  36.078  1.00  0.00    -0.237 OA
ATOM     90  O   UNL A   1      37.872  29.615  34.462  1.00  0.00    -0.744 OA
ENDBRANCH  83  87
ENDBRANCH  56  80
BRANCH  68  91
ATOM     91  C   UNL A   1      45.359  26.119  32.639  1.00  0.00     0.023 A 
ATOM     92  C   UNL A   1      44.687  25.090  33.309  1.00  0.00     0.031 A 
ATOM     93  C   UNL A   1      46.772  26.103  32.778  1.00  0.00     0.131 A 
ATOM     94  C   UNL A   1      45.369  24.190  34.144  1.00  0.00     0.055 A 
ATOM     95  C   UNL A   1      47.461  25.135  33.516  1.00  0.00     0.041 A 
ATOM     96  F   UNL A   1      47.558  27.021  32.198  1.00  0.00    -0.206 F 
ATOM     97  C   UNL A   1      46.756  24.181  34.229  1.00  0.00     0.022 A 
BRANCH  94  98
ATOM     98  S   UNL A   1      44.376  23.102  35.195  1.00  0.00     0.124 S 
ATOM     99  O   UNL A   1      43.095  23.802  35.221  1.00  0.00    -0.237 OA
ATOM    100  O   UNL A   1      44.395  21.846  34.452  1.00  0.00    -0.237 OA
ATOM    101  O   UNL A   1      45.102  23.088  36.462  1.00  0.00    -0.744 OA
ENDBRANCH  94  98
ENDBRANCH  68  91
ENDBRANCH  42  43
ENDBRANCH  34  37
ENDBRANCH  32  33
ENDBRANCH   1  32
TORSDOF 18
ENDMDL
MODEL 2
REMARK VINA RESULT:     -13.9      3.991      9.685
REMARK SMILES Cc1cccc(CNC(=O)N[C@@H](CC2=c3ccccc3=NC2)C(=O)NCCCNC(=O)c2ccc(-c3c4nc(c(-c5cc(S(=O)(=O)[O-])ccc5F)c5ccc([nH]5)c(-c5cc(S(=O)(=O)[O-])ccc5F)c5nc(c(-c6cc(S(=O)(=O)[O-])ccc6F)c6ccc3[nH]6)C=C5)C=C4)cc2)c1
REMARK SMILES IDX 27 1 26 2 25 3 23 4 24 5 12 7 11 8 8 9 9 10 10 12 7 14 6 15
REMARK SMILES IDX 1 16 2 17 3 18 95 19 4 20 5 21 13 22 14 23 15 24 22 25 16 26
REMARK SMILES IDX 20 27 21 28 17 29 19 30 18 31 28 32 29 33 30 34 31 36 32 37
REMARK SMILES IDX 33 38 94 39 34 40 93 41 35 42 36 43 37 44 87 45 38 46 92 47
REMARK SMILES IDX 86 48 88 49 39 50 91 51 85 52 84 53 40 55 72 56 52 57 71 58
REMARK SMILES IDX 53 59 56 60 70 61 89 62 54 63 55 64 69 66 90 67 57 68 41 69
REMARK SMILES IDX 42 70 50 71 43 72 49 73 51 74 48 75 44 76 45 77 46 78 47 79
REMARK SMILES IDX 73 80 74 81 82 82 75 83 81 84 83 85 80 86 76 87 77 88 78 89
REMARK SMILES IDX 79 90 58 91 59 92 67 93 60 94 66 95 68 96 65 97 61 98 62 99
REMARK SMILES IDX 63 100 64 101
REMARK H PARENT 25 6 8 11 11 13 29 35 88 54 56 65
REMARK Flexibility Score: inf
ROOT
ATOM      1  C   UNL A   1      37.236  21.489  24.658  1.00  0.00     0.042 C 
ENDROOT
BRANCH   1   2
ATOM      2  C   UNL A   1      35.841  21.186  25.176  1.00  0.00     0.117 C 
BRANCH   2   3
ATOM      3  N   UNL A   1      35.551  21.690  26.508  1.00  0.00    -0.354 N 
ATOM      4  C   UNL A   1      34.603  22.591  26.909  1.00  0.00     0.242 C 
ATOM      5  O   UNL A   1      34.262  22.543  28.099  1.00  0.00    -0.273 OA
ATOM      6  H   UNL A   1      36.120  21.331  27.226  1.00  0.00     0.163 HD
BRANCH   4   7
ATOM      7  C   UNL A   1      33.909  23.609  25.959  1.00  0.00     0.177 C 
BRANCH   7   8
ATOM      8  N   UNL A   1      32.492  23.767  26.291  1.00  0.00    -0.326 N 
ATOM      9  N   UNL A   1      31.590  21.698  25.620  1.00  0.00    -0.334 N 
ATOM     10  C   UNL A   1      31.557  22.802  26.381  1.00  0.00     0.315 C 
ATOM     11  H   UNL A   1      31.241  20.886  26.054  1.00  0.00     0.165 HD
ATOM     12  O   UNL A   1      30.652  22.931  27.205  1.00  0.00    -0.249 OA
ATOM     13  H   UNL A   1      32.187  24.686  26.470  1.00  0.00     0.166 HD
BRANCH   9  14
ATOM     14  C   UNL A   1      32.058  21.507  24.260  1.00  0.00     0.153 C 
BRANCH  14  15
ATOM     15  C   UNL A   1      32.328  20.064  23.908  1.00  0.00    -0.028 A 
ATOM     16  C   UNL A   1      33.250  16.843  25.752  1.00  0.00     0.044 C 
ATOM     17  C   UNL A   1      32.893  17.803  24.657  1.00  0.00    -0.051 A 
ATOM     18  C   UNL A   1      32.823  17.354  23.335  1.00  0.00     0.003 A 
ATOM     19  C   UNL A   1      32.645  19.156  24.933  1.00  0.00     0.009 A 
ATOM     20  C   UNL A   1      32.484  18.236  22.310  1.00  0.00     0.001 A 
ATOM     21  C   UNL A   1      32.230  19.579  22.597  1.00  0.00     0.005 A 
ENDBRANCH  14  15
ENDBRANCH   9  14
ENDBRANCH   7   8
BRANCH   7  22
ATOM     22  C   UNL A   1      34.626  24.964  25.706  1.00  0.00     0.068 C 
BRANCH  22  23
ATOM     23  C   UNL A   1      33.886  26.019  24.954  1.00  0.00    -0.037 C 
ATOM     24  C   UNL A   1      33.513  27.204  25.431  1.00  0.00     0.001 A 
ATOM     25  C   UNL A   1      33.362  25.839  23.566  1.00  0.00     0.174 C 
ATOM     26  C   UNL A   1      33.670  27.832  26.699  1.00  0.00     0.010 A 
ATOM     27  C   UNL A   1      32.523  27.660  24.439  1.00  0.00     0.065 A 
ATOM     28  N   UNL A   1      32.370  26.924  23.374  1.00  0.00    -0.280 NA
ATOM     29  C   UNL A   1      32.803  28.793  27.043  1.00  0.00     0.001 A 
ATOM     30  C   UNL A   1      31.649  28.776  24.870  1.00  0.00     0.028 A 
ATOM     31  C   UNL A   1      31.766  29.242  26.128  1.00  0.00     0.002 A 
ENDBRANCH  22  23
ENDBRANCH   7  22
ENDBRANCH   4   7
ENDBRANCH   2   3
ENDBRANCH   1   2
BRANCH   1  32
ATOM     32  C   UNL A   1      37.945  22.552  25.489  1.00  0.00     0.118 C 
BRANCH  32  33
ATOM     33  N   UNL A   1      39.280  22.219  25.997  1.00  0.00    -0.352 N 
ATOM     34  C   UNL A   1      40.262  23.046  26.531  1.00  0.00     0.251 C 
ATOM     35  H   UNL A   1      39.516  21.265  25.953  1.00  0.00     0.163 HD
ATOM     36  O   UNL A   1      41.365  22.582  26.816  1.00  0.00    -0.269 OA
BRANCH  34  37
ATOM     37  C   UNL A   1      39.962  24.461  26.871  1.00  0.00     0.039 A 
ATOM     38  C   UNL A   1      40.611  25.502  26.182  1.00  0.00     0.014 A 
ATOM     39  C   UNL A   1      39.199  24.755  27.987  1.00  0.00     0.014 A 
ATOM     40  C   UNL A   1      40.683  26.769  26.758  1.00  0.00     0.010 A 
ATOM     41  C   UNL A   1      39.438  25.918  28.656  1.00  0.00     0.010 A 
ATOM     42  C   UNL A   1      40.191  26.919  28.046  1.00  0.00    -0.014 A 
BRANCH  42  43
ATOM     43  C   UNL A   1      40.358  28.070  28.905  1.00  0.00     0.031 A 
ATOM     44  C   UNL A   1      39.383  29.162  28.792  1.00  0.00     0.074 A 
ATOM     45  C   UNL A   1      41.158  27.893  29.974  1.00  0.00     0.049 A 
ATOM     46  N   UNL A   1      39.534  30.331  29.293  1.00  0.00    -0.248 NA
ATOM     47  C   UNL A   1      38.129  29.009  28.059  1.00  0.00     0.031 C 
ATOM     48  C   UNL A   1      41.185  28.601  31.244  1.00  0.00     0.029 A 
ATOM     49  N   UNL A   1      42.257  27.040  30.032  1.00  0.00    -0.354 N 
ATOM     50  C   UNL A   1      38.305  30.956  29.246  1.00  0.00     0.074 A 
ATOM     51  C   UNL A   1      37.504  30.145  28.367  1.00  0.00     0.031 C 
ATOM     52  C   UNL A   1      42.362  28.350  31.850  1.00  0.00     0.029 A 
ATOM     53  C   UNL A   1      43.192  27.616  30.902  1.00  0.00     0.049 A 
ATOM     54  H   UNL A   1      42.357  26.186  29.550  1.00  0.00     0.167 HD
ATOM     55  C   UNL A   1      38.067  31.988  30.104  1.00  0.00     0.034 A 
ATOM     56  C   UNL A   1      44.350  28.104  30.362  1.00  0.00     0.034 A 
ATOM     57  C   UNL A   1      39.268  32.255  30.905  1.00  0.00     0.049 A 
ATOM     58  C   UNL A   1      44.400  29.625  30.363  1.00  0.00     0.074 A 
ATOM     59  C   UNL A   1      39.629  31.900  32.194  1.00  0.00     0.029 A 
ATOM     60  N   UNL A   1      40.440  32.646  30.266  1.00  0.00    -0.354 N 
ATOM     61  N   UNL A   1      43.369  30.410  30.537  1.00  0.00    -0.248 NA
ATOM     62  C   UNL A   1      45.641  30.369  30.197  1.00  0.00     0.031 C 
ATOM     63  C   UNL A   1      41.047  31.988  32.289  1.00  0.00     0.029 A 
ATOM     64  C   UNL A   1      41.542  32.435  31.075  1.00  0.00     0.049 A 
ATOM     65  H   UNL A   1      40.481  33.024  29.358  1.00  0.00     0.167 HD
ATOM     66  C   UNL A   1      43.765  31.724  30.495  1.00  0.00     0.074 A 
ATOM     67  C   UNL A   1      45.208  31.636  30.317  1.00  0.00     0.031 C 
ATOM     68  C   UNL A   1      42.880  32.768  30.592  1.00  0.00     0.034 A 
BRANCH  55  69
ATOM     69  C   UNL A   1      36.696  32.536  30.452  1.00  0.00     0.023 A 
ATOM     70  C   UNL A   1      36.011  33.293  29.480  1.00  0.00     0.031 A 
ATOM     71  C   UNL A   1      36.020  32.403  31.683  1.00  0.00     0.131 A 
ATOM     72  C   UNL A   1      34.792  33.939  29.766  1.00  0.00     0.055 A 
ATOM     73  C   UNL A   1      34.831  33.083  31.986  1.00  0.00     0.041 A 
ATOM     74  F   UNL A   1      36.432  31.564  32.639  1.00  0.00    -0.206 F 
ATOM     75  C   UNL A   1      34.212  33.864  31.027  1.00  0.00     0.022 A 
BRANCH  72  76
ATOM     76  S   UNL A   1      33.963  34.869  28.450  1.00  0.00     0.124 S 
ATOM     77  O   UNL A   1      33.970  36.226  28.985  1.00  0.00    -0.237 OA
ATOM     78  O   UNL A   1      34.829  34.619  27.303  1.00  0.00    -0.237 OA
ATOM     79  O   UNL A   1      32.645  34.242  28.372  1.00  0.00    -0.744 OA
ENDBRANCH  72  76
ENDBRANCH  55  69
BRANCH  56  80
ATOM     80  C   UNL A   1      44.905  27.221  29.282  1.00  0.00     0.023 A 
ATOM     81  C   UNL A   1      44.759  27.614  27.933  1.00  0.00     0.031 A 
ATOM     82  C   UNL A   1      45.892  26.266  29.577  1.00  0.00     0.131 A 
ATOM     83  C   UNL A   1      45.640  27.125  26.948  1.00  0.00     0.055 A 
ATOM     84  C   UNL A   1      46.790  25.814  28.600  1.00  0.00     0.041 A 
ATOM     85  F   UNL A   1      46.096  25.862  30.840  1.00  0.00    -0.206 F 
ATOM     86  C   UNL A   1      46.689  26.269  27.288  1.00  0.00     0.022 A 
BRANCH  83  87
ATOM     87  S   UNL A   1      45.499  27.720  25.231  1.00  0.00     0.124 S 
ATOM     88  O   UNL A   1      44.054  27.719  25.034  1.00  0.00    -0.237 OA
ATOM     89  O   UNL A   1      46.125  29.038  25.286  1.00  0.00    -0.237 OA
ATOM     90  O   UNL A   1      46.231  26.714  24.465  1.00  0.00    -0.744 OA
ENDBRANCH  83  87
ENDBRANCH  56  80
BRANCH  68  91
ATOM     91  C   UNL A   1      43.194  34.227  30.299  1.00  0.00     0.023 A 
ATOM     92  C   UNL A   1      43.174  34.772  29.010  1.00  0.00     0.031 A 
ATOM     93  C   UNL A   1      43.465  35.156  31.338  1.00  0.00     0.131 A 
ATOM     94  C   UNL A   1      43.512  36.115  28.774  1.00  0.00     0.055 A 
ATOM     95  C   UNL A   1      43.687  36.518  31.113  1.00  0.00     0.041 A 
ATOM     96  F   UNL A   1      43.520  34.791  32.627  1.00  0.00    -0.206 F 
ATOM     97  C   UNL A   1      43.737  37.004  29.818  1.00  0.00     0.022 A 
BRANCH  94  98
ATOM     98  S   UNL A   1      43.750  36.632  27.057  1.00  0.00     0.124 S 
ATOM     99  O   UNL A   1      44.344  37.955  27.226  1.00  0.00    -0.237 OA
ATOM    100  O   UNL A   1      44.642  35.600  26.539  1.00  0.00    -0.237 OA
ATOM    101  O   UNL A   1      42.399  36.624  26.503  1.00  0.00    -0.744 OA
ENDBRANCH  94  98
ENDBRANCH  68  91
ENDBRANCH  42  43
ENDBRANCH  34  37
ENDBRANCH  32  33
ENDBRANCH   1  32
TORSDOF 18
ENDMDL
MODEL 3
REMARK VINA RESULT:     -13.9      1.479      2.661
REMARK SMILES Cc1cccc(CNC(=O)N[C@@H](CC2=c3ccccc3=NC2)C(=O)NCCCNC(=O)c2ccc(-c3c4nc(c(-c5cc(S(=O)(=O)[O-])ccc5F)c5ccc([nH]5)c(-c5cc(S(=O)(=O)[O-])ccc5F)c5nc(c(-c6cc(S(=O)(=O)[O-])ccc6F)c6ccc3[nH]6)C=C5)C=C4)cc2)c1
REMARK SMILES IDX 27 1 26 2 25 3 23 4 24 5 12 7 11 8 8 9 9 10 10 12 7 14 6 15
REMARK SMILES IDX 1 16 2 17 3 18 95 19 4 20 5 21 13 22 14 23 15 24 22 25 16 26
REMARK SMILES IDX 20 27 21 28 17 29 19 30 18 31 28 32 29 33 30 34 31 36 32 37
REMARK SMILES IDX 33 38 94 39 34 40 93 41 35 42 36 43 37 44 87 45 38 46 92 47
REMARK SMILES IDX 86 48 88 49 39 50 91 51 85 52 84 53 40 55 72 56 52 57 71 58
REMARK SMILES IDX 53 59 56 60 70 61 89 62 54 63 55 64 69 66 90 67 57 68 41 69
REMARK SMILES IDX 42 70 50 71 43 72 49 73 51 74 48 75 44 76 45 77 46 78 47 79
REMARK SMILES IDX 73 80 74 81 82 82 75 83 81 84 83 85 80 86 76 87 77 88 78 89
REMARK SMILES IDX 79 90 58 91 59 92 67 93 60 94 66 95 68 96 65 97 61 98 62 99
REMARK SMILES IDX 63 100 64 101
REMARK H PARENT 25 6 8 11 11 13 29 35 88 54 56 65
REMARK Flexibility Score: inf
ROOT
ATOM      1  C   UNL A   1      33.601  29.462  26.083  1.00  0.00     0.042 C 
ENDROOT
BRANCH   1   2
ATOM      2  C   UNL A   1      32.334  29.237  25.276  1.00  0.00     0.117 C 
BRANCH   2   3
ATOM      3  N   UNL A   1      31.482  28.157  25.747  1.00  0.00    -0.354 N 
ATOM      4  C   UNL A   1      31.639  26.805  25.613  1.00  0.00     0.242 C 
ATOM      5  O   UNL A   1      31.045  26.095  26.436  1.00  0.00    -0.273 OA
ATOM      6  H   UNL A   1      30.674  28.441  26.232  1.00  0.00     0.163 HD
BRANCH   4   7
ATOM      7  C   UNL A   1      32.545  26.134  24.542  1.00  0.00     0.177 C 
BRANCH   7   8
ATOM      8  N   UNL A   1      32.308  26.700  23.213  1.00  0.00    -0.326 N 
ATOM      9  N   UNL A   1      31.815  24.783  21.937  1.00  0.00    -0.334 N 
ATOM     10  C   UNL A   1      31.720  26.102  22.160  1.00  0.00     0.315 C 
ATOM     11  H   UNL A   1      31.020  24.375  21.522  1.00  0.00     0.165 HD
ATOM     12  O   UNL A   1      31.055  26.791  21.385  1.00  0.00    -0.249 OA
ATOM     13  H   UNL A   1      32.614  27.625  23.072  1.00  0.00     0.166 HD
BRANCH   9  14
ATOM     14  C   UNL A   1      32.899  23.859  22.212  1.00  0.00     0.153 C 
BRANCH  14  15
ATOM     15  C   UNL A   1      32.549  22.795  23.224  1.00  0.00    -0.028 A 
ATOM     16  C   UNL A   1      30.384  22.502  26.363  1.00  0.00     0.044 C 
ATOM     17  C   UNL A   1      31.306  22.153  25.233  1.00  0.00    -0.051 A 
ATOM     18  C   UNL A   1      31.831  20.861  25.138  1.00  0.00     0.003 A 
ATOM     19  C   UNL A   1      31.670  23.111  24.275  1.00  0.00     0.009 A 
ATOM     20  C   UNL A   1      32.683  20.525  24.087  1.00  0.00     0.001 A 
ATOM     21  C   UNL A   1      33.031  21.482  23.132  1.00  0.00     0.005 A 
ENDBRANCH  14  15
ENDBRANCH   9  14
ENDBRANCH   7   8
BRANCH   7  22
ATOM     22  C   UNL A   1      34.056  25.977  24.871  1.00  0.00     0.068 C 
BRANCH  22  23
ATOM     23  C   UNL A   1      34.489  24.759  25.616  1.00  0.00    -0.037 C 
ATOM     24  C   UNL A   1      35.421  23.893  25.226  1.00  0.00     0.001 A 
ATOM     25  C   UNL A   1      33.845  24.283  26.878  1.00  0.00     0.174 C 
ATOM     26  C   UNL A   1      36.257  23.822  24.077  1.00  0.00     0.010 A 
ATOM     27  C   UNL A   1      35.176  22.732  26.100  1.00  0.00     0.065 A 
ATOM     28  N   UNL A   1      34.282  22.875  27.038  1.00  0.00    -0.280 NA
ATOM     29  C   UNL A   1      36.740  22.625  23.715  1.00  0.00     0.001 A 
ATOM     30  C   UNL A   1      35.804  21.461  25.670  1.00  0.00     0.028 A 
ATOM     31  C   UNL A   1      36.480  21.434  24.506  1.00  0.00     0.002 A 
ENDBRANCH  22  23
ENDBRANCH   7  22
ENDBRANCH   4   7
ENDBRANCH   2   3
ENDBRANCH   1   2
BRANCH   1  32
ATOM     32  C   UNL A   1      33.310  29.968  27.491  1.00  0.00     0.118 C 
BRANCH  32  33
ATOM     33  N   UNL A   1      33.953  31.223  27.893  1.00  0.00    -0.352 N 
ATOM     34  C   UNL A   1      35.198  31.441  28.472  1.00  0.00     0.251 C 
ATOM     35  H   UNL A   1      33.422  32.035  27.727  1.00  0.00     0.163 HD
ATOM     36  O   UNL A   1      35.519  32.575  28.827  1.00  0.00    -0.269 OA
BRANCH  34  37
ATOM     37  C   UNL A   1      36.194  30.343  28.567  1.00  0.00     0.039 A 
ATOM     38  C   UNL A   1      36.445  29.727  29.807  1.00  0.00     0.014 A 
ATOM     39  C   UNL A   1      37.013  30.060  27.488  1.00  0.00     0.014 A 
ATOM     40  C   UNL A   1      37.640  29.037  30.004  1.00  0.00     0.010 A 
ATOM     41  C   UNL A   1      38.265  29.576  27.725  1.00  0.00     0.010 A 
ATOM     42  C   UNL A   1      38.582  29.078  28.986  1.00  0.00    -0.014 A 
BRANCH  42  43
ATOM     43  C   UNL A   1      39.953  28.626  29.061  1.00  0.00     0.031 A 
ATOM     44  C   UNL A   1      40.240  27.231  28.704  1.00  0.00     0.074 A 
ATOM     45  C   UNL A   1      40.888  29.593  29.093  1.00  0.00     0.049 A 
ATOM     46  N   UNL A   1      41.339  26.623  28.954  1.00  0.00    -0.248 NA
ATOM     47  C   UNL A   1      39.257  26.385  28.031  1.00  0.00     0.031 C 
ATOM     48  C   UNL A   1      42.289  29.548  28.701  1.00  0.00     0.029 A 
ATOM     49  N   UNL A   1      40.729  30.857  29.655  1.00  0.00    -0.354 N 
ATOM     50  C   UNL A   1      41.343  25.462  28.207  1.00  0.00     0.074 A 
ATOM     51  C   UNL A   1      39.987  25.304  27.751  1.00  0.00     0.031 C 
ATOM     52  C   UNL A   1      42.920  30.607  29.245  1.00  0.00     0.029 A 
ATOM     53  C   UNL A   1      41.978  31.261  30.145  1.00  0.00     0.049 A 
ATOM     54  H   UNL A   1      39.891  31.373  29.699  1.00  0.00     0.167 HD
ATOM     55  C   UNL A   1      42.539  24.877  27.922  1.00  0.00     0.034 A 
ATOM     56  C   UNL A   1      42.140  31.331  31.502  1.00  0.00     0.034 A 
ATOM     57  C   UNL A   1      43.627  25.633  28.555  1.00  0.00     0.049 A 
ATOM     58  C   UNL A   1      43.027  30.220  32.042  1.00  0.00     0.074 A 
ATOM     59  C   UNL A   1      44.517  26.576  28.068  1.00  0.00     0.029 A 
ATOM     60  N   UNL A   1      43.659  25.746  29.942  1.00  0.00    -0.354 N 
ATOM     61  N   UNL A   1      43.346  29.130  31.393  1.00  0.00    -0.248 NA
ATOM     62  C   UNL A   1      43.648  30.281  33.359  1.00  0.00     0.031 C 
ATOM     63  C   UNL A   1      45.009  27.323  29.175  1.00  0.00     0.029 A 
ATOM     64  C   UNL A   1      44.452  26.810  30.336  1.00  0.00     0.049 A 
ATOM     65  H   UNL A   1      43.182  25.149  30.562  1.00  0.00     0.167 HD
ATOM     66  C   UNL A   1      44.170  28.347  32.163  1.00  0.00     0.074 A 
ATOM     67  C   UNL A   1      44.357  29.139  33.371  1.00  0.00     0.031 C 
ATOM     68  C   UNL A   1      44.616  27.116  31.755  1.00  0.00     0.034 A 
BRANCH  55  69
ATOM     69  C   UNL A   1      42.769  23.843  26.836  1.00  0.00     0.023 A 
ATOM     70  C   UNL A   1      42.211  22.559  27.005  1.00  0.00     0.031 A 
ATOM     71  C   UNL A   1      43.526  24.009  25.657  1.00  0.00     0.131 A 
ATOM     72  C   UNL A   1      42.480  21.509  26.106  1.00  0.00     0.055 A 
ATOM     73  C   UNL A   1      43.834  22.954  24.785  1.00  0.00     0.041 A 
ATOM     74  F   UNL A   1      43.958  25.205  25.246  1.00  0.00    -0.206 F 
ATOM     75  C   UNL A   1      43.317  21.691  25.010  1.00  0.00     0.022 A 
BRANCH  72  76
ATOM     76  S   UNL A   1      41.700  19.897  26.382  1.00  0.00     0.124 S 
ATOM     77  O   UNL A   1      40.283  20.216  26.246  1.00  0.00    -0.237 OA
ATOM     78  O   UNL A   1      42.287  19.084  25.323  1.00  0.00    -0.237 OA
ATOM     79  O   UNL A   1      42.126  19.543  27.736  1.00  0.00    -0.744 OA
ENDBRANCH  72  76
ENDBRANCH  55  69
BRANCH  56  80
ATOM     80  C   UNL A   1      40.938  31.897  32.201  1.00  0.00     0.023 A 
ATOM     81  C   UNL A   1      40.204  31.069  33.079  1.00  0.00     0.031 A 
ATOM     82  C   UNL A   1      40.774  33.286  32.330  1.00  0.00     0.131 A 
ATOM     83  C   UNL A   1      39.412  31.635  34.099  1.00  0.00     0.055 A 
ATOM     84  C   UNL A   1      40.017  33.843  33.371  1.00  0.00     0.041 A 
ATOM     85  F   UNL A   1      41.455  34.129  31.540  1.00  0.00    -0.206 F 
ATOM     86  C   UNL A   1      39.361  33.018  34.281  1.00  0.00     0.022 A 
BRANCH  83  87
ATOM     87  S   UNL A   1      38.552  30.550  35.284  1.00  0.00     0.124 S 
ATOM     88  O   UNL A   1      37.719  31.504  36.008  1.00  0.00    -0.237 OA
ATOM     89  O   UNL A   1      37.834  29.618  34.419  1.00  0.00    -0.237 OA
ATOM     90  O   UNL A   1      39.643  29.966  36.060  1.00  0.00    -0.744 OA
ENDBRANCH  83  87
ENDBRANCH  56  80
BRANCH  68  91
ATOM     91  C   UNL A   1      45.308  26.086  32.635  1.00  0.00     0.023 A 
ATOM     92  C   UNL A   1      44.626  25.053  33.289  1.00  0.00     0.031 A 
ATOM     93  C   UNL A   1      46.718  26.068  32.795  1.00  0.00     0.131 A 
ATOM     94  C   UNL A   1      45.294  24.148  34.128  1.00  0.00     0.055 A 
ATOM     95  C   UNL A   1      47.395  25.095  33.538  1.00  0.00     0.041 A 
ATOM     96  F   UNL A   1      47.514  26.989  32.233  1.00  0.00    -0.206 F 
ATOM     97  C   UNL A   1      46.680  24.137  34.234  1.00  0.00     0.022 A 
BRANCH  94  98
ATOM     98  S   UNL A   1      44.285  23.053  35.157  1.00  0.00     0.124 S 
ATOM     99  O   UNL A   1      44.528  21.755  34.536  1.00  0.00    -0.237 OA
ATOM    100  O   UNL A   1      44.870  23.241  36.482  1.00  0.00    -0.237 OA
ATOM    101  O   UNL A   1      42.931  23.577  34.993  1.00  0.00    -0.744 OA
ENDBRANCH  94  98
ENDBRANCH  68  91
ENDBRANCH  42  43
ENDBRANCH  34  37
ENDBRANCH  32  33
ENDBRANCH   1  32
TORSDOF 18
ENDMDL
