MODEL 1
REMARK VINA RESULT:     -12.4      0.000      0.000
REMARK SMILES O=C(NCCCNC(=O)[C@@H]1CCCC[C@@H]1C(=O)Nc1cccc(Br)c1)c1ccc(-c2c3nc(c(-c4cc(S(=O)(=O)[O-])ccc4F)c4ccc([nH]4)c(-c4cc(S(=O)(=O)[O-])ccc4F)c4nc(c(-c5cc(S(=O)(=O)[O-])ccc5F)c5ccc2[nH]5)C=C4)C=C3)cc1
REMARK SMILES IDX 4 1 3 2 1 3 2 4 26 6 27 7 88 8 28 9 87 10 29 11 30 12 31 13
REMARK SMILES IDX 81 14 32 15 86 16 80 17 82 18 33 19 85 20 79 21 78 22 34 24
REMARK SMILES IDX 66 25 46 26 65 27 47 28 50 29 64 30 83 31 48 32 49 33 63 35
REMARK SMILES IDX 84 36 51 37 35 38 36 39 44 40 37 41 43 42 45 43 42 44 38 45
REMARK SMILES IDX 39 46 40 47 41 48 67 49 68 50 76 51 69 52 75 53 77 54 74 55
REMARK SMILES IDX 70 56 71 57 72 58 73 59 52 60 53 61 61 62 54 63 60 64 62 65
REMARK SMILES IDX 59 66 55 67 56 68 57 69 58 70 5 71 6 72 7 73 8 74 9 76 10 77
REMARK SMILES IDX 11 78 15 79 12 80 14 81 13 82 16 83 17 84 18 85 19 87 20 88
REMARK SMILES IDX 25 89 21 90 23 91 22 92 24 93
REMARK H PARENT 3 5 82 23 50 34 7 75 18 86
REMARK Flexibility Score: inf
ROOT
ATOM      1  C   UNL A   1      32.775  32.523  26.987  1.00  0.00     0.118 C 
ENDROOT
BRANCH   1   2
ATOM      2  N   UNL A   1      32.584  33.861  27.529  1.00  0.00    -0.352 N 
ATOM      3  O   UNL A   1      32.741  35.535  29.021  1.00  0.00    -0.269 OA
ATOM      4  C   UNL A   1      33.180  34.462  28.611  1.00  0.00     0.251 C 
ATOM      5  H   UNL A   1      31.930  34.418  27.047  1.00  0.00     0.163 HD
BRANCH   4   6
ATOM      6  C   UNL A   1      34.329  33.819  29.288  1.00  0.00     0.039 A 
ATOM      7  C   UNL A   1      34.128  32.815  30.237  1.00  0.00     0.014 A 
ATOM      8  C   UNL A   1      35.630  34.204  28.949  1.00  0.00     0.014 A 
ATOM      9  C   UNL A   1      35.206  32.313  30.956  1.00  0.00     0.010 A 
ATOM     10  C   UNL A   1      36.723  33.616  29.597  1.00  0.00     0.010 A 
ATOM     11  C   UNL A   1      36.519  32.682  30.624  1.00  0.00    -0.014 A 
BRANCH  11  12
ATOM     12  C   UNL A   1      37.648  32.002  31.311  1.00  0.00     0.031 A 
ATOM     13  C   UNL A   1      38.416  30.893  30.649  1.00  0.00     0.074 A 
ATOM     14  C   UNL A   1      38.001  32.439  32.538  1.00  0.00     0.049 A 
ATOM     15  N   UNL A   1      39.445  30.221  31.102  1.00  0.00    -0.248 NA
ATOM     16  C   UNL A   1      37.971  30.477  29.312  1.00  0.00     0.031 C 
ATOM     17  C   UNL A   1      37.316  33.505  33.278  1.00  0.00     0.029 A 
ATOM     18  N   UNL A   1      39.027  32.071  33.368  1.00  0.00    -0.354 N 
ATOM     19  C   UNL A   1      39.767  29.298  30.113  1.00  0.00     0.074 A 
ATOM     20  C   UNL A   1      38.800  29.473  29.050  1.00  0.00     0.031 C 
ATOM     21  C   UNL A   1      37.975  33.743  34.420  1.00  0.00     0.029 A 
ATOM     22  C   UNL A   1      39.078  32.799  34.535  1.00  0.00     0.049 A 
ATOM     23  H   UNL A   1      39.667  31.356  33.151  1.00  0.00     0.167 HD
ATOM     24  C   UNL A   1      40.779  28.395  30.097  1.00  0.00     0.034 A 
ATOM     25  C   UNL A   1      39.905  32.705  35.593  1.00  0.00     0.034 A 
ATOM     26  C   UNL A   1      41.735  28.236  31.171  1.00  0.00     0.049 A 
ATOM     27  C   UNL A   1      40.995  31.669  35.560  1.00  0.00     0.074 A 
ATOM     28  C   UNL A   1      42.809  27.366  31.247  1.00  0.00     0.029 A 
ATOM     29  N   UNL A   1      41.727  28.957  32.359  1.00  0.00    -0.354 N 
ATOM     30  N   UNL A   1      41.291  30.813  34.609  1.00  0.00    -0.248 NA
ATOM     31  C   UNL A   1      41.864  31.589  36.739  1.00  0.00     0.031 C 
ATOM     32  C   UNL A   1      43.410  27.515  32.502  1.00  0.00     0.029 A 
ATOM     33  C   UNL A   1      42.759  28.531  33.184  1.00  0.00     0.049 A 
ATOM     34  H   UNL A   1      41.084  29.668  32.583  1.00  0.00     0.167 HD
ATOM     35  C   UNL A   1      42.391  30.100  35.074  1.00  0.00     0.074 A 
ATOM     36  C   UNL A   1      42.725  30.653  36.370  1.00  0.00     0.031 C 
ATOM     37  C   UNL A   1      43.063  29.077  34.485  1.00  0.00     0.034 A 
BRANCH  24  38
ATOM     38  C   UNL A   1      40.885  27.481  28.898  1.00  0.00     0.023 A 
ATOM     39  C   UNL A   1      41.844  27.686  27.890  1.00  0.00     0.031 A 
ATOM     40  C   UNL A   1      40.015  26.383  28.765  1.00  0.00     0.131 A 
ATOM     41  C   UNL A   1      41.876  26.839  26.771  1.00  0.00     0.055 A 
ATOM     42  C   UNL A   1      40.099  25.503  27.684  1.00  0.00     0.041 A 
ATOM     43  F   UNL A   1      39.066  26.148  29.686  1.00  0.00    -0.206 F 
ATOM     44  C   UNL A   1      41.026  25.734  26.673  1.00  0.00     0.022 A 
BRANCH  41  45
ATOM     45  S   UNL A   1      42.972  27.264  25.388  1.00  0.00     0.124 S 
ATOM     46  O   UNL A   1      44.175  27.706  26.090  1.00  0.00    -0.237 OA
ATOM     47  O   UNL A   1      43.080  26.000  24.670  1.00  0.00    -0.237 OA
ATOM     48  O   UNL A   1      42.245  28.321  24.687  1.00  0.00    -0.744 OA
ENDBRANCH  41  45
ENDBRANCH  24  38
BRANCH  25  49
ATOM     49  C   UNL A   1      39.711  33.579  36.785  1.00  0.00     0.023 A 
ATOM     50  C   UNL A   1      39.161  33.076  37.974  1.00  0.00     0.031 A 
ATOM     51  C   UNL A   1      40.034  34.948  36.737  1.00  0.00     0.131 A 
ATOM     52  C   UNL A   1      38.903  33.943  39.046  1.00  0.00     0.055 A 
ATOM     53  C   UNL A   1      39.835  35.793  37.828  1.00  0.00     0.041 A 
ATOM     54  F   UNL A   1      40.565  35.482  35.624  1.00  0.00    -0.206 F 
ATOM     55  C   UNL A   1      39.251  35.295  38.987  1.00  0.00     0.022 A 
BRANCH  52  56
ATOM     56  S   UNL A   1      38.008  33.300  40.486  1.00  0.00     0.124 S 
ATOM     57  O   UNL A   1      38.079  34.428  41.408  1.00  0.00    -0.237 OA
ATOM     58  O   UNL A   1      36.692  33.016  39.920  1.00  0.00    -0.237 OA
ATOM     59  O   UNL A   1      38.785  32.126  40.874  1.00  0.00    -0.744 OA
ENDBRANCH  52  56
ENDBRANCH  25  49
BRANCH  37  60
ATOM     60  C   UNL A   1      44.240  28.520  35.247  1.00  0.00     0.023 A 
ATOM     61  C   UNL A   1      44.082  27.495  36.197  1.00  0.00     0.031 A 
ATOM     62  C   UNL A   1      45.525  29.056  35.058  1.00  0.00     0.131 A 
ATOM     63  C   UNL A   1      45.176  27.086  36.972  1.00  0.00     0.055 A 
ATOM     64  C   UNL A   1      46.624  28.599  35.788  1.00  0.00     0.041 A 
ATOM     65  F   UNL A   1      45.733  30.038  34.168  1.00  0.00    -0.206 F 
ATOM     66  C   UNL A   1      46.449  27.621  36.763  1.00  0.00     0.022 A 
BRANCH  63  67
ATOM     67  S   UNL A   1      44.889  25.925  38.336  1.00  0.00     0.124 S 
ATOM     68  O   UNL A   1      44.665  24.670  37.625  1.00  0.00    -0.237 OA
ATOM     69  O   UNL A   1      46.137  26.016  39.090  1.00  0.00    -0.237 OA
ATOM     70  O   UNL A   1      43.716  26.474  39.013  1.00  0.00    -0.744 OA
ENDBRANCH  63  67
ENDBRANCH  37  60
ENDBRANCH  11  12
ENDBRANCH   4   6
ENDBRANCH   1   2
BRANCH   1  71
ATOM     71  C   UNL A   1      31.466  31.853  26.609  1.00  0.00     0.042 C 
BRANCH  71  72
ATOM     72  C   UNL A   1      31.616  30.400  26.181  1.00  0.00     0.117 C 
BRANCH  72  73
ATOM     73  N   UNL A   1      32.773  30.170  25.332  1.00  0.00    -0.356 N 
ATOM     74  C   UNL A   1      33.314  28.997  24.888  1.00  0.00     0.223 C 
ATOM     75  H   UNL A   1      33.239  30.983  25.032  1.00  0.00     0.163 HD
ATOM     76  O   UNL A   1      34.110  29.057  23.950  1.00  0.00    -0.275 OA
BRANCH  74  77
ATOM     77  C   UNL A   1      32.823  27.676  25.474  1.00  0.00     0.091 C 
ATOM     78  C   UNL A   1      33.811  26.501  25.347  1.00  0.00     0.014 C 
ATOM     79  C   UNL A   1      31.413  27.277  24.962  1.00  0.00     0.091 C 
ATOM     80  C   UNL A   1      33.318  25.259  26.087  1.00  0.00     0.001 C 
ATOM     81  C   UNL A   1      30.959  26.089  25.838  1.00  0.00     0.014 C 
ATOM     82  C   UNL A   1      31.892  24.889  25.712  1.00  0.00     0.001 C 
BRANCH  79  83
ATOM     83  C   UNL A   1      31.381  26.964  23.446  1.00  0.00     0.228 C 
ATOM     84  O   UNL A   1      32.165  26.173  22.916  1.00  0.00    -0.274 OA
ATOM     85  N   UNL A   1      30.405  27.479  22.632  1.00  0.00    -0.326 N 
ATOM     86  H   UNL A   1      30.448  27.190  21.692  1.00  0.00     0.169 HD
BRANCH  85  87
ATOM     87  C   UNL A   1      29.362  28.354  22.939  1.00  0.00     0.042 A 
ATOM     88  C   UNL A   1      28.063  27.912  23.201  1.00  0.00     0.026 A 
ATOM     89  C   UNL A   1      29.641  29.722  22.894  1.00  0.00     0.041 A 
ATOM     90  C   UNL A   1      27.024  28.836  23.319  1.00  0.00     0.003 A 
ATOM     91  C   UNL A   1      28.593  30.635  22.977  1.00  0.00     0.020 A 
ATOM     92  C   UNL A   1      27.284  30.199  23.178  1.00  0.00     0.016 A 
ATOM     93  Br  UNL A   1      28.941  32.479  22.740  1.00  0.00    -0.051 Br
ENDBRANCH  85  87
ENDBRANCH  79  83
ENDBRANCH  74  77
ENDBRANCH  72  73
ENDBRANCH  71  72
ENDBRANCH   1  71
TORSDOF 15
ENDMDL
MODEL 2
REMARK VINA RESULT:     -12.3      6.444     10.294
REMARK SMILES O=C(NCCCNC(=O)[C@@H]1CCCC[C@@H]1C(=O)Nc1cccc(Br)c1)c1ccc(-c2c3nc(c(-c4cc(S(=O)(=O)[O-])ccc4F)c4ccc([nH]4)c(-c4cc(S(=O)(=O)[O-])ccc4F)c4nc(c(-c5cc(S(=O)(=O)[O-])ccc5F)c5ccc2[nH]5)C=C4)C=C3)cc1
REMARK SMILES IDX 4 1 3 2 1 3 2 4 26 6 27 7 88 8 28 9 87 10 29 11 30 12 31 13
REMARK SMILES IDX 81 14 32 15 86 16 80 17 82 18 33 19 85 20 79 21 78 22 34 24
REMARK SMILES IDX 66 25 46 26 65 27 47 28 50 29 64 30 83 31 48 32 49 33 63 35
REMARK SMILES IDX 84 36 51 37 35 38 36 39 44 40 37 41 43 42 45 43 42 44 38 45
REMARK SMILES IDX 39 46 40 47 41 48 67 49 68 50 76 51 69 52 75 53 77 54 74 55
REMARK SMILES IDX 70 56 71 57 72 58 73 59 52 60 53 61 61 62 54 63 60 64 62 65
REMARK SMILES IDX 59 66 55 67 56 68 57 69 58 70 5 71 6 72 7 73 8 74 9 76 10 77
REMARK SMILES IDX 11 78 15 79 12 80 14 81 13 82 16 83 17 84 18 85 19 87 20 88
REMARK SMILES IDX 25 89 21 90 23 91 22 92 24 93
REMARK H PARENT 3 5 82 23 50 34 7 75 18 86
REMARK Flexibility Score: inf
ROOT
ATOM      1  C   UNL A   1      39.120  20.327  26.023  1.00  0.00     0.118 C 
ENDROOT
BRANCH   1   2
ATOM      2  N   UNL A   1      40.232  19.388  25.990  1.00  0.00    -0.352 N 
ATOM      3  O   UNL A   1      42.371  18.712  25.819  1.00  0.00    -0.269 OA
ATOM      4  C   UNL A   1      41.584  19.628  26.057  1.00  0.00     0.251 C 
ATOM      5  H   UNL A   1      39.978  18.440  25.907  1.00  0.00     0.163 HD
BRANCH   4   6
ATOM      6  C   UNL A   1      42.091  20.976  26.396  1.00  0.00     0.039 A 
ATOM      7  C   UNL A   1      42.277  21.940  25.404  1.00  0.00     0.014 A 
ATOM      8  C   UNL A   1      42.357  21.294  27.732  1.00  0.00     0.014 A 
ATOM      9  C   UNL A   1      42.874  23.154  25.718  1.00  0.00     0.010 A 
ATOM     10  C   UNL A   1      42.856  22.560  28.062  1.00  0.00     0.010 A 
ATOM     11  C   UNL A   1      43.141  23.493  27.054  1.00  0.00    -0.014 A 
BRANCH  11  12
ATOM     12  C   UNL A   1      43.632  24.863  27.359  1.00  0.00     0.031 A 
ATOM     13  C   UNL A   1      45.055  25.265  27.091  1.00  0.00     0.074 A 
ATOM     14  C   UNL A   1      42.750  25.761  27.845  1.00  0.00     0.049 A 
ATOM     15  N   UNL A   1      45.629  26.428  27.272  1.00  0.00    -0.248 NA
ATOM     16  C   UNL A   1      45.953  24.230  26.559  1.00  0.00     0.031 C 
ATOM     17  C   UNL A   1      41.344  25.474  28.151  1.00  0.00     0.029 A 
ATOM     18  N   UNL A   1      42.884  27.092  28.141  1.00  0.00    -0.354 N 
ATOM     19  C   UNL A   1      46.956  26.266  26.887  1.00  0.00     0.074 A 
ATOM     20  C   UNL A   1      47.108  24.880  26.495  1.00  0.00     0.031 C 
ATOM     21  C   UNL A   1      40.736  26.605  28.533  1.00  0.00     0.029 A 
ATOM     22  C   UNL A   1      41.719  27.679  28.577  1.00  0.00     0.049 A 
ATOM     23  H   UNL A   1      43.733  27.582  28.049  1.00  0.00     0.167 HD
ATOM     24  C   UNL A   1      47.947  27.192  26.858  1.00  0.00     0.034 A 
ATOM     25  C   UNL A   1      41.470  28.936  28.989  1.00  0.00     0.034 A 
ATOM     26  C   UNL A   1      47.772  28.571  27.255  1.00  0.00     0.049 A 
ATOM     27  C   UNL A   1      42.598  29.930  28.981  1.00  0.00     0.074 A 
ATOM     28  C   UNL A   1      48.704  29.595  27.247  1.00  0.00     0.029 A 
ATOM     29  N   UNL A   1      46.590  29.119  27.738  1.00  0.00    -0.354 N 
ATOM     30  N   UNL A   1      43.844  29.759  28.601  1.00  0.00    -0.248 NA
ATOM     31  C   UNL A   1      42.289  31.283  29.453  1.00  0.00     0.031 C 
ATOM     32  C   UNL A   1      48.106  30.741  27.783  1.00  0.00     0.029 A 
ATOM     33  C   UNL A   1      46.778  30.457  28.057  1.00  0.00     0.049 A 
ATOM     34  H   UNL A   1      45.742  28.631  27.838  1.00  0.00     0.167 HD
ATOM     35  C   UNL A   1      44.463  30.993  28.777  1.00  0.00     0.074 A 
ATOM     36  C   UNL A   1      43.444  31.901  29.261  1.00  0.00     0.031 C 
ATOM     37  C   UNL A   1      45.757  31.343  28.563  1.00  0.00     0.034 A 
BRANCH  24  38
ATOM     38  C   UNL A   1      49.319  26.736  26.420  1.00  0.00     0.023 A 
ATOM     39  C   UNL A   1      49.894  27.167  25.211  1.00  0.00     0.031 A 
ATOM     40  C   UNL A   1      50.068  25.862  27.229  1.00  0.00     0.131 A 
ATOM     41  C   UNL A   1      51.153  26.682  24.822  1.00  0.00     0.055 A 
ATOM     42  C   UNL A   1      51.349  25.439  26.869  1.00  0.00     0.041 A 
ATOM     43  F   UNL A   1      49.563  25.401  28.386  1.00  0.00    -0.206 F 
ATOM     44  C   UNL A   1      51.895  25.841  25.654  1.00  0.00     0.022 A 
BRANCH  41  45
ATOM     45  S   UNL A   1      51.763  27.080  23.160  1.00  0.00     0.124 S 
ATOM     46  O   UNL A   1      52.160  28.478  23.317  1.00  0.00    -0.237 OA
ATOM     47  O   UNL A   1      52.851  26.124  22.985  1.00  0.00    -0.237 OA
ATOM     48  O   UNL A   1      50.598  26.863  22.305  1.00  0.00    -0.744 OA
ENDBRANCH  41  45
ENDBRANCH  24  38
BRANCH  25  49
ATOM     49  C   UNL A   1      40.115  29.315  29.486  1.00  0.00     0.023 A 
ATOM     50  C   UNL A   1      39.830  29.360  30.858  1.00  0.00     0.031 A 
ATOM     51  C   UNL A   1      39.070  29.596  28.586  1.00  0.00     0.131 A 
ATOM     52  C   UNL A   1      38.523  29.627  31.291  1.00  0.00     0.055 A 
ATOM     53  C   UNL A   1      37.787  29.925  29.023  1.00  0.00     0.041 A 
ATOM     54  F   UNL A   1      39.288  29.570  27.261  1.00  0.00    -0.206 F 
ATOM     55  C   UNL A   1      37.503  29.926  30.384  1.00  0.00     0.022 A 
BRANCH  52  56
ATOM     56  S   UNL A   1      38.147  29.477  33.059  1.00  0.00     0.124 S 
ATOM     57  O   UNL A   1      39.482  29.415  33.643  1.00  0.00    -0.237 OA
ATOM     58  O   UNL A   1      37.392  30.701  33.311  1.00  0.00    -0.237 OA
ATOM     59  O   UNL A   1      37.372  28.241  33.139  1.00  0.00    -0.744 OA
ENDBRANCH  52  56
ENDBRANCH  25  49
BRANCH  37  60
ATOM     60  C   UNL A   1      46.117  32.782  28.836  1.00  0.00     0.023 A 
ATOM     61  C   UNL A   1      46.021  33.766  27.836  1.00  0.00     0.031 A 
ATOM     62  C   UNL A   1      46.609  33.164  30.096  1.00  0.00     0.131 A 
ATOM     63  C   UNL A   1      46.477  35.068  28.090  1.00  0.00     0.055 A 
ATOM     64  C   UNL A   1      47.001  34.476  30.363  1.00  0.00     0.041 A 
ATOM     65  F   UNL A   1      46.725  32.265  31.086  1.00  0.00    -0.206 F 
ATOM     66  C   UNL A   1      46.952  35.432  29.352  1.00  0.00     0.022 A 
BRANCH  63  67
ATOM     67  S   UNL A   1      46.546  36.249  26.715  1.00  0.00     0.124 S 
ATOM     68  O   UNL A   1      47.889  36.801  26.857  1.00  0.00    -0.237 OA
ATOM     69  O   UNL A   1      46.329  35.389  25.555  1.00  0.00    -0.237 OA
ATOM     70  O   UNL A   1      45.458  37.179  27.008  1.00  0.00    -0.744 OA
ENDBRANCH  63  67
ENDBRANCH  37  60
ENDBRANCH  11  12
ENDBRANCH   4   6
ENDBRANCH   1   2
BRANCH   1  71
ATOM     71  C   UNL A   1      38.058  20.012  24.984  1.00  0.00     0.042 C 
BRANCH  71  72
ATOM     72  C   UNL A   1      37.117  21.171  24.691  1.00  0.00     0.117 C 
BRANCH  72  73
ATOM     73  N   UNL A   1      36.614  21.818  25.892  1.00  0.00    -0.356 N 
ATOM     74  C   UNL A   1      35.593  22.714  26.043  1.00  0.00     0.223 C 
ATOM     75  H   UNL A   1      37.080  21.573  26.723  1.00  0.00     0.163 HD
ATOM     76  O   UNL A   1      35.162  22.897  27.181  1.00  0.00    -0.275 OA
BRANCH  74  77
ATOM     77  C   UNL A   1      34.957  23.341  24.805  1.00  0.00     0.091 C 
ATOM     78  C   UNL A   1      34.290  24.708  25.039  1.00  0.00     0.014 C 
ATOM     79  C   UNL A   1      33.999  22.371  24.063  1.00  0.00     0.091 C 
ATOM     80  C   UNL A   1      33.813  25.341  23.733  1.00  0.00     0.001 C 
ATOM     81  C   UNL A   1      33.661  23.047  22.716  1.00  0.00     0.014 C 
ATOM     82  C   UNL A   1      32.963  24.390  22.905  1.00  0.00     0.001 C 
BRANCH  79  83
ATOM     83  C   UNL A   1      32.745  22.002  24.892  1.00  0.00     0.228 C 
ATOM     84  O   UNL A   1      32.132  22.829  25.572  1.00  0.00    -0.274 OA
ATOM     85  N   UNL A   1      32.190  20.749  24.828  1.00  0.00    -0.326 N 
ATOM     86  H   UNL A   1      31.372  20.625  25.361  1.00  0.00     0.169 HD
BRANCH  85  87
ATOM     87  C   UNL A   1      32.616  19.624  24.120  1.00  0.00     0.042 A 
ATOM     88  C   UNL A   1      32.174  19.339  22.826  1.00  0.00     0.026 A 
ATOM     89  C   UNL A   1      33.451  18.727  24.790  1.00  0.00     0.041 A 
ATOM     90  C   UNL A   1      32.485  18.111  22.240  1.00  0.00     0.003 A 
ATOM     91  C   UNL A   1      33.727  17.490  24.211  1.00  0.00     0.020 A 
ATOM     92  C   UNL A   1      33.239  17.173  22.944  1.00  0.00     0.016 A 
ATOM     93  Br  UNL A   1      34.709  16.202  25.187  1.00  0.00    -0.051 Br
ENDBRANCH  85  87
ENDBRANCH  79  83
ENDBRANCH  74  77
ENDBRANCH  72  73
ENDBRANCH  71  72
ENDBRANCH   1  71
TORSDOF 15
ENDMDL
MODEL 3
REMARK VINA RESULT:     -12.3      6.445     12.048
REMARK SMILES O=C(NCCCNC(=O)[C@@H]1CCCC[C@@H]1C(=O)Nc1cccc(Br)c1)c1ccc(-c2c3nc(c(-c4cc(S(=O)(=O)[O-])ccc4F)c4ccc([nH]4)c(-c4cc(S(=O)(=O)[O-])ccc4F)c4nc(c(-c5cc(S(=O)(=O)[O-])ccc5F)c5ccc2[nH]5)C=C4)C=C3)cc1
REMARK SMILES IDX 4 1 3 2 1 3 2 4 26 6 27 7 88 8 28 9 87 10 29 11 30 12 31 13
REMARK SMILES IDX 81 14 32 15 86 16 80 17 82 18 33 19 85 20 79 21 78 22 34 24
REMARK SMILES IDX 66 25 46 26 65 27 47 28 50 29 64 30 83 31 48 32 49 33 63 35
REMARK SMILES IDX 84 36 51 37 35 38 36 39 44 40 37 41 43 42 45 43 42 44 38 45
REMARK SMILES IDX 39 46 40 47 41 48 67 49 68 50 76 51 69 52 75 53 77 54 74 55
REMARK SMILES IDX 70 56 71 57 72 58 73 59 52 60 53 61 61 62 54 63 60 64 62 65
REMARK SMILES IDX 59 66 55 67 56 68 57 69 58 70 5 71 6 72 7 73 8 74 9 76 10 77
REMARK SMILES IDX 11 78 15 79 12 80 14 81 13 82 16 83 17 84 18 85 19 87 20 88
REMARK SMILES IDX 25 89 21 90 23 91 22 92 24 93
REMARK H PARENT 3 5 82 23 50 34 7 75 18 86
REMARK Flexibility Score: inf
ROOT
ATOM      1  C   UNL A   1      39.186  20.182  26.136  1.00  0.00     0.118 C 
ENDROOT
BRANCH   1   2
ATOM      2  N   UNL A   1      40.340  19.298  26.064  1.00  0.00    -0.352 N 
ATOM      3  O   UNL A   1      42.496  18.721  25.788  1.00  0.00    -0.269 OA
ATOM      4  C   UNL A   1      41.679  19.604  26.046  1.00  0.00     0.251 C 
ATOM      5  H   UNL A   1      40.130  18.336  26.023  1.00  0.00     0.163 HD
BRANCH   4   6
ATOM      6  C   UNL A   1      42.137  20.986  26.317  1.00  0.00     0.039 A 
ATOM      7  C   UNL A   1      42.270  21.911  25.281  1.00  0.00     0.014 A 
ATOM      8  C   UNL A   1      42.409  21.374  27.634  1.00  0.00     0.014 A 
ATOM      9  C   UNL A   1      42.823  23.161  25.532  1.00  0.00     0.010 A 
ATOM     10  C   UNL A   1      42.861  22.671  27.899  1.00  0.00     0.010 A 
ATOM     11  C   UNL A   1      43.094  23.569  26.847  1.00  0.00    -0.014 A 
BRANCH  11  12
ATOM     12  C   UNL A   1      43.534  24.969  27.083  1.00  0.00     0.031 A 
ATOM     13  C   UNL A   1      42.606  25.995  27.671  1.00  0.00     0.074 A 
ATOM     14  C   UNL A   1      44.813  25.290  26.800  1.00  0.00     0.049 A 
ATOM     15  N   UNL A   1      42.846  27.248  27.967  1.00  0.00    -0.248 NA
ATOM     16  C   UNL A   1      41.229  25.566  27.954  1.00  0.00     0.031 C 
ATOM     17  C   UNL A   1      45.799  24.373  26.217  1.00  0.00     0.029 A 
ATOM     18  N   UNL A   1      45.516  26.453  26.982  1.00  0.00    -0.354 N 
ATOM     19  C   UNL A   1      41.653  27.761  28.464  1.00  0.00     0.074 A 
ATOM     20  C   UNL A   1      40.679  26.691  28.395  1.00  0.00     0.031 C 
ATOM     21  C   UNL A   1      46.987  24.988  26.146  1.00  0.00     0.029 A 
ATOM     22  C   UNL A   1      46.835  26.364  26.600  1.00  0.00     0.049 A 
ATOM     23  H   UNL A   1      45.116  27.273  27.351  1.00  0.00     0.167 HD
ATOM     24  C   UNL A   1      41.401  29.007  28.938  1.00  0.00     0.034 A 
ATOM     25  C   UNL A   1      47.812  27.290  26.594  1.00  0.00     0.034 A 
ATOM     26  C   UNL A   1      42.388  30.062  28.997  1.00  0.00     0.049 A 
ATOM     27  C   UNL A   1      47.491  28.673  27.092  1.00  0.00     0.074 A 
ATOM     28  C   UNL A   1      42.243  31.352  29.476  1.00  0.00     0.029 A 
ATOM     29  N   UNL A   1      43.702  29.950  28.558  1.00  0.00    -0.354 N 
ATOM     30  N   UNL A   1      46.358  29.135  27.569  1.00  0.00    -0.248 NA
ATOM     31  C   UNL A   1      48.578  29.656  27.053  1.00  0.00     0.031 C 
ATOM     32  C   UNL A   1      43.445  32.039  29.268  1.00  0.00     0.029 A 
ATOM     33  C   UNL A   1      44.367  31.156  28.727  1.00  0.00     0.049 A 
ATOM     34  H   UNL A   1      44.103  29.134  28.181  1.00  0.00     0.167 HD
ATOM     35  C   UNL A   1      46.604  30.463  27.900  1.00  0.00     0.074 A 
ATOM     36  C   UNL A   1      47.999  30.713  27.601  1.00  0.00     0.031 C 
ATOM     37  C   UNL A   1      45.753  31.396  28.401  1.00  0.00     0.034 A 
BRANCH  24  38
ATOM     38  C   UNL A   1      39.993  29.313  29.393  1.00  0.00     0.023 A 
ATOM     39  C   UNL A   1      39.659  29.416  30.755  1.00  0.00     0.031 A 
ATOM     40  C   UNL A   1      38.969  29.509  28.448  1.00  0.00     0.131 A 
ATOM     41  C   UNL A   1      38.329  29.656  31.134  1.00  0.00     0.055 A 
ATOM     42  C   UNL A   1      37.662  29.818  28.831  1.00  0.00     0.041 A 
ATOM     43  F   UNL A   1      39.223  29.404  27.134  1.00  0.00    -0.206 F 
ATOM     44  C   UNL A   1      37.332  29.882  30.181  1.00  0.00     0.022 A 
BRANCH  41  45
ATOM     45  S   UNL A   1      37.893  29.561  32.893  1.00  0.00     0.124 S 
ATOM     46  O   UNL A   1      37.467  28.168  33.017  1.00  0.00    -0.237 OA
ATOM     47  O   UNL A   1      39.149  29.904  33.550  1.00  0.00    -0.237 OA
ATOM     48  O   UNL A   1      36.824  30.546  33.037  1.00  0.00    -0.744 OA
ENDBRANCH  41  45
ENDBRANCH  24  38
BRANCH  25  49
ATOM     49  C   UNL A   1      49.165  26.959  26.062  1.00  0.00     0.023 A 
ATOM     50  C   UNL A   1      49.585  27.422  24.806  1.00  0.00     0.031 A 
ATOM     51  C   UNL A   1      50.044  26.134  26.788  1.00  0.00     0.131 A 
ATOM     52  C   UNL A   1      50.826  27.016  24.292  1.00  0.00     0.055 A 
ATOM     53  C   UNL A   1      51.303  25.785  26.301  1.00  0.00     0.041 A 
ATOM     54  F   UNL A   1      49.693  25.663  27.997  1.00  0.00    -0.206 F 
ATOM     55  C   UNL A   1      51.694  26.214  25.038  1.00  0.00     0.022 A 
BRANCH  52  56
ATOM     56  S   UNL A   1      51.248  27.467  22.587  1.00  0.00     0.124 S 
ATOM     57  O   UNL A   1      52.570  26.869  22.440  1.00  0.00    -0.237 OA
ATOM     58  O   UNL A   1      50.170  26.836  21.833  1.00  0.00    -0.237 OA
ATOM     59  O   UNL A   1      51.222  28.928  22.605  1.00  0.00    -0.744 OA
ENDBRANCH  52  56
ENDBRANCH  25  49
BRANCH  37  60
ATOM     60  C   UNL A   1      46.336  32.760  28.672  1.00  0.00     0.023 A 
ATOM     61  C   UNL A   1      46.499  33.707  27.645  1.00  0.00     0.031 A 
ATOM     62  C   UNL A   1      46.781  33.098  29.962  1.00  0.00     0.131 A 
ATOM     63  C   UNL A   1      47.154  34.918  27.909  1.00  0.00     0.055 A 
ATOM     64  C   UNL A   1      47.374  34.332  30.232  1.00  0.00     0.041 A 
ATOM     65  F   UNL A   1      46.653  32.231  30.978  1.00  0.00    -0.206 F 
ATOM     66  C   UNL A   1      47.579  35.243  29.200  1.00  0.00     0.022 A 
BRANCH  63  67
ATOM     67  S   UNL A   1      47.546  36.016  26.519  1.00  0.00     0.124 S 
ATOM     68  O   UNL A   1      47.643  35.075  25.407  1.00  0.00    -0.237 OA
ATOM     69  O   UNL A   1      46.394  36.912  26.496  1.00  0.00    -0.237 OA
ATOM     70  O   UNL A   1      48.806  36.638  26.918  1.00  0.00    -0.744 OA
ENDBRANCH  63  67
ENDBRANCH  37  60
ENDBRANCH  11  12
ENDBRANCH   4   6
ENDBRANCH   1   2
BRANCH   1  71
ATOM     71  C   UNL A   1      38.247  20.014  24.954  1.00  0.00     0.042 C 
BRANCH  71  72
ATOM     72  C   UNL A   1      37.335  21.209  24.714  1.00  0.00     0.117 C 
BRANCH  72  73
ATOM     73  N   UNL A   1      36.710  21.705  25.929  1.00  0.00    -0.356 N 
ATOM     74  C   UNL A   1      35.622  22.518  26.086  1.00  0.00     0.223 C 
ATOM     75  H   UNL A   1      37.134  21.411  26.767  1.00  0.00     0.163 HD
ATOM     76  O   UNL A   1      35.104  22.564  27.201  1.00  0.00    -0.275 OA
BRANCH  74  77
ATOM     77  C   UNL A   1      35.030  23.220  24.867  1.00  0.00     0.091 C 
ATOM     78  C   UNL A   1      34.405  24.598  25.152  1.00  0.00     0.014 C 
ATOM     79  C   UNL A   1      34.052  22.318  24.068  1.00  0.00     0.091 C 
ATOM     80  C   UNL A   1      33.973  25.304  23.868  1.00  0.00     0.001 C 
ATOM     81  C   UNL A   1      33.761  23.064  22.748  1.00  0.00     0.014 C 
ATOM     82  C   UNL A   1      33.106  24.421  22.985  1.00  0.00     0.001 C 
BRANCH  79  83
ATOM     83  C   UNL A   1      32.771  21.956  24.859  1.00  0.00     0.228 C 
ATOM     84  O   UNL A   1      32.142  22.789  25.518  1.00  0.00    -0.274 OA
ATOM     85  N   UNL A   1      32.214  20.706  24.783  1.00  0.00    -0.326 N 
ATOM     86  H   UNL A   1      31.379  20.587  25.291  1.00  0.00     0.169 HD
BRANCH  85  87
ATOM     87  C   UNL A   1      32.656  19.577  24.092  1.00  0.00     0.042 A 
ATOM     88  C   UNL A   1      32.180  19.238  22.824  1.00  0.00     0.026 A 
ATOM     89  C   UNL A   1      33.548  18.731  24.757  1.00  0.00     0.041 A 
ATOM     90  C   UNL A   1      32.516  18.005  22.261  1.00  0.00     0.003 A 
ATOM     91  C   UNL A   1      33.850  17.489  24.203  1.00  0.00     0.020 A 
ATOM     92  C   UNL A   1      33.329  17.117  22.964  1.00  0.00     0.016 A 
ATOM     93  Br  UNL A   1      34.913  16.267  25.179  1.00  0.00    -0.051 Br
ENDBRANCH  85  87
ENDBRANCH  79  83
ENDBRANCH  74  77
ENDBRANCH  72  73
ENDBRANCH  71  72
ENDBRANCH   1  71
TORSDOF 15
ENDMDL
