MODEL 1
REMARK VINA RESULT:     -12.3      0.000      0.000
REMARK SMILES CCCC[C@H](C(=O)NCCCNC(=O)c1ccc(-c2c3nc(c(-c4cc(S(=O)(=O)[O-])ccc4F)c4ccc([nH]4)c(-c4cc(S(=O)(=O)[O-])ccc4F)c4nc(c(-c5cc(S(=O)(=O)[O-])ccc5F)c5ccc2[nH]5)C=C4)C=C3)cc1)N1C(=O)/C(=C/c2ccc(C)cc2)SC1=S
REMARK SMILES IDX 10 1 9 2 8 3 6 4 7 5 5 7 4 8 3 9 2 10 1 11 78 12 79 13 91 14
REMARK SMILES IDX 80 15 81 16 90 17 92 18 82 19 83 20 84 21 89 22 85 23 88 24
REMARK SMILES IDX 86 25 87 26 11 27 12 28 13 29 14 31 15 32 16 33 77 34 17 35
REMARK SMILES IDX 76 36 18 37 19 38 20 39 70 40 21 41 75 42 69 43 71 44 22 45
REMARK SMILES IDX 74 46 68 47 67 48 23 50 55 51 35 52 54 53 36 54 39 55 53 56
REMARK SMILES IDX 72 57 37 58 38 59 52 61 73 62 40 63 24 64 25 65 33 66 26 67
REMARK SMILES IDX 32 68 34 69 31 70 27 71 28 72 29 73 30 74 56 75 57 76 65 77
REMARK SMILES IDX 58 78 64 79 66 80 63 81 59 82 60 83 61 84 62 85 41 86 42 87
REMARK SMILES IDX 50 88 43 89 49 90 51 91 48 92 44 93 45 94 46 95 47 96
REMARK H PARENT 8 6 12 30 71 49 39 60
REMARK Flexibility Score: inf
ROOT
ATOM      1  C   UNL A   1      31.350  31.671  26.328  1.00  0.00     0.042 C 
ENDROOT
BRANCH   1   2
ATOM      2  C   UNL A   1      31.442  30.247  25.827  1.00  0.00     0.117 C 
BRANCH   2   3
ATOM      3  N   UNL A   1      32.544  29.915  24.973  1.00  0.00    -0.354 N 
ATOM      4  C   UNL A   1      32.476  29.126  23.861  1.00  0.00     0.243 C 
ATOM      5  O   UNL A   1      33.424  29.201  23.072  1.00  0.00    -0.273 OA
ATOM      6  H   UNL A   1      33.424  30.288  25.208  1.00  0.00     0.163 HD
BRANCH   4   7
ATOM      7  C   UNL A   1      31.268  28.169  23.577  1.00  0.00     0.181 C 
BRANCH   7   8
ATOM      8  C   UNL A   1      30.272  28.688  22.507  1.00  0.00     0.036 C 
BRANCH   8   9
ATOM      9  C   UNL A   1      28.943  29.347  22.856  1.00  0.00     0.002 C 
BRANCH   9  10
ATOM     10  C   UNL A   1      29.008  30.854  23.106  1.00  0.00    -0.003 C 
ATOM     11  C   UNL A   1      27.645  31.521  23.161  1.00  0.00     0.004 C 
ENDBRANCH   9  10
ENDBRANCH   8   9
ENDBRANCH   7   8
BRANCH   7  12
ATOM     12  N   UNL A   1      31.489  26.724  23.864  1.00  0.00    -0.280 N 
ATOM     13  C   UNL A   1      31.898  25.913  22.792  1.00  0.00     0.266 C 
ATOM     14  C   UNL A   1      31.326  26.009  25.038  1.00  0.00     0.149 C 
ATOM     15  O   UNL A   1      32.307  26.275  21.706  1.00  0.00    -0.268 OA
ATOM     16  C   UNL A   1      31.882  24.480  23.208  1.00  0.00     0.081 C 
ATOM     17  S   UNL A   1      30.945  24.346  24.633  1.00  0.00    -0.054 SA
ATOM     18  S   UNL A   1      31.560  26.353  26.650  1.00  0.00    -0.052 S 
ATOM     19  C   UNL A   1      32.654  23.525  22.671  1.00  0.00     0.029 C 
BRANCH  19  20
ATOM     20  C   UNL A   1      32.839  22.221  23.329  1.00  0.00    -0.024 A 
ATOM     21  C   UNL A   1      32.104  21.124  22.869  1.00  0.00     0.008 A 
ATOM     22  C   UNL A   1      33.841  22.020  24.285  1.00  0.00     0.008 A 
ATOM     23  C   UNL A   1      32.412  19.834  23.312  1.00  0.00     0.004 A 
ATOM     24  C   UNL A   1      34.159  20.729  24.712  1.00  0.00     0.004 A 
ATOM     25  C   UNL A   1      33.467  19.624  24.208  1.00  0.00    -0.051 A 
ATOM     26  C   UNL A   1      33.837  18.233  24.626  1.00  0.00     0.044 C 
ENDBRANCH  19  20
ENDBRANCH   7  12
ENDBRANCH   4   7
ENDBRANCH   2   3
ENDBRANCH   1   2
BRANCH   1  27
ATOM     27  C   UNL A   1      32.649  32.183  26.921  1.00  0.00     0.118 C 
BRANCH  27  28
ATOM     28  N   UNL A   1      32.543  33.525  27.489  1.00  0.00    -0.352 N 
ATOM     29  C   UNL A   1      33.233  34.199  28.470  1.00  0.00     0.251 C 
ATOM     30  H   UNL A   1      31.822  34.060  27.084  1.00  0.00     0.163 HD
ATOM     31  O   UNL A   1      32.796  35.292  28.831  1.00  0.00    -0.269 OA
BRANCH  29  32
ATOM     32  C   UNL A   1      34.447  33.649  29.123  1.00  0.00     0.039 A 
ATOM     33  C   UNL A   1      35.681  34.279  28.907  1.00  0.00     0.014 A 
ATOM     34  C   UNL A   1      34.415  32.493  29.895  1.00  0.00     0.014 A 
ATOM     35  C   UNL A   1      36.844  33.793  29.523  1.00  0.00     0.010 A 
ATOM     36  C   UNL A   1      35.537  32.093  30.614  1.00  0.00     0.010 A 
ATOM     37  C   UNL A   1      36.774  32.723  30.426  1.00  0.00    -0.014 A 
BRANCH  37  38
ATOM     38  C   UNL A   1      37.963  32.200  31.157  1.00  0.00     0.031 A 
ATOM     39  C   UNL A   1      38.804  31.109  30.536  1.00  0.00     0.074 A 
ATOM     40  C   UNL A   1      38.221  32.611  32.416  1.00  0.00     0.049 A 
ATOM     41  N   UNL A   1      39.728  30.357  31.078  1.00  0.00    -0.248 NA
ATOM     42  C   UNL A   1      38.517  30.782  29.131  1.00  0.00     0.031 C 
ATOM     43  C   UNL A   1      37.458  33.620  33.154  1.00  0.00     0.029 A 
ATOM     44  N   UNL A   1      39.188  32.215  33.307  1.00  0.00    -0.354 N 
ATOM     45  C   UNL A   1      40.087  29.433  30.101  1.00  0.00     0.074 A 
ATOM     46  C   UNL A   1      39.233  29.683  28.959  1.00  0.00     0.031 C 
ATOM     47  C   UNL A   1      38.002  33.783  34.371  1.00  0.00     0.029 A 
ATOM     48  C   UNL A   1      39.116  32.854  34.523  1.00  0.00     0.049 A 
ATOM     49  H   UNL A   1      39.869  31.537  33.095  1.00  0.00     0.167 HD
ATOM     50  C   UNL A   1      41.052  28.480  30.141  1.00  0.00     0.034 A 
ATOM     51  C   UNL A   1      39.851  32.697  35.641  1.00  0.00     0.034 A 
ATOM     52  C   UNL A   1      41.941  28.294  31.262  1.00  0.00     0.049 A 
ATOM     53  C   UNL A   1      40.956  31.672  35.647  1.00  0.00     0.074 A 
ATOM     54  C   UNL A   1      43.008  27.421  31.385  1.00  0.00     0.029 A 
ATOM     55  N   UNL A   1      41.872  29.006  32.454  1.00  0.00    -0.354 N 
ATOM     56  N   UNL A   1      41.299  30.822  34.706  1.00  0.00    -0.248 NA
ATOM     57  C   UNL A   1      41.775  31.590  36.861  1.00  0.00     0.031 C 
ATOM     58  C   UNL A   1      43.555  27.574  32.664  1.00  0.00     0.029 A 
ATOM     59  C   UNL A   1      42.870  28.584  33.318  1.00  0.00     0.049 A 
ATOM     60  H   UNL A   1      41.212  29.708  32.654  1.00  0.00     0.167 HD
ATOM     61  C   UNL A   1      42.393  30.125  35.207  1.00  0.00     0.074 A 
ATOM     62  C   UNL A   1      42.659  30.663  36.525  1.00  0.00     0.031 C 
ATOM     63  C   UNL A   1      43.116  29.132  34.631  1.00  0.00     0.034 A 
BRANCH  50  64
ATOM     64  C   UNL A   1      41.183  27.569  28.942  1.00  0.00     0.023 A 
ATOM     65  C   UNL A   1      42.200  27.742  27.987  1.00  0.00     0.031 A 
ATOM     66  C   UNL A   1      40.250  26.539  28.723  1.00  0.00     0.131 A 
ATOM     67  C   UNL A   1      42.202  26.972  26.815  1.00  0.00     0.055 A 
ATOM     68  C   UNL A   1      40.313  25.712  27.599  1.00  0.00     0.041 A 
ATOM     69  F   UNL A   1      39.246  26.330  29.589  1.00  0.00    -0.206 F 
ATOM     70  C   UNL A   1      41.281  25.940  26.625  1.00  0.00     0.022 A 
BRANCH  67  71
ATOM     71  S   UNL A   1      43.321  27.451  25.470  1.00  0.00     0.124 S 
ATOM     72  O   UNL A   1      43.982  26.182  25.174  1.00  0.00    -0.237 OA
ATOM     73  O   UNL A   1      42.400  27.944  24.453  1.00  0.00    -0.237 OA
ATOM     74  O   UNL A   1      44.179  28.463  26.082  1.00  0.00    -0.744 OA
ENDBRANCH  67  71
ENDBRANCH  50  64
BRANCH  51  75
ATOM     75  C   UNL A   1      39.575  33.526  36.848  1.00  0.00     0.023 A 
ATOM     76  C   UNL A   1      38.887  32.988  37.947  1.00  0.00     0.031 A 
ATOM     77  C   UNL A   1      39.971  34.874  36.911  1.00  0.00     0.131 A 
ATOM     78  C   UNL A   1      38.575  33.805  39.045  1.00  0.00     0.055 A 
ATOM     79  C   UNL A   1      39.701  35.668  38.026  1.00  0.00     0.041 A 
ATOM     80  F   UNL A   1      40.642  35.433  35.891  1.00  0.00    -0.206 F 
ATOM     81  C   UNL A   1      38.987  35.137  39.097  1.00  0.00     0.022 A 
BRANCH  78  82
ATOM     82  S   UNL A   1      37.557  33.113  40.377  1.00  0.00     0.124 S 
ATOM     83  O   UNL A   1      36.326  32.782  39.669  1.00  0.00    -0.237 OA
ATOM     84  O   UNL A   1      38.366  31.982  40.820  1.00  0.00    -0.237 OA
ATOM     85  O   UNL A   1      37.452  34.214  41.331  1.00  0.00    -0.744 OA
ENDBRANCH  78  82
ENDBRANCH  51  75
BRANCH  63  86
ATOM     86  C   UNL A   1      44.292  28.604  35.412  1.00  0.00     0.023 A 
ATOM     87  C   UNL A   1      44.152  27.557  36.340  1.00  0.00     0.031 A 
ATOM     88  C   UNL A   1      45.567  29.168  35.232  1.00  0.00     0.131 A 
ATOM     89  C   UNL A   1      45.260  27.142  37.092  1.00  0.00     0.055 A 
ATOM     90  C   UNL A   1      46.676  28.714  35.945  1.00  0.00     0.041 A 
ATOM     91  F   UNL A   1      45.753  30.171  34.358  1.00  0.00    -0.206 F 
ATOM     92  C   UNL A   1      46.523  27.703  36.890  1.00  0.00     0.022 A 
BRANCH  89  93
ATOM     93  S   UNL A   1      45.011  25.908  38.398  1.00  0.00     0.124 S 
ATOM     94  O   UNL A   1      46.383  25.525  38.718  1.00  0.00    -0.237 OA
ATOM     95  O   UNL A   1      44.308  26.675  39.422  1.00  0.00    -0.237 OA
ATOM     96  O   UNL A   1      44.214  24.872  37.745  1.00  0.00    -0.744 OA
ENDBRANCH  89  93
ENDBRANCH  63  86
ENDBRANCH  37  38
ENDBRANCH  29  32
ENDBRANCH  27  28
ENDBRANCH   1  27
TORSDOF 18
ENDMDL
MODEL 2
REMARK VINA RESULT:     -12.3      1.603      2.161
REMARK SMILES CCCC[C@H](C(=O)NCCCNC(=O)c1ccc(-c2c3nc(c(-c4cc(S(=O)(=O)[O-])ccc4F)c4ccc([nH]4)c(-c4cc(S(=O)(=O)[O-])ccc4F)c4nc(c(-c5cc(S(=O)(=O)[O-])ccc5F)c5ccc2[nH]5)C=C4)C=C3)cc1)N1C(=O)/C(=C/c2ccc(C)cc2)SC1=S
REMARK SMILES IDX 10 1 9 2 8 3 6 4 7 5 5 7 4 8 3 9 2 10 1 11 78 12 79 13 91 14
REMARK SMILES IDX 80 15 81 16 90 17 92 18 82 19 83 20 84 21 89 22 85 23 88 24
REMARK SMILES IDX 86 25 87 26 11 27 12 28 13 29 14 31 15 32 16 33 77 34 17 35
REMARK SMILES IDX 76 36 18 37 19 38 20 39 70 40 21 41 75 42 69 43 71 44 22 45
REMARK SMILES IDX 74 46 68 47 67 48 23 50 55 51 35 52 54 53 36 54 39 55 53 56
REMARK SMILES IDX 72 57 37 58 38 59 52 61 73 62 40 63 24 64 25 65 33 66 26 67
REMARK SMILES IDX 32 68 34 69 31 70 27 71 28 72 29 73 30 74 56 75 57 76 65 77
REMARK SMILES IDX 58 78 64 79 66 80 63 81 59 82 60 83 61 84 62 85 41 86 42 87
REMARK SMILES IDX 50 88 43 89 49 90 51 91 48 92 44 93 45 94 46 95 47 96
REMARK H PARENT 8 6 12 30 71 49 39 60
REMARK Flexibility Score: inf
ROOT
ATOM      1  C   UNL A   1      30.974  31.557  25.681  1.00  0.00     0.042 C 
ENDROOT
BRANCH   1   2
ATOM      2  C   UNL A   1      31.055  30.149  25.134  1.00  0.00     0.117 C 
BRANCH   2   3
ATOM      3  N   UNL A   1      30.540  29.920  23.817  1.00  0.00    -0.354 N 
ATOM      4  C   UNL A   1      30.927  28.916  22.977  1.00  0.00     0.243 C 
ATOM      5  O   UNL A   1      30.174  28.668  22.028  1.00  0.00    -0.273 OA
ATOM      6  H   UNL A   1      29.848  30.540  23.489  1.00  0.00     0.163 HD
BRANCH   4   7
ATOM      7  C   UNL A   1      32.250  28.103  23.186  1.00  0.00     0.181 C 
BRANCH   7   8
ATOM      8  C   UNL A   1      33.436  28.933  23.741  1.00  0.00     0.036 C 
BRANCH   8   9
ATOM      9  C   UNL A   1      34.432  28.388  24.758  1.00  0.00     0.002 C 
BRANCH   9  10
ATOM     10  C   UNL A   1      33.986  28.470  26.218  1.00  0.00    -0.003 C 
ATOM     11  C   UNL A   1      34.855  29.378  27.070  1.00  0.00     0.004 C 
ENDBRANCH   9  10
ENDBRANCH   8   9
ENDBRANCH   7   8
BRANCH   7  12
ATOM     12  N   UNL A   1      32.097  26.637  23.404  1.00  0.00    -0.280 N 
ATOM     13  C   UNL A   1      32.795  25.784  22.531  1.00  0.00     0.266 C 
ATOM     14  C   UNL A   1      31.337  25.943  24.328  1.00  0.00     0.149 C 
ATOM     15  O   UNL A   1      33.681  26.085  21.756  1.00  0.00    -0.268 OA
ATOM     16  C   UNL A   1      32.378  24.371  22.767  1.00  0.00     0.081 C 
ATOM     17  S   UNL A   1      30.912  24.384  23.649  1.00  0.00    -0.054 SA
ATOM     18  S   UNL A   1      30.907  26.211  25.915  1.00  0.00    -0.052 S 
ATOM     19  C   UNL A   1      33.147  23.301  22.517  1.00  0.00     0.029 C 
BRANCH  19  20
ATOM     20  C   UNL A   1      32.825  21.974  23.068  1.00  0.00    -0.024 A 
ATOM     21  C   UNL A   1      32.172  21.045  22.251  1.00  0.00     0.008 A 
ATOM     22  C   UNL A   1      33.296  21.569  24.322  1.00  0.00     0.008 A 
ATOM     23  C   UNL A   1      32.051  19.713  22.656  1.00  0.00     0.004 A 
ATOM     24  C   UNL A   1      33.191  20.233  24.716  1.00  0.00     0.004 A 
ATOM     25  C   UNL A   1      32.594  19.290  23.875  1.00  0.00    -0.051 A 
ATOM     26  C   UNL A   1      32.522  17.846  24.272  1.00  0.00     0.044 C 
ENDBRANCH  19  20
ENDBRANCH   7  12
ENDBRANCH   4   7
ENDBRANCH   2   3
ENDBRANCH   1   2
BRANCH   1  27
ATOM     27  C   UNL A   1      32.037  31.858  26.722  1.00  0.00     0.118 C 
BRANCH  27  28
ATOM     28  N   UNL A   1      32.085  33.263  27.117  1.00  0.00    -0.352 N 
ATOM     29  C   UNL A   1      32.909  33.990  27.945  1.00  0.00     0.251 C 
ATOM     30  H   UNL A   1      31.376  33.806  26.703  1.00  0.00     0.163 HD
ATOM     31  O   UNL A   1      32.591  35.153  28.193  1.00  0.00    -0.269 OA
BRANCH  29  32
ATOM     32  C   UNL A   1      34.129  33.420  28.568  1.00  0.00     0.039 A 
ATOM     33  C   UNL A   1      35.366  34.040  28.338  1.00  0.00     0.014 A 
ATOM     34  C   UNL A   1      34.100  32.254  29.326  1.00  0.00     0.014 A 
ATOM     35  C   UNL A   1      36.535  33.535  28.926  1.00  0.00     0.010 A 
ATOM     36  C   UNL A   1      35.231  31.834  30.020  1.00  0.00     0.010 A 
ATOM     37  C   UNL A   1      36.470  32.454  29.817  1.00  0.00    -0.014 A 
BRANCH  37  38
ATOM     38  C   UNL A   1      37.667  31.910  30.519  1.00  0.00     0.031 A 
ATOM     39  C   UNL A   1      38.539  30.885  29.830  1.00  0.00     0.074 A 
ATOM     40  C   UNL A   1      37.908  32.239  31.805  1.00  0.00     0.049 A 
ATOM     41  N   UNL A   1      39.477  30.119  30.326  1.00  0.00    -0.248 NA
ATOM     42  C   UNL A   1      38.268  30.650  28.403  1.00  0.00     0.031 C 
ATOM     43  C   UNL A   1      37.116  33.175  32.605  1.00  0.00     0.029 A 
ATOM     44  N   UNL A   1      38.879  31.805  32.673  1.00  0.00    -0.354 N 
ATOM     45  C   UNL A   1      39.864  29.274  29.289  1.00  0.00     0.074 A 
ATOM     46  C   UNL A   1      39.011  29.582  28.161  1.00  0.00     0.031 C 
ATOM     47  C   UNL A   1      37.649  33.266  33.834  1.00  0.00     0.029 A 
ATOM     48  C   UNL A   1      38.783  32.355  33.931  1.00  0.00     0.049 A 
ATOM     49  H   UNL A   1      39.577  31.159  32.420  1.00  0.00     0.167 HD
ATOM     50  C   UNL A   1      40.852  28.344  29.271  1.00  0.00     0.034 A 
ATOM     51  C   UNL A   1      39.515  32.138  35.041  1.00  0.00     0.034 A 
ATOM     52  C   UNL A   1      41.738  28.101  30.383  1.00  0.00     0.049 A 
ATOM     53  C   UNL A   1      40.645  31.142  34.984  1.00  0.00     0.074 A 
ATOM     54  C   UNL A   1      42.826  27.248  30.453  1.00  0.00     0.029 A 
ATOM     55  N   UNL A   1      41.645  28.727  31.621  1.00  0.00    -0.354 N 
ATOM     56  N   UNL A   1      41.014  30.368  33.989  1.00  0.00    -0.248 NA
ATOM     57  C   UNL A   1      41.459  30.996  36.196  1.00  0.00     0.031 C 
ATOM     58  C   UNL A   1      43.361  27.325  31.744  1.00  0.00     0.029 A 
ATOM     59  C   UNL A   1      42.647  28.270  32.462  1.00  0.00     0.049 A 
ATOM     60  H   UNL A   1      40.967  29.398  31.864  1.00  0.00     0.167 HD
ATOM     61  C   UNL A   1      42.122  29.664  34.449  1.00  0.00     0.074 A 
ATOM     62  C   UNL A   1      42.367  30.115  35.803  1.00  0.00     0.031 C 
ATOM     63  C   UNL A   1      42.872  28.731  33.811  1.00  0.00     0.034 A 
BRANCH  50  64
ATOM     64  C   UNL A   1      41.012  27.522  28.013  1.00  0.00     0.023 A 
ATOM     65  C   UNL A   1      40.609  26.176  27.950  1.00  0.00     0.031 A 
ATOM     66  C   UNL A   1      41.620  28.075  26.871  1.00  0.00     0.131 A 
ATOM     67  C   UNL A   1      40.907  25.405  26.817  1.00  0.00     0.055 A 
ATOM     68  C   UNL A   1      41.829  27.327  25.710  1.00  0.00     0.041 A 
ATOM     69  F   UNL A   1      42.041  29.349  26.870  1.00  0.00    -0.206 F 
ATOM     70  C   UNL A   1      41.491  25.977  25.685  1.00  0.00     0.022 A 
BRANCH  67  71
ATOM     71  S   UNL A   1      40.672  23.609  26.911  1.00  0.00     0.124 S 
ATOM     72  O   UNL A   1      41.024  23.340  28.304  1.00  0.00    -0.237 OA
ATOM     73  O   UNL A   1      39.264  23.456  26.566  1.00  0.00    -0.237 OA
ATOM     74  O   UNL A   1      41.618  23.088  25.926  1.00  0.00    -0.744 OA
ENDBRANCH  67  71
ENDBRANCH  50  64
BRANCH  51  75
ATOM     75  C   UNL A   1      39.213  32.875  36.300  1.00  0.00     0.023 A 
ATOM     76  C   UNL A   1      38.401  32.301  37.291  1.00  0.00     0.031 A 
ATOM     77  C   UNL A   1      39.707  34.173  36.521  1.00  0.00     0.131 A 
ATOM     78  C   UNL A   1      38.069  33.037  38.438  1.00  0.00     0.055 A 
ATOM     79  C   UNL A   1      39.414  34.883  37.686  1.00  0.00     0.041 A 
ATOM     80  F   UNL A   1      40.497  34.763  35.610  1.00  0.00    -0.206 F 
ATOM     81  C   UNL A   1      38.579  34.319  38.648  1.00  0.00     0.022 A 
BRANCH  78  82
ATOM     82  S   UNL A   1      36.899  32.317  39.622  1.00  0.00     0.124 S 
ATOM     83  O   UNL A   1      35.617  32.683  39.032  1.00  0.00    -0.237 OA
ATOM     84  O   UNL A   1      37.249  30.901  39.569  1.00  0.00    -0.237 OA
ATOM     85  O   UNL A   1      37.226  32.992  40.875  1.00  0.00    -0.744 OA
ENDBRANCH  78  82
ENDBRANCH  51  75
BRANCH  63  86
ATOM     86  C   UNL A   1      44.056  28.178  34.563  1.00  0.00     0.023 A 
ATOM     87  C   UNL A   1      43.906  27.192  35.553  1.00  0.00     0.031 A 
ATOM     88  C   UNL A   1      45.349  28.658  34.290  1.00  0.00     0.131 A 
ATOM     89  C   UNL A   1      45.027  26.753  36.273  1.00  0.00     0.055 A 
ATOM     90  C   UNL A   1      46.467  28.178  34.973  1.00  0.00     0.041 A 
ATOM     91  F   UNL A   1      45.545  29.600  33.354  1.00  0.00    -0.206 F 
ATOM     92  C   UNL A   1      46.307  27.230  35.979  1.00  0.00     0.022 A 
BRANCH  89  93
ATOM     93  S   UNL A   1      44.778  25.607  37.656  1.00  0.00     0.124 S 
ATOM     94  O   UNL A   1      44.202  24.445  36.986  1.00  0.00    -0.237 OA
ATOM     95  O   UNL A   1      46.134  25.440  38.171  1.00  0.00    -0.237 OA
ATOM     96  O   UNL A   1      43.865  26.329  38.540  1.00  0.00    -0.744 OA
ENDBRANCH  89  93
ENDBRANCH  63  86
ENDBRANCH  37  38
ENDBRANCH  29  32
ENDBRANCH  27  28
ENDBRANCH   1  27
TORSDOF 18
ENDMDL
MODEL 3
REMARK VINA RESULT:     -11.9      5.693      9.453
REMARK SMILES CCCC[C@H](C(=O)NCCCNC(=O)c1ccc(-c2c3nc(c(-c4cc(S(=O)(=O)[O-])ccc4F)c4ccc([nH]4)c(-c4cc(S(=O)(=O)[O-])ccc4F)c4nc(c(-c5cc(S(=O)(=O)[O-])ccc5F)c5ccc2[nH]5)C=C4)C=C3)cc1)N1C(=O)/C(=C/c2ccc(C)cc2)SC1=S
REMARK SMILES IDX 10 1 9 2 8 3 6 4 7 5 5 7 4 8 3 9 2 10 1 11 78 12 79 13 91 14
REMARK SMILES IDX 80 15 81 16 90 17 92 18 82 19 83 20 84 21 89 22 85 23 88 24
REMARK SMILES IDX 86 25 87 26 11 27 12 28 13 29 14 31 15 32 16 33 77 34 17 35
REMARK SMILES IDX 76 36 18 37 19 38 20 39 70 40 21 41 75 42 69 43 71 44 22 45
REMARK SMILES IDX 74 46 68 47 67 48 23 50 55 51 35 52 54 53 36 54 39 55 53 56
REMARK SMILES IDX 72 57 37 58 38 59 52 61 73 62 40 63 24 64 25 65 33 66 26 67
REMARK SMILES IDX 32 68 34 69 31 70 27 71 28 72 29 73 30 74 56 75 57 76 65 77
REMARK SMILES IDX 58 78 64 79 66 80 63 81 59 82 60 83 61 84 62 85 41 86 42 87
REMARK SMILES IDX 50 88 43 89 49 90 51 91 48 92 44 93 45 94 46 95 47 96
REMARK H PARENT 8 6 12 30 71 49 39 60
REMARK Flexibility Score: inf
ROOT
ATOM      1  C   UNL A   1      36.588  19.441  24.905  1.00  0.00     0.042 C 
ENDROOT
BRANCH   1   2
ATOM      2  C   UNL A   1      35.348  20.298  24.789  1.00  0.00     0.117 C 
BRANCH   2   3
ATOM      3  N   UNL A   1      34.081  19.662  25.000  1.00  0.00    -0.354 N 
ATOM      4  C   UNL A   1      32.942  20.285  25.423  1.00  0.00     0.243 C 
ATOM      5  O   UNL A   1      31.881  19.675  25.248  1.00  0.00    -0.273 OA
ATOM      6  H   UNL A   1      34.028  18.695  24.826  1.00  0.00     0.163 HD
BRANCH   4   7
ATOM      7  C   UNL A   1      32.952  21.700  26.096  1.00  0.00     0.181 C 
BRANCH   7   8
ATOM      8  C   UNL A   1      34.121  21.934  27.088  1.00  0.00     0.036 C 
BRANCH   8   9
ATOM      9  C   UNL A   1      34.946  23.216  27.117  1.00  0.00     0.002 C 
BRANCH   9  10
ATOM     10  C   UNL A   1      36.273  23.155  26.360  1.00  0.00    -0.003 C 
ATOM     11  C   UNL A   1      36.279  23.967  25.077  1.00  0.00     0.004 C 
ENDBRANCH   9  10
ENDBRANCH   8   9
ENDBRANCH   7   8
BRANCH   7  12
ATOM     12  N   UNL A   1      32.281  22.795  25.340  1.00  0.00    -0.280 N 
ATOM     13  C   UNL A   1      31.417  23.635  26.064  1.00  0.00     0.266 C 
ATOM     14  C   UNL A   1      32.338  23.122  23.997  1.00  0.00     0.149 C 
ATOM     15  O   UNL A   1      31.311  23.722  27.271  1.00  0.00    -0.268 OA
ATOM     16  C   UNL A   1      30.691  24.539  25.125  1.00  0.00     0.081 C 
ATOM     17  S   UNL A   1      30.833  23.899  23.544  1.00  0.00    -0.054 SA
ATOM     18  S   UNL A   1      33.533  23.072  22.838  1.00  0.00    -0.052 S 
ATOM     19  C   UNL A   1      30.212  25.748  25.454  1.00  0.00     0.029 C 
BRANCH  19  20
ATOM     20  C   UNL A   1      29.807  26.722  24.427  1.00  0.00    -0.024 A 
ATOM     21  C   UNL A   1      28.474  26.738  24.000  1.00  0.00     0.008 A 
ATOM     22  C   UNL A   1      30.675  27.730  23.991  1.00  0.00     0.008 A 
ATOM     23  C   UNL A   1      28.002  27.784  23.203  1.00  0.00     0.004 A 
ATOM     24  C   UNL A   1      30.197  28.784  23.210  1.00  0.00     0.004 A 
ATOM     25  C   UNL A   1      28.851  28.834  22.833  1.00  0.00    -0.051 A 
ATOM     26  C   UNL A   1      28.322  29.988  22.035  1.00  0.00     0.044 C 
ENDBRANCH  19  20
ENDBRANCH   7  12
ENDBRANCH   4   7
ENDBRANCH   2   3
ENDBRANCH   1   2
BRANCH   1  27
ATOM     27  C   UNL A   1      37.863  20.248  25.064  1.00  0.00     0.118 C 
BRANCH  27  28
ATOM     28  N   UNL A   1      38.994  19.464  25.554  1.00  0.00    -0.352 N 
ATOM     29  C   UNL A   1      40.218  19.792  26.090  1.00  0.00     0.251 C 
ATOM     30  H   UNL A   1      38.849  18.492  25.486  1.00  0.00     0.163 HD
ATOM     31  O   UNL A   1      41.027  18.883  26.271  1.00  0.00    -0.269 OA
BRANCH  29  32
ATOM     32  C   UNL A   1      40.603  21.187  26.420  1.00  0.00     0.039 A 
ATOM     33  C   UNL A   1      41.592  21.409  27.389  1.00  0.00     0.014 A 
ATOM     34  C   UNL A   1      39.975  22.286  25.845  1.00  0.00     0.014 A 
ATOM     35  C   UNL A   1      41.990  22.715  27.711  1.00  0.00     0.010 A 
ATOM     36  C   UNL A   1      40.462  23.571  26.061  1.00  0.00     0.010 A 
ATOM     37  C   UNL A   1      41.464  23.810  27.011  1.00  0.00    -0.014 A 
BRANCH  37  38
ATOM     38  C   UNL A   1      41.890  25.216  27.265  1.00  0.00     0.031 A 
ATOM     39  C   UNL A   1      43.256  25.678  26.812  1.00  0.00     0.074 A 
ATOM     40  C   UNL A   1      41.113  26.039  27.998  1.00  0.00     0.049 A 
ATOM     41  N   UNL A   1      43.914  26.765  27.124  1.00  0.00    -0.248 NA
ATOM     42  C   UNL A   1      44.003  24.757  25.941  1.00  0.00     0.031 C 
ATOM     43  C   UNL A   1      39.795  25.703  28.542  1.00  0.00     0.029 A 
ATOM     44  N   UNL A   1      41.329  27.324  28.431  1.00  0.00    -0.354 N 
ATOM     45  C   UNL A   1      45.170  26.629  26.538  1.00  0.00     0.074 A 
ATOM     46  C   UNL A   1      45.197  25.325  25.909  1.00  0.00     0.031 C 
ATOM     47  C   UNL A   1      39.309  26.762  29.209  1.00  0.00     0.029 A 
ATOM     48  C   UNL A   1      40.300  27.832  29.191  1.00  0.00     0.049 A 
ATOM     49  H   UNL A   1      42.143  27.833  28.218  1.00  0.00     0.167 HD
ATOM     50  C   UNL A   1      46.197  27.516  26.506  1.00  0.00     0.034 A 
ATOM     51  C   UNL A   1      40.176  29.018  29.818  1.00  0.00     0.034 A 
ATOM     52  C   UNL A   1      46.125  28.838  27.077  1.00  0.00     0.049 A 
ATOM     53  C   UNL A   1      41.306  30.012  29.723  1.00  0.00     0.074 A 
ATOM     54  C   UNL A   1      47.066  29.853  27.034  1.00  0.00     0.029 A 
ATOM     55  N   UNL A   1      45.038  29.337  27.787  1.00  0.00    -0.354 N 
ATOM     56  N   UNL A   1      42.477  29.878  29.145  1.00  0.00    -0.248 NA
ATOM     57  C   UNL A   1      41.092  31.317  30.360  1.00  0.00     0.031 C 
ATOM     58  C   UNL A   1      46.568  30.944  27.754  1.00  0.00     0.029 A 
ATOM     59  C   UNL A   1      45.292  30.636  28.195  1.00  0.00     0.049 A 
ATOM     60  H   UNL A   1      44.209  28.839  27.971  1.00  0.00     0.167 HD
ATOM     61  C   UNL A   1      43.128  31.094  29.325  1.00  0.00     0.074 A 
ATOM     62  C   UNL A   1      42.215  31.950  30.053  1.00  0.00     0.031 C 
ATOM     63  C   UNL A   1      44.368  31.472  28.924  1.00  0.00     0.034 A 
BRANCH  50  64
ATOM     64  C   UNL A   1      47.480  27.074  25.840  1.00  0.00     0.023 A 
ATOM     65  C   UNL A   1      48.444  26.310  26.522  1.00  0.00     0.031 A 
ATOM     66  C   UNL A   1      47.768  27.459  24.518  1.00  0.00     0.131 A 
ATOM     67  C   UNL A   1      49.683  26.044  25.921  1.00  0.00     0.055 A 
ATOM     68  C   UNL A   1      48.966  27.110  23.891  1.00  0.00     0.041 A 
ATOM     69  F   UNL A   1      46.896  28.201  23.817  1.00  0.00    -0.206 F 
ATOM     70  C   UNL A   1      49.942  26.415  24.600  1.00  0.00     0.022 A 
BRANCH  67  71
ATOM     71  S   UNL A   1      51.009  25.353  26.948  1.00  0.00     0.124 S 
ATOM     72  O   UNL A   1      50.283  24.353  27.728  1.00  0.00    -0.237 OA
ATOM     73  O   UNL A   1      51.941  24.835  25.955  1.00  0.00    -0.237 OA
ATOM     74  O   UNL A   1      51.484  26.504  27.714  1.00  0.00    -0.744 OA
ENDBRANCH  67  71
ENDBRANCH  50  64
BRANCH  51  75
ATOM     75  C   UNL A   1      38.942  29.340  30.587  1.00  0.00     0.023 A 
ATOM     76  C   UNL A   1      37.997  30.247  30.082  1.00  0.00     0.031 A 
ATOM     77  C   UNL A   1      38.700  28.768  31.849  1.00  0.00     0.131 A 
ATOM     78  C   UNL A   1      36.875  30.591  30.852  1.00  0.00     0.055 A 
ATOM     79  C   UNL A   1      37.558  29.077  32.590  1.00  0.00     0.041 A 
ATOM     80  F   UNL A   1      39.567  27.886  32.372  1.00  0.00    -0.206 F 
ATOM     81  C   UNL A   1      36.644  30.004  32.096  1.00  0.00     0.022 A 
BRANCH  78  82
ATOM     82  S   UNL A   1      35.758  31.876  30.228  1.00  0.00     0.124 S 
ATOM     83  O   UNL A   1      34.839  32.040  31.349  1.00  0.00    -0.237 OA
ATOM     84  O   UNL A   1      36.676  32.983  29.984  1.00  0.00    -0.237 OA
ATOM     85  O   UNL A   1      35.180  31.271  29.031  1.00  0.00    -0.744 OA
ENDBRANCH  78  82
ENDBRANCH  51  75
BRANCH  63  86
ATOM     86  C   UNL A   1      44.779  32.890  29.226  1.00  0.00     0.023 A 
ATOM     87  C   UNL A   1      44.357  33.967  28.428  1.00  0.00     0.031 A 
ATOM     88  C   UNL A   1      45.616  33.162  30.323  1.00  0.00     0.131 A 
ATOM     89  C   UNL A   1      44.816  35.262  28.707  1.00  0.00     0.055 A 
ATOM     90  C   UNL A   1      46.026  34.460  30.627  1.00  0.00     0.041 A 
ATOM     91  F   UNL A   1      46.047  32.168  31.116  1.00  0.00    -0.206 F 
ATOM     92  C   UNL A   1      45.636  35.517  29.810  1.00  0.00     0.022 A 
BRANCH  89  93
ATOM     93  S   UNL A   1      44.392  36.602  27.561  1.00  0.00     0.124 S 
ATOM     94  O   UNL A   1      43.532  37.445  28.386  1.00  0.00    -0.237 OA
ATOM     95  O   UNL A   1      45.701  37.157  27.230  1.00  0.00    -0.237 OA
ATOM     96  O   UNL A   1      43.716  35.913  26.463  1.00  0.00    -0.744 OA
ENDBRANCH  89  93
ENDBRANCH  63  86
ENDBRANCH  37  38
ENDBRANCH  29  32
ENDBRANCH  27  28
ENDBRANCH   1  27
TORSDOF 18
ENDMDL
