MODEL 1
REMARK VINA RESULT:     -12.6      0.000      0.000
REMARK SMILES Cc1cc(C(=O)N[C@H](CC(C)C)C(=O)NCCCNC(=O)c2ccc(-c3c4nc(c(-c5cc(S(=O)(=O)[O-])ccc5F)c5ccc([nH]5)c(-c5cc(S(=O)(=O)[O-])ccc5F)c5nc(c(-c6cc(S(=O)(=O)[O-])ccc6F)c6ccc3[nH]6)C=C5)C=C4)cc2)sc1Br
REMARK SMILES IDX 17 1 16 2 15 3 13 4 14 5 8 7 7 8 5 9 6 10 4 12 1 13 2 14
REMARK SMILES IDX 3 15 86 16 85 17 87 18 9 19 10 20 11 21 12 22 18 23 19 24
REMARK SMILES IDX 20 25 21 27 22 28 23 29 84 30 24 31 83 32 25 33 26 34 27 35
REMARK SMILES IDX 77 36 28 37 82 38 76 39 78 40 29 41 81 42 75 43 74 44 30 46
REMARK SMILES IDX 62 47 42 48 61 49 43 50 46 51 60 52 79 53 44 54 45 55 59 57
REMARK SMILES IDX 80 58 47 59 31 60 32 61 40 62 33 63 39 64 41 65 38 66 34 67
REMARK SMILES IDX 35 68 36 69 37 70 63 71 64 72 72 73 65 74 71 75 73 76 70 77
REMARK SMILES IDX 66 78 67 79 68 80 69 81 48 82 49 83 57 84 50 85 56 86 58 87
REMARK SMILES IDX 55 88 51 89 52 90 53 91 54 92
REMARK H PARENT 15 6 7 11 19 26 78 45 46 56
REMARK Flexibility Score: inf
ROOT
ATOM      1  C   UNL A   1      34.027  29.670  26.955  1.00  0.00     0.042 C 
ENDROOT
BRANCH   1   2
ATOM      2  C   UNL A   1      33.532  28.669  25.906  1.00  0.00     0.117 C 
BRANCH   2   3
ATOM      3  N   UNL A   1      34.120  28.893  24.597  1.00  0.00    -0.354 N 
ATOM      4  C   UNL A   1      33.716  28.518  23.351  1.00  0.00     0.242 C 
ATOM      5  O   UNL A   1      34.428  28.846  22.396  1.00  0.00    -0.273 OA
ATOM      6  H   UNL A   1      34.961  29.406  24.613  1.00  0.00     0.163 HD
BRANCH   4   7
ATOM      7  C   UNL A   1      32.415  27.719  23.100  1.00  0.00     0.171 C 
BRANCH   7   8
ATOM      8  N   UNL A   1      32.551  26.929  21.892  1.00  0.00    -0.340 N 
ATOM      9  C   UNL A   1      33.061  25.680  21.640  1.00  0.00     0.262 C 
ATOM     10  O   UNL A   1      33.097  25.394  20.439  1.00  0.00    -0.268 OA
ATOM     11  H   UNL A   1      32.205  27.381  21.087  1.00  0.00     0.164 HD
BRANCH   9  12
ATOM     12  C   UNL A   1      33.464  24.752  22.691  1.00  0.00     0.093 A 
ATOM     13  C   UNL A   1      34.852  23.673  26.029  1.00  0.00     0.046 C 
ATOM     14  C   UNL A   1      34.238  23.692  24.667  1.00  0.00    -0.025 A 
ATOM     15  C   UNL A   1      34.199  24.883  23.856  1.00  0.00     0.030 A 
ATOM     16  C   UNL A   1      33.653  22.650  23.985  1.00  0.00     0.074 A 
ATOM     17  S   UNL A   1      32.990  23.102  22.497  1.00  0.00    -0.123 S 
ATOM     18  Br  UNL A   1      33.561  20.874  24.592  1.00  0.00    -0.039 Br
ENDBRANCH   9  12
ENDBRANCH   7   8
BRANCH   7  19
ATOM     19  C   UNL A   1      31.119  28.537  23.274  1.00  0.00     0.038 C 
BRANCH  19  20
ATOM     20  C   UNL A   1      29.741  27.957  22.902  1.00  0.00    -0.015 C 
ATOM     21  C   UNL A   1      29.267  26.816  23.798  1.00  0.00     0.007 C 
ATOM     22  C   UNL A   1      28.706  29.091  22.945  1.00  0.00     0.007 C 
ENDBRANCH  19  20
ENDBRANCH   7  19
ENDBRANCH   4   7
ENDBRANCH   2   3
ENDBRANCH   1   2
BRANCH   1  23
ATOM     23  C   UNL A   1      35.390  29.312  27.504  1.00  0.00     0.118 C 
BRANCH  23  24
ATOM     24  N   UNL A   1      35.561  29.761  28.886  1.00  0.00    -0.352 N 
ATOM     25  C   UNL A   1      36.575  29.430  29.761  1.00  0.00     0.251 C 
ATOM     26  H   UNL A   1      34.871  30.372  29.233  1.00  0.00     0.163 HD
ATOM     27  O   UNL A   1      36.416  29.562  30.973  1.00  0.00    -0.269 OA
BRANCH  25  28
ATOM     28  C   UNL A   1      37.828  28.891  29.207  1.00  0.00     0.039 A 
ATOM     29  C   UNL A   1      38.429  29.455  28.084  1.00  0.00     0.014 A 
ATOM     30  C   UNL A   1      38.445  27.852  29.899  1.00  0.00     0.014 A 
ATOM     31  C   UNL A   1      39.707  29.028  27.733  1.00  0.00     0.010 A 
ATOM     32  C   UNL A   1      39.769  27.581  29.675  1.00  0.00     0.010 A 
ATOM     33  C   UNL A   1      40.393  28.117  28.559  1.00  0.00    -0.014 A 
BRANCH  33  34
ATOM     34  C   UNL A   1      41.801  27.808  28.327  1.00  0.00     0.031 A 
ATOM     35  C   UNL A   1      42.029  26.567  27.544  1.00  0.00     0.074 A 
ATOM     36  C   UNL A   1      42.834  28.620  28.642  1.00  0.00     0.049 A 
ATOM     37  N   UNL A   1      42.395  25.423  28.012  1.00  0.00    -0.248 NA
ATOM     38  C   UNL A   1      41.633  26.526  26.129  1.00  0.00     0.031 C 
ATOM     39  C   UNL A   1      42.813  29.990  29.164  1.00  0.00     0.029 A 
ATOM     40  N   UNL A   1      44.165  28.393  28.473  1.00  0.00    -0.354 N 
ATOM     41  C   UNL A   1      42.530  24.580  26.917  1.00  0.00     0.074 A 
ATOM     42  C   UNL A   1      41.848  25.241  25.835  1.00  0.00     0.031 C 
ATOM     43  C   UNL A   1      44.041  30.544  29.046  1.00  0.00     0.029 A 
ATOM     44  C   UNL A   1      44.973  29.517  28.614  1.00  0.00     0.049 A 
ATOM     45  H   UNL A   1      44.528  27.502  28.266  1.00  0.00     0.167 HD
ATOM     46  C   UNL A   1      43.400  23.532  26.954  1.00  0.00     0.034 A 
ATOM     47  C   UNL A   1      46.313  29.601  28.393  1.00  0.00     0.034 A 
ATOM     48  C   UNL A   1      43.824  23.265  28.316  1.00  0.00     0.049 A 
ATOM     49  C   UNL A   1      46.846  28.223  28.559  1.00  0.00     0.074 A 
ATOM     50  C   UNL A   1      43.154  22.982  29.494  1.00  0.00     0.029 A 
ATOM     51  N   UNL A   1      45.076  23.694  28.706  1.00  0.00    -0.354 N 
ATOM     52  N   UNL A   1      46.824  27.588  29.701  1.00  0.00    -0.248 NA
ATOM     53  C   UNL A   1      46.910  27.371  27.381  1.00  0.00     0.031 C 
ATOM     54  C   UNL A   1      43.820  23.764  30.485  1.00  0.00     0.029 A 
ATOM     55  C   UNL A   1      44.916  24.387  29.883  1.00  0.00     0.049 A 
ATOM     56  H   UNL A   1      45.923  23.533  28.232  1.00  0.00     0.167 HD
ATOM     57  C   UNL A   1      46.423  26.298  29.387  1.00  0.00     0.074 A 
ATOM     58  C   UNL A   1      46.580  26.200  27.935  1.00  0.00     0.031 C 
ATOM     59  C   UNL A   1      45.733  25.522  30.277  1.00  0.00     0.034 A 
BRANCH  46  60
ATOM     60  C   UNL A   1      44.163  22.991  25.765  1.00  0.00     0.023 A 
ATOM     61  C   UNL A   1      44.137  21.596  25.576  1.00  0.00     0.031 A 
ATOM     62  C   UNL A   1      45.129  23.693  25.011  1.00  0.00     0.131 A 
ATOM     63  C   UNL A   1      45.110  20.953  24.794  1.00  0.00     0.055 A 
ATOM     64  C   UNL A   1      46.050  23.054  24.174  1.00  0.00     0.041 A 
ATOM     65  F   UNL A   1      45.303  25.015  25.102  1.00  0.00    -0.206 F 
ATOM     66  C   UNL A   1      46.070  21.673  24.092  1.00  0.00     0.022 A 
BRANCH  63  67
ATOM     67  S   UNL A   1      45.211  19.148  24.878  1.00  0.00     0.124 S 
ATOM     68  O   UNL A   1      45.050  18.784  23.475  1.00  0.00    -0.237 OA
ATOM     69  O   UNL A   1      46.539  18.949  25.448  1.00  0.00    -0.237 OA
ATOM     70  O   UNL A   1      44.097  18.788  25.751  1.00  0.00    -0.744 OA
ENDBRANCH  63  67
ENDBRANCH  46  60
BRANCH  47  71
ATOM     71  C   UNL A   1      47.058  30.718  27.742  1.00  0.00     0.023 A 
ATOM     72  C   UNL A   1      46.417  31.830  27.148  1.00  0.00     0.031 A 
ATOM     73  C   UNL A   1      48.457  30.822  27.919  1.00  0.00     0.131 A 
ATOM     74  C   UNL A   1      47.168  32.972  26.771  1.00  0.00     0.055 A 
ATOM     75  C   UNL A   1      49.191  31.949  27.545  1.00  0.00     0.041 A 
ATOM     76  F   UNL A   1      49.152  29.859  28.544  1.00  0.00    -0.206 F 
ATOM     77  C   UNL A   1      48.547  33.036  26.979  1.00  0.00     0.022 A 
BRANCH  74  78
ATOM     78  S   UNL A   1      46.344  34.448  26.082  1.00  0.00     0.124 S 
ATOM     79  O   UNL A   1      47.113  34.694  24.867  1.00  0.00    -0.237 OA
ATOM     80  O   UNL A   1      44.972  33.989  25.900  1.00  0.00    -0.237 OA
ATOM     81  O   UNL A   1      46.515  35.455  27.130  1.00  0.00    -0.744 OA
ENDBRANCH  74  78
ENDBRANCH  47  71
BRANCH  59  82
ATOM     82  C   UNL A   1      45.634  25.967  31.726  1.00  0.00     0.023 A 
ATOM     83  C   UNL A   1      44.484  26.523  32.337  1.00  0.00     0.031 A 
ATOM     84  C   UNL A   1      46.733  25.682  32.558  1.00  0.00     0.131 A 
ATOM     85  C   UNL A   1      44.475  26.777  33.725  1.00  0.00     0.055 A 
ATOM     86  C   UNL A   1      46.711  25.911  33.933  1.00  0.00     0.041 A 
ATOM     87  F   UNL A   1      47.849  25.134  32.048  1.00  0.00    -0.206 F 
ATOM     88  C   UNL A   1      45.581  26.465  34.522  1.00  0.00     0.022 A 
BRANCH  85  89
ATOM     89  S   UNL A   1      43.025  27.539  34.528  1.00  0.00     0.124 S 
ATOM     90  O   UNL A   1      42.374  26.417  35.195  1.00  0.00    -0.237 OA
ATOM     91  O   UNL A   1      43.635  28.536  35.405  1.00  0.00    -0.237 OA
ATOM     92  O   UNL A   1      42.270  28.101  33.406  1.00  0.00    -0.744 OA
ENDBRANCH  85  89
ENDBRANCH  59  82
ENDBRANCH  33  34
ENDBRANCH  25  28
ENDBRANCH  23  24
ENDBRANCH   1  23
TORSDOF 17
ENDMDL
MODEL 2
REMARK VINA RESULT:     -12.2      4.944     10.569
REMARK SMILES Cc1cc(C(=O)N[C@H](CC(C)C)C(=O)NCCCNC(=O)c2ccc(-c3c4nc(c(-c5cc(S(=O)(=O)[O-])ccc5F)c5ccc([nH]5)c(-c5cc(S(=O)(=O)[O-])ccc5F)c5nc(c(-c6cc(S(=O)(=O)[O-])ccc6F)c6ccc3[nH]6)C=C5)C=C4)cc2)sc1Br
REMARK SMILES IDX 17 1 16 2 15 3 13 4 14 5 8 7 7 8 5 9 6 10 4 12 1 13 2 14
REMARK SMILES IDX 3 15 86 16 85 17 87 18 9 19 10 20 11 21 12 22 18 23 19 24
REMARK SMILES IDX 20 25 21 27 22 28 23 29 84 30 24 31 83 32 25 33 26 34 27 35
REMARK SMILES IDX 77 36 28 37 82 38 76 39 78 40 29 41 81 42 75 43 74 44 30 46
REMARK SMILES IDX 62 47 42 48 61 49 43 50 46 51 60 52 79 53 44 54 45 55 59 57
REMARK SMILES IDX 80 58 47 59 31 60 32 61 40 62 33 63 39 64 41 65 38 66 34 67
REMARK SMILES IDX 35 68 36 69 37 70 63 71 64 72 72 73 65 74 71 75 73 76 70 77
REMARK SMILES IDX 66 78 67 79 68 80 69 81 48 82 49 83 57 84 50 85 56 86 58 87
REMARK SMILES IDX 55 88 51 89 52 90 53 91 54 92
REMARK H PARENT 15 6 7 11 19 26 78 45 46 56
REMARK Flexibility Score: inf
ROOT
ATOM      1  C   UNL A   1      37.516  23.467  25.741  1.00  0.00     0.042 C 
ENDROOT
BRANCH   1   2
ATOM      2  C   UNL A   1      36.026  23.751  25.954  1.00  0.00     0.117 C 
BRANCH   2   3
ATOM      3  N   UNL A   1      35.379  22.751  26.785  1.00  0.00    -0.354 N 
ATOM      4  C   UNL A   1      34.112  22.249  26.769  1.00  0.00     0.242 C 
ATOM      5  O   UNL A   1      33.826  21.395  27.614  1.00  0.00    -0.273 OA
ATOM      6  H   UNL A   1      35.957  22.370  27.484  1.00  0.00     0.163 HD
BRANCH   4   7
ATOM      7  C   UNL A   1      33.047  22.700  25.741  1.00  0.00     0.171 C 
BRANCH   7   8
ATOM      8  N   UNL A   1      31.770  22.878  26.405  1.00  0.00    -0.340 N 
ATOM      9  C   UNL A   1      30.884  23.924  26.471  1.00  0.00     0.262 C 
ATOM     10  O   UNL A   1      29.939  23.723  27.241  1.00  0.00    -0.268 OA
ATOM     11  H   UNL A   1      31.479  22.085  26.912  1.00  0.00     0.164 HD
BRANCH   9  12
ATOM     12  C   UNL A   1      31.008  25.131  25.662  1.00  0.00     0.093 A 
ATOM     13  C   UNL A   1      30.383  27.438  22.743  1.00  0.00     0.046 C 
ATOM     14  C   UNL A   1      30.855  26.848  24.032  1.00  0.00    -0.025 A 
ATOM     15  C   UNL A   1      30.635  25.464  24.372  1.00  0.00     0.030 A 
ATOM     16  C   UNL A   1      31.546  27.468  25.047  1.00  0.00     0.074 A 
ATOM     17  S   UNL A   1      31.817  26.474  26.388  1.00  0.00    -0.123 S 
ATOM     18  Br  UNL A   1      32.155  29.246  25.014  1.00  0.00    -0.039 Br
ENDBRANCH   9  12
ENDBRANCH   7   8
BRANCH   7  19
ATOM     19  C   UNL A   1      33.059  21.908  24.419  1.00  0.00     0.038 C 
BRANCH  19  20
ATOM     20  C   UNL A   1      32.328  22.420  23.163  1.00  0.00    -0.015 C 
ATOM     21  C   UNL A   1      33.101  23.457  22.353  1.00  0.00     0.007 C 
ATOM     22  C   UNL A   1      32.006  21.218  22.262  1.00  0.00     0.007 C 
ENDBRANCH  19  20
ENDBRANCH   7  19
ENDBRANCH   4   7
ENDBRANCH   2   3
ENDBRANCH   1   2
BRANCH   1  23
ATOM     23  C   UNL A   1      38.401  24.270  26.668  1.00  0.00     0.118 C 
BRANCH  23  24
ATOM     24  N   UNL A   1      39.716  24.532  26.082  1.00  0.00    -0.352 N 
ATOM     25  C   UNL A   1      40.459  25.692  26.163  1.00  0.00     0.251 C 
ATOM     26  H   UNL A   1      40.118  23.794  25.570  1.00  0.00     0.163 HD
ATOM     27  O   UNL A   1      41.347  25.918  25.343  1.00  0.00    -0.269 OA
BRANCH  25  28
ATOM     28  C   UNL A   1      40.139  26.655  27.230  1.00  0.00     0.039 A 
ATOM     29  C   UNL A   1      39.849  26.234  28.526  1.00  0.00     0.014 A 
ATOM     30  C   UNL A   1      40.226  28.010  26.923  1.00  0.00     0.014 A 
ATOM     31  C   UNL A   1      39.753  27.197  29.527  1.00  0.00     0.010 A 
ATOM     32  C   UNL A   1      40.330  28.929  27.935  1.00  0.00     0.010 A 
ATOM     33  C   UNL A   1      40.037  28.545  29.234  1.00  0.00    -0.014 A 
BRANCH  33  34
ATOM     34  C   UNL A   1      40.140  29.538  30.299  1.00  0.00     0.031 A 
ATOM     35  C   UNL A   1      38.864  30.233  30.606  1.00  0.00     0.074 A 
ATOM     36  C   UNL A   1      41.233  29.738  31.067  1.00  0.00     0.049 A 
ATOM     37  N   UNL A   1      38.534  31.425  30.241  1.00  0.00    -0.248 NA
ATOM     38  C   UNL A   1      37.762  29.476  31.217  1.00  0.00     0.031 C 
ATOM     39  C   UNL A   1      42.489  28.983  31.110  1.00  0.00     0.029 A 
ATOM     40  N   UNL A   1      41.408  30.652  32.060  1.00  0.00    -0.354 N 
ATOM     41  C   UNL A   1      37.285  31.670  30.796  1.00  0.00     0.074 A 
ATOM     42  C   UNL A   1      36.779  30.381  31.190  1.00  0.00     0.031 C 
ATOM     43  C   UNL A   1      43.185  29.316  32.221  1.00  0.00     0.029 A 
ATOM     44  C   UNL A   1      42.520  30.432  32.868  1.00  0.00     0.049 A 
ATOM     45  H   UNL A   1      40.796  31.410  32.196  1.00  0.00     0.167 HD
ATOM     46  C   UNL A   1      36.898  32.942  31.093  1.00  0.00     0.034 A 
ATOM     47  C   UNL A   1      42.871  31.118  33.990  1.00  0.00     0.034 A 
ATOM     48  C   UNL A   1      37.769  33.907  30.448  1.00  0.00     0.049 A 
ATOM     49  C   UNL A   1      42.237  32.458  33.870  1.00  0.00     0.074 A 
ATOM     50  C   UNL A   1      38.145  34.138  29.136  1.00  0.00     0.029 A 
ATOM     51  N   UNL A   1      38.729  34.534  31.215  1.00  0.00    -0.354 N 
ATOM     52  N   UNL A   1      42.569  33.317  32.942  1.00  0.00    -0.248 NA
ATOM     53  C   UNL A   1      40.903  32.634  34.425  1.00  0.00     0.031 C 
ATOM     54  C   UNL A   1      39.549  34.389  29.203  1.00  0.00     0.029 A 
ATOM     55  C   UNL A   1      39.924  34.409  30.548  1.00  0.00     0.049 A 
ATOM     56  H   UNL A   1      38.585  34.987  32.077  1.00  0.00     0.167 HD
ATOM     57  C   UNL A   1      41.366  33.836  32.488  1.00  0.00     0.074 A 
ATOM     58  C   UNL A   1      40.383  33.446  33.499  1.00  0.00     0.031 C 
ATOM     59  C   UNL A   1      41.214  34.283  31.204  1.00  0.00     0.034 A 
BRANCH  46  60
ATOM     60  C   UNL A   1      35.995  33.331  32.243  1.00  0.00     0.023 A 
ATOM     61  C   UNL A   1      34.874  34.122  31.929  1.00  0.00     0.031 A 
ATOM     62  C   UNL A   1      36.315  33.239  33.615  1.00  0.00     0.131 A 
ATOM     63  C   UNL A   1      34.219  34.875  32.917  1.00  0.00     0.055 A 
ATOM     64  C   UNL A   1      35.613  33.933  34.606  1.00  0.00     0.041 A 
ATOM     65  F   UNL A   1      37.367  32.555  34.074  1.00  0.00    -0.206 F 
ATOM     66  C   UNL A   1      34.583  34.788  34.256  1.00  0.00     0.022 A 
BRANCH  63  67
ATOM     67  S   UNL A   1      33.017  36.117  32.382  1.00  0.00     0.124 S 
ATOM     68  O   UNL A   1      31.775  35.353  32.419  1.00  0.00    -0.237 OA
ATOM     69  O   UNL A   1      33.173  37.145  33.405  1.00  0.00    -0.237 OA
ATOM     70  O   UNL A   1      33.485  36.488  31.049  1.00  0.00    -0.744 OA
ENDBRANCH  63  67
ENDBRANCH  46  60
BRANCH  47  71
ATOM     71  C   UNL A   1      43.427  30.561  35.258  1.00  0.00     0.023 A 
ATOM     72  C   UNL A   1      43.167  29.245  35.702  1.00  0.00     0.031 A 
ATOM     73  C   UNL A   1      44.448  31.263  35.940  1.00  0.00     0.131 A 
ATOM     74  C   UNL A   1      43.914  28.688  36.771  1.00  0.00     0.055 A 
ATOM     75  C   UNL A   1      45.181  30.710  36.992  1.00  0.00     0.041 A 
ATOM     76  F   UNL A   1      44.831  32.488  35.549  1.00  0.00    -0.206 F 
ATOM     77  C   UNL A   1      44.925  29.414  37.406  1.00  0.00     0.022 A 
BRANCH  74  78
ATOM     78  S   UNL A   1      43.649  26.962  37.300  1.00  0.00     0.124 S 
ATOM     79  O   UNL A   1      44.329  26.208  36.254  1.00  0.00    -0.237 OA
ATOM     80  O   UNL A   1      44.263  26.938  38.622  1.00  0.00    -0.237 OA
ATOM     81  O   UNL A   1      42.191  26.826  37.304  1.00  0.00    -0.744 OA
ENDBRANCH  74  78
ENDBRANCH  47  71
BRANCH  59  82
ATOM     82  C   UNL A   1      42.446  34.470  30.334  1.00  0.00     0.023 A 
ATOM     83  C   UNL A   1      43.274  35.618  30.320  1.00  0.00     0.031 A 
ATOM     84  C   UNL A   1      42.869  33.360  29.579  1.00  0.00     0.131 A 
ATOM     85  C   UNL A   1      44.464  35.622  29.563  1.00  0.00     0.055 A 
ATOM     86  C   UNL A   1      44.058  33.358  28.852  1.00  0.00     0.041 A 
ATOM     87  F   UNL A   1      42.142  32.230  29.563  1.00  0.00    -0.206 F 
ATOM     88  C   UNL A   1      44.860  34.493  28.838  1.00  0.00     0.022 A 
BRANCH  85  89
ATOM     89  S   UNL A   1      45.523  37.105  29.488  1.00  0.00     0.124 S 
ATOM     90  O   UNL A   1      45.561  37.427  28.066  1.00  0.00    -0.237 OA
ATOM     91  O   UNL A   1      44.805  38.052  30.338  1.00  0.00    -0.237 OA
ATOM     92  O   UNL A   1      46.798  36.642  30.040  1.00  0.00    -0.744 OA
ENDBRANCH  85  89
ENDBRANCH  59  82
ENDBRANCH  33  34
ENDBRANCH  25  28
ENDBRANCH  23  24
ENDBRANCH   1  23
TORSDOF 17
ENDMDL
MODEL 3
REMARK VINA RESULT:     -12.2      2.627      7.383
REMARK SMILES Cc1cc(C(=O)N[C@H](CC(C)C)C(=O)NCCCNC(=O)c2ccc(-c3c4nc(c(-c5cc(S(=O)(=O)[O-])ccc5F)c5ccc([nH]5)c(-c5cc(S(=O)(=O)[O-])ccc5F)c5nc(c(-c6cc(S(=O)(=O)[O-])ccc6F)c6ccc3[nH]6)C=C5)C=C4)cc2)sc1Br
REMARK SMILES IDX 17 1 16 2 15 3 13 4 14 5 8 7 7 8 5 9 6 10 4 12 1 13 2 14
REMARK SMILES IDX 3 15 86 16 85 17 87 18 9 19 10 20 11 21 12 22 18 23 19 24
REMARK SMILES IDX 20 25 21 27 22 28 23 29 84 30 24 31 83 32 25 33 26 34 27 35
REMARK SMILES IDX 77 36 28 37 82 38 76 39 78 40 29 41 81 42 75 43 74 44 30 46
REMARK SMILES IDX 62 47 42 48 61 49 43 50 46 51 60 52 79 53 44 54 45 55 59 57
REMARK SMILES IDX 80 58 47 59 31 60 32 61 40 62 33 63 39 64 41 65 38 66 34 67
REMARK SMILES IDX 35 68 36 69 37 70 63 71 64 72 72 73 65 74 71 75 73 76 70 77
REMARK SMILES IDX 66 78 67 79 68 80 69 81 48 82 49 83 57 84 50 85 56 86 58 87
REMARK SMILES IDX 55 88 51 89 52 90 53 91 54 92
REMARK H PARENT 15 6 7 11 19 26 78 45 46 56
REMARK Flexibility Score: inf
ROOT
ATOM      1  C   UNL A   1      32.628  29.562  26.624  1.00  0.00     0.042 C 
ENDROOT
BRANCH   1   2
ATOM      2  C   UNL A   1      33.220  29.188  25.262  1.00  0.00     0.117 C 
BRANCH   2   3
ATOM      3  N   UNL A   1      32.282  29.386  24.171  1.00  0.00    -0.354 N 
ATOM      4  C   UNL A   1      31.681  28.501  23.326  1.00  0.00     0.242 C 
ATOM      5  O   UNL A   1      30.918  28.957  22.469  1.00  0.00    -0.273 OA
ATOM      6  H   UNL A   1      32.037  30.327  24.012  1.00  0.00     0.163 HD
BRANCH   4   7
ATOM      7  C   UNL A   1      31.916  26.974  23.412  1.00  0.00     0.171 C 
BRANCH   7   8
ATOM      8  N   UNL A   1      32.289  26.462  22.108  1.00  0.00    -0.340 N 
ATOM      9  C   UNL A   1      32.849  25.281  21.689  1.00  0.00     0.262 C 
ATOM     10  O   UNL A   1      33.118  25.263  20.483  1.00  0.00    -0.268 OA
ATOM     11  H   UNL A   1      32.099  27.089  21.372  1.00  0.00     0.164 HD
BRANCH   9  12
ATOM     12  C   UNL A   1      33.052  24.134  22.566  1.00  0.00     0.093 A 
ATOM     13  C   UNL A   1      32.338  20.758  24.092  1.00  0.00     0.046 C 
ATOM     14  C   UNL A   1      32.952  22.073  23.738  1.00  0.00    -0.025 A 
ATOM     15  C   UNL A   1      32.275  23.041  22.910  1.00  0.00     0.030 A 
ATOM     16  C   UNL A   1      34.178  22.568  24.119  1.00  0.00     0.074 A 
ATOM     17  S   UNL A   1      34.547  24.067  23.428  1.00  0.00    -0.123 S 
ATOM     18  Br  UNL A   1      35.376  21.713  25.287  1.00  0.00    -0.039 Br
ENDBRANCH   9  12
ENDBRANCH   7   8
BRANCH   7  19
ATOM     19  C   UNL A   1      30.835  26.204  24.197  1.00  0.00     0.038 C 
BRANCH  19  20
ATOM     20  C   UNL A   1      31.080  25.707  25.635  1.00  0.00    -0.015 C 
ATOM     21  C   UNL A   1      30.614  24.279  25.903  1.00  0.00     0.007 C 
ATOM     22  C   UNL A   1      32.582  25.810  25.937  1.00  0.00     0.007 C 
ENDBRANCH  19  20
ENDBRANCH   7  19
ENDBRANCH   4   7
ENDBRANCH   2   3
ENDBRANCH   1   2
BRANCH   1  23
ATOM     23  C   UNL A   1      33.675  30.046  27.602  1.00  0.00     0.118 C 
BRANCH  23  24
ATOM     24  N   UNL A   1      34.188  31.369  27.248  1.00  0.00    -0.352 N 
ATOM     25  C   UNL A   1      35.354  31.967  27.681  1.00  0.00     0.251 C 
ATOM     26  H   UNL A   1      33.636  31.897  26.626  1.00  0.00     0.163 HD
ATOM     27  O   UNL A   1      35.487  33.187  27.617  1.00  0.00    -0.269 OA
BRANCH  25  28
ATOM     28  C   UNL A   1      36.409  31.110  28.247  1.00  0.00     0.039 A 
ATOM     29  C   UNL A   1      36.500  29.758  27.923  1.00  0.00     0.014 A 
ATOM     30  C   UNL A   1      37.373  31.718  29.046  1.00  0.00     0.014 A 
ATOM     31  C   UNL A   1      37.632  29.055  28.330  1.00  0.00     0.010 A 
ATOM     32  C   UNL A   1      38.568  31.082  29.269  1.00  0.00     0.010 A 
ATOM     33  C   UNL A   1      38.686  29.735  28.969  1.00  0.00    -0.014 A 
BRANCH  33  34
ATOM     34  C   UNL A   1      39.960  29.069  29.225  1.00  0.00     0.031 A 
ATOM     35  C   UNL A   1      40.267  28.878  30.665  1.00  0.00     0.074 A 
ATOM     36  C   UNL A   1      40.752  28.523  28.276  1.00  0.00     0.049 A 
ATOM     37  N   UNL A   1      41.088  29.577  31.372  1.00  0.00    -0.248 NA
ATOM     38  C   UNL A   1      39.452  27.945  31.457  1.00  0.00     0.031 C 
ATOM     39  C   UNL A   1      40.506  28.362  26.840  1.00  0.00     0.029 A 
ATOM     40  N   UNL A   1      41.954  27.906  28.435  1.00  0.00    -0.354 N 
ATOM     41  C   UNL A   1      41.091  29.009  32.639  1.00  0.00     0.074 A 
ATOM     42  C   UNL A   1      39.925  28.167  32.687  1.00  0.00     0.031 C 
ATOM     43  C   UNL A   1      41.403  27.498  26.315  1.00  0.00     0.029 A 
ATOM     44  C   UNL A   1      42.395  27.187  27.328  1.00  0.00     0.049 A 
ATOM     45  H   UNL A   1      42.473  27.963  29.270  1.00  0.00     0.167 HD
ATOM     46  C   UNL A   1      42.191  29.106  33.438  1.00  0.00     0.034 A 
ATOM     47  C   UNL A   1      43.497  26.392  27.248  1.00  0.00     0.034 A 
ATOM     48  C   UNL A   1      43.103  30.116  32.934  1.00  0.00     0.049 A 
ATOM     49  C   UNL A   1      44.434  26.879  28.294  1.00  0.00     0.074 A 
ATOM     50  C   UNL A   1      42.980  31.462  32.637  1.00  0.00     0.029 A 
ATOM     51  N   UNL A   1      44.229  29.697  32.255  1.00  0.00    -0.354 N 
ATOM     52  N   UNL A   1      44.983  28.065  28.257  1.00  0.00    -0.248 NA
ATOM     53  C   UNL A   1      44.349  26.280  29.618  1.00  0.00     0.031 C 
ATOM     54  C   UNL A   1      43.678  31.624  31.402  1.00  0.00     0.029 A 
ATOM     55  C   UNL A   1      44.276  30.404  31.076  1.00  0.00     0.049 A 
ATOM     56  H   UNL A   1      44.877  29.020  32.557  1.00  0.00     0.167 HD
ATOM     57  C   UNL A   1      44.898  28.540  29.557  1.00  0.00     0.074 A 
ATOM     58  C   UNL A   1      44.582  27.362  30.367  1.00  0.00     0.031 C 
ATOM     59  C   UNL A   1      44.805  29.877  29.830  1.00  0.00     0.034 A 
BRANCH  46  60
ATOM     60  C   UNL A   1      42.636  28.062  34.438  1.00  0.00     0.023 A 
ATOM     61  C   UNL A   1      43.595  27.130  33.997  1.00  0.00     0.031 A 
ATOM     62  C   UNL A   1      41.983  27.743  35.649  1.00  0.00     0.131 A 
ATOM     63  C   UNL A   1      43.770  25.904  34.659  1.00  0.00     0.055 A 
ATOM     64  C   UNL A   1      42.216  26.552  36.346  1.00  0.00     0.041 A 
ATOM     65  F   UNL A   1      41.026  28.507  36.183  1.00  0.00    -0.206 F 
ATOM     66  C   UNL A   1      43.085  25.606  35.831  1.00  0.00     0.022 A 
BRANCH  63  67
ATOM     67  S   UNL A   1      44.764  24.632  33.841  1.00  0.00     0.124 S 
ATOM     68  O   UNL A   1      45.969  25.380  33.501  1.00  0.00    -0.237 OA
ATOM     69  O   UNL A   1      44.901  23.635  34.897  1.00  0.00    -0.237 OA
ATOM     70  O   UNL A   1      43.934  24.231  32.708  1.00  0.00    -0.744 OA
ENDBRANCH  63  67
ENDBRANCH  46  60
BRANCH  47  71
ATOM     71  C   UNL A   1      43.618  25.075  26.556  1.00  0.00     0.023 A 
ATOM     72  C   UNL A   1      42.817  23.957  26.882  1.00  0.00     0.031 A 
ATOM     73  C   UNL A   1      44.379  24.977  25.369  1.00  0.00     0.131 A 
ATOM     74  C   UNL A   1      42.798  22.819  26.035  1.00  0.00     0.055 A 
ATOM     75  C   UNL A   1      44.356  23.855  24.539  1.00  0.00     0.041 A 
ATOM     76  F   UNL A   1      45.111  26.011  24.924  1.00  0.00    -0.206 F 
ATOM     77  C   UNL A   1      43.555  22.772  24.863  1.00  0.00     0.022 A 
BRANCH  74  78
ATOM     78  S   UNL A   1      41.705  21.402  26.396  1.00  0.00     0.124 S 
ATOM     79  O   UNL A   1      40.383  21.950  26.118  1.00  0.00    -0.237 OA
ATOM     80  O   UNL A   1      42.194  20.384  25.474  1.00  0.00    -0.237 OA
ATOM     81  O   UNL A   1      41.966  21.120  27.809  1.00  0.00    -0.744 OA
ENDBRANCH  74  78
ENDBRANCH  47  71
BRANCH  59  82
ATOM     82  C   UNL A   1      45.070  30.880  28.720  1.00  0.00     0.023 A 
ATOM     83  C   UNL A   1      46.335  31.421  28.389  1.00  0.00     0.031 A 
ATOM     84  C   UNL A   1      43.991  31.195  27.873  1.00  0.00     0.131 A 
ATOM     85  C   UNL A   1      46.475  32.246  27.253  1.00  0.00     0.055 A 
ATOM     86  C   UNL A   1      44.138  31.989  26.737  1.00  0.00     0.041 A 
ATOM     87  F   UNL A   1      42.766  30.698  28.116  1.00  0.00    -0.206 F 
ATOM     88  C   UNL A   1      45.382  32.523  26.425  1.00  0.00     0.022 A 
BRANCH  85  89
ATOM     89  S   UNL A   1      48.083  32.997  26.832  1.00  0.00     0.124 S 
ATOM     90  O   UNL A   1      47.758  33.919  25.750  1.00  0.00    -0.237 OA
ATOM     91  O   UNL A   1      48.488  33.611  28.094  1.00  0.00    -0.237 OA
ATOM     92  O   UNL A   1      48.899  31.850  26.428  1.00  0.00    -0.744 OA
ENDBRANCH  85  89
ENDBRANCH  59  82
ENDBRANCH  33  34
ENDBRANCH  25  28
ENDBRANCH  23  24
ENDBRANCH   1  23
TORSDOF 17
ENDMDL
