MODEL 1
REMARK VINA RESULT:     -12.1      0.000      0.000
REMARK SMILES CC(=O)Nc1sc(-c2ccccc2)cc1C(=O)NCCCNC(=O)c1ccc(-c2c3nc(c(-c4cc(S(=O)(=O)[O-])ccc4F)c4ccc([nH]4)c(-c4cc(S(=O)(=O)[O-])ccc4F)c4nc(c(-c5cc(S(=O)(=O)[O-])ccc5F)c5ccc2[nH]5)C=C4)C=C3)cc1
REMARK SMILES IDX 21 1 20 2 19 3 18 4 16 5 17 6 15 8 5 9 6 10 7 11 14 12 4 13
REMARK SMILES IDX 1 14 2 15 3 16 8 18 9 19 13 20 10 21 12 22 11 23 22 24 23 25
REMARK SMILES IDX 24 27 25 28 26 29 87 30 27 31 86 32 28 33 29 34 30 35 80 36
REMARK SMILES IDX 31 37 85 38 79 39 81 40 32 41 84 42 78 43 77 44 33 46 65 47
REMARK SMILES IDX 45 48 64 49 46 50 49 51 63 52 82 53 47 54 48 55 62 57 83 58
REMARK SMILES IDX 50 59 34 60 35 61 43 62 36 63 42 64 44 65 41 66 37 67 38 68
REMARK SMILES IDX 39 69 40 70 66 71 67 72 75 73 68 74 74 75 76 76 73 77 69 78
REMARK SMILES IDX 70 79 71 80 72 81 51 82 52 83 60 84 53 85 59 86 61 87 58 88
REMARK SMILES IDX 54 89 55 90 56 91 57 92
REMARK H PARENT 18 7 4 17 22 26 81 45 49 56
REMARK Flexibility Score: inf
ROOT
ATOM      1  C   UNL A   1      32.802  30.252  26.242  1.00  0.00     0.118 C 
ENDROOT
BRANCH   1   2
ATOM      2  C   UNL A   1      31.595  29.409  26.633  1.00  0.00     0.042 C 
BRANCH   2   3
ATOM      3  C   UNL A   1      31.929  28.051  27.226  1.00  0.00     0.118 C 
BRANCH   3   4
ATOM      4  N   UNL A   1      30.843  27.091  27.148  1.00  0.00    -0.352 N 
ATOM      5  C   UNL A   1      30.673  25.989  26.351  1.00  0.00     0.254 C 
ATOM      6  O   UNL A   1      29.632  25.344  26.499  1.00  0.00    -0.269 OA
ATOM      7  H   UNL A   1      30.102  27.261  27.773  1.00  0.00     0.163 HD
BRANCH   5   8
ATOM      8  C   UNL A   1      31.633  25.624  25.313  1.00  0.00     0.075 A 
ATOM      9  C   UNL A   1      31.609  25.836  23.947  1.00  0.00     0.108 A 
ATOM     10  S   UNL A   1      32.801  24.935  23.123  1.00  0.00    -0.117 S 
ATOM     11  C   UNL A   1      33.633  24.582  24.572  1.00  0.00     0.037 A 
ATOM     12  C   UNL A   1      32.864  24.941  25.660  1.00  0.00     0.036 A 
BRANCH   9  13
ATOM     13  N   UNL A   1      30.856  26.553  23.051  1.00  0.00    -0.317 N 
ATOM     14  C   UNL A   1      32.273  28.596  22.938  1.00  0.00     0.114 C 
ATOM     15  C   UNL A   1      31.015  27.837  22.625  1.00  0.00     0.221 C 
ATOM     16  O   UNL A   1      30.147  28.329  21.900  1.00  0.00    -0.275 OA
ATOM     17  H   UNL A   1      30.092  26.070  22.661  1.00  0.00     0.170 HD
ENDBRANCH   9  13
BRANCH  11  18
ATOM     18  C   UNL A   1      34.957  23.952  24.538  1.00  0.00    -0.008 A 
ATOM     19  C   UNL A   1      35.809  24.025  25.650  1.00  0.00     0.009 A 
ATOM     20  C   UNL A   1      35.378  23.230  23.414  1.00  0.00     0.009 A 
ATOM     21  C   UNL A   1      37.057  23.399  25.638  1.00  0.00     0.001 A 
ATOM     22  C   UNL A   1      36.629  22.605  23.400  1.00  0.00     0.001 A 
ATOM     23  C   UNL A   1      37.466  22.691  24.511  1.00  0.00     0.000 A 
ENDBRANCH  11  18
ENDBRANCH   5   8
ENDBRANCH   3   4
ENDBRANCH   2   3
ENDBRANCH   1   2
BRANCH   1  24
ATOM     24  N   UNL A   1      32.788  31.606  26.783  1.00  0.00    -0.352 N 
ATOM     25  C   UNL A   1      33.691  32.270  27.585  1.00  0.00     0.251 C 
ATOM     26  H   UNL A   1      31.998  32.137  26.532  1.00  0.00     0.163 HD
ATOM     27  O   UNL A   1      33.420  33.399  27.987  1.00  0.00    -0.269 OA
BRANCH  25  28
ATOM     28  C   UNL A   1      34.951  31.618  28.007  1.00  0.00     0.039 A 
ATOM     29  C   UNL A   1      36.119  32.382  28.083  1.00  0.00     0.014 A 
ATOM     30  C   UNL A   1      34.986  30.268  28.351  1.00  0.00     0.014 A 
ATOM     31  C   UNL A   1      37.284  31.819  28.615  1.00  0.00     0.010 A 
ATOM     32  C   UNL A   1      36.103  29.748  28.994  1.00  0.00     0.010 A 
ATOM     33  C   UNL A   1      37.268  30.517  29.137  1.00  0.00    -0.014 A 
BRANCH  33  34
ATOM     34  C   UNL A   1      38.448  29.925  29.829  1.00  0.00     0.031 A 
ATOM     35  C   UNL A   1      38.815  30.388  31.215  1.00  0.00     0.074 A 
ATOM     36  C   UNL A   1      39.245  29.055  29.176  1.00  0.00     0.049 A 
ATOM     37  N   UNL A   1      39.883  30.124  31.924  1.00  0.00    -0.248 NA
ATOM     38  C   UNL A   1      37.879  31.317  31.866  1.00  0.00     0.031 C 
ATOM     39  C   UNL A   1      39.033  28.570  27.808  1.00  0.00     0.029 A 
ATOM     40  N   UNL A   1      40.403  28.430  29.568  1.00  0.00    -0.354 N 
ATOM     41  C   UNL A   1      39.763  30.884  33.084  1.00  0.00     0.074 A 
ATOM     42  C   UNL A   1      38.557  31.671  32.945  1.00  0.00     0.031 C 
ATOM     43  C   UNL A   1      40.009  27.704  27.490  1.00  0.00     0.029 A 
ATOM     44  C   UNL A   1      40.944  27.608  28.605  1.00  0.00     0.049 A 
ATOM     45  H   UNL A   1      40.810  28.559  30.455  1.00  0.00     0.167 HD
ATOM     46  C   UNL A   1      40.568  30.902  34.177  1.00  0.00     0.034 A 
ATOM     47  C   UNL A   1      42.072  26.870  28.614  1.00  0.00     0.034 A 
ATOM     48  C   UNL A   1      41.742  30.077  34.316  1.00  0.00     0.049 A 
ATOM     49  C   UNL A   1      42.940  26.886  29.846  1.00  0.00     0.074 A 
ATOM     50  C   UNL A   1      42.589  29.956  35.403  1.00  0.00     0.029 A 
ATOM     51  N   UNL A   1      42.235  29.227  33.333  1.00  0.00    -0.354 N 
ATOM     52  N   UNL A   1      42.789  27.574  30.954  1.00  0.00    -0.248 NA
ATOM     53  C   UNL A   1      44.126  26.019  29.832  1.00  0.00     0.031 C 
ATOM     54  C   UNL A   1      43.623  29.078  35.059  1.00  0.00     0.029 A 
ATOM     55  C   UNL A   1      43.386  28.596  33.782  1.00  0.00     0.049 A 
ATOM     56  H   UNL A   1      41.828  29.092  32.447  1.00  0.00     0.167 HD
ATOM     57  C   UNL A   1      43.845  27.198  31.781  1.00  0.00     0.074 A 
ATOM     58  C   UNL A   1      44.615  26.215  31.047  1.00  0.00     0.031 C 
ATOM     59  C   UNL A   1      44.145  27.622  33.034  1.00  0.00     0.034 A 
BRANCH  46  60
ATOM     60  C   UNL A   1      40.203  31.857  35.291  1.00  0.00     0.023 A 
ATOM     61  C   UNL A   1      39.338  31.479  36.334  1.00  0.00     0.031 A 
ATOM     62  C   UNL A   1      40.685  33.177  35.286  1.00  0.00     0.131 A 
ATOM     63  C   UNL A   1      38.905  32.433  37.267  1.00  0.00     0.055 A 
ATOM     64  C   UNL A   1      40.323  34.098  36.273  1.00  0.00     0.041 A 
ATOM     65  F   UNL A   1      41.498  33.606  34.308  1.00  0.00    -0.206 F 
ATOM     66  C   UNL A   1      39.411  33.733  37.260  1.00  0.00     0.022 A 
BRANCH  63  67
ATOM     67  S   UNL A   1      37.543  31.991  38.380  1.00  0.00     0.124 S 
ATOM     68  O   UNL A   1      38.184  32.106  39.688  1.00  0.00    -0.237 OA
ATOM     69  O   UNL A   1      36.539  33.001  38.068  1.00  0.00    -0.237 OA
ATOM     70  O   UNL A   1      37.202  30.627  37.979  1.00  0.00    -0.744 OA
ENDBRANCH  63  67
ENDBRANCH  46  60
BRANCH  47  71
ATOM     71  C   UNL A   1      42.450  26.053  27.425  1.00  0.00     0.023 A 
ATOM     72  C   UNL A   1      42.079  24.702  27.332  1.00  0.00     0.031 A 
ATOM     73  C   UNL A   1      43.210  26.602  26.378  1.00  0.00     0.131 A 
ATOM     74  C   UNL A   1      42.504  23.933  26.238  1.00  0.00     0.055 A 
ATOM     75  C   UNL A   1      43.590  25.845  25.267  1.00  0.00     0.041 A 
ATOM     76  F   UNL A   1      43.584  27.891  26.413  1.00  0.00    -0.206 F 
ATOM     77  C   UNL A   1      43.247  24.499  25.199  1.00  0.00     0.022 A 
BRANCH  74  78
ATOM     78  S   UNL A   1      42.133  22.157  26.227  1.00  0.00     0.124 S 
ATOM     79  O   UNL A   1      42.595  21.749  27.549  1.00  0.00    -0.237 OA
ATOM     80  O   UNL A   1      40.689  22.151  26.021  1.00  0.00    -0.237 OA
ATOM     81  O   UNL A   1      42.923  21.652  25.107  1.00  0.00    -0.744 OA
ENDBRANCH  74  78
ENDBRANCH  47  71
BRANCH  59  82
ATOM     82  C   UNL A   1      45.335  26.982  33.705  1.00  0.00     0.023 A 
ATOM     83  C   UNL A   1      45.203  25.842  34.517  1.00  0.00     0.031 A 
ATOM     84  C   UNL A   1      46.618  27.528  33.531  1.00  0.00     0.131 A 
ATOM     85  C   UNL A   1      46.329  25.315  35.165  1.00  0.00     0.055 A 
ATOM     86  C   UNL A   1      47.744  26.965  34.133  1.00  0.00     0.041 A 
ATOM     87  F   UNL A   1      46.800  28.618  32.768  1.00  0.00    -0.206 F 
ATOM     88  C   UNL A   1      47.601  25.859  34.966  1.00  0.00     0.022 A 
BRANCH  85  89
ATOM     89  S   UNL A   1      46.099  23.952  36.341  1.00  0.00     0.124 S 
ATOM     90  O   UNL A   1      45.380  22.973  35.532  1.00  0.00    -0.237 OA
ATOM     91  O   UNL A   1      47.473  23.604  36.689  1.00  0.00    -0.237 OA
ATOM     92  O   UNL A   1      45.321  24.556  37.420  1.00  0.00    -0.744 OA
ENDBRANCH  85  89
ENDBRANCH  59  82
ENDBRANCH  33  34
ENDBRANCH  25  28
ENDBRANCH   1  24
TORSDOF 15
ENDMDL
MODEL 2
REMARK VINA RESULT:     -12.1      1.919      2.458
REMARK SMILES CC(=O)Nc1sc(-c2ccccc2)cc1C(=O)NCCCNC(=O)c1ccc(-c2c3nc(c(-c4cc(S(=O)(=O)[O-])ccc4F)c4ccc([nH]4)c(-c4cc(S(=O)(=O)[O-])ccc4F)c4nc(c(-c5cc(S(=O)(=O)[O-])ccc5F)c5ccc2[nH]5)C=C4)C=C3)cc1
REMARK SMILES IDX 21 1 20 2 19 3 18 4 16 5 17 6 15 8 5 9 6 10 7 11 14 12 4 13
REMARK SMILES IDX 1 14 2 15 3 16 8 18 9 19 13 20 10 21 12 22 11 23 22 24 23 25
REMARK SMILES IDX 24 27 25 28 26 29 87 30 27 31 86 32 28 33 29 34 30 35 80 36
REMARK SMILES IDX 31 37 85 38 79 39 81 40 32 41 84 42 78 43 77 44 33 46 65 47
REMARK SMILES IDX 45 48 64 49 46 50 49 51 63 52 82 53 47 54 48 55 62 57 83 58
REMARK SMILES IDX 50 59 34 60 35 61 43 62 36 63 42 64 44 65 41 66 37 67 38 68
REMARK SMILES IDX 39 69 40 70 66 71 67 72 75 73 68 74 74 75 76 76 73 77 69 78
REMARK SMILES IDX 70 79 71 80 72 81 51 82 52 83 60 84 53 85 59 86 61 87 58 88
REMARK SMILES IDX 54 89 55 90 56 91 57 92
REMARK H PARENT 18 7 4 17 22 26 81 45 49 56
REMARK Flexibility Score: inf
ROOT
ATOM      1  C   UNL A   1      33.779  29.309  26.138  1.00  0.00     0.118 C 
ENDROOT
BRANCH   1   2
ATOM      2  C   UNL A   1      32.992  28.212  26.843  1.00  0.00     0.042 C 
BRANCH   2   3
ATOM      3  C   UNL A   1      31.756  27.733  26.100  1.00  0.00     0.118 C 
BRANCH   3   4
ATOM      4  N   UNL A   1      31.156  26.538  26.664  1.00  0.00    -0.352 N 
ATOM      5  C   UNL A   1      31.465  25.213  26.498  1.00  0.00     0.254 C 
ATOM      6  O   UNL A   1      30.775  24.394  27.110  1.00  0.00    -0.269 OA
ATOM      7  H   UNL A   1      30.398  26.707  27.268  1.00  0.00     0.163 HD
BRANCH   5   8
ATOM      8  C   UNL A   1      32.511  24.766  25.583  1.00  0.00     0.075 A 
ATOM      9  C   UNL A   1      32.579  24.806  24.202  1.00  0.00     0.108 A 
ATOM     10  S   UNL A   1      33.861  23.866  23.582  1.00  0.00    -0.117 S 
ATOM     11  C   UNL A   1      34.598  23.735  25.118  1.00  0.00     0.037 A 
ATOM     12  C   UNL A   1      33.738  24.190  26.096  1.00  0.00     0.036 A 
BRANCH   9  13
ATOM     13  N   UNL A   1      31.867  25.371  23.174  1.00  0.00    -0.317 N 
ATOM     14  C   UNL A   1      33.319  27.352  22.770  1.00  0.00     0.114 C 
ATOM     15  C   UNL A   1      32.060  26.563  22.544  1.00  0.00     0.221 C 
ATOM     16  O   UNL A   1      31.224  26.935  21.718  1.00  0.00    -0.275 OA
ATOM     17  H   UNL A   1      31.109  24.837  22.844  1.00  0.00     0.170 HD
ENDBRANCH   9  13
BRANCH  11  18
ATOM     18  C   UNL A   1      35.944  23.168  25.253  1.00  0.00    -0.008 A 
ATOM     19  C   UNL A   1      36.940  23.860  25.958  1.00  0.00     0.009 A 
ATOM     20  C   UNL A   1      36.247  21.908  24.722  1.00  0.00     0.009 A 
ATOM     21  C   UNL A   1      38.214  23.312  26.120  1.00  0.00     0.001 A 
ATOM     22  C   UNL A   1      37.524  21.360  24.883  1.00  0.00     0.001 A 
ATOM     23  C   UNL A   1      38.505  22.062  25.581  1.00  0.00     0.000 A 
ENDBRANCH  11  18
ENDBRANCH   5   8
ENDBRANCH   3   4
ENDBRANCH   2   3
ENDBRANCH   1   2
BRANCH   1  24
ATOM     24  N   UNL A   1      33.819  30.576  26.857  1.00  0.00    -0.352 N 
ATOM     25  C   UNL A   1      34.720  31.068  27.776  1.00  0.00     0.251 C 
ATOM     26  H   UNL A   1      33.073  31.185  26.651  1.00  0.00     0.163 HD
ATOM     27  O   UNL A   1      34.496  32.148  28.317  1.00  0.00    -0.269 OA
BRANCH  25  28
ATOM     28  C   UNL A   1      35.919  30.288  28.153  1.00  0.00     0.039 A 
ATOM     29  C   UNL A   1      37.042  30.322  27.320  1.00  0.00     0.014 A 
ATOM     30  C   UNL A   1      35.956  29.543  29.330  1.00  0.00     0.014 A 
ATOM     31  C   UNL A   1      38.230  29.707  27.731  1.00  0.00     0.010 A 
ATOM     32  C   UNL A   1      37.167  29.043  29.794  1.00  0.00     0.010 A 
ATOM     33  C   UNL A   1      38.323  29.120  29.002  1.00  0.00    -0.014 A 
BRANCH  33  34
ATOM     34  C   UNL A   1      39.603  28.570  29.530  1.00  0.00     0.031 A 
ATOM     35  C   UNL A   1      40.322  29.283  30.646  1.00  0.00     0.074 A 
ATOM     36  C   UNL A   1      40.169  27.497  28.941  1.00  0.00     0.049 A 
ATOM     37  N   UNL A   1      41.515  29.068  31.137  1.00  0.00    -0.248 NA
ATOM     38  C   UNL A   1      39.623  30.428  31.250  1.00  0.00     0.031 C 
ATOM     39  C   UNL A   1      39.604  26.751  27.812  1.00  0.00     0.029 A 
ATOM     40  N   UNL A   1      41.354  26.852  29.198  1.00  0.00    -0.354 N 
ATOM     41  C   UNL A   1      41.723  30.071  32.079  1.00  0.00     0.074 A 
ATOM     42  C   UNL A   1      40.562  30.934  32.033  1.00  0.00     0.031 C 
ATOM     43  C   UNL A   1      40.426  25.736  27.498  1.00  0.00     0.029 A 
ATOM     44  C   UNL A   1      41.599  25.786  28.363  1.00  0.00     0.049 A 
ATOM     45  H   UNL A   1      41.971  27.128  29.914  1.00  0.00     0.167 HD
ATOM     46  C   UNL A   1      42.771  30.242  32.926  1.00  0.00     0.034 A 
ATOM     47  C   UNL A   1      42.654  24.951  28.293  1.00  0.00     0.034 A 
ATOM     48  C   UNL A   1      43.898  29.345  32.988  1.00  0.00     0.049 A 
ATOM     49  C   UNL A   1      43.797  25.142  29.257  1.00  0.00     0.074 A 
ATOM     50  C   UNL A   1      44.978  29.374  33.852  1.00  0.00     0.029 A 
ATOM     51  N   UNL A   1      44.091  28.252  32.151  1.00  0.00    -0.354 N 
ATOM     52  N   UNL A   1      43.958  26.069  30.173  1.00  0.00    -0.248 NA
ATOM     53  C   UNL A   1      44.896  24.170  29.182  1.00  0.00     0.031 C 
ATOM     54  C   UNL A   1      45.849  28.336  33.504  1.00  0.00     0.029 A 
ATOM     55  C   UNL A   1      45.281  27.614  32.466  1.00  0.00     0.049 A 
ATOM     56  H   UNL A   1      43.472  27.971  31.438  1.00  0.00     0.167 HD
ATOM     57  C   UNL A   1      45.162  25.771  30.805  1.00  0.00     0.074 A 
ATOM     58  C   UNL A   1      45.677  24.574  30.173  1.00  0.00     0.031 C 
ATOM     59  C   UNL A   1      45.782  26.424  31.820  1.00  0.00     0.034 A 
BRANCH  46  60
ATOM     60  C   UNL A   1      42.740  31.450  33.832  1.00  0.00     0.023 A 
ATOM     61  C   UNL A   1      42.259  31.372  35.152  1.00  0.00     0.031 A 
ATOM     62  C   UNL A   1      43.149  32.709  33.359  1.00  0.00     0.131 A 
ATOM     63  C   UNL A   1      42.106  32.540  35.914  1.00  0.00     0.055 A 
ATOM     64  C   UNL A   1      43.083  33.855  34.156  1.00  0.00     0.041 A 
ATOM     65  F   UNL A   1      43.600  32.855  32.103  1.00  0.00    -0.206 F 
ATOM     66  C   UNL A   1      42.540  33.777  35.435  1.00  0.00     0.022 A 
BRANCH  63  67
ATOM     67  S   UNL A   1      41.178  32.438  37.468  1.00  0.00     0.124 S 
ATOM     68  O   UNL A   1      39.919  31.845  37.020  1.00  0.00    -0.237 OA
ATOM     69  O   UNL A   1      42.029  31.588  38.291  1.00  0.00    -0.237 OA
ATOM     70  O   UNL A   1      41.081  33.831  37.901  1.00  0.00    -0.744 OA
ENDBRANCH  63  67
ENDBRANCH  46  60
BRANCH  47  71
ATOM     71  C   UNL A   1      42.686  23.857  27.280  1.00  0.00     0.023 A 
ATOM     72  C   UNL A   1      42.088  22.614  27.541  1.00  0.00     0.031 A 
ATOM     73  C   UNL A   1      43.338  24.029  26.046  1.00  0.00     0.131 A 
ATOM     74  C   UNL A   1      42.191  21.576  26.603  1.00  0.00     0.055 A 
ATOM     75  C   UNL A   1      43.395  23.008  25.094  1.00  0.00     0.041 A 
ATOM     76  F   UNL A   1      43.919  25.200  25.741  1.00  0.00    -0.206 F 
ATOM     77  C   UNL A   1      42.830  21.769  25.376  1.00  0.00     0.022 A 
BRANCH  74  78
ATOM     78  S   UNL A   1      41.537  19.941  27.040  1.00  0.00     0.124 S 
ATOM     79  O   UNL A   1      42.752  19.225  27.411  1.00  0.00    -0.237 OA
ATOM     80  O   UNL A   1      40.622  20.263  28.130  1.00  0.00    -0.237 OA
ATOM     81  O   UNL A   1      40.898  19.489  25.806  1.00  0.00    -0.744 OA
ENDBRANCH  74  78
ENDBRANCH  47  71
BRANCH  59  82
ATOM     82  C   UNL A   1      47.065  25.823  32.339  1.00  0.00     0.023 A 
ATOM     83  C   UNL A   1      47.081  24.951  33.441  1.00  0.00     0.031 A 
ATOM     84  C   UNL A   1      48.288  26.132  31.719  1.00  0.00     0.131 A 
ATOM     85  C   UNL A   1      48.303  24.460  33.922  1.00  0.00     0.055 A 
ATOM     86  C   UNL A   1      49.495  25.595  32.167  1.00  0.00     0.041 A 
ATOM     87  F   UNL A   1      48.328  26.961  30.663  1.00  0.00    -0.206 F 
ATOM     88  C   UNL A   1      49.509  24.763  33.283  1.00  0.00     0.022 A 
BRANCH  85  89
ATOM     89  S   UNL A   1      48.309  23.480  35.449  1.00  0.00     0.124 S 
ATOM     90  O   UNL A   1      49.698  23.601  35.882  1.00  0.00    -0.237 OA
ATOM     91  O   UNL A   1      47.323  24.175  36.270  1.00  0.00    -0.237 OA
ATOM     92  O   UNL A   1      47.914  22.145  35.003  1.00  0.00    -0.744 OA
ENDBRANCH  85  89
ENDBRANCH  59  82
ENDBRANCH  33  34
ENDBRANCH  25  28
ENDBRANCH   1  24
TORSDOF 15
ENDMDL
MODEL 3
REMARK VINA RESULT:     -12.1      2.263      8.108
REMARK SMILES CC(=O)Nc1sc(-c2ccccc2)cc1C(=O)NCCCNC(=O)c1ccc(-c2c3nc(c(-c4cc(S(=O)(=O)[O-])ccc4F)c4ccc([nH]4)c(-c4cc(S(=O)(=O)[O-])ccc4F)c4nc(c(-c5cc(S(=O)(=O)[O-])ccc5F)c5ccc2[nH]5)C=C4)C=C3)cc1
REMARK SMILES IDX 21 1 20 2 19 3 18 4 16 5 17 6 15 8 5 9 6 10 7 11 14 12 4 13
REMARK SMILES IDX 1 14 2 15 3 16 8 18 9 19 13 20 10 21 12 22 11 23 22 24 23 25
REMARK SMILES IDX 24 27 25 28 26 29 87 30 27 31 86 32 28 33 29 34 30 35 80 36
REMARK SMILES IDX 31 37 85 38 79 39 81 40 32 41 84 42 78 43 77 44 33 46 65 47
REMARK SMILES IDX 45 48 64 49 46 50 49 51 63 52 82 53 47 54 48 55 62 57 83 58
REMARK SMILES IDX 50 59 34 60 35 61 43 62 36 63 42 64 44 65 41 66 37 67 38 68
REMARK SMILES IDX 39 69 40 70 66 71 67 72 75 73 68 74 74 75 76 76 73 77 69 78
REMARK SMILES IDX 70 79 71 80 72 81 51 82 52 83 60 84 53 85 59 86 61 87 58 88
REMARK SMILES IDX 54 89 55 90 56 91 57 92
REMARK H PARENT 18 7 4 17 22 26 81 45 49 56
REMARK Flexibility Score: inf
ROOT
ATOM      1  C   UNL A   1      33.163  32.001  27.239  1.00  0.00     0.118 C 
ENDROOT
BRANCH   1   2
ATOM      2  C   UNL A   1      32.038  31.114  26.720  1.00  0.00     0.042 C 
BRANCH   2   3
ATOM      3  C   UNL A   1      32.465  29.717  26.304  1.00  0.00     0.118 C 
BRANCH   3   4
ATOM      4  N   UNL A   1      31.586  28.665  26.782  1.00  0.00    -0.352 N 
ATOM      5  C   UNL A   1      31.499  27.341  26.440  1.00  0.00     0.254 C 
ATOM      6  O   UNL A   1      30.642  26.667  27.016  1.00  0.00    -0.269 OA
ATOM      7  H   UNL A   1      30.942  28.952  27.468  1.00  0.00     0.163 HD
BRANCH   5   8
ATOM      8  C   UNL A   1      32.324  26.754  25.388  1.00  0.00     0.075 A 
ATOM      9  C   UNL A   1      32.332  26.968  24.022  1.00  0.00     0.108 A 
ATOM     10  S   UNL A   1      33.253  25.804  23.181  1.00  0.00    -0.117 S 
ATOM     11  C   UNL A   1      33.996  25.255  24.618  1.00  0.00     0.037 A 
ATOM     12  C   UNL A   1      33.355  25.789  25.717  1.00  0.00     0.036 A 
BRANCH   9  13
ATOM     13  N   UNL A   1      31.763  27.850  23.137  1.00  0.00    -0.317 N 
ATOM     14  C   UNL A   1      29.380  27.214  23.472  1.00  0.00     0.114 C 
ATOM     15  C   UNL A   1      30.464  27.958  22.744  1.00  0.00     0.221 C 
ATOM     16  O   UNL A   1      30.185  28.749  21.840  1.00  0.00    -0.275 OA
ATOM     17  H   UNL A   1      32.383  28.496  22.729  1.00  0.00     0.170 HD
ENDBRANCH   9  13
BRANCH  11  18
ATOM     18  C   UNL A   1      35.124  24.320  24.564  1.00  0.00    -0.008 A 
ATOM     19  C   UNL A   1      35.961  24.148  25.677  1.00  0.00     0.009 A 
ATOM     20  C   UNL A   1      35.362  23.550  23.419  1.00  0.00     0.009 A 
ATOM     21  C   UNL A   1      37.017  23.235  25.645  1.00  0.00     0.001 A 
ATOM     22  C   UNL A   1      36.421  22.637  23.385  1.00  0.00     0.001 A 
ATOM     23  C   UNL A   1      37.247  22.481  24.498  1.00  0.00     0.000 A 
ENDBRANCH  11  18
ENDBRANCH   5   8
ENDBRANCH   3   4
ENDBRANCH   2   3
ENDBRANCH   1   2
BRANCH   1  24
ATOM     24  N   UNL A   1      32.755  33.365  27.551  1.00  0.00    -0.352 N 
ATOM     25  C   UNL A   1      33.238  34.266  28.476  1.00  0.00     0.251 C 
ATOM     26  H   UNL A   1      32.006  33.701  27.007  1.00  0.00     0.163 HD
ATOM     27  O   UNL A   1      32.671  35.347  28.614  1.00  0.00    -0.269 OA
BRANCH  25  28
ATOM     28  C   UNL A   1      34.393  33.922  29.335  1.00  0.00     0.039 A 
ATOM     29  C   UNL A   1      34.184  33.140  30.475  1.00  0.00     0.014 A 
ATOM     30  C   UNL A   1      35.682  34.343  29.014  1.00  0.00     0.014 A 
ATOM     31  C   UNL A   1      35.279  32.688  31.218  1.00  0.00     0.010 A 
ATOM     32  C   UNL A   1      36.773  33.791  29.676  1.00  0.00     0.010 A 
ATOM     33  C   UNL A   1      36.588  32.954  30.786  1.00  0.00    -0.014 A 
BRANCH  33  34
ATOM     34  C   UNL A   1      37.781  32.383  31.472  1.00  0.00     0.031 A 
ATOM     35  C   UNL A   1      38.551  31.260  30.828  1.00  0.00     0.074 A 
ATOM     36  C   UNL A   1      38.107  32.800  32.713  1.00  0.00     0.049 A 
ATOM     37  N   UNL A   1      39.510  30.520  31.322  1.00  0.00    -0.248 NA
ATOM     38  C   UNL A   1      38.147  30.885  29.465  1.00  0.00     0.031 C 
ATOM     39  C   UNL A   1      37.405  33.840  33.472  1.00  0.00     0.029 A 
ATOM     40  N   UNL A   1      39.105  32.392  33.563  1.00  0.00    -0.354 N 
ATOM     41  C   UNL A   1      39.796  29.570  30.345  1.00  0.00     0.074 A 
ATOM     42  C   UNL A   1      38.857  29.786  29.266  1.00  0.00     0.031 C 
ATOM     43  C   UNL A   1      38.014  34.007  34.658  1.00  0.00     0.029 A 
ATOM     44  C   UNL A   1      39.113  33.056  34.770  1.00  0.00     0.049 A 
ATOM     45  H   UNL A   1      39.755  31.689  33.332  1.00  0.00     0.167 HD
ATOM     46  C   UNL A   1      40.770  28.624  30.335  1.00  0.00     0.034 A 
ATOM     47  C   UNL A   1      39.907  32.907  35.847  1.00  0.00     0.034 A 
ATOM     48  C   UNL A   1      41.725  28.454  31.402  1.00  0.00     0.049 A 
ATOM     49  C   UNL A   1      40.998  31.867  35.808  1.00  0.00     0.074 A 
ATOM     50  C   UNL A   1      42.798  27.583  31.469  1.00  0.00     0.029 A 
ATOM     51  N   UNL A   1      41.725  29.174  32.591  1.00  0.00    -0.354 N 
ATOM     52  N   UNL A   1      41.285  31.007  34.858  1.00  0.00    -0.248 NA
ATOM     53  C   UNL A   1      41.877  31.784  36.982  1.00  0.00     0.031 C 
ATOM     54  C   UNL A   1      43.411  27.735  32.717  1.00  0.00     0.029 A 
ATOM     55  C   UNL A   1      42.765  28.750  33.404  1.00  0.00     0.049 A 
ATOM     56  H   UNL A   1      41.080  29.881  32.822  1.00  0.00     0.167 HD
ATOM     57  C   UNL A   1      42.398  30.302  35.309  1.00  0.00     0.074 A 
ATOM     58  C   UNL A   1      42.735  30.846  36.608  1.00  0.00     0.031 C 
ATOM     59  C   UNL A   1      43.083  29.301  34.701  1.00  0.00     0.034 A 
BRANCH  46  60
ATOM     60  C   UNL A   1      40.829  27.702  29.139  1.00  0.00     0.023 A 
ATOM     61  C   UNL A   1      41.778  27.879  28.116  1.00  0.00     0.031 A 
ATOM     62  C   UNL A   1      39.894  26.663  28.992  1.00  0.00     0.131 A 
ATOM     63  C   UNL A   1      41.709  27.099  26.952  1.00  0.00     0.055 A 
ATOM     64  C   UNL A   1      39.890  25.828  27.872  1.00  0.00     0.041 A 
ATOM     65  F   UNL A   1      38.950  26.454  29.923  1.00  0.00    -0.206 F 
ATOM     66  C   UNL A   1      40.788  26.056  26.834  1.00  0.00     0.022 A 
BRANCH  63  67
ATOM     67  S   UNL A   1      42.728  27.580  25.532  1.00  0.00     0.124 S 
ATOM     68  O   UNL A   1      44.018  27.838  26.170  1.00  0.00    -0.237 OA
ATOM     69  O   UNL A   1      42.661  26.400  24.679  1.00  0.00    -0.237 OA
ATOM     70  O   UNL A   1      42.051  28.766  25.011  1.00  0.00    -0.744 OA
ENDBRANCH  63  67
ENDBRANCH  46  60
BRANCH  47  71
ATOM     71  C   UNL A   1      39.709  33.758  37.056  1.00  0.00     0.023 A 
ATOM     72  C   UNL A   1      39.021  33.268  38.178  1.00  0.00     0.031 A 
ATOM     73  C   UNL A   1      40.179  35.082  37.097  1.00  0.00     0.131 A 
ATOM     74  C   UNL A   1      38.785  34.108  39.277  1.00  0.00     0.055 A 
ATOM     75  C   UNL A   1      39.985  35.899  38.213  1.00  0.00     0.041 A 
ATOM     76  F   UNL A   1      40.851  35.598  36.055  1.00  0.00    -0.206 F 
ATOM     77  C   UNL A   1      39.273  35.417  39.306  1.00  0.00     0.022 A 
BRANCH  74  78
ATOM     78  S   UNL A   1      37.764  33.488  40.642  1.00  0.00     0.124 S 
ATOM     79  O   UNL A   1      37.556  34.697  41.431  1.00  0.00    -0.237 OA
ATOM     80  O   UNL A   1      36.596  32.971  39.936  1.00  0.00    -0.237 OA
ATOM     81  O   UNL A   1      38.611  32.474  41.265  1.00  0.00    -0.744 OA
ENDBRANCH  74  78
ENDBRANCH  47  71
BRANCH  59  82
ATOM     82  C   UNL A   1      44.296  28.767  35.420  1.00  0.00     0.023 A 
ATOM     83  C   UNL A   1      44.193  27.772  36.408  1.00  0.00     0.031 A 
ATOM     84  C   UNL A   1      45.573  29.267  35.112  1.00  0.00     0.131 A 
ATOM     85  C   UNL A   1      45.342  27.346  37.090  1.00  0.00     0.055 A 
ATOM     86  C   UNL A   1      46.720  28.797  35.754  1.00  0.00     0.041 A 
ATOM     87  F   UNL A   1      45.727  30.218  34.178  1.00  0.00    -0.206 F 
ATOM     88  C   UNL A   1      46.607  27.840  36.758  1.00  0.00     0.022 A 
BRANCH  85  89
ATOM     89  S   UNL A   1      45.155  26.192  38.477  1.00  0.00     0.124 S 
ATOM     90  O   UNL A   1      45.216  24.898  37.804  1.00  0.00    -0.237 OA
ATOM     91  O   UNL A   1      46.299  26.526  39.319  1.00  0.00    -0.237 OA
ATOM     92  O   UNL A   1      43.851  26.537  39.039  1.00  0.00    -0.744 OA
ENDBRANCH  85  89
ENDBRANCH  59  82
ENDBRANCH  33  34
ENDBRANCH  25  28
ENDBRANCH   1  24
TORSDOF 15
ENDMDL
