MODEL 1
REMARK VINA RESULT:     -13.0      0.000      0.000
REMARK SMILES O=C(NCCCNC(=O)c1cc(F)c(F)cc1NS(=O)(=O)c1ccc2c(c1)CCC2)c1ccc(-c2c3nc(c(-c4cc(S(=O)(=O)[O-])ccc4F)c4ccc([nH]4)c(-c4cc(S(=O)(=O)[O-])ccc4F)c4nc(c(-c5cc(S(=O)(=O)[O-])ccc5F)c5ccc2[nH]5)C=C4)C=C3)cc1
REMARK SMILES IDX 5 1 4 2 3 3 1 4 2 5 31 7 32 8 93 9 33 10 92 11 34 12 35 13
REMARK SMILES IDX 36 14 86 15 37 16 91 17 85 18 87 19 38 20 90 21 84 22 83 23
REMARK SMILES IDX 39 25 71 26 51 27 70 28 52 29 55 30 69 31 88 32 53 33 54 34
REMARK SMILES IDX 68 36 89 37 56 38 40 39 41 40 49 41 42 42 48 43 50 44 47 45
REMARK SMILES IDX 43 46 44 47 45 48 46 49 72 50 73 51 81 52 74 53 80 54 82 55
REMARK SMILES IDX 79 56 75 57 76 58 77 59 78 60 57 61 58 62 66 63 59 64 65 65
REMARK SMILES IDX 67 66 64 67 60 68 61 69 62 70 63 71 6 72 7 73 8 74 9 76
REMARK SMILES IDX 10 77 11 78 17 79 12 80 16 81 13 82 14 83 15 84 18 85 19 87
REMARK SMILES IDX 20 88 21 89 22 90 23 91 27 92 24 93 26 94 25 95 28 96 30 97
REMARK SMILES IDX 29 98
REMARK H PARENT 3 6 87 24 55 35 7 75 18 86
REMARK Flexibility Score: inf
ROOT
ATOM      1  C   UNL A   1      32.076  28.402  26.310  1.00  0.00     0.042 C 
ENDROOT
BRANCH   1   2
ATOM      2  C   UNL A   1      32.920  29.516  25.710  1.00  0.00     0.118 C 
BRANCH   2   3
ATOM      3  N   UNL A   1      32.568  30.838  26.218  1.00  0.00    -0.352 N 
ATOM      4  O   UNL A   1      32.617  32.652  27.545  1.00  0.00    -0.269 OA
ATOM      5  C   UNL A   1      33.184  31.634  27.157  1.00  0.00     0.251 C 
ATOM      6  H   UNL A   1      31.753  31.225  25.824  1.00  0.00     0.163 HD
BRANCH   5   7
ATOM      7  C   UNL A   1      34.503  31.260  27.717  1.00  0.00     0.039 A 
ATOM      8  C   UNL A   1      34.772  29.946  28.095  1.00  0.00     0.014 A 
ATOM      9  C   UNL A   1      35.491  32.239  27.862  1.00  0.00     0.014 A 
ATOM     10  C   UNL A   1      35.931  29.656  28.806  1.00  0.00     0.010 A 
ATOM     11  C   UNL A   1      36.709  31.916  28.471  1.00  0.00     0.010 A 
ATOM     12  C   UNL A   1      36.921  30.633  28.999  1.00  0.00    -0.014 A 
BRANCH  12  13
ATOM     13  C   UNL A   1      38.158  30.273  29.746  1.00  0.00     0.031 A 
ATOM     14  C   UNL A   1      38.376  30.742  31.161  1.00  0.00     0.074 A 
ATOM     15  C   UNL A   1      39.062  29.463  29.158  1.00  0.00     0.049 A 
ATOM     16  N   UNL A   1      39.369  30.481  31.974  1.00  0.00    -0.248 NA
ATOM     17  C   UNL A   1      37.354  31.631  31.734  1.00  0.00     0.031 C 
ATOM     18  C   UNL A   1      38.963  28.946  27.791  1.00  0.00     0.029 A 
ATOM     19  N   UNL A   1      40.220  28.907  29.637  1.00  0.00    -0.354 N 
ATOM     20  C   UNL A   1      39.106  31.188  33.144  1.00  0.00     0.074 A 
ATOM     21  C   UNL A   1      37.878  31.921  32.917  1.00  0.00     0.031 C 
ATOM     22  C   UNL A   1      39.976  28.097  27.565  1.00  0.00     0.029 A 
ATOM     23  C   UNL A   1      40.841  28.069  28.738  1.00  0.00     0.049 A 
ATOM     24  H   UNL A   1      40.575  29.089  30.537  1.00  0.00     0.167 HD
ATOM     25  C   UNL A   1      39.816  31.216  34.300  1.00  0.00     0.034 A 
ATOM     26  C   UNL A   1      41.985  27.365  28.838  1.00  0.00     0.034 A 
ATOM     27  C   UNL A   1      41.035  30.469  34.514  1.00  0.00     0.049 A 
ATOM     28  C   UNL A   1      42.769  27.437  30.120  1.00  0.00     0.074 A 
ATOM     29  C   UNL A   1      41.815  30.398  35.655  1.00  0.00     0.029 A 
ATOM     30  N   UNL A   1      41.658  29.668  33.564  1.00  0.00    -0.354 N 
ATOM     31  N   UNL A   1      42.495  28.097  31.222  1.00  0.00    -0.248 NA
ATOM     32  C   UNL A   1      44.015  26.663  30.174  1.00  0.00     0.031 C 
ATOM     33  C   UNL A   1      42.944  29.620  35.373  1.00  0.00     0.029 A 
ATOM     34  C   UNL A   1      42.827  29.128  34.084  1.00  0.00     0.049 A 
ATOM     35  H   UNL A   1      41.319  29.506  32.653  1.00  0.00     0.167 HD
ATOM     36  C   UNL A   1      43.520  27.788  32.111  1.00  0.00     0.074 A 
ATOM     37  C   UNL A   1      44.405  26.871  31.422  1.00  0.00     0.031 C 
ATOM     38  C   UNL A   1      43.709  28.221  33.385  1.00  0.00     0.034 A 
BRANCH  25  39
ATOM     39  C   UNL A   1      39.320  32.123  35.405  1.00  0.00     0.023 A 
ATOM     40  C   UNL A   1      39.764  33.451  35.538  1.00  0.00     0.031 A 
ATOM     41  C   UNL A   1      38.404  31.641  36.359  1.00  0.00     0.131 A 
ATOM     42  C   UNL A   1      39.354  34.221  36.638  1.00  0.00     0.055 A 
ATOM     43  C   UNL A   1      37.934  32.441  37.402  1.00  0.00     0.041 A 
ATOM     44  F   UNL A   1      37.959  30.376  36.299  1.00  0.00    -0.206 F 
ATOM     45  C   UNL A   1      38.421  33.735  37.555  1.00  0.00     0.022 A 
BRANCH  42  46
ATOM     46  S   UNL A   1      40.173  35.813  36.936  1.00  0.00     0.124 S 
ATOM     47  O   UNL A   1      39.653  36.626  35.838  1.00  0.00    -0.237 OA
ATOM     48  O   UNL A   1      39.702  36.167  38.269  1.00  0.00    -0.237 OA
ATOM     49  O   UNL A   1      41.596  35.491  36.841  1.00  0.00    -0.744 OA
ENDBRANCH  42  46
ENDBRANCH  25  39
BRANCH  26  50
ATOM     50  C   UNL A   1      42.468  26.547  27.688  1.00  0.00     0.023 A 
ATOM     51  C   UNL A   1      42.070  25.211  27.531  1.00  0.00     0.031 A 
ATOM     52  C   UNL A   1      43.367  27.082  26.747  1.00  0.00     0.131 A 
ATOM     53  C   UNL A   1      42.606  24.441  26.487  1.00  0.00     0.055 A 
ATOM     54  C   UNL A   1      43.849  26.330  25.676  1.00  0.00     0.041 A 
ATOM     55  F   UNL A   1      43.777  28.357  26.849  1.00  0.00    -0.206 F 
ATOM     56  C   UNL A   1      43.479  24.996  25.549  1.00  0.00     0.022 A 
BRANCH  53  57
ATOM     57  S   UNL A   1      42.211  22.671  26.423  1.00  0.00     0.124 S 
ATOM     58  O   UNL A   1      43.158  22.123  27.388  1.00  0.00    -0.237 OA
ATOM     59  O   UNL A   1      40.808  22.660  26.823  1.00  0.00    -0.237 OA
ATOM     60  O   UNL A   1      42.464  22.317  25.029  1.00  0.00    -0.744 OA
ENDBRANCH  53  57
ENDBRANCH  26  50
BRANCH  38  61
ATOM     61  C   UNL A   1      44.895  27.653  34.127  1.00  0.00     0.023 A 
ATOM     62  C   UNL A   1      44.817  26.447  34.847  1.00  0.00     0.031 A 
ATOM     63  C   UNL A   1      46.115  28.352  34.143  1.00  0.00     0.131 A 
ATOM     64  C   UNL A   1      45.912  26.016  35.611  1.00  0.00     0.055 A 
ATOM     65  C   UNL A   1      47.224  27.882  34.849  1.00  0.00     0.041 A 
ATOM     66  F   UNL A   1      46.249  29.511  33.477  1.00  0.00    -0.206 F 
ATOM     67  C   UNL A   1      47.121  26.717  35.603  1.00  0.00     0.022 A 
BRANCH  64  68
ATOM     68  S   UNL A   1      45.697  24.592  36.714  1.00  0.00     0.124 S 
ATOM     69  O   UNL A   1      47.075  24.287  37.087  1.00  0.00    -0.237 OA
ATOM     70  O   UNL A   1      44.856  25.142  37.771  1.00  0.00    -0.237 OA
ATOM     71  O   UNL A   1      45.050  23.594  35.864  1.00  0.00    -0.744 OA
ENDBRANCH  64  68
ENDBRANCH  38  61
ENDBRANCH  12  13
ENDBRANCH   5   7
ENDBRANCH   2   3
ENDBRANCH   1   2
BRANCH   1  72
ATOM     72  C   UNL A   1      32.761  27.043  26.300  1.00  0.00     0.118 C 
BRANCH  72  73
ATOM     73  N   UNL A   1      31.833  25.949  26.587  1.00  0.00    -0.352 N 
ATOM     74  C   UNL A   1      31.898  24.635  26.192  1.00  0.00     0.253 C 
ATOM     75  H   UNL A   1      31.053  26.189  27.139  1.00  0.00     0.163 HD
ATOM     76  O   UNL A   1      30.931  23.890  26.298  1.00  0.00    -0.269 OA
BRANCH  74  77
ATOM     77  C   UNL A   1      33.142  24.139  25.582  1.00  0.00     0.067 A 
ATOM     78  C   UNL A   1      34.170  23.723  26.445  1.00  0.00     0.058 A 
ATOM     79  C   UNL A   1      33.344  24.223  24.194  1.00  0.00     0.065 A 
ATOM     80  C   UNL A   1      35.441  23.516  25.934  1.00  0.00     0.159 A 
ATOM     81  C   UNL A   1      34.657  24.107  23.731  1.00  0.00     0.070 A 
ATOM     82  F   UNL A   1      36.436  23.175  26.762  1.00  0.00    -0.204 F 
ATOM     83  C   UNL A   1      35.689  23.738  24.590  1.00  0.00     0.160 A 
ATOM     84  F   UNL A   1      36.931  23.609  24.104  1.00  0.00    -0.204 F 
BRANCH  79  85
ATOM     85  N   UNL A   1      32.278  24.535  23.261  1.00  0.00    -0.279 N 
ATOM     86  H   UNL A   1      31.547  23.896  23.103  1.00  0.00     0.180 HD
BRANCH  85  87
ATOM     87  S   UNL A   1      32.318  26.046  22.434  1.00  0.00     0.261 S 
ATOM     88  O   UNL A   1      33.438  26.798  22.962  1.00  0.00    -0.201 OA
ATOM     89  O   UNL A   1      32.226  25.757  21.020  1.00  0.00    -0.201 OA
BRANCH  87  90
ATOM     90  C   UNL A   1      30.831  26.896  22.909  1.00  0.00     0.088 A 
ATOM     91  C   UNL A   1      29.847  26.181  23.623  1.00  0.00     0.022 A 
ATOM     92  C   UNL A   1      30.613  28.212  22.480  1.00  0.00     0.026 A 
ATOM     93  C   UNL A   1      28.578  26.731  23.804  1.00  0.00     0.005 A 
ATOM     94  C   UNL A   1      29.352  28.749  22.689  1.00  0.00    -0.043 A 
ATOM     95  C   UNL A   1      28.341  28.002  23.309  1.00  0.00    -0.045 A 
ATOM     96  C   UNL A   1      28.822  30.070  22.219  1.00  0.00     0.036 C 
ATOM     97  C   UNL A   1      27.031  28.724  23.244  1.00  0.00     0.036 C 
ATOM     98  C   UNL A   1      27.499  30.162  22.998  1.00  0.00     0.010 C 
ENDBRANCH  87  90
ENDBRANCH  85  87
ENDBRANCH  79  85
ENDBRANCH  74  77
ENDBRANCH  72  73
ENDBRANCH   1  72
TORSDOF 16
ENDMDL
MODEL 2
REMARK VINA RESULT:     -13.0      4.742      9.683
REMARK SMILES O=C(NCCCNC(=O)c1cc(F)c(F)cc1NS(=O)(=O)c1ccc2c(c1)CCC2)c1ccc(-c2c3nc(c(-c4cc(S(=O)(=O)[O-])ccc4F)c4ccc([nH]4)c(-c4cc(S(=O)(=O)[O-])ccc4F)c4nc(c(-c5cc(S(=O)(=O)[O-])ccc5F)c5ccc2[nH]5)C=C4)C=C3)cc1
REMARK SMILES IDX 5 1 4 2 3 3 1 4 2 5 31 7 32 8 93 9 33 10 92 11 34 12 35 13
REMARK SMILES IDX 36 14 86 15 37 16 91 17 85 18 87 19 38 20 90 21 84 22 83 23
REMARK SMILES IDX 39 25 71 26 51 27 70 28 52 29 55 30 69 31 88 32 53 33 54 34
REMARK SMILES IDX 68 36 89 37 56 38 40 39 41 40 49 41 42 42 48 43 50 44 47 45
REMARK SMILES IDX 43 46 44 47 45 48 46 49 72 50 73 51 81 52 74 53 80 54 82 55
REMARK SMILES IDX 79 56 75 57 76 58 77 59 78 60 57 61 58 62 66 63 59 64 65 65
REMARK SMILES IDX 67 66 64 67 60 68 61 69 62 70 63 71 6 72 7 73 8 74 9 76
REMARK SMILES IDX 10 77 11 78 17 79 12 80 16 81 13 82 14 83 15 84 18 85 19 87
REMARK SMILES IDX 20 88 21 89 22 90 23 91 27 92 24 93 26 94 25 95 28 96 30 97
REMARK SMILES IDX 29 98
REMARK H PARENT 3 6 87 24 55 35 7 75 18 86
REMARK Flexibility Score: inf
ROOT
ATOM      1  C   UNL A   1      35.584  20.644  24.984  1.00  0.00     0.042 C 
ENDROOT
BRANCH   1   2
ATOM      2  C   UNL A   1      36.933  21.259  25.327  1.00  0.00     0.118 C 
BRANCH   2   3
ATOM      3  N   UNL A   1      37.988  20.265  25.496  1.00  0.00    -0.352 N 
ATOM      4  O   UNL A   1      40.052  19.440  25.835  1.00  0.00    -0.269 OA
ATOM      5  C   UNL A   1      39.290  20.400  25.921  1.00  0.00     0.251 C 
ATOM      6  H   UNL A   1      37.725  19.344  25.268  1.00  0.00     0.163 HD
BRANCH   5   7
ATOM      7  C   UNL A   1      39.782  21.693  26.451  1.00  0.00     0.039 A 
ATOM      8  C   UNL A   1      39.307  22.900  25.945  1.00  0.00     0.014 A 
ATOM      9  C   UNL A   1      40.733  21.697  27.477  1.00  0.00     0.014 A 
ATOM     10  C   UNL A   1      39.926  24.092  26.305  1.00  0.00     0.010 A 
ATOM     11  C   UNL A   1      41.270  22.909  27.925  1.00  0.00     0.010 A 
ATOM     12  C   UNL A   1      40.912  24.116  27.305  1.00  0.00    -0.014 A 
BRANCH  12  13
ATOM     13  C   UNL A   1      41.533  25.418  27.677  1.00  0.00     0.031 A 
ATOM     14  C   UNL A   1      42.920  25.779  27.212  1.00  0.00     0.074 A 
ATOM     15  C   UNL A   1      40.810  26.306  28.390  1.00  0.00     0.049 A 
ATOM     16  N   UNL A   1      43.592  26.887  27.400  1.00  0.00    -0.248 NA
ATOM     17  C   UNL A   1      43.653  24.760  26.448  1.00  0.00     0.031 C 
ATOM     18  C   UNL A   1      39.456  26.070  28.900  1.00  0.00     0.029 A 
ATOM     19  N   UNL A   1      41.090  27.589  28.784  1.00  0.00    -0.354 N 
ATOM     20  C   UNL A   1      44.833  26.692  26.800  1.00  0.00     0.074 A 
ATOM     21  C   UNL A   1      44.832  25.342  26.277  1.00  0.00     0.031 C 
ATOM     22  C   UNL A   1      39.000  27.191  29.476  1.00  0.00     0.029 A 
ATOM     23  C   UNL A   1      40.052  28.199  29.451  1.00  0.00     0.049 A 
ATOM     24  H   UNL A   1      41.951  28.031  28.607  1.00  0.00     0.167 HD
ATOM     25  C   UNL A   1      45.870  27.560  26.689  1.00  0.00     0.034 A 
ATOM     26  C   UNL A   1      39.958  29.428  29.995  1.00  0.00     0.034 A 
ATOM     27  C   UNL A   1      45.851  28.909  27.208  1.00  0.00     0.049 A 
ATOM     28  C   UNL A   1      41.134  30.360  29.883  1.00  0.00     0.074 A 
ATOM     29  C   UNL A   1      46.832  29.882  27.122  1.00  0.00     0.029 A 
ATOM     30  N   UNL A   1      44.799  29.476  27.919  1.00  0.00    -0.354 N 
ATOM     31  N   UNL A   1      42.292  30.164  29.296  1.00  0.00    -0.248 NA
ATOM     32  C   UNL A   1      40.987  31.682  30.503  1.00  0.00     0.031 C 
ATOM     33  C   UNL A   1      46.408  31.005  27.842  1.00  0.00     0.029 A 
ATOM     34  C   UNL A   1      45.123  30.770  28.303  1.00  0.00     0.049 A 
ATOM     35  H   UNL A   1      43.947  29.025  28.121  1.00  0.00     0.167 HD
ATOM     36  C   UNL A   1      42.998  31.354  29.448  1.00  0.00     0.074 A 
ATOM     37  C   UNL A   1      42.128  32.263  30.165  1.00  0.00     0.031 C 
ATOM     38  C   UNL A   1      44.251  31.667  29.028  1.00  0.00     0.034 A 
BRANCH  25  39
ATOM     39  C   UNL A   1      47.134  27.059  26.024  1.00  0.00     0.023 A 
ATOM     40  C   UNL A   1      48.114  26.337  26.728  1.00  0.00     0.031 A 
ATOM     41  C   UNL A   1      47.373  27.332  24.663  1.00  0.00     0.131 A 
ATOM     42  C   UNL A   1      49.315  25.982  26.094  1.00  0.00     0.055 A 
ATOM     43  C   UNL A   1      48.533  26.900  24.016  1.00  0.00     0.041 A 
ATOM     44  F   UNL A   1      46.487  28.035  23.942  1.00  0.00    -0.206 F 
ATOM     45  C   UNL A   1      49.520  26.235  24.736  1.00  0.00     0.022 A 
BRANCH  42  46
ATOM     46  S   UNL A   1      50.668  25.320  27.106  1.00  0.00     0.124 S 
ATOM     47  O   UNL A   1      49.990  24.264  27.855  1.00  0.00    -0.237 OA
ATOM     48  O   UNL A   1      51.626  24.875  26.102  1.00  0.00    -0.237 OA
ATOM     49  O   UNL A   1      51.091  26.467  27.908  1.00  0.00    -0.744 OA
ENDBRANCH  42  46
ENDBRANCH  25  39
BRANCH  26  50
ATOM     50  C   UNL A   1      38.715  29.843  30.707  1.00  0.00     0.023 A 
ATOM     51  C   UNL A   1      37.741  30.627  30.070  1.00  0.00     0.031 A 
ATOM     52  C   UNL A   1      38.502  29.489  32.052  1.00  0.00     0.131 A 
ATOM     53  C   UNL A   1      36.622  31.071  30.791  1.00  0.00     0.055 A 
ATOM     54  C   UNL A   1      37.358  29.883  32.746  1.00  0.00     0.041 A 
ATOM     55  F   UNL A   1      39.400  28.738  32.708  1.00  0.00    -0.206 F 
ATOM     56  C   UNL A   1      36.415  30.692  32.119  1.00  0.00     0.022 A 
BRANCH  53  57
ATOM     57  S   UNL A   1      35.480  32.232  29.991  1.00  0.00     0.124 S 
ATOM     58  O   UNL A   1      36.340  33.389  29.771  1.00  0.00    -0.237 OA
ATOM     59  O   UNL A   1      35.084  31.491  28.798  1.00  0.00    -0.237 OA
ATOM     60  O   UNL A   1      34.428  32.414  30.988  1.00  0.00    -0.744 OA
ENDBRANCH  53  57
ENDBRANCH  26  50
BRANCH  38  61
ATOM     61  C   UNL A   1      44.724  33.077  29.290  1.00  0.00     0.023 A 
ATOM     62  C   UNL A   1      44.564  34.106  28.344  1.00  0.00     0.031 A 
ATOM     63  C   UNL A   1      45.380  33.387  30.495  1.00  0.00     0.131 A 
ATOM     64  C   UNL A   1      45.117  35.372  28.587  1.00  0.00     0.055 A 
ATOM     65  C   UNL A   1      45.867  34.667  30.760  1.00  0.00     0.041 A 
ATOM     66  F   UNL A   1      45.565  32.445  31.434  1.00  0.00    -0.206 F 
ATOM     67  C   UNL A   1      45.753  35.664  29.796  1.00  0.00     0.022 A 
BRANCH  64  68
ATOM     68  S   UNL A   1      45.103  36.599  27.250  1.00  0.00     0.124 S 
ATOM     69  O   UNL A   1      43.680  36.696  26.942  1.00  0.00    -0.237 OA
ATOM     70  O   UNL A   1      45.697  37.766  27.894  1.00  0.00    -0.237 OA
ATOM     71  O   UNL A   1      45.922  35.982  26.209  1.00  0.00    -0.744 OA
ENDBRANCH  64  68
ENDBRANCH  38  61
ENDBRANCH  12  13
ENDBRANCH   5   7
ENDBRANCH   2   3
ENDBRANCH   1   2
BRANCH   1  72
ATOM     72  C   UNL A   1      34.475  21.669  24.798  1.00  0.00     0.118 C 
BRANCH  72  73
ATOM     73  N   UNL A   1      33.638  21.380  23.634  1.00  0.00    -0.352 N 
ATOM     74  C   UNL A   1      32.352  21.786  23.371  1.00  0.00     0.253 C 
ATOM     75  H   UNL A   1      34.054  20.814  22.943  1.00  0.00     0.163 HD
ATOM     76  O   UNL A   1      31.691  21.269  22.479  1.00  0.00    -0.269 OA
BRANCH  74  77
ATOM     77  C   UNL A   1      31.751  22.826  24.222  1.00  0.00     0.067 A 
ATOM     78  C   UNL A   1      31.380  22.464  25.528  1.00  0.00     0.058 A 
ATOM     79  C   UNL A   1      31.426  24.086  23.693  1.00  0.00     0.065 A 
ATOM     80  C   UNL A   1      30.569  23.315  26.261  1.00  0.00     0.159 A 
ATOM     81  C   UNL A   1      30.527  24.871  24.418  1.00  0.00     0.070 A 
ATOM     82  F   UNL A   1      30.165  22.950  27.484  1.00  0.00    -0.204 F 
ATOM     83  C   UNL A   1      30.119  24.498  25.697  1.00  0.00     0.160 A 
ATOM     84  F   UNL A   1      29.277  25.290  26.374  1.00  0.00    -0.204 F 
BRANCH  79  85
ATOM     85  N   UNL A   1      31.891  24.539  22.396  1.00  0.00    -0.279 N 
ATOM     86  H   UNL A   1      31.336  24.415  21.593  1.00  0.00     0.180 HD
BRANCH  85  87
ATOM     87  S   UNL A   1      33.435  25.298  22.288  1.00  0.00     0.261 S 
ATOM     88  O   UNL A   1      34.436  24.258  22.416  1.00  0.00    -0.201 OA
ATOM     89  O   UNL A   1      33.405  26.153  21.123  1.00  0.00    -0.201 OA
BRANCH  87  90
ATOM     90  C   UNL A   1      33.561  26.341  23.722  1.00  0.00     0.088 A 
ATOM     91  C   UNL A   1      34.060  25.783  24.917  1.00  0.00     0.022 A 
ATOM     92  C   UNL A   1      33.069  27.652  23.675  1.00  0.00     0.026 A 
ATOM     93  C   UNL A   1      33.952  26.488  26.115  1.00  0.00     0.005 A 
ATOM     94  C   UNL A   1      32.991  28.345  24.872  1.00  0.00    -0.043 A 
ATOM     95  C   UNL A   1      33.392  27.754  26.079  1.00  0.00    -0.045 A 
ATOM     96  C   UNL A   1      32.392  29.698  25.119  1.00  0.00     0.036 C 
ATOM     97  C   UNL A   1      33.032  28.624  27.242  1.00  0.00     0.036 C 
ATOM     98  C   UNL A   1      32.865  29.984  26.555  1.00  0.00     0.010 C 
ENDBRANCH  87  90
ENDBRANCH  85  87
ENDBRANCH  79  85
ENDBRANCH  74  77
ENDBRANCH  72  73
ENDBRANCH   1  72
TORSDOF 16
ENDMDL
MODEL 3
REMARK VINA RESULT:     -12.9      2.107      3.804
REMARK SMILES O=C(NCCCNC(=O)c1cc(F)c(F)cc1NS(=O)(=O)c1ccc2c(c1)CCC2)c1ccc(-c2c3nc(c(-c4cc(S(=O)(=O)[O-])ccc4F)c4ccc([nH]4)c(-c4cc(S(=O)(=O)[O-])ccc4F)c4nc(c(-c5cc(S(=O)(=O)[O-])ccc5F)c5ccc2[nH]5)C=C4)C=C3)cc1
REMARK SMILES IDX 5 1 4 2 3 3 1 4 2 5 31 7 32 8 93 9 33 10 92 11 34 12 35 13
REMARK SMILES IDX 36 14 86 15 37 16 91 17 85 18 87 19 38 20 90 21 84 22 83 23
REMARK SMILES IDX 39 25 71 26 51 27 70 28 52 29 55 30 69 31 88 32 53 33 54 34
REMARK SMILES IDX 68 36 89 37 56 38 40 39 41 40 49 41 42 42 48 43 50 44 47 45
REMARK SMILES IDX 43 46 44 47 45 48 46 49 72 50 73 51 81 52 74 53 80 54 82 55
REMARK SMILES IDX 79 56 75 57 76 58 77 59 78 60 57 61 58 62 66 63 59 64 65 65
REMARK SMILES IDX 67 66 64 67 60 68 61 69 62 70 63 71 6 72 7 73 8 74 9 76
REMARK SMILES IDX 10 77 11 78 17 79 12 80 16 81 13 82 14 83 15 84 18 85 19 87
REMARK SMILES IDX 20 88 21 89 22 90 23 91 27 92 24 93 26 94 25 95 28 96 30 97
REMARK SMILES IDX 29 98
REMARK H PARENT 3 6 87 24 55 35 7 75 18 86
REMARK Flexibility Score: inf
ROOT
ATOM      1  C   UNL A   1      32.867  29.199  25.013  1.00  0.00     0.042 C 
ENDROOT
BRANCH   1   2
ATOM      2  C   UNL A   1      32.158  29.552  26.312  1.00  0.00     0.118 C 
BRANCH   2   3
ATOM      3  N   UNL A   1      32.017  30.990  26.514  1.00  0.00    -0.352 N 
ATOM      4  O   UNL A   1      32.413  33.033  27.365  1.00  0.00    -0.269 OA
ATOM      5  C   UNL A   1      32.814  31.885  27.191  1.00  0.00     0.251 C 
ATOM      6  H   UNL A   1      31.218  31.386  26.099  1.00  0.00     0.163 HD
BRANCH   5   7
ATOM      7  C   UNL A   1      34.130  31.470  27.729  1.00  0.00     0.039 A 
ATOM      8  C   UNL A   1      34.398  30.131  28.008  1.00  0.00     0.014 A 
ATOM      9  C   UNL A   1      35.117  32.435  27.953  1.00  0.00     0.014 A 
ATOM     10  C   UNL A   1      35.553  29.788  28.701  1.00  0.00     0.010 A 
ATOM     11  C   UNL A   1      36.331  32.067  28.543  1.00  0.00     0.010 A 
ATOM     12  C   UNL A   1      36.540  30.748  28.974  1.00  0.00    -0.014 A 
BRANCH  12  13
ATOM     13  C   UNL A   1      37.773  30.332  29.698  1.00  0.00     0.031 A 
ATOM     14  C   UNL A   1      37.994  30.715  31.140  1.00  0.00     0.074 A 
ATOM     15  C   UNL A   1      38.671  29.550  29.064  1.00  0.00     0.049 A 
ATOM     16  N   UNL A   1      38.984  30.396  31.936  1.00  0.00    -0.248 NA
ATOM     17  C   UNL A   1      36.981  31.577  31.764  1.00  0.00     0.031 C 
ATOM     18  C   UNL A   1      38.568  29.116  27.668  1.00  0.00     0.029 A 
ATOM     19  N   UNL A   1      39.823  28.955  29.509  1.00  0.00    -0.354 N 
ATOM     20  C   UNL A   1      38.726  31.035  33.146  1.00  0.00     0.074 A 
ATOM     21  C   UNL A   1      37.506  31.792  32.962  1.00  0.00     0.031 C 
ATOM     22  C   UNL A   1      39.572  28.272  27.393  1.00  0.00     0.029 A 
ATOM     23  C   UNL A   1      40.436  28.166  28.563  1.00  0.00     0.049 A 
ATOM     24  H   UNL A   1      40.178  29.081  30.419  1.00  0.00     0.167 HD
ATOM     25  C   UNL A   1      39.436  30.987  34.301  1.00  0.00     0.034 A 
ATOM     26  C   UNL A   1      41.574  27.447  28.621  1.00  0.00     0.034 A 
ATOM     27  C   UNL A   1      40.647  30.217  34.471  1.00  0.00     0.049 A 
ATOM     28  C   UNL A   1      42.357  27.435  29.905  1.00  0.00     0.074 A 
ATOM     29  C   UNL A   1      41.426  30.071  35.607  1.00  0.00     0.029 A 
ATOM     30  N   UNL A   1      41.264  29.468  33.475  1.00  0.00    -0.354 N 
ATOM     31  N   UNL A   1      42.088  28.031  31.045  1.00  0.00    -0.248 NA
ATOM     32  C   UNL A   1      43.595  26.647  29.914  1.00  0.00     0.031 C 
ATOM     33  C   UNL A   1      42.547  29.300  35.279  1.00  0.00     0.029 A 
ATOM     34  C   UNL A   1      42.427  28.887  33.963  1.00  0.00     0.049 A 
ATOM     35  H   UNL A   1      40.924  29.363  32.556  1.00  0.00     0.167 HD
ATOM     36  C   UNL A   1      43.109  27.660  31.915  1.00  0.00     0.074 A 
ATOM     37  C   UNL A   1      43.986  26.777  31.172  1.00  0.00     0.031 C 
ATOM     38  C   UNL A   1      43.301  28.015  33.211  1.00  0.00     0.034 A 
BRANCH  25  39
ATOM     39  C   UNL A   1      38.947  31.832  35.458  1.00  0.00     0.023 A 
ATOM     40  C   UNL A   1      38.386  31.262  36.614  1.00  0.00     0.031 A 
ATOM     41  C   UNL A   1      39.022  33.236  35.391  1.00  0.00     0.131 A 
ATOM     42  C   UNL A   1      37.853  32.088  37.617  1.00  0.00     0.055 A 
ATOM     43  C   UNL A   1      38.568  34.051  36.430  1.00  0.00     0.041 A 
ATOM     44  F   UNL A   1      39.528  33.841  34.305  1.00  0.00    -0.206 F 
ATOM     45  C   UNL A   1      37.965  33.479  37.545  1.00  0.00     0.022 A 
BRANCH  42  46
ATOM     46  S   UNL A   1      36.877  31.326  38.943  1.00  0.00     0.124 S 
ATOM     47  O   UNL A   1      36.683  29.972  38.429  1.00  0.00    -0.237 OA
ATOM     48  O   UNL A   1      37.760  31.448  40.097  1.00  0.00    -0.237 OA
ATOM     49  O   UNL A   1      35.666  32.143  38.993  1.00  0.00    -0.744 OA
ENDBRANCH  42  46
ENDBRANCH  25  39
BRANCH  26  50
ATOM     50  C   UNL A   1      42.050  26.694  27.425  1.00  0.00     0.023 A 
ATOM     51  C   UNL A   1      41.822  25.316  27.297  1.00  0.00     0.031 A 
ATOM     52  C   UNL A   1      42.774  27.339  26.406  1.00  0.00     0.131 A 
ATOM     53  C   UNL A   1      42.353  24.618  26.202  1.00  0.00     0.055 A 
ATOM     54  C   UNL A   1      43.248  26.653  25.288  1.00  0.00     0.041 A 
ATOM     55  F   UNL A   1      43.017  28.658  26.477  1.00  0.00    -0.206 F 
ATOM     56  C   UNL A   1      43.051  25.279  25.189  1.00  0.00     0.022 A 
BRANCH  53  57
ATOM     57  S   UNL A   1      42.196  22.811  26.165  1.00  0.00     0.124 S 
ATOM     58  O   UNL A   1      42.775  22.491  24.865  1.00  0.00    -0.237 OA
ATOM     59  O   UNL A   1      42.978  22.416  27.331  1.00  0.00    -0.237 OA
ATOM     60  O   UNL A   1      40.756  22.594  26.278  1.00  0.00    -0.744 OA
ENDBRANCH  53  57
ENDBRANCH  26  50
BRANCH  38  61
ATOM     61  C   UNL A   1      44.481  27.392  33.919  1.00  0.00     0.023 A 
ATOM     62  C   UNL A   1      44.369  26.190  34.640  1.00  0.00     0.031 A 
ATOM     63  C   UNL A   1      45.731  28.036  33.902  1.00  0.00     0.131 A 
ATOM     64  C   UNL A   1      45.465  25.708  35.372  1.00  0.00     0.055 A 
ATOM     65  C   UNL A   1      46.837  27.515  34.575  1.00  0.00     0.041 A 
ATOM     66  F   UNL A   1      45.897  29.189  33.233  1.00  0.00    -0.206 F 
ATOM     67  C   UNL A   1      46.703  26.354  35.330  1.00  0.00     0.022 A 
BRANCH  64  68
ATOM     68  S   UNL A   1      45.218  24.292  36.479  1.00  0.00     0.124 S 
ATOM     69  O   UNL A   1      46.582  24.001  36.908  1.00  0.00    -0.237 OA
ATOM     70  O   UNL A   1      44.332  24.845  37.497  1.00  0.00    -0.237 OA
ATOM     71  O   UNL A   1      44.611  23.282  35.613  1.00  0.00    -0.744 OA
ENDBRANCH  64  68
ENDBRANCH  38  61
ENDBRANCH  12  13
ENDBRANCH   5   7
ENDBRANCH   2   3
ENDBRANCH   1   2
BRANCH   1  72
ATOM     72  C   UNL A   1      31.920  28.956  23.846  1.00  0.00     0.118 C 
BRANCH  72  73
ATOM     73  N   UNL A   1      30.684  28.294  24.261  1.00  0.00    -0.352 N 
ATOM     74  C   UNL A   1      30.248  27.022  23.980  1.00  0.00     0.253 C 
ATOM     75  H   UNL A   1      30.079  28.836  24.818  1.00  0.00     0.163 HD
ATOM     76  O   UNL A   1      29.089  26.685  24.186  1.00  0.00    -0.269 OA
BRANCH  74  77
ATOM     77  C   UNL A   1      31.191  26.070  23.369  1.00  0.00     0.067 A 
ATOM     78  C   UNL A   1      31.877  26.483  22.215  1.00  0.00     0.058 A 
ATOM     79  C   UNL A   1      31.284  24.750  23.841  1.00  0.00     0.065 A 
ATOM     80  C   UNL A   1      32.552  25.541  21.456  1.00  0.00     0.159 A 
ATOM     81  C   UNL A   1      31.886  23.811  22.999  1.00  0.00     0.070 A 
ATOM     82  F   UNL A   1      33.159  25.919  20.324  1.00  0.00    -0.204 F 
ATOM     83  C   UNL A   1      32.530  24.207  21.829  1.00  0.00     0.160 A 
ATOM     84  F   UNL A   1      33.120  23.282  21.062  1.00  0.00    -0.204 F 
BRANCH  79  85
ATOM     85  N   UNL A   1      30.687  24.316  25.090  1.00  0.00    -0.279 N 
ATOM     86  H   UNL A   1      29.768  23.965  25.112  1.00  0.00     0.180 HD
BRANCH  85  87
ATOM     87  S   UNL A   1      31.619  24.429  26.536  1.00  0.00     0.261 S 
ATOM     88  O   UNL A   1      31.689  25.831  26.895  1.00  0.00    -0.201 OA
ATOM     89  O   UNL A   1      31.081  23.458  27.462  1.00  0.00    -0.201 OA
BRANCH  87  90
ATOM     90  C   UNL A   1      33.259  23.906  26.095  1.00  0.00     0.088 A 
ATOM     91  C   UNL A   1      34.202  24.889  25.727  1.00  0.00     0.022 A 
ATOM     92  C   UNL A   1      33.557  22.540  26.015  1.00  0.00     0.026 A 
ATOM     93  C   UNL A   1      35.413  24.513  25.149  1.00  0.00     0.005 A 
ATOM     94  C   UNL A   1      34.776  22.185  25.458  1.00  0.00    -0.043 A 
ATOM     95  C   UNL A   1      35.672  23.161  24.998  1.00  0.00    -0.045 A 
ATOM     96  C   UNL A   1      35.282  20.810  25.141  1.00  0.00     0.036 C 
ATOM     97  C   UNL A   1      36.817  22.529  24.270  1.00  0.00     0.036 C 
ATOM     98  C   UNL A   1      36.757  21.096  24.811  1.00  0.00     0.010 C 
ENDBRANCH  87  90
ENDBRANCH  85  87
ENDBRANCH  79  85
ENDBRANCH  74  77
ENDBRANCH  72  73
ENDBRANCH   1  72
TORSDOF 16
ENDMDL
