MODEL 1
REMARK VINA RESULT:     -12.2      0.000      0.000
REMARK SMILES O=C(CCn1cc(/C=C\C(=O)c2ccc(F)cc2)c(-c2cccc(Cl)c2)n1)NCCCNC(=O)c1ccc(-c2c3nc(c(-c4cc(S(=O)(=O)[O-])ccc4F)c4ccc([nH]4)c(-c4cc(S(=O)(=O)[O-])ccc4F)c4nc(c(-c5cc(S(=O)(=O)[O-])ccc5F)c5ccc2[nH]5)C=C4)C=C3)cc1
REMARK SMILES IDX 29 1 28 2 1 3 2 4 3 6 4 7 5 8 6 9 27 10 7 11 19 12 8 13 9 14
REMARK SMILES IDX 10 15 11 16 12 17 13 18 18 19 14 20 17 21 15 22 16 23 20 24
REMARK SMILES IDX 21 25 26 26 22 27 24 28 23 29 25 30 30 31 31 32 32 33 33 34
REMARK SMILES IDX 34 36 35 37 36 38 97 39 37 40 96 41 38 42 39 43 40 44 90 45
REMARK SMILES IDX 41 46 95 47 89 48 91 49 42 50 94 51 88 52 87 53 43 55 75 56
REMARK SMILES IDX 55 57 74 58 56 59 59 60 73 61 92 62 57 63 58 64 72 66 93 67
REMARK SMILES IDX 60 68 44 69 45 70 53 71 46 72 52 73 54 74 51 75 47 76 48 77
REMARK SMILES IDX 49 78 50 79 76 80 77 81 85 82 78 83 84 84 86 85 83 86 79 87
REMARK SMILES IDX 80 88 81 89 82 90 61 91 62 92 70 93 63 94 69 95 71 96 68 97
REMARK SMILES IDX 64 98 65 99 66 100 67 101
REMARK H PARENT 28 5 32 35 91 54 59 65
REMARK Flexibility Score: inf
ROOT
ATOM      1  C   UNL A   1      33.601  33.577  28.311  1.00  0.00     0.117 C 
ENDROOT
BRANCH   1   2
ATOM      2  N   UNL A   1      34.189  32.274  28.027  1.00  0.00    -0.356 N 
ATOM      3  O   UNL A   1      32.318  31.376  27.095  1.00  0.00    -0.275 OA
ATOM      4  C   UNL A   1      33.490  31.244  27.446  1.00  0.00     0.221 C 
ATOM      5  H   UNL A   1      35.134  32.125  28.264  1.00  0.00     0.163 HD
BRANCH   4   6
ATOM      6  C   UNL A   1      34.169  29.880  27.343  1.00  0.00     0.123 C 
BRANCH   6   7
ATOM      7  C   UNL A   1      33.296  28.646  27.528  1.00  0.00     0.154 C 
BRANCH   7   8
ATOM      8  N   UNL A   1      33.003  27.847  26.350  1.00  0.00    -0.271 N 
ATOM      9  C   UNL A   1      31.786  27.561  25.803  1.00  0.00     0.117 A 
ATOM     10  N   UNL A   1      33.987  27.060  25.878  1.00  0.00    -0.172 NA
ATOM     11  C   UNL A   1      31.921  26.296  25.275  1.00  0.00     0.021 A 
ATOM     12  C   UNL A   1      33.336  26.040  25.302  1.00  0.00     0.100 A 
BRANCH  11  13
ATOM     13  C   UNL A   1      30.813  25.508  24.818  1.00  0.00     0.016 C 
ATOM     14  C   UNL A   1      30.247  24.354  25.235  1.00  0.00     0.053 C 
BRANCH  14  15
ATOM     15  C   UNL A   1      30.499  23.339  26.321  1.00  0.00     0.185 C 
ATOM     16  O   UNL A   1      30.054  23.505  27.449  1.00  0.00    -0.289 OA
BRANCH  15  17
ATOM     17  C   UNL A   1      31.474  22.220  25.994  1.00  0.00     0.022 A 
ATOM     18  C   UNL A   1      32.705  22.517  27.294  1.00  0.00     0.015 A 
ATOM     19  C   UNL A   1      31.990  20.988  24.478  1.00  0.00     0.015 A 
ATOM     20  C   UNL A   1      34.304  21.805  27.111  1.00  0.00     0.040 A 
ATOM     21  C   UNL A   1      33.671  20.351  24.425  1.00  0.00     0.040 A 
ATOM     22  C   UNL A   1      34.752  20.801  25.723  1.00  0.00     0.123 A 
ATOM     23  F   UNL A   1      36.020  20.359  25.668  1.00  0.00    -0.207 F 
ENDBRANCH  15  17
ENDBRANCH  14  15
ENDBRANCH  11  13
BRANCH  12  24
ATOM     24  C   UNL A   1      33.954  24.736  24.764  1.00  0.00     0.004 A 
ATOM     25  C   UNL A   1      34.083  23.780  22.986  1.00  0.00     0.010 A 
ATOM     26  C   UNL A   1      35.392  24.576  25.870  1.00  0.00     0.031 A 
ATOM     27  C   UNL A   1      35.618  22.943  22.558  1.00  0.00     0.002 A 
ATOM     28  C   UNL A   1      36.829  23.764  25.287  1.00  0.00     0.041 A 
ATOM     29  C   UNL A   1      36.932  22.989  23.710  1.00  0.00     0.020 A 
ATOM     30  Cl  UNL A   1      38.293  24.017  26.157  1.00  0.00    -0.084 Cl
ENDBRANCH  12  24
ENDBRANCH   7   8
ENDBRANCH   6   7
ENDBRANCH   4   6
ENDBRANCH   1   2
BRANCH   1  31
ATOM     31  C   UNL A   1      34.571  34.732  28.107  1.00  0.00     0.042 C 
BRANCH  31  32
ATOM     32  C   UNL A   1      35.933  34.551  28.759  1.00  0.00     0.118 C 
BRANCH  32  33
ATOM     33  N   UNL A   1      36.012  34.440  30.207  1.00  0.00    -0.352 N 
ATOM     34  C   UNL A   1      36.634  33.469  30.997  1.00  0.00     0.251 C 
ATOM     35  H   UNL A   1      35.560  35.158  30.706  1.00  0.00     0.163 HD
ATOM     36  O   UNL A   1      36.447  33.516  32.212  1.00  0.00    -0.269 OA
BRANCH  34  37
ATOM     37  C   UNL A   1      37.591  32.452  30.437  1.00  0.00     0.039 A 
ATOM     38  C   UNL A   1      37.173  31.173  30.010  1.00  0.00     0.014 A 
ATOM     39  C   UNL A   1      38.949  32.672  30.429  1.00  0.00     0.014 A 
ATOM     40  C   UNL A   1      38.103  30.094  29.929  1.00  0.00     0.010 A 
ATOM     41  C   UNL A   1      39.840  31.639  30.286  1.00  0.00     0.010 A 
ATOM     42  C   UNL A   1      39.448  30.311  30.237  1.00  0.00    -0.014 A 
BRANCH  42  43
ATOM     43  C   UNL A   1      40.601  29.382  30.149  1.00  0.00     0.031 A 
ATOM     44  C   UNL A   1      40.960  28.980  31.535  1.00  0.00     0.074 A 
ATOM     45  C   UNL A   1      41.058  28.697  29.060  1.00  0.00     0.049 A 
ATOM     46  N   UNL A   1      41.713  29.678  32.327  1.00  0.00    -0.248 NA
ATOM     47  C   UNL A   1      40.134  27.981  32.255  1.00  0.00     0.031 C 
ATOM     48  C   UNL A   1      40.716  28.865  27.649  1.00  0.00     0.029 A 
ATOM     49  N   UNL A   1      41.963  27.658  28.987  1.00  0.00    -0.354 N 
ATOM     50  C   UNL A   1      41.690  28.962  33.510  1.00  0.00     0.074 A 
ATOM     51  C   UNL A   1      40.426  28.294  33.522  1.00  0.00     0.031 C 
ATOM     52  C   UNL A   1      41.257  27.876  26.884  1.00  0.00     0.029 A 
ATOM     53  C   UNL A   1      42.090  27.023  27.726  1.00  0.00     0.049 A 
ATOM     54  H   UNL A   1      42.490  27.373  29.767  1.00  0.00     0.167 HD
ATOM     55  C   UNL A   1      42.852  28.533  34.079  1.00  0.00     0.034 A 
ATOM     56  C   UNL A   1      42.995  26.057  27.338  1.00  0.00     0.034 A 
ATOM     57  C   UNL A   1      43.978  29.152  33.413  1.00  0.00     0.049 A 
ATOM     58  C   UNL A   1      44.126  26.209  28.272  1.00  0.00     0.074 A 
ATOM     59  C   UNL A   1      44.475  30.432  33.290  1.00  0.00     0.029 A 
ATOM     60  N   UNL A   1      44.428  28.438  32.327  1.00  0.00    -0.354 N 
ATOM     61  N   UNL A   1      44.905  27.251  28.267  1.00  0.00    -0.248 NA
ATOM     62  C   UNL A   1      44.110  25.428  29.499  1.00  0.00     0.031 C 
ATOM     63  C   UNL A   1      45.049  30.509  31.985  1.00  0.00     0.029 A 
ATOM     64  C   UNL A   1      44.992  29.255  31.383  1.00  0.00     0.049 A 
ATOM     65  H   UNL A   1      44.355  27.459  32.240  1.00  0.00     0.167 HD
ATOM     66  C   UNL A   1      45.115  27.517  29.604  1.00  0.00     0.074 A 
ATOM     67  C   UNL A   1      44.736  26.289  30.306  1.00  0.00     0.031 C 
ATOM     68  C   UNL A   1      45.258  28.805  30.028  1.00  0.00     0.034 A 
BRANCH  55  69
ATOM     69  C   UNL A   1      43.009  27.235  34.850  1.00  0.00     0.023 A 
ATOM     70  C   UNL A   1      43.735  26.202  34.234  1.00  0.00     0.031 A 
ATOM     71  C   UNL A   1      42.322  26.872  36.038  1.00  0.00     0.131 A 
ATOM     72  C   UNL A   1      43.750  24.905  34.782  1.00  0.00     0.055 A 
ATOM     73  C   UNL A   1      42.380  25.599  36.604  1.00  0.00     0.041 A 
ATOM     74  F   UNL A   1      41.479  27.687  36.680  1.00  0.00    -0.206 F 
ATOM     75  C   UNL A   1      43.086  24.600  35.969  1.00  0.00     0.022 A 
BRANCH  72  76
ATOM     76  S   UNL A   1      44.600  23.587  33.882  1.00  0.00     0.124 S 
ATOM     77  O   UNL A   1      43.576  23.159  32.937  1.00  0.00    -0.237 OA
ATOM     78  O   UNL A   1      45.743  24.299  33.319  1.00  0.00    -0.237 OA
ATOM     79  O   UNL A   1      44.928  22.621  34.929  1.00  0.00    -0.744 OA
ENDBRANCH  72  76
ENDBRANCH  55  69
BRANCH  56  80
ATOM     80  C   UNL A   1      42.844  24.746  26.590  1.00  0.00     0.023 A 
ATOM     81  C   UNL A   1      43.869  24.211  25.742  1.00  0.00     0.031 A 
ATOM     82  C   UNL A   1      41.825  23.848  26.953  1.00  0.00     0.131 A 
ATOM     83  C   UNL A   1      43.859  22.844  25.342  1.00  0.00     0.055 A 
ATOM     84  C   UNL A   1      41.831  22.497  26.568  1.00  0.00     0.041 A 
ATOM     85  F   UNL A   1      40.836  24.233  27.772  1.00  0.00    -0.206 F 
ATOM     86  C   UNL A   1      42.853  21.985  25.778  1.00  0.00     0.022 A 
BRANCH  83  87
ATOM     87  S   UNL A   1      45.215  22.106  24.342  1.00  0.00     0.124 S 
ATOM     88  O   UNL A   1      44.497  21.159  23.499  1.00  0.00    -0.237 OA
ATOM     89  O   UNL A   1      45.791  23.266  23.672  1.00  0.00    -0.237 OA
ATOM     90  O   UNL A   1      46.084  21.492  25.349  1.00  0.00    -0.744 OA
ENDBRANCH  83  87
ENDBRANCH  56  80
BRANCH  68  91
ATOM     91  C   UNL A   1      45.727  29.827  29.015  1.00  0.00     0.023 A 
ATOM     92  C   UNL A   1      44.937  30.763  28.304  1.00  0.00     0.031 A 
ATOM     93  C   UNL A   1      47.120  29.858  28.819  1.00  0.00     0.131 A 
ATOM     94  C   UNL A   1      45.571  31.694  27.450  1.00  0.00     0.055 A 
ATOM     95  C   UNL A   1      47.738  30.794  27.998  1.00  0.00     0.041 A 
ATOM     96  F   UNL A   1      47.912  28.981  29.456  1.00  0.00    -0.206 F 
ATOM     97  C   UNL A   1      46.965  31.716  27.312  1.00  0.00     0.022 A 
BRANCH  94  98
ATOM     98  S   UNL A   1      44.662  32.904  26.434  1.00  0.00     0.124 S 
ATOM     99  O   UNL A   1      43.897  33.688  27.396  1.00  0.00    -0.237 OA
ATOM    100  O   UNL A   1      45.750  33.602  25.753  1.00  0.00    -0.237 OA
ATOM    101  O   UNL A   1      43.857  32.052  25.556  1.00  0.00    -0.744 OA
ENDBRANCH  94  98
ENDBRANCH  68  91
ENDBRANCH  42  43
ENDBRANCH  34  37
ENDBRANCH  32  33
ENDBRANCH  31  32
ENDBRANCH   1  31
TORSDOF 19
ENDMDL
MODEL 2
REMARK VINA RESULT:     -12.1      2.583      3.603
REMARK SMILES O=C(CCn1cc(/C=C\C(=O)c2ccc(F)cc2)c(-c2cccc(Cl)c2)n1)NCCCNC(=O)c1ccc(-c2c3nc(c(-c4cc(S(=O)(=O)[O-])ccc4F)c4ccc([nH]4)c(-c4cc(S(=O)(=O)[O-])ccc4F)c4nc(c(-c5cc(S(=O)(=O)[O-])ccc5F)c5ccc2[nH]5)C=C4)C=C3)cc1
REMARK SMILES IDX 29 1 28 2 1 3 2 4 3 6 4 7 5 8 6 9 27 10 7 11 19 12 8 13 9 14
REMARK SMILES IDX 10 15 11 16 12 17 13 18 18 19 14 20 17 21 15 22 16 23 20 24
REMARK SMILES IDX 21 25 26 26 22 27 24 28 23 29 25 30 30 31 31 32 32 33 33 34
REMARK SMILES IDX 34 36 35 37 36 38 97 39 37 40 96 41 38 42 39 43 40 44 90 45
REMARK SMILES IDX 41 46 95 47 89 48 91 49 42 50 94 51 88 52 87 53 43 55 75 56
REMARK SMILES IDX 55 57 74 58 56 59 59 60 73 61 92 62 57 63 58 64 72 66 93 67
REMARK SMILES IDX 60 68 44 69 45 70 53 71 46 72 52 73 54 74 51 75 47 76 48 77
REMARK SMILES IDX 49 78 50 79 76 80 77 81 85 82 78 83 84 84 86 85 83 86 79 87
REMARK SMILES IDX 80 88 81 89 82 90 61 91 62 92 70 93 63 94 69 95 71 96 68 97
REMARK SMILES IDX 64 98 65 99 66 100 67 101
REMARK H PARENT 28 5 32 35 91 54 59 65
REMARK Flexibility Score: inf
ROOT
ATOM      1  C   UNL A   1      35.735  33.289  29.724  1.00  0.00     0.117 C 
ENDROOT
BRANCH   1   2
ATOM      2  N   UNL A   1      35.171  32.146  29.018  1.00  0.00    -0.356 N 
ATOM      3  O   UNL A   1      37.164  31.132  28.594  1.00  0.00    -0.275 OA
ATOM      4  C   UNL A   1      35.938  31.141  28.478  1.00  0.00     0.221 C 
ATOM      5  H   UNL A   1      34.192  32.091  28.921  1.00  0.00     0.163 HD
BRANCH   4   6
ATOM      6  C   UNL A   1      35.244  30.081  27.627  1.00  0.00     0.123 C 
BRANCH   6   7
ATOM      7  C   UNL A   1      33.853  30.404  27.100  1.00  0.00     0.154 C 
BRANCH   7   8
ATOM      8  N   UNL A   1      33.175  29.382  26.320  1.00  0.00    -0.271 N 
ATOM      9  C   UNL A   1      31.898  28.922  26.457  1.00  0.00     0.117 A 
ATOM     10  N   UNL A   1      33.940  28.584  25.551  1.00  0.00    -0.172 NA
ATOM     11  C   UNL A   1      31.958  27.592  26.104  1.00  0.00     0.021 A 
ATOM     12  C   UNL A   1      33.251  27.436  25.495  1.00  0.00     0.100 A 
BRANCH  11  13
ATOM     13  C   UNL A   1      30.889  26.663  26.335  1.00  0.00     0.016 C 
ATOM     14  C   UNL A   1      30.040  25.990  25.529  1.00  0.00     0.053 C 
BRANCH  14  15
ATOM     15  C   UNL A   1      29.775  25.900  24.048  1.00  0.00     0.185 C 
ATOM     16  O   UNL A   1      30.206  24.962  23.390  1.00  0.00    -0.289 OA
BRANCH  15  17
ATOM     17  C   UNL A   1      29.119  27.108  23.399  1.00  0.00     0.022 A 
ATOM     18  C   UNL A   1      30.589  27.877  22.662  1.00  0.00     0.015 A 
ATOM     19  C   UNL A   1      27.433  28.218  23.503  1.00  0.00     0.015 A 
ATOM     20  C   UNL A   1      30.496  29.566  22.178  1.00  0.00     0.040 A 
ATOM     21  C   UNL A   1      27.504  29.936  22.980  1.00  0.00     0.040 A 
ATOM     22  C   UNL A   1      29.027  30.537  22.365  1.00  0.00     0.123 A 
ATOM     23  F   UNL A   1      29.096  31.830  22.009  1.00  0.00    -0.207 F 
ENDBRANCH  15  17
ENDBRANCH  14  15
ENDBRANCH  11  13
BRANCH  12  24
ATOM     24  C   UNL A   1      33.738  26.096  24.912  1.00  0.00     0.004 A 
ATOM     25  C   UNL A   1      33.717  24.148  25.456  1.00  0.00     0.010 A 
ATOM     26  C   UNL A   1      33.571  26.436  23.130  1.00  0.00     0.031 A 
ATOM     27  C   UNL A   1      33.425  22.896  24.196  1.00  0.00     0.002 A 
ATOM     28  C   UNL A   1      33.249  25.108  22.036  1.00  0.00     0.041 A 
ATOM     29  C   UNL A   1      33.180  23.425  22.548  1.00  0.00     0.020 A 
ATOM     30  Cl  UNL A   1      32.659  25.497  20.467  1.00  0.00    -0.084 Cl
ENDBRANCH  12  24
ENDBRANCH   7   8
ENDBRANCH   6   7
ENDBRANCH   4   6
ENDBRANCH   1   2
BRANCH   1  31
ATOM     31  C   UNL A   1      34.831  33.819  30.828  1.00  0.00     0.042 C 
BRANCH  31  32
ATOM     32  C   UNL A   1      34.559  32.842  31.962  1.00  0.00     0.118 C 
BRANCH  32  33
ATOM     33  N   UNL A   1      35.224  33.044  33.240  1.00  0.00    -0.352 N 
ATOM     34  C   UNL A   1      36.399  32.472  33.737  1.00  0.00     0.251 C 
ATOM     35  H   UNL A   1      34.780  33.680  33.846  1.00  0.00     0.163 HD
ATOM     36  O   UNL A   1      36.692  32.698  34.910  1.00  0.00    -0.269 OA
BRANCH  34  37
ATOM     37  C   UNL A   1      37.355  31.692  32.874  1.00  0.00     0.039 A 
ATOM     38  C   UNL A   1      37.022  30.438  32.318  1.00  0.00     0.014 A 
ATOM     39  C   UNL A   1      38.653  32.105  32.687  1.00  0.00     0.014 A 
ATOM     40  C   UNL A   1      38.044  29.527  31.917  1.00  0.00     0.010 A 
ATOM     41  C   UNL A   1      39.621  31.243  32.239  1.00  0.00     0.010 A 
ATOM     42  C   UNL A   1      39.387  29.892  32.038  1.00  0.00    -0.014 A 
BRANCH  42  43
ATOM     43  C   UNL A   1      40.608  29.162  31.619  1.00  0.00     0.031 A 
ATOM     44  C   UNL A   1      41.329  28.748  32.852  1.00  0.00     0.074 A 
ATOM     45  C   UNL A   1      40.894  28.614  30.401  1.00  0.00     0.049 A 
ATOM     46  N   UNL A   1      42.139  29.513  33.516  1.00  0.00    -0.248 NA
ATOM     47  C   UNL A   1      40.841  27.596  33.647  1.00  0.00     0.031 C 
ATOM     48  C   UNL A   1      40.216  28.801  29.120  1.00  0.00     0.029 A 
ATOM     49  N   UNL A   1      41.895  27.736  30.041  1.00  0.00    -0.354 N 
ATOM     50  C   UNL A   1      42.490  28.742  34.610  1.00  0.00     0.074 A 
ATOM     51  C   UNL A   1      41.369  27.884  34.841  1.00  0.00     0.031 C 
ATOM     52  C   UNL A   1      40.701  27.950  28.171  1.00  0.00     0.029 A 
ATOM     53  C   UNL A   1      41.816  27.195  28.733  1.00  0.00     0.049 A 
ATOM     54  H   UNL A   1      42.623  27.497  30.659  1.00  0.00     0.167 HD
ATOM     55  C   UNL A   1      43.800  28.472  34.870  1.00  0.00     0.034 A 
ATOM     56  C   UNL A   1      42.735  26.405  28.074  1.00  0.00     0.034 A 
ATOM     57  C   UNL A   1      44.643  29.294  34.029  1.00  0.00     0.049 A 
ATOM     58  C   UNL A   1      44.018  26.684  28.746  1.00  0.00     0.074 A 
ATOM     59  C   UNL A   1      44.913  30.641  33.912  1.00  0.00     0.029 A 
ATOM     60  N   UNL A   1      44.928  28.717  32.813  1.00  0.00    -0.354 N 
ATOM     61  N   UNL A   1      44.619  27.834  28.660  1.00  0.00    -0.248 NA
ATOM     62  C   UNL A   1      44.395  25.847  29.875  1.00  0.00     0.031 C 
ATOM     63  C   UNL A   1      45.155  30.875  32.524  1.00  0.00     0.029 A 
ATOM     64  C   UNL A   1      45.138  29.660  31.843  1.00  0.00     0.049 A 
ATOM     65  H   UNL A   1      44.975  27.745  32.659  1.00  0.00     0.167 HD
ATOM     66  C   UNL A   1      45.092  28.059  29.937  1.00  0.00     0.074 A 
ATOM     67  C   UNL A   1      45.062  26.752  30.596  1.00  0.00     0.031 C 
ATOM     68  C   UNL A   1      45.146  29.330  30.429  1.00  0.00     0.034 A 
BRANCH  55  69
ATOM     69  C   UNL A   1      44.311  27.175  35.473  1.00  0.00     0.023 A 
ATOM     70  C   UNL A   1      44.352  26.047  34.637  1.00  0.00     0.031 A 
ATOM     71  C   UNL A   1      44.554  26.923  36.848  1.00  0.00     0.131 A 
ATOM     72  C   UNL A   1      44.611  24.767  35.164  1.00  0.00     0.055 A 
ATOM     73  C   UNL A   1      44.859  25.662  37.358  1.00  0.00     0.041 A 
ATOM     74  F   UNL A   1      44.424  27.851  37.801  1.00  0.00    -0.206 F 
ATOM     75  C   UNL A   1      44.874  24.570  36.518  1.00  0.00     0.022 A 
BRANCH  72  76
ATOM     76  S   UNL A   1      44.529  23.336  34.062  1.00  0.00     0.124 S 
ATOM     77  O   UNL A   1      43.117  22.982  34.131  1.00  0.00    -0.237 OA
ATOM     78  O   UNL A   1      44.993  23.904  32.800  1.00  0.00    -0.237 OA
ATOM     79  O   UNL A   1      45.445  22.381  34.682  1.00  0.00    -0.744 OA
ENDBRANCH  72  76
ENDBRANCH  55  69
BRANCH  56  80
ATOM     80  C   UNL A   1      42.602  25.128  27.266  1.00  0.00     0.023 A 
ATOM     81  C   UNL A   1      43.648  24.628  26.423  1.00  0.00     0.031 A 
ATOM     82  C   UNL A   1      41.573  24.218  27.564  1.00  0.00     0.131 A 
ATOM     83  C   UNL A   1      43.647  23.279  25.964  1.00  0.00     0.055 A 
ATOM     84  C   UNL A   1      41.588  22.884  27.122  1.00  0.00     0.041 A 
ATOM     85  F   UNL A   1      40.564  24.569  28.374  1.00  0.00    -0.206 F 
ATOM     86  C   UNL A   1      42.630  22.404  26.337  1.00  0.00     0.022 A 
BRANCH  83  87
ATOM     87  S   UNL A   1      45.028  22.582  24.969  1.00  0.00     0.124 S 
ATOM     88  O   UNL A   1      46.044  22.331  25.984  1.00  0.00    -0.237 OA
ATOM     89  O   UNL A   1      44.421  21.408  24.353  1.00  0.00    -0.237 OA
ATOM     90  O   UNL A   1      45.352  23.660  24.033  1.00  0.00    -0.744 OA
ENDBRANCH  83  87
ENDBRANCH  56  80
BRANCH  68  91
ATOM     91  C   UNL A   1      45.220  30.464  29.430  1.00  0.00     0.023 A 
ATOM     92  C   UNL A   1      46.367  30.939  28.747  1.00  0.00     0.031 A 
ATOM     93  C   UNL A   1      43.982  31.060  29.129  1.00  0.00     0.131 A 
ATOM     94  C   UNL A   1      46.222  31.967  27.788  1.00  0.00     0.055 A 
ATOM     95  C   UNL A   1      43.844  32.051  28.165  1.00  0.00     0.041 A 
ATOM     96  F   UNL A   1      42.868  30.657  29.762  1.00  0.00    -0.206 F 
ATOM     97  C   UNL A   1      44.965  32.507  27.490  1.00  0.00     0.022 A 
BRANCH  94  98
ATOM     98  S   UNL A   1      47.626  32.707  26.891  1.00  0.00     0.124 S 
ATOM     99  O   UNL A   1      48.456  31.570  26.510  1.00  0.00    -0.237 OA
ATOM    100  O   UNL A   1      46.951  33.406  25.800  1.00  0.00    -0.237 OA
ATOM    101  O   UNL A   1      48.221  33.594  27.891  1.00  0.00    -0.744 OA
ENDBRANCH  94  98
ENDBRANCH  68  91
ENDBRANCH  42  43
ENDBRANCH  34  37
ENDBRANCH  32  33
ENDBRANCH  31  32
ENDBRANCH   1  31
TORSDOF 19
ENDMDL
MODEL 3
REMARK VINA RESULT:     -11.8      7.786     11.966
REMARK SMILES O=C(CCn1cc(/C=C\C(=O)c2ccc(F)cc2)c(-c2cccc(Cl)c2)n1)NCCCNC(=O)c1ccc(-c2c3nc(c(-c4cc(S(=O)(=O)[O-])ccc4F)c4ccc([nH]4)c(-c4cc(S(=O)(=O)[O-])ccc4F)c4nc(c(-c5cc(S(=O)(=O)[O-])ccc5F)c5ccc2[nH]5)C=C4)C=C3)cc1
REMARK SMILES IDX 29 1 28 2 1 3 2 4 3 6 4 7 5 8 6 9 27 10 7 11 19 12 8 13 9 14
REMARK SMILES IDX 10 15 11 16 12 17 13 18 18 19 14 20 17 21 15 22 16 23 20 24
REMARK SMILES IDX 21 25 26 26 22 27 24 28 23 29 25 30 30 31 31 32 32 33 33 34
REMARK SMILES IDX 34 36 35 37 36 38 97 39 37 40 96 41 38 42 39 43 40 44 90 45
REMARK SMILES IDX 41 46 95 47 89 48 91 49 42 50 94 51 88 52 87 53 43 55 75 56
REMARK SMILES IDX 55 57 74 58 56 59 59 60 73 61 92 62 57 63 58 64 72 66 93 67
REMARK SMILES IDX 60 68 44 69 45 70 53 71 46 72 52 73 54 74 51 75 47 76 48 77
REMARK SMILES IDX 49 78 50 79 76 80 77 81 85 82 78 83 84 84 86 85 83 86 79 87
REMARK SMILES IDX 80 88 81 89 82 90 61 91 62 92 70 93 63 94 69 95 71 96 68 97
REMARK SMILES IDX 64 98 65 99 66 100 67 101
REMARK H PARENT 28 5 32 35 91 54 59 65
REMARK Flexibility Score: inf
ROOT
ATOM      1  C   UNL A   1      35.848  32.533  30.073  1.00  0.00     0.117 C 
ENDROOT
BRANCH   1   2
ATOM      2  N   UNL A   1      35.708  31.312  29.289  1.00  0.00    -0.356 N 
ATOM      3  O   UNL A   1      34.438  32.238  27.644  1.00  0.00    -0.275 OA
ATOM      4  C   UNL A   1      34.987  31.246  28.121  1.00  0.00     0.221 C 
ATOM      5  H   UNL A   1      36.151  30.494  29.614  1.00  0.00     0.163 HD
BRANCH   4   6
ATOM      6  C   UNL A   1      34.784  29.877  27.475  1.00  0.00     0.123 C 
BRANCH   6   7
ATOM      7  C   UNL A   1      33.601  29.715  26.532  1.00  0.00     0.154 C 
BRANCH   7   8
ATOM      8  N   UNL A   1      33.650  28.624  25.573  1.00  0.00    -0.271 N 
ATOM      9  C   UNL A   1      33.176  28.598  24.295  1.00  0.00     0.117 A 
ATOM     10  N   UNL A   1      33.939  27.397  26.049  1.00  0.00    -0.172 NA
ATOM     11  C   UNL A   1      32.767  27.298  24.091  1.00  0.00     0.021 A 
ATOM     12  C   UNL A   1      33.312  26.568  25.204  1.00  0.00     0.100 A 
BRANCH  11  13
ATOM     13  C   UNL A   1      31.981  26.884  22.965  1.00  0.00     0.016 C 
ATOM     14  C   UNL A   1      30.716  27.134  22.561  1.00  0.00     0.053 C 
BRANCH  14  15
ATOM     15  C   UNL A   1      29.534  27.912  23.078  1.00  0.00     0.185 C 
ATOM     16  O   UNL A   1      28.654  27.359  23.724  1.00  0.00    -0.289 OA
BRANCH  15  17
ATOM     17  C   UNL A   1      29.403  29.349  22.601  1.00  0.00     0.022 A 
ATOM     18  C   UNL A   1      30.072  30.201  24.058  1.00  0.00     0.015 A 
ATOM     19  C   UNL A   1      28.409  30.462  21.239  1.00  0.00     0.015 A 
ATOM     20  C   UNL A   1      29.729  31.915  24.255  1.00  0.00     0.040 A 
ATOM     21  C   UNL A   1      28.128  32.202  21.594  1.00  0.00     0.040 A 
ATOM     22  C   UNL A   1      28.778  32.843  23.085  1.00  0.00     0.123 A 
ATOM     23  F   UNL A   1      28.538  34.133  23.373  1.00  0.00    -0.207 F 
ENDBRANCH  15  17
ENDBRANCH  14  15
ENDBRANCH  11  13
BRANCH  12  24
ATOM     24  C   UNL A   1      33.130  25.048  25.367  1.00  0.00     0.004 A 
ATOM     25  C   UNL A   1      31.651  23.694  25.097  1.00  0.00     0.010 A 
ATOM     26  C   UNL A   1      34.820  24.476  25.001  1.00  0.00     0.031 A 
ATOM     27  C   UNL A   1      32.063  22.079  24.419  1.00  0.00     0.002 A 
ATOM     28  C   UNL A   1      35.050  22.887  24.304  1.00  0.00     0.041 A 
ATOM     29  C   UNL A   1      33.735  21.750  24.028  1.00  0.00     0.020 A 
ATOM     30  Cl  UNL A   1      36.569  22.556  23.565  1.00  0.00    -0.084 Cl
ENDBRANCH  12  24
ENDBRANCH   7   8
ENDBRANCH   6   7
ENDBRANCH   4   6
ENDBRANCH   1   2
BRANCH   1  31
ATOM     31  C   UNL A   1      37.078  33.348  29.701  1.00  0.00     0.042 C 
BRANCH  31  32
ATOM     32  C   UNL A   1      38.085  33.542  30.824  1.00  0.00     0.118 C 
BRANCH  32  33
ATOM     33  N   UNL A   1      39.261  32.687  30.872  1.00  0.00    -0.352 N 
ATOM     34  C   UNL A   1      40.545  32.904  30.365  1.00  0.00     0.251 C 
ATOM     35  H   UNL A   1      39.133  31.826  31.331  1.00  0.00     0.163 HD
ATOM     36  O   UNL A   1      41.342  31.969  30.410  1.00  0.00    -0.269 OA
BRANCH  34  37
ATOM     37  C   UNL A   1      41.012  34.248  29.872  1.00  0.00     0.039 A 
ATOM     38  C   UNL A   1      40.452  34.874  28.738  1.00  0.00     0.014 A 
ATOM     39  C   UNL A   1      42.099  34.879  30.431  1.00  0.00     0.014 A 
ATOM     40  C   UNL A   1      41.180  35.874  28.027  1.00  0.00     0.010 A 
ATOM     41  C   UNL A   1      42.758  35.885  29.772  1.00  0.00     0.010 A 
ATOM     42  C   UNL A   1      42.443  36.267  28.477  1.00  0.00    -0.014 A 
BRANCH  42  43
ATOM     43  C   UNL A   1      43.344  37.327  27.964  1.00  0.00     0.031 A 
ATOM     44  C   UNL A   1      44.668  36.703  27.703  1.00  0.00     0.074 A 
ATOM     45  C   UNL A   1      43.011  38.551  27.455  1.00  0.00     0.049 A 
ATOM     46  N   UNL A   1      45.577  36.512  28.608  1.00  0.00    -0.248 NA
ATOM     47  C   UNL A   1      44.869  35.866  26.497  1.00  0.00     0.031 C 
ATOM     48  C   UNL A   1      41.733  39.256  27.499  1.00  0.00     0.029 A 
ATOM     49  N   UNL A   1      43.785  39.456  26.758  1.00  0.00    -0.354 N 
ATOM     50  C   UNL A   1      46.575  35.838  27.927  1.00  0.00     0.074 A 
ATOM     51  C   UNL A   1      45.903  35.116  26.891  1.00  0.00     0.031 C 
ATOM     52  C   UNL A   1      41.758  40.381  26.731  1.00  0.00     0.029 A 
ATOM     53  C   UNL A   1      43.102  40.561  26.191  1.00  0.00     0.049 A 
ATOM     54  H   UNL A   1      44.758  39.340  26.660  1.00  0.00     0.167 HD
ATOM     55  C   UNL A   1      47.843  36.336  27.894  1.00  0.00     0.034 A 
ATOM     56  C   UNL A   1      43.633  41.667  25.562  1.00  0.00     0.034 A 
ATOM     57  C   UNL A   1      47.963  37.428  28.836  1.00  0.00     0.049 A 
ATOM     58  C   UNL A   1      45.014  41.760  26.071  1.00  0.00     0.074 A 
ATOM     59  C   UNL A   1      47.914  37.562  30.207  1.00  0.00     0.029 A 
ATOM     60  N   UNL A   1      47.636  38.650  28.298  1.00  0.00    -0.354 N 
ATOM     61  N   UNL A   1      45.287  42.060  27.307  1.00  0.00    -0.248 NA
ATOM     62  C   UNL A   1      46.063  41.075  25.331  1.00  0.00     0.031 C 
ATOM     63  C   UNL A   1      47.333  38.843  30.457  1.00  0.00     0.029 A 
ATOM     64  C   UNL A   1      47.142  39.505  29.247  1.00  0.00     0.049 A 
ATOM     65  H   UNL A   1      47.744  38.883  27.346  1.00  0.00     0.167 HD
ATOM     66  C   UNL A   1      46.330  41.216  27.631  1.00  0.00     0.074 A 
ATOM     67  C   UNL A   1      46.862  40.749  26.350  1.00  0.00     0.031 C 
ATOM     68  C   UNL A   1      46.441  40.728  28.900  1.00  0.00     0.034 A 
BRANCH  55  69
ATOM     69  C   UNL A   1      48.792  36.203  26.716  1.00  0.00     0.023 A 
ATOM     70  C   UNL A   1      50.005  35.529  26.937  1.00  0.00     0.031 A 
ATOM     71  C   UNL A   1      48.684  36.868  25.467  1.00  0.00     0.131 A 
ATOM     72  C   UNL A   1      51.026  35.542  25.967  1.00  0.00     0.055 A 
ATOM     73  C   UNL A   1      49.678  36.838  24.489  1.00  0.00     0.041 A 
ATOM     74  F   UNL A   1      47.662  37.665  25.144  1.00  0.00    -0.206 F 
ATOM     75  C   UNL A   1      50.865  36.184  24.740  1.00  0.00     0.022 A 
BRANCH  72  76
ATOM     76  S   UNL A   1      52.610  34.763  26.356  1.00  0.00     0.124 S 
ATOM     77  O   UNL A   1      53.377  35.018  25.143  1.00  0.00    -0.237 OA
ATOM     78  O   UNL A   1      53.019  35.498  27.548  1.00  0.00    -0.237 OA
ATOM     79  O   UNL A   1      52.250  33.365  26.585  1.00  0.00    -0.744 OA
ENDBRANCH  72  76
ENDBRANCH  55  69
BRANCH  56  80
ATOM     80  C   UNL A   1      43.287  42.380  24.268  1.00  0.00     0.023 A 
ATOM     81  C   UNL A   1      44.276  42.984  23.424  1.00  0.00     0.031 A 
ATOM     82  C   UNL A   1      42.022  42.193  23.685  1.00  0.00     0.131 A 
ATOM     83  C   UNL A   1      43.986  43.326  22.072  1.00  0.00     0.055 A 
ATOM     84  C   UNL A   1      41.749  42.516  22.345  1.00  0.00     0.041 A 
ATOM     85  F   UNL A   1      41.034  41.602  24.372  1.00  0.00    -0.206 F 
ATOM     86  C   UNL A   1      42.730  43.066  21.529  1.00  0.00     0.022 A 
BRANCH  83  87
ATOM     87  S   UNL A   1      45.264  44.006  20.938  1.00  0.00     0.124 S 
ATOM     88  O   UNL A   1      44.516  45.016  20.200  1.00  0.00    -0.237 OA
ATOM     89  O   UNL A   1      46.285  44.495  21.857  1.00  0.00    -0.237 OA
ATOM     90  O   UNL A   1      45.668  42.843  20.144  1.00  0.00    -0.744 OA
ENDBRANCH  83  87
ENDBRANCH  56  80
BRANCH  68  91
ATOM     91  C   UNL A   1      45.790  41.520  30.013  1.00  0.00     0.023 A 
ATOM     92  C   UNL A   1      44.470  41.385  30.511  1.00  0.00     0.031 A 
ATOM     93  C   UNL A   1      46.636  42.453  30.639  1.00  0.00     0.131 A 
ATOM     94  C   UNL A   1      44.066  42.169  31.615  1.00  0.00     0.055 A 
ATOM     95  C   UNL A   1      46.240  43.201  31.741  1.00  0.00     0.041 A 
ATOM     96  F   UNL A   1      47.892  42.631  30.195  1.00  0.00    -0.206 F 
ATOM     97  C   UNL A   1      44.952  43.060  32.234  1.00  0.00     0.022 A 
BRANCH  94  98
ATOM     98  S   UNL A   1      42.379  42.135  32.305  1.00  0.00     0.124 S 
ATOM     99  O   UNL A   1      42.382  40.999  33.219  1.00  0.00    -0.237 OA
ATOM    100  O   UNL A   1      42.278  43.457  32.919  1.00  0.00    -0.237 OA
ATOM    101  O   UNL A   1      41.544  41.963  31.115  1.00  0.00    -0.744 OA
ENDBRANCH  94  98
ENDBRANCH  68  91
ENDBRANCH  42  43
ENDBRANCH  34  37
ENDBRANCH  32  33
ENDBRANCH  31  32
ENDBRANCH   1  31
TORSDOF 19
ENDMDL
