MODEL 1
REMARK VINA RESULT:     -11.6      0.000      0.000
REMARK SMILES CCCCNC(=O)c1c(Cl)c(Cl)c(Cl)c(Cl)c1C(=O)NCCCNC(=O)c1ccc(-c2c3nc(c(-c4cc(S(=O)(=O)[O-])ccc4F)c4ccc([nH]4)c(-c4cc(S(=O)(=O)[O-])ccc4F)c4nc(c(-c5cc(S(=O)(=O)[O-])ccc5F)c5ccc2[nH]5)C=C4)C=C3)cc1
REMARK SMILES IDX 21 1 20 2 18 3 19 4 17 6 8 7 9 8 10 9 11 10 15 11 12 12
REMARK SMILES IDX 13 13 16 14 14 15 6 16 5 17 7 19 4 20 3 21 2 22 1 23 22 24
REMARK SMILES IDX 23 25 24 26 25 27 26 29 27 30 28 31 89 32 29 33 88 34 30 35
REMARK SMILES IDX 31 36 32 37 82 38 33 39 87 40 81 41 83 42 34 43 86 44 80 45
REMARK SMILES IDX 79 46 35 48 67 49 47 50 66 51 48 52 51 53 65 54 84 55 49 56
REMARK SMILES IDX 50 57 64 59 85 60 52 61 36 62 37 63 45 64 38 65 44 66 46 67
REMARK SMILES IDX 43 68 39 69 40 70 41 71 42 72 68 73 69 74 77 75 70 76 76 77
REMARK SMILES IDX 78 78 75 79 71 80 72 81 73 82 74 83 53 84 54 85 62 86 55 87
REMARK SMILES IDX 61 88 63 89 60 90 56 91 57 92 58 93 59 94
REMARK H PARENT 20 5 5 18 24 28 83 47 51 58
REMARK Flexibility Score: inf
ROOT
ATOM      1  C   UNL A   1      31.394  30.892  26.104  1.00  0.00     0.118 C 
ENDROOT
BRANCH   1   2
ATOM      2  N   UNL A   1      32.552  30.108  26.420  1.00  0.00    -0.352 N 
ATOM      3  C   UNL A   1      33.002  28.998  25.740  1.00  0.00     0.253 C 
ATOM      4  O   UNL A   1      34.212  28.767  25.779  1.00  0.00    -0.269 OA
ATOM      5  H   UNL A   1      33.079  30.390  27.202  1.00  0.00     0.163 HD
BRANCH   3   6
ATOM      6  C   UNL A   1      32.131  27.996  25.036  1.00  0.00     0.074 A 
ATOM      7  C   UNL A   1      32.046  27.810  23.637  1.00  0.00     0.074 A 
ATOM      8  C   UNL A   1      31.518  26.616  23.094  1.00  0.00     0.074 A 
ATOM      9  Cl  UNL A   1      31.573  26.332  21.369  1.00  0.00    -0.082 Cl
ATOM     10  C   UNL A   1      30.977  25.634  23.935  1.00  0.00     0.080 A 
ATOM     11  C   UNL A   1      31.526  27.018  25.868  1.00  0.00     0.074 A 
ATOM     12  Cl  UNL A   1      30.303  24.177  23.257  1.00  0.00    -0.081 Cl
ATOM     13  C   UNL A   1      30.960  25.844  25.322  1.00  0.00     0.080 A 
ATOM     14  Cl  UNL A   1      31.377  27.283  27.593  1.00  0.00    -0.082 Cl
ATOM     15  Cl  UNL A   1      30.263  24.631  26.365  1.00  0.00    -0.081 Cl
BRANCH   7  16
ATOM     16  C   UNL A   1      32.527  28.804  22.665  1.00  0.00     0.253 C 
ATOM     17  N   UNL A   1      31.607  29.605  22.000  1.00  0.00    -0.352 N 
ATOM     18  H   UNL A   1      32.002  30.302  21.427  1.00  0.00     0.163 HD
ATOM     19  O   UNL A   1      33.730  28.909  22.485  1.00  0.00    -0.269 OA
BRANCH  17  20
ATOM     20  C   UNL A   1      30.143  29.575  22.020  1.00  0.00     0.116 C 
BRANCH  20  21
ATOM     21  C   UNL A   1      29.458  30.788  22.665  1.00  0.00     0.021 C 
BRANCH  21  22
ATOM     22  C   UNL A   1      28.102  30.554  23.334  1.00  0.00    -0.002 C 
ATOM     23  C   UNL A   1      27.480  29.201  23.036  1.00  0.00     0.004 C 
ENDBRANCH  21  22
ENDBRANCH  20  21
ENDBRANCH  17  20
ENDBRANCH   7  16
ENDBRANCH   3   6
ENDBRANCH   1   2
BRANCH   1  24
ATOM     24  C   UNL A   1      31.350  32.335  26.534  1.00  0.00     0.042 C 
BRANCH  24  25
ATOM     25  C   UNL A   1      32.631  32.885  27.117  1.00  0.00     0.118 C 
BRANCH  25  26
ATOM     26  N   UNL A   1      32.488  34.198  27.737  1.00  0.00    -0.352 N 
ATOM     27  C   UNL A   1      33.145  34.812  28.782  1.00  0.00     0.251 C 
ATOM     28  H   UNL A   1      31.787  34.755  27.327  1.00  0.00     0.163 HD
ATOM     29  O   UNL A   1      32.735  35.904  29.173  1.00  0.00    -0.269 OA
BRANCH  27  30
ATOM     30  C   UNL A   1      34.290  34.171  29.474  1.00  0.00     0.039 A 
ATOM     31  C   UNL A   1      35.594  34.580  29.173  1.00  0.00     0.014 A 
ATOM     32  C   UNL A   1      34.105  33.151  30.402  1.00  0.00     0.014 A 
ATOM     33  C   UNL A   1      36.680  34.018  29.854  1.00  0.00     0.010 A 
ATOM     34  C   UNL A   1      35.157  32.730  31.203  1.00  0.00     0.010 A 
ATOM     35  C   UNL A   1      36.467  33.115  30.909  1.00  0.00    -0.014 A 
BRANCH  35  36
ATOM     36  C   UNL A   1      37.593  32.489  31.654  1.00  0.00     0.031 A 
ATOM     37  C   UNL A   1      38.363  31.349  31.026  1.00  0.00     0.074 A 
ATOM     38  C   UNL A   1      37.889  32.903  32.901  1.00  0.00     0.049 A 
ATOM     39  N   UNL A   1      39.333  30.626  31.527  1.00  0.00    -0.248 NA
ATOM     40  C   UNL A   1      37.956  30.932  29.674  1.00  0.00     0.031 C 
ATOM     41  C   UNL A   1      37.176  33.949  33.639  1.00  0.00     0.029 A 
ATOM     42  N   UNL A   1      38.872  32.501  33.771  1.00  0.00    -0.354 N 
ATOM     43  C   UNL A   1      39.626  29.665  30.563  1.00  0.00     0.074 A 
ATOM     44  C   UNL A   1      38.665  29.831  29.498  1.00  0.00     0.031 C 
ATOM     45  C   UNL A   1      37.779  34.144  34.822  1.00  0.00     0.029 A 
ATOM     46  C   UNL A   1      38.889  33.207  34.952  1.00  0.00     0.049 A 
ATOM     47  H   UNL A   1      39.505  31.775  33.568  1.00  0.00     0.167 HD
ATOM     48  C   UNL A   1      40.632  28.756  30.541  1.00  0.00     0.034 A 
ATOM     49  C   UNL A   1      39.711  33.108  36.016  1.00  0.00     0.034 A 
ATOM     50  C   UNL A   1      41.605  28.631  31.597  1.00  0.00     0.049 A 
ATOM     51  C   UNL A   1      40.827  32.095  35.969  1.00  0.00     0.074 A 
ATOM     52  C   UNL A   1      42.701  27.790  31.665  1.00  0.00     0.029 A 
ATOM     53  N   UNL A   1      41.597  29.372  32.772  1.00  0.00    -0.354 N 
ATOM     54  N   UNL A   1      41.127  31.235  35.022  1.00  0.00    -0.248 NA
ATOM     55  C   UNL A   1      41.727  32.053  37.128  1.00  0.00     0.031 C 
ATOM     56  C   UNL A   1      43.313  27.972  32.910  1.00  0.00     0.029 A 
ATOM     57  C   UNL A   1      42.653  28.988  33.583  1.00  0.00     0.049 A 
ATOM     58  H   UNL A   1      40.938  30.068  32.996  1.00  0.00     0.167 HD
ATOM     59  C   UNL A   1      42.271  30.572  35.461  1.00  0.00     0.074 A 
ATOM     60  C   UNL A   1      42.619  31.156  36.741  1.00  0.00     0.031 C 
ATOM     61  C   UNL A   1      42.973  29.573  34.864  1.00  0.00     0.034 A 
BRANCH  48  62
ATOM     62  C   UNL A   1      40.714  27.832  29.345  1.00  0.00     0.023 A 
ATOM     63  C   UNL A   1      41.665  28.024  28.326  1.00  0.00     0.031 A 
ATOM     64  C   UNL A   1      39.804  26.772  29.197  1.00  0.00     0.131 A 
ATOM     65  C   UNL A   1      41.625  27.232  27.169  1.00  0.00     0.055 A 
ATOM     66  C   UNL A   1      39.830  25.926  28.087  1.00  0.00     0.041 A 
ATOM     67  F   UNL A   1      38.856  26.549  30.123  1.00  0.00    -0.206 F 
ATOM     68  C   UNL A   1      40.733  26.165  27.054  1.00  0.00     0.022 A 
BRANCH  65  69
ATOM     69  S   UNL A   1      42.642  27.723  25.748  1.00  0.00     0.124 S 
ATOM     70  O   UNL A   1      42.211  29.104  25.543  1.00  0.00    -0.237 OA
ATOM     71  O   UNL A   1      43.998  27.545  26.255  1.00  0.00    -0.237 OA
ATOM     72  O   UNL A   1      42.238  26.789  24.699  1.00  0.00    -0.744 OA
ENDBRANCH  65  69
ENDBRANCH  48  62
BRANCH  49  73
ATOM     73  C   UNL A   1      39.529  33.994  37.203  1.00  0.00     0.023 A 
ATOM     74  C   UNL A   1      38.951  33.509  38.387  1.00  0.00     0.031 A 
ATOM     75  C   UNL A   1      39.884  35.355  37.158  1.00  0.00     0.131 A 
ATOM     76  C   UNL A   1      38.694  34.384  39.455  1.00  0.00     0.055 A 
ATOM     77  C   UNL A   1      39.683  36.208  38.244  1.00  0.00     0.041 A 
ATOM     78  F   UNL A   1      40.446  35.873  36.054  1.00  0.00    -0.206 F 
ATOM     79  C   UNL A   1      39.069  35.728  39.396  1.00  0.00     0.022 A 
BRANCH  76  80
ATOM     80  S   UNL A   1      37.769  33.762  40.886  1.00  0.00     0.124 S 
ATOM     81  O   UNL A   1      38.707  32.800  41.451  1.00  0.00    -0.237 OA
ATOM     82  O   UNL A   1      37.554  34.981  41.659  1.00  0.00    -0.237 OA
ATOM     83  O   UNL A   1      36.566  33.186  40.288  1.00  0.00    -0.744 OA
ENDBRANCH  76  80
ENDBRANCH  49  73
BRANCH  61  84
ATOM     84  C   UNL A   1      44.208  29.086  35.584  1.00  0.00     0.023 A 
ATOM     85  C   UNL A   1      44.152  28.039  36.519  1.00  0.00     0.031 A 
ATOM     86  C   UNL A   1      45.451  29.703  35.356  1.00  0.00     0.131 A 
ATOM     87  C   UNL A   1      45.295  27.697  37.254  1.00  0.00     0.055 A 
ATOM     88  C   UNL A   1      46.605  29.303  36.032  1.00  0.00     0.041 A 
ATOM     89  F   UNL A   1      45.565  30.710  34.476  1.00  0.00    -0.206 F 
ATOM     90  C   UNL A   1      46.526  28.308  37.003  1.00  0.00     0.022 A 
BRANCH  87  91
ATOM     91  S   UNL A   1      45.119  26.541  38.640  1.00  0.00     0.124 S 
ATOM     92  O   UNL A   1      45.901  27.197  39.682  1.00  0.00    -0.237 OA
ATOM     93  O   UNL A   1      43.674  26.521  38.847  1.00  0.00    -0.237 OA
ATOM     94  O   UNL A   1      45.690  25.298  38.125  1.00  0.00    -0.744 OA
ENDBRANCH  87  91
ENDBRANCH  61  84
ENDBRANCH  35  36
ENDBRANCH  27  30
ENDBRANCH  25  26
ENDBRANCH  24  25
ENDBRANCH   1  24
TORSDOF 17
ENDMDL
MODEL 2
REMARK VINA RESULT:     -11.4      3.051      8.199
REMARK SMILES CCCCNC(=O)c1c(Cl)c(Cl)c(Cl)c(Cl)c1C(=O)NCCCNC(=O)c1ccc(-c2c3nc(c(-c4cc(S(=O)(=O)[O-])ccc4F)c4ccc([nH]4)c(-c4cc(S(=O)(=O)[O-])ccc4F)c4nc(c(-c5cc(S(=O)(=O)[O-])ccc5F)c5ccc2[nH]5)C=C4)C=C3)cc1
REMARK SMILES IDX 21 1 20 2 18 3 19 4 17 6 8 7 9 8 10 9 11 10 15 11 12 12
REMARK SMILES IDX 13 13 16 14 14 15 6 16 5 17 7 19 4 20 3 21 2 22 1 23 22 24
REMARK SMILES IDX 23 25 24 26 25 27 26 29 27 30 28 31 89 32 29 33 88 34 30 35
REMARK SMILES IDX 31 36 32 37 82 38 33 39 87 40 81 41 83 42 34 43 86 44 80 45
REMARK SMILES IDX 79 46 35 48 67 49 47 50 66 51 48 52 51 53 65 54 84 55 49 56
REMARK SMILES IDX 50 57 64 59 85 60 52 61 36 62 37 63 45 64 38 65 44 66 46 67
REMARK SMILES IDX 43 68 39 69 40 70 41 71 42 72 68 73 69 74 77 75 70 76 76 77
REMARK SMILES IDX 78 78 75 79 71 80 72 81 73 82 74 83 53 84 54 85 62 86 55 87
REMARK SMILES IDX 61 88 63 89 60 90 56 91 57 92 58 93 59 94
REMARK H PARENT 20 5 5 18 24 28 83 47 51 58
REMARK Flexibility Score: inf
ROOT
ATOM      1  C   UNL A   1      32.327  26.708  26.706  1.00  0.00     0.118 C 
ENDROOT
BRANCH   1   2
ATOM      2  N   UNL A   1      31.335  25.677  26.794  1.00  0.00    -0.352 N 
ATOM      3  C   UNL A   1      31.522  24.336  26.545  1.00  0.00     0.253 C 
ATOM      4  O   UNL A   1      30.789  23.546  27.143  1.00  0.00    -0.269 OA
ATOM      5  H   UNL A   1      30.428  25.956  27.057  1.00  0.00     0.163 HD
BRANCH   3   6
ATOM      6  C   UNL A   1      32.479  23.761  25.539  1.00  0.00     0.074 A 
ATOM      7  C   UNL A   1      32.339  23.824  24.133  1.00  0.00     0.074 A 
ATOM      8  C   UNL A   1      33.449  23.613  23.283  1.00  0.00     0.074 A 
ATOM      9  Cl  UNL A   1      33.297  23.857  21.558  1.00  0.00    -0.082 Cl
ATOM     10  C   UNL A   1      34.690  23.240  23.818  1.00  0.00     0.080 A 
ATOM     11  C   UNL A   1      33.727  23.326  26.058  1.00  0.00     0.074 A 
ATOM     12  Cl  UNL A   1      36.046  22.955  22.761  1.00  0.00    -0.081 Cl
ATOM     13  C   UNL A   1      34.824  23.075  25.204  1.00  0.00     0.080 A 
ATOM     14  Cl  UNL A   1      33.914  22.994  27.767  1.00  0.00    -0.082 Cl
ATOM     15  Cl  UNL A   1      36.364  22.585  25.865  1.00  0.00    -0.081 Cl
BRANCH   7  16
ATOM     16  C   UNL A   1      31.068  24.145  23.467  1.00  0.00     0.253 C 
ATOM     17  N   UNL A   1      30.811  25.456  23.087  1.00  0.00    -0.352 N 
ATOM     18  H   UNL A   1      29.980  25.585  22.575  1.00  0.00     0.163 HD
ATOM     19  O   UNL A   1      30.278  23.239  23.248  1.00  0.00    -0.269 OA
BRANCH  17  20
ATOM     20  C   UNL A   1      31.584  26.676  23.330  1.00  0.00     0.116 C 
BRANCH  20  21
ATOM     21  C   UNL A   1      31.094  27.934  22.599  1.00  0.00     0.021 C 
BRANCH  21  22
ATOM     22  C   UNL A   1      30.194  28.893  23.380  1.00  0.00    -0.002 C 
ATOM     23  C   UNL A   1      28.848  29.162  22.729  1.00  0.00     0.004 C 
ENDBRANCH  21  22
ENDBRANCH  20  21
ENDBRANCH  17  20
ENDBRANCH   7  16
ENDBRANCH   3   6
ENDBRANCH   1   2
BRANCH   1  24
ATOM     24  C   UNL A   1      31.886  28.149  26.699  1.00  0.00     0.042 C 
BRANCH  24  25
ATOM     25  C   UNL A   1      32.765  29.100  25.922  1.00  0.00     0.118 C 
BRANCH  25  26
ATOM     26  N   UNL A   1      32.563  30.506  26.253  1.00  0.00    -0.352 N 
ATOM     27  C   UNL A   1      33.252  31.382  27.065  1.00  0.00     0.251 C 
ATOM     28  H   UNL A   1      31.781  30.909  25.809  1.00  0.00     0.163 HD
ATOM     29  O   UNL A   1      32.783  32.504  27.251  1.00  0.00    -0.269 OA
BRANCH  27  30
ATOM     30  C   UNL A   1      34.506  30.990  27.754  1.00  0.00     0.039 A 
ATOM     31  C   UNL A   1      35.499  31.951  27.977  1.00  0.00     0.014 A 
ATOM     32  C   UNL A   1      34.735  29.682  28.168  1.00  0.00     0.014 A 
ATOM     33  C   UNL A   1      36.666  31.605  28.669  1.00  0.00     0.010 A 
ATOM     34  C   UNL A   1      35.797  29.385  29.009  1.00  0.00     0.010 A 
ATOM     35  C   UNL A   1      36.807  30.326  29.230  1.00  0.00    -0.014 A 
BRANCH  35  36
ATOM     36  C   UNL A   1      38.033  29.916  29.968  1.00  0.00     0.031 A 
ATOM     37  C   UNL A   1      38.270  30.431  31.370  1.00  0.00     0.074 A 
ATOM     38  C   UNL A   1      38.951  29.134  29.367  1.00  0.00     0.049 A 
ATOM     39  N   UNL A   1      39.297  30.248  32.160  1.00  0.00    -0.248 NA
ATOM     40  C   UNL A   1      37.235  31.309  31.942  1.00  0.00     0.031 C 
ATOM     41  C   UNL A   1      38.868  28.629  27.995  1.00  0.00     0.029 A 
ATOM     42  N   UNL A   1      40.134  28.619  29.835  1.00  0.00    -0.354 N 
ATOM     43  C   UNL A   1      39.038  31.004  33.300  1.00  0.00     0.074 A 
ATOM     44  C   UNL A   1      37.812  31.727  33.055  1.00  0.00     0.031 C 
ATOM     45  C   UNL A   1      39.920  27.833  27.752  1.00  0.00     0.029 A 
ATOM     46  C   UNL A   1      40.781  27.808  28.930  1.00  0.00     0.049 A 
ATOM     47  H   UNL A   1      40.487  28.812  30.733  1.00  0.00     0.167 HD
ATOM     48  C   UNL A   1      39.730  31.058  34.464  1.00  0.00     0.034 A 
ATOM     49  C   UNL A   1      41.936  27.122  29.042  1.00  0.00     0.034 A 
ATOM     50  C   UNL A   1      40.931  30.300  34.704  1.00  0.00     0.049 A 
ATOM     51  C   UNL A   1      42.688  27.191  30.348  1.00  0.00     0.074 A 
ATOM     52  C   UNL A   1      41.691  30.225  35.858  1.00  0.00     0.029 A 
ATOM     53  N   UNL A   1      41.550  29.480  33.768  1.00  0.00    -0.354 N 
ATOM     54  N   UNL A   1      42.396  27.864  31.438  1.00  0.00    -0.248 NA
ATOM     55  C   UNL A   1      43.915  26.392  30.443  1.00  0.00     0.031 C 
ATOM     56  C   UNL A   1      42.804  29.419  35.597  1.00  0.00     0.029 A 
ATOM     57  C   UNL A   1      42.695  28.919  34.309  1.00  0.00     0.049 A 
ATOM     58  H   UNL A   1      41.222  29.321  32.853  1.00  0.00     0.167 HD
ATOM     59  C   UNL A   1      43.389  27.542  32.359  1.00  0.00     0.074 A 
ATOM     60  C   UNL A   1      44.266  26.593  31.703  1.00  0.00     0.031 C 
ATOM     61  C   UNL A   1      43.565  27.986  33.631  1.00  0.00     0.034 A 
BRANCH  48  62
ATOM     62  C   UNL A   1      39.203  31.972  35.549  1.00  0.00     0.023 A 
ATOM     63  C   UNL A   1      39.603  33.319  35.641  1.00  0.00     0.031 A 
ATOM     64  C   UNL A   1      38.324  31.484  36.531  1.00  0.00     0.131 A 
ATOM     65  C   UNL A   1      39.201  34.098  36.736  1.00  0.00     0.055 A 
ATOM     66  C   UNL A   1      37.851  32.294  37.566  1.00  0.00     0.041 A 
ATOM     67  F   UNL A   1      37.923  30.203  36.514  1.00  0.00    -0.206 F 
ATOM     68  C   UNL A   1      38.303  33.605  37.684  1.00  0.00     0.022 A 
BRANCH  65  69
ATOM     69  S   UNL A   1      39.999  35.708  36.991  1.00  0.00     0.124 S 
ATOM     70  O   UNL A   1      39.341  36.171  38.211  1.00  0.00    -0.237 OA
ATOM     71  O   UNL A   1      41.405  35.346  37.122  1.00  0.00    -0.237 OA
ATOM     72  O   UNL A   1      39.655  36.456  35.783  1.00  0.00    -0.744 OA
ENDBRANCH  65  69
ENDBRANCH  48  62
BRANCH  49  73
ATOM     73  C   UNL A   1      42.447  26.301  27.905  1.00  0.00     0.023 A 
ATOM     74  C   UNL A   1      41.986  24.992  27.692  1.00  0.00     0.031 A 
ATOM     75  C   UNL A   1      43.441  26.794  27.041  1.00  0.00     0.131 A 
ATOM     76  C   UNL A   1      42.555  24.201  26.681  1.00  0.00     0.055 A 
ATOM     77  C   UNL A   1      43.962  26.025  25.998  1.00  0.00     0.041 A 
ATOM     78  F   UNL A   1      43.916  28.041  27.193  1.00  0.00    -0.206 F 
ATOM     79  C   UNL A   1      43.530  24.715  25.823  1.00  0.00     0.022 A 
BRANCH  76  80
ATOM     80  S   UNL A   1      42.074  22.456  26.567  1.00  0.00     0.124 S 
ATOM     81  O   UNL A   1      40.620  22.552  26.504  1.00  0.00    -0.237 OA
ATOM     82  O   UNL A   1      42.745  22.038  25.340  1.00  0.00    -0.237 OA
ATOM     83  O   UNL A   1      42.610  21.875  27.795  1.00  0.00    -0.744 OA
ENDBRANCH  76  80
ENDBRANCH  49  73
BRANCH  61  84
ATOM     84  C   UNL A   1      44.732  27.411  34.397  1.00  0.00     0.023 A 
ATOM     85  C   UNL A   1      44.613  26.225  35.143  1.00  0.00     0.031 A 
ATOM     86  C   UNL A   1      45.970  28.077  34.409  1.00  0.00     0.131 A 
ATOM     87  C   UNL A   1      45.682  25.789  35.937  1.00  0.00     0.055 A 
ATOM     88  C   UNL A   1      47.059  27.593  35.137  1.00  0.00     0.041 A 
ATOM     89  F   UNL A   1      46.144  29.214  33.717  1.00  0.00    -0.206 F 
ATOM     90  C   UNL A   1      46.911  26.454  35.923  1.00  0.00     0.022 A 
BRANCH  87  91
ATOM     91  S   UNL A   1      45.399  24.423  37.094  1.00  0.00     0.124 S 
ATOM     92  O   UNL A   1      46.698  23.757  37.100  1.00  0.00    -0.237 OA
ATOM     93  O   UNL A   1      45.039  25.124  38.322  1.00  0.00    -0.237 OA
ATOM     94  O   UNL A   1      44.315  23.665  36.472  1.00  0.00    -0.744 OA
ENDBRANCH  87  91
ENDBRANCH  61  84
ENDBRANCH  35  36
ENDBRANCH  27  30
ENDBRANCH  25  26
ENDBRANCH  24  25
ENDBRANCH   1  24
TORSDOF 17
ENDMDL
MODEL 3
REMARK VINA RESULT:     -11.3      3.053      8.771
REMARK SMILES CCCCNC(=O)c1c(Cl)c(Cl)c(Cl)c(Cl)c1C(=O)NCCCNC(=O)c1ccc(-c2c3nc(c(-c4cc(S(=O)(=O)[O-])ccc4F)c4ccc([nH]4)c(-c4cc(S(=O)(=O)[O-])ccc4F)c4nc(c(-c5cc(S(=O)(=O)[O-])ccc5F)c5ccc2[nH]5)C=C4)C=C3)cc1
REMARK SMILES IDX 21 1 20 2 18 3 19 4 17 6 8 7 9 8 10 9 11 10 15 11 12 12
REMARK SMILES IDX 13 13 16 14 14 15 6 16 5 17 7 19 4 20 3 21 2 22 1 23 22 24
REMARK SMILES IDX 23 25 24 26 25 27 26 29 27 30 28 31 89 32 29 33 88 34 30 35
REMARK SMILES IDX 31 36 32 37 82 38 33 39 87 40 81 41 83 42 34 43 86 44 80 45
REMARK SMILES IDX 79 46 35 48 67 49 47 50 66 51 48 52 51 53 65 54 84 55 49 56
REMARK SMILES IDX 50 57 64 59 85 60 52 61 36 62 37 63 45 64 38 65 44 66 46 67
REMARK SMILES IDX 43 68 39 69 40 70 41 71 42 72 68 73 69 74 77 75 70 76 76 77
REMARK SMILES IDX 78 78 75 79 71 80 72 81 73 82 74 83 53 84 54 85 62 86 55 87
REMARK SMILES IDX 61 88 63 89 60 90 56 91 57 92 58 93 59 94
REMARK H PARENT 20 5 5 18 24 28 83 47 51 58
REMARK Flexibility Score: inf
ROOT
ATOM      1  C   UNL A   1      32.260  27.325  27.131  1.00  0.00     0.118 C 
ENDROOT
BRANCH   1   2
ATOM      2  N   UNL A   1      30.978  26.773  26.802  1.00  0.00    -0.352 N 
ATOM      3  C   UNL A   1      30.742  25.606  26.108  1.00  0.00     0.253 C 
ATOM      4  O   UNL A   1      29.691  25.010  26.353  1.00  0.00    -0.269 OA
ATOM      5  H   UNL A   1      30.188  27.278  27.100  1.00  0.00     0.163 HD
BRANCH   3   6
ATOM      6  C   UNL A   1      31.610  25.052  25.014  1.00  0.00     0.074 A 
ATOM      7  C   UNL A   1      32.299  23.818  25.047  1.00  0.00     0.074 A 
ATOM      8  C   UNL A   1      32.757  23.210  23.856  1.00  0.00     0.074 A 
ATOM      9  Cl  UNL A   1      33.458  21.609  23.897  1.00  0.00    -0.082 Cl
ATOM     10  C   UNL A   1      32.622  23.870  22.627  1.00  0.00     0.080 A 
ATOM     11  C   UNL A   1      31.534  25.731  23.769  1.00  0.00     0.074 A 
ATOM     12  Cl  UNL A   1      33.213  23.125  21.166  1.00  0.00    -0.081 Cl
ATOM     13  C   UNL A   1      32.030  25.141  22.585  1.00  0.00     0.080 A 
ATOM     14  Cl  UNL A   1      30.910  27.365  23.681  1.00  0.00    -0.082 Cl
ATOM     15  Cl  UNL A   1      31.886  25.971  21.056  1.00  0.00    -0.081 Cl
BRANCH   7  16
ATOM     16  C   UNL A   1      32.550  23.073  26.290  1.00  0.00     0.253 C 
ATOM     17  N   UNL A   1      33.785  23.187  26.914  1.00  0.00    -0.352 N 
ATOM     18  H   UNL A   1      33.856  22.728  27.782  1.00  0.00     0.163 HD
ATOM     19  O   UNL A   1      31.650  22.388  26.751  1.00  0.00    -0.269 OA
BRANCH  17  20
ATOM     20  C   UNL A   1      34.998  23.884  26.482  1.00  0.00     0.116 C 
BRANCH  20  21
ATOM     21  C   UNL A   1      36.058  23.015  25.790  1.00  0.00     0.021 C 
BRANCH  21  22
ATOM     22  C   UNL A   1      37.381  23.687  25.418  1.00  0.00    -0.002 C 
ATOM     23  C   UNL A   1      38.176  24.210  26.602  1.00  0.00     0.004 C 
ENDBRANCH  21  22
ENDBRANCH  20  21
ENDBRANCH  17  20
ENDBRANCH   7  16
ENDBRANCH   3   6
ENDBRANCH   1   2
BRANCH   1  24
ATOM     24  C   UNL A   1      32.355  28.786  27.488  1.00  0.00     0.042 C 
BRANCH  24  25
ATOM     25  C   UNL A   1      32.946  29.684  26.426  1.00  0.00     0.118 C 
BRANCH  25  26
ATOM     26  N   UNL A   1      32.948  31.100  26.775  1.00  0.00    -0.352 N 
ATOM     27  C   UNL A   1      33.817  31.879  27.509  1.00  0.00     0.251 C 
ATOM     28  H   UNL A   1      32.177  31.597  26.416  1.00  0.00     0.163 HD
ATOM     29  O   UNL A   1      33.507  33.046  27.741  1.00  0.00    -0.269 OA
BRANCH  27  30
ATOM     30  C   UNL A   1      35.081  31.334  28.063  1.00  0.00     0.039 A 
ATOM     31  C   UNL A   1      36.235  32.126  28.056  1.00  0.00     0.014 A 
ATOM     32  C   UNL A   1      35.159  30.042  28.572  1.00  0.00     0.014 A 
ATOM     33  C   UNL A   1      37.421  31.642  28.620  1.00  0.00     0.010 A 
ATOM     34  C   UNL A   1      36.273  29.635  29.292  1.00  0.00     0.010 A 
ATOM     35  C   UNL A   1      37.439  30.404  29.283  1.00  0.00    -0.014 A 
BRANCH  35  36
ATOM     36  C   UNL A   1      38.680  29.851  29.890  1.00  0.00     0.031 A 
ATOM     37  C   UNL A   1      39.109  30.308  31.267  1.00  0.00     0.074 A 
ATOM     38  C   UNL A   1      39.444  28.986  29.194  1.00  0.00     0.049 A 
ATOM     39  N   UNL A   1      40.183  30.000  31.948  1.00  0.00    -0.248 NA
ATOM     40  C   UNL A   1      38.237  31.281  31.947  1.00  0.00     0.031 C 
ATOM     41  C   UNL A   1      39.171  28.520  27.832  1.00  0.00     0.029 A 
ATOM     42  N   UNL A   1      40.604  28.337  29.535  1.00  0.00    -0.354 N 
ATOM     43  C   UNL A   1      40.122  30.757  33.115  1.00  0.00     0.074 A 
ATOM     44  C   UNL A   1      38.964  31.613  33.001  1.00  0.00     0.031 C 
ATOM     45  C   UNL A   1      40.101  27.620  27.478  1.00  0.00     0.029 A 
ATOM     46  C   UNL A   1      41.066  27.480  28.563  1.00  0.00     0.049 A 
ATOM     47  H   UNL A   1      41.062  28.473  30.395  1.00  0.00     0.167 HD
ATOM     48  C   UNL A   1      40.927  30.713  34.204  1.00  0.00     0.034 A 
ATOM     49  C   UNL A   1      42.144  26.671  28.553  1.00  0.00     0.034 A 
ATOM     50  C   UNL A   1      42.056  29.825  34.316  1.00  0.00     0.049 A 
ATOM     51  C   UNL A   1      43.024  26.632  29.777  1.00  0.00     0.074 A 
ATOM     52  C   UNL A   1      42.912  29.646  35.387  1.00  0.00     0.029 A 
ATOM     53  N   UNL A   1      42.486  28.962  33.315  1.00  0.00    -0.354 N 
ATOM     54  N   UNL A   1      42.916  27.311  30.897  1.00  0.00    -0.248 NA
ATOM     55  C   UNL A   1      44.160  25.704  29.742  1.00  0.00     0.031 C 
ATOM     56  C   UNL A   1      43.900  28.730  35.009  1.00  0.00     0.029 A 
ATOM     57  C   UNL A   1      43.611  28.270  33.734  1.00  0.00     0.049 A 
ATOM     58  H   UNL A   1      42.054  28.858  32.436  1.00  0.00     0.167 HD
ATOM     59  C   UNL A   1      43.955  26.865  31.711  1.00  0.00     0.074 A 
ATOM     60  C   UNL A   1      44.654  25.841  30.962  1.00  0.00     0.031 C 
ATOM     61  C   UNL A   1      44.302  27.263  32.964  1.00  0.00     0.034 A 
BRANCH  48  62
ATOM     62  C   UNL A   1      40.612  31.657  35.345  1.00  0.00     0.023 A 
ATOM     63  C   UNL A   1      39.591  31.382  36.273  1.00  0.00     0.031 A 
ATOM     64  C   UNL A   1      41.311  32.868  35.483  1.00  0.00     0.131 A 
ATOM     65  C   UNL A   1      39.238  32.340  37.235  1.00  0.00     0.055 A 
ATOM     66  C   UNL A   1      41.018  33.777  36.503  1.00  0.00     0.041 A 
ATOM     67  F   UNL A   1      42.282  33.202  34.617  1.00  0.00    -0.206 F 
ATOM     68  C   UNL A   1      39.963  33.524  37.376  1.00  0.00     0.022 A 
BRANCH  65  69
ATOM     69  S   UNL A   1      37.712  32.091  38.186  1.00  0.00     0.124 S 
ATOM     70  O   UNL A   1      36.844  33.123  37.624  1.00  0.00    -0.237 OA
ATOM     71  O   UNL A   1      37.360  30.713  37.860  1.00  0.00    -0.237 OA
ATOM     72  O   UNL A   1      38.129  32.320  39.568  1.00  0.00    -0.744 OA
ENDBRANCH  65  69
ENDBRANCH  48  62
BRANCH  49  73
ATOM     73  C   UNL A   1      42.448  25.822  27.363  1.00  0.00     0.023 A 
ATOM     74  C   UNL A   1      42.045  24.478  27.310  1.00  0.00     0.031 A 
ATOM     75  C   UNL A   1      43.189  26.327  26.279  1.00  0.00     0.131 A 
ATOM     76  C   UNL A   1      42.431  23.670  26.229  1.00  0.00     0.055 A 
ATOM     77  C   UNL A   1      43.519  25.537  25.177  1.00  0.00     0.041 A 
ATOM     78  F   UNL A   1      43.596  27.607  26.272  1.00  0.00    -0.206 F 
ATOM     79  C   UNL A   1      43.153  24.195  25.154  1.00  0.00     0.022 A 
BRANCH  76  80
ATOM     80  S   UNL A   1      42.061  21.895  26.293  1.00  0.00     0.124 S 
ATOM     81  O   UNL A   1      40.632  21.880  26.004  1.00  0.00    -0.237 OA
ATOM     82  O   UNL A   1      42.935  21.368  25.250  1.00  0.00    -0.237 OA
ATOM     83  O   UNL A   1      42.428  21.522  27.657  1.00  0.00    -0.744 OA
ENDBRANCH  76  80
ENDBRANCH  49  73
BRANCH  61  84
ATOM     84  C   UNL A   1      45.469  26.550  33.604  1.00  0.00     0.023 A 
ATOM     85  C   UNL A   1      45.291  25.391  34.379  1.00  0.00     0.031 A 
ATOM     86  C   UNL A   1      46.773  27.057  33.464  1.00  0.00     0.131 A 
ATOM     87  C   UNL A   1      46.382  24.829  35.055  1.00  0.00     0.055 A 
ATOM     88  C   UNL A   1      47.870  26.445  34.073  1.00  0.00     0.041 A 
ATOM     89  F   UNL A   1      47.005  28.161  32.736  1.00  0.00    -0.206 F 
ATOM     90  C   UNL A   1      47.674  25.336  34.891  1.00  0.00     0.022 A 
BRANCH  87  91
ATOM     91  S   UNL A   1      46.067  23.513  36.261  1.00  0.00     0.124 S 
ATOM     92  O   UNL A   1      47.407  22.981  36.486  1.00  0.00    -0.237 OA
ATOM     93  O   UNL A   1      45.479  24.247  37.377  1.00  0.00    -0.237 OA
ATOM     94  O   UNL A   1      45.152  22.615  35.558  1.00  0.00    -0.744 OA
ENDBRANCH  87  91
ENDBRANCH  61  84
ENDBRANCH  35  36
ENDBRANCH  27  30
ENDBRANCH  25  26
ENDBRANCH  24  25
ENDBRANCH   1  24
TORSDOF 17
ENDMDL
