MODEL 1
REMARK VINA RESULT:     -12.7      0.000      0.000
REMARK SMILES O=C(NCCCNC(=O)c1ccc(-c2c3nc(c(-c4cc(S(=O)(=O)[O-])ccc4F)c4ccc([nH]4)c(-c4cc(S(=O)(=O)[O-])ccc4F)c4nc(c(-c5cc(S(=O)(=O)[O-])ccc5F)c5ccc2[nH]5)C=C4)C=C3)cc1)c1ccc(NS(=O)(=O)Cc2c(Cl)cccc2Cl)cc1
REMARK SMILES IDX 4 1 3 2 1 3 2 4 73 6 74 7 91 8 75 9 90 10 76 11 77 12 78 14
REMARK SMILES IDX 79 15 80 16 81 17 82 18 83 19 88 20 84 21 85 22 87 23 89 24
REMARK SMILES IDX 86 25 5 26 6 27 7 28 8 29 9 31 10 32 11 33 72 34 12 35 71 36
REMARK SMILES IDX 13 37 14 38 15 39 65 40 16 41 70 42 64 43 66 44 17 45 69 46
REMARK SMILES IDX 63 47 62 48 18 50 50 51 30 52 49 53 31 54 34 55 48 56 67 57
REMARK SMILES IDX 32 58 33 59 47 61 68 62 35 63 19 64 20 65 28 66 21 67 27 68
REMARK SMILES IDX 29 69 26 70 22 71 23 72 24 73 25 74 51 75 52 76 60 77 53 78
REMARK SMILES IDX 59 79 61 80 58 81 54 82 55 83 56 84 57 85 36 86 37 87 45 88
REMARK SMILES IDX 38 89 44 90 46 91 43 92 39 93 40 94 41 95 42 96
REMARK H PARENT 3 5 77 13 7 30 66 49 34 60
REMARK Flexibility Score: inf
ROOT
ATOM      1  C   UNL A   1      34.908  21.264  25.945  1.00  0.00     0.118 C 
ENDROOT
BRANCH   1   2
ATOM      2  N   UNL A   1      34.060  20.081  25.875  1.00  0.00    -0.352 N 
ATOM      3  O   UNL A   1      32.176  18.909  25.421  1.00  0.00    -0.269 OA
ATOM      4  C   UNL A   1      32.835  19.932  25.277  1.00  0.00     0.251 C 
ATOM      5  H   UNL A   1      34.417  19.277  26.318  1.00  0.00     0.163 HD
BRANCH   4   6
ATOM      6  C   UNL A   1      32.297  21.043  24.476  1.00  0.00     0.039 A 
ATOM      7  C   UNL A   1      32.567  21.133  23.106  1.00  0.00     0.016 A 
ATOM      8  C   UNL A   1      31.539  22.018  25.119  1.00  0.00     0.016 A 
ATOM      9  C   UNL A   1      32.165  22.264  22.393  1.00  0.00     0.027 A 
ATOM     10  C   UNL A   1      31.156  23.150  24.406  1.00  0.00     0.027 A 
ATOM     11  C   UNL A   1      31.530  23.308  23.063  1.00  0.00     0.049 A 
BRANCH  11  12
ATOM     12  N   UNL A   1      31.243  24.569  22.490  1.00  0.00    -0.283 N 
ATOM     13  H   UNL A   1      30.330  24.692  22.145  1.00  0.00     0.180 HD
BRANCH  12  14
ATOM     14  S   UNL A   1      32.260  25.854  22.333  1.00  0.00     0.237 S 
ATOM     15  O   UNL A   1      33.241  25.509  21.322  1.00  0.00    -0.206 OA
ATOM     16  O   UNL A   1      31.384  26.990  22.106  1.00  0.00    -0.206 OA
BRANCH  14  17
ATOM     17  C   UNL A   1      33.147  26.169  23.858  1.00  0.00     0.198 C 
BRANCH  17  18
ATOM     18  C   UNL A   1      32.793  27.286  24.821  1.00  0.00     0.006 A 
ATOM     19  C   UNL A   1      33.238  28.595  24.473  1.00  0.00     0.046 A 
ATOM     20  C   UNL A   1      31.931  27.214  25.928  1.00  0.00     0.046 A 
ATOM     21  Cl  UNL A   1      34.130  28.921  23.016  1.00  0.00    -0.084 Cl
ATOM     22  C   UNL A   1      32.930  29.727  25.239  1.00  0.00     0.021 A 
ATOM     23  C   UNL A   1      31.669  28.345  26.726  1.00  0.00     0.021 A 
ATOM     24  Cl  UNL A   1      31.012  25.811  26.341  1.00  0.00    -0.084 Cl
ATOM     25  C   UNL A   1      32.162  29.598  26.383  1.00  0.00     0.003 A 
ENDBRANCH  17  18
ENDBRANCH  14  17
ENDBRANCH  12  14
ENDBRANCH  11  12
ENDBRANCH   4   6
ENDBRANCH   1   2
BRANCH   1  26
ATOM     26  C   UNL A   1      35.805  21.411  24.722  1.00  0.00     0.042 C 
BRANCH  26  27
ATOM     27  C   UNL A   1      37.229  21.852  25.030  1.00  0.00     0.118 C 
BRANCH  27  28
ATOM     28  N   UNL A   1      38.087  20.746  25.432  1.00  0.00    -0.352 N 
ATOM     29  C   UNL A   1      39.312  20.764  26.058  1.00  0.00     0.251 C 
ATOM     30  H   UNL A   1      37.737  19.849  25.225  1.00  0.00     0.163 HD
ATOM     31  O   UNL A   1      39.954  19.722  26.153  1.00  0.00    -0.269 OA
BRANCH  29  32
ATOM     32  C   UNL A   1      39.867  22.034  26.578  1.00  0.00     0.039 A 
ATOM     33  C   UNL A   1      40.863  21.993  27.558  1.00  0.00     0.014 A 
ATOM     34  C   UNL A   1      39.413  23.265  26.099  1.00  0.00     0.014 A 
ATOM     35  C   UNL A   1      41.463  23.179  27.993  1.00  0.00     0.010 A 
ATOM     36  C   UNL A   1      40.066  24.436  26.471  1.00  0.00     0.010 A 
ATOM     37  C   UNL A   1      41.101  24.407  27.419  1.00  0.00    -0.014 A 
BRANCH  37  38
ATOM     38  C   UNL A   1      41.766  25.685  27.789  1.00  0.00     0.031 A 
ATOM     39  C   UNL A   1      40.997  26.728  28.553  1.00  0.00     0.074 A 
ATOM     40  C   UNL A   1      43.013  25.951  27.352  1.00  0.00     0.049 A 
ATOM     41  N   UNL A   1      41.308  27.973  28.806  1.00  0.00    -0.248 NA
ATOM     42  C   UNL A   1      39.683  26.317  29.067  1.00  0.00     0.031 C 
ATOM     43  C   UNL A   1      43.859  25.030  26.590  1.00  0.00     0.029 A 
ATOM     44  N   UNL A   1      43.778  27.085  27.468  1.00  0.00    -0.354 N 
ATOM     45  C   UNL A   1      40.216  28.505  29.483  1.00  0.00     0.074 A 
ATOM     46  C   UNL A   1      39.215  27.460  29.545  1.00  0.00     0.031 C 
ATOM     47  C   UNL A   1      45.029  25.632  26.319  1.00  0.00     0.029 A 
ATOM     48  C   UNL A   1      44.996  26.997  26.834  1.00  0.00     0.049 A 
ATOM     49  H   UNL A   1      43.483  27.886  27.959  1.00  0.00     0.167 HD
ATOM     50  C   UNL A   1      40.068  29.742  30.020  1.00  0.00     0.034 A 
ATOM     51  C   UNL A   1      45.966  27.918  26.665  1.00  0.00     0.034 A 
ATOM     52  C   UNL A   1      41.083  30.767  29.960  1.00  0.00     0.049 A 
ATOM     53  C   UNL A   1      45.769  29.301  27.233  1.00  0.00     0.074 A 
ATOM     54  C   UNL A   1      41.057  32.041  30.499  1.00  0.00     0.029 A 
ATOM     55  N   UNL A   1      42.308  30.635  29.317  1.00  0.00    -0.354 N 
ATOM     56  N   UNL A   1      44.736  29.788  27.881  1.00  0.00    -0.248 NA
ATOM     57  C   UNL A   1      46.869  30.256  27.049  1.00  0.00     0.031 C 
ATOM     58  C   UNL A   1      42.237  32.699  30.132  1.00  0.00     0.029 A 
ATOM     59  C   UNL A   1      43.035  31.811  29.427  1.00  0.00     0.049 A 
ATOM     60  H   UNL A   1      42.616  29.824  28.851  1.00  0.00     0.167 HD
ATOM     61  C   UNL A   1      45.081  31.094  28.218  1.00  0.00     0.074 A 
ATOM     62  C   UNL A   1      46.415  31.318  27.700  1.00  0.00     0.031 C 
ATOM     63  C   UNL A   1      44.365  32.020  28.905  1.00  0.00     0.034 A 
BRANCH  50  64
ATOM     64  C   UNL A   1      38.747  30.051  30.686  1.00  0.00     0.023 A 
ATOM     65  C   UNL A   1      37.715  30.716  30.002  1.00  0.00     0.031 A 
ATOM     66  C   UNL A   1      38.536  29.731  32.039  1.00  0.00     0.131 A 
ATOM     67  C   UNL A   1      36.568  31.131  30.694  1.00  0.00     0.055 A 
ATOM     68  C   UNL A   1      37.350  30.061  32.698  1.00  0.00     0.041 A 
ATOM     69  F   UNL A   1      39.490  29.114  32.753  1.00  0.00    -0.206 F 
ATOM     70  C   UNL A   1      36.365  30.786  32.032  1.00  0.00     0.022 A 
BRANCH  67  71
ATOM     71  S   UNL A   1      35.436  32.285  29.870  1.00  0.00     0.124 S 
ATOM     72  O   UNL A   1      36.300  33.444  29.660  1.00  0.00    -0.237 OA
ATOM     73  O   UNL A   1      35.051  31.549  28.673  1.00  0.00    -0.237 OA
ATOM     74  O   UNL A   1      34.372  32.483  30.854  1.00  0.00    -0.744 OA
ENDBRANCH  67  71
ENDBRANCH  50  64
BRANCH  51  75
ATOM     75  C   UNL A   1      47.208  27.574  25.918  1.00  0.00     0.023 A 
ATOM     76  C   UNL A   1      47.307  27.823  24.540  1.00  0.00     0.031 A 
ATOM     77  C   UNL A   1      48.303  26.970  26.561  1.00  0.00     0.131 A 
ATOM     78  C   UNL A   1      48.459  27.432  23.841  1.00  0.00     0.055 A 
ATOM     79  C   UNL A   1      49.465  26.626  25.870  1.00  0.00     0.041 A 
ATOM     80  F   UNL A   1      48.262  26.720  27.880  1.00  0.00    -0.206 F 
ATOM     81  C   UNL A   1      49.544  26.847  24.499  1.00  0.00     0.022 A 
BRANCH  78  82
ATOM     82  S   UNL A   1      48.494  27.641  22.039  1.00  0.00     0.124 S 
ATOM     83  O   UNL A   1      49.613  28.559  21.870  1.00  0.00    -0.237 OA
ATOM     84  O   UNL A   1      48.709  26.273  21.581  1.00  0.00    -0.237 OA
ATOM     85  O   UNL A   1      47.177  28.196  21.737  1.00  0.00    -0.744 OA
ENDBRANCH  78  82
ENDBRANCH  51  75
BRANCH  63  86
ATOM     86  C   UNL A   1      45.040  33.337  29.195  1.00  0.00     0.023 A 
ATOM     87  C   UNL A   1      44.972  34.424  28.307  1.00  0.00     0.031 A 
ATOM     88  C   UNL A   1      45.762  33.504  30.392  1.00  0.00     0.131 A 
ATOM     89  C   UNL A   1      45.651  35.616  28.608  1.00  0.00     0.055 A 
ATOM     90  C   UNL A   1      46.390  34.708  30.711  1.00  0.00     0.041 A 
ATOM     91  F   UNL A   1      45.861  32.497  31.274  1.00  0.00    -0.206 F 
ATOM     92  C   UNL A   1      46.344  35.770  29.812  1.00  0.00     0.022 A 
BRANCH  89  93
ATOM     93  S   UNL A   1      45.676  36.943  27.372  1.00  0.00     0.124 S 
ATOM     94  O   UNL A   1      46.627  37.883  27.956  1.00  0.00    -0.237 OA
ATOM     95  O   UNL A   1      46.124  36.244  26.172  1.00  0.00    -0.237 OA
ATOM     96  O   UNL A   1      44.289  37.406  27.336  1.00  0.00    -0.744 OA
ENDBRANCH  89  93
ENDBRANCH  63  86
ENDBRANCH  37  38
ENDBRANCH  29  32
ENDBRANCH  27  28
ENDBRANCH  26  27
ENDBRANCH   1  26
TORSDOF 17
ENDMDL
MODEL 2
REMARK VINA RESULT:     -12.6      1.869      2.241
REMARK SMILES O=C(NCCCNC(=O)c1ccc(-c2c3nc(c(-c4cc(S(=O)(=O)[O-])ccc4F)c4ccc([nH]4)c(-c4cc(S(=O)(=O)[O-])ccc4F)c4nc(c(-c5cc(S(=O)(=O)[O-])ccc5F)c5ccc2[nH]5)C=C4)C=C3)cc1)c1ccc(NS(=O)(=O)Cc2c(Cl)cccc2Cl)cc1
REMARK SMILES IDX 4 1 3 2 1 3 2 4 73 6 74 7 91 8 75 9 90 10 76 11 77 12 78 14
REMARK SMILES IDX 79 15 80 16 81 17 82 18 83 19 88 20 84 21 85 22 87 23 89 24
REMARK SMILES IDX 86 25 5 26 6 27 7 28 8 29 9 31 10 32 11 33 72 34 12 35 71 36
REMARK SMILES IDX 13 37 14 38 15 39 65 40 16 41 70 42 64 43 66 44 17 45 69 46
REMARK SMILES IDX 63 47 62 48 18 50 50 51 30 52 49 53 31 54 34 55 48 56 67 57
REMARK SMILES IDX 32 58 33 59 47 61 68 62 35 63 19 64 20 65 28 66 21 67 27 68
REMARK SMILES IDX 29 69 26 70 22 71 23 72 24 73 25 74 51 75 52 76 60 77 53 78
REMARK SMILES IDX 59 79 61 80 58 81 54 82 55 83 56 84 57 85 36 86 37 87 45 88
REMARK SMILES IDX 38 89 44 90 46 91 43 92 39 93 40 94 41 95 42 96
REMARK H PARENT 3 5 77 13 7 30 66 49 34 60
REMARK Flexibility Score: inf
ROOT
ATOM      1  C   UNL A   1      33.953  22.942  24.738  1.00  0.00     0.118 C 
ENDROOT
BRANCH   1   2
ATOM      2  N   UNL A   1      33.301  22.549  25.980  1.00  0.00    -0.352 N 
ATOM      3  O   UNL A   1      31.819  22.723  27.684  1.00  0.00    -0.269 OA
ATOM      4  C   UNL A   1      32.170  23.064  26.561  1.00  0.00     0.251 C 
ATOM      5  H   UNL A   1      33.732  21.812  26.470  1.00  0.00     0.163 HD
BRANCH   4   6
ATOM      6  C   UNL A   1      31.390  24.071  25.824  1.00  0.00     0.039 A 
ATOM      7  C   UNL A   1      30.983  23.836  24.506  1.00  0.00     0.016 A 
ATOM      8  C   UNL A   1      31.093  25.274  26.458  1.00  0.00     0.016 A 
ATOM      9  C   UNL A   1      30.365  24.855  23.779  1.00  0.00     0.027 A 
ATOM     10  C   UNL A   1      30.493  26.292  25.721  1.00  0.00     0.027 A 
ATOM     11  C   UNL A   1      30.194  26.108  24.364  1.00  0.00     0.049 A 
BRANCH  11  12
ATOM     12  N   UNL A   1      29.752  27.260  23.671  1.00  0.00    -0.283 N 
ATOM     13  H   UNL A   1      28.880  27.624  23.946  1.00  0.00     0.180 HD
BRANCH  12  14
ATOM     14  S   UNL A   1      30.526  28.060  22.460  1.00  0.00     0.237 S 
ATOM     15  O   UNL A   1      31.112  27.062  21.586  1.00  0.00    -0.206 OA
ATOM     16  O   UNL A   1      29.529  28.969  21.923  1.00  0.00    -0.206 OA
BRANCH  14  17
ATOM     17  C   UNL A   1      31.865  29.066  23.099  1.00  0.00     0.198 C 
BRANCH  17  18
ATOM     18  C   UNL A   1      32.530  28.825  24.442  1.00  0.00     0.006 A 
ATOM     19  C   UNL A   1      32.093  29.640  25.527  1.00  0.00     0.046 A 
ATOM     20  C   UNL A   1      33.403  27.779  24.783  1.00  0.00     0.046 A 
ATOM     21  Cl  UNL A   1      30.851  30.845  25.348  1.00  0.00    -0.084 Cl
ATOM     22  C   UNL A   1      32.577  29.484  26.832  1.00  0.00     0.021 A 
ATOM     23  C   UNL A   1      33.929  27.660  26.085  1.00  0.00     0.021 A 
ATOM     24  Cl  UNL A   1      33.807  26.479  23.721  1.00  0.00    -0.084 Cl
ATOM     25  C   UNL A   1      33.517  28.506  27.107  1.00  0.00     0.003 A 
ENDBRANCH  17  18
ENDBRANCH  14  17
ENDBRANCH  12  14
ENDBRANCH  11  12
ENDBRANCH   4   6
ENDBRANCH   1   2
BRANCH   1  26
ATOM     26  C   UNL A   1      35.234  22.159  24.479  1.00  0.00     0.042 C 
BRANCH  26  27
ATOM     27  C   UNL A   1      36.196  22.110  25.658  1.00  0.00     0.118 C 
BRANCH  27  28
ATOM     28  N   UNL A   1      37.158  21.021  25.555  1.00  0.00    -0.352 N 
ATOM     29  C   UNL A   1      38.513  21.018  25.792  1.00  0.00     0.251 C 
ATOM     30  H   UNL A   1      36.781  20.156  25.274  1.00  0.00     0.163 HD
ATOM     31  O   UNL A   1      39.176  20.033  25.477  1.00  0.00    -0.269 OA
BRANCH  29  32
ATOM     32  C   UNL A   1      39.171  22.204  26.385  1.00  0.00     0.039 A 
ATOM     33  C   UNL A   1      40.232  22.021  27.277  1.00  0.00     0.014 A 
ATOM     34  C   UNL A   1      38.749  23.496  26.061  1.00  0.00     0.014 A 
ATOM     35  C   UNL A   1      40.923  23.130  27.774  1.00  0.00     0.010 A 
ATOM     36  C   UNL A   1      39.488  24.594  26.490  1.00  0.00     0.010 A 
ATOM     37  C   UNL A   1      40.587  24.424  27.348  1.00  0.00    -0.014 A 
BRANCH  37  38
ATOM     38  C   UNL A   1      41.344  25.627  27.785  1.00  0.00     0.031 A 
ATOM     39  C   UNL A   1      40.639  26.707  28.560  1.00  0.00     0.074 A 
ATOM     40  C   UNL A   1      42.623  25.799  27.400  1.00  0.00     0.049 A 
ATOM     41  N   UNL A   1      41.044  27.912  28.866  1.00  0.00    -0.248 NA
ATOM     42  C   UNL A   1      39.277  26.395  29.015  1.00  0.00     0.031 C 
ATOM     43  C   UNL A   1      43.415  24.835  26.634  1.00  0.00     0.029 A 
ATOM     44  N   UNL A   1      43.476  26.859  27.581  1.00  0.00    -0.354 N 
ATOM     45  C   UNL A   1      39.977  28.514  29.525  1.00  0.00     0.074 A 
ATOM     46  C   UNL A   1      38.890  27.557  29.517  1.00  0.00     0.031 C 
ATOM     47  C   UNL A   1      44.641  25.343  26.424  1.00  0.00     0.029 A 
ATOM     48  C   UNL A   1      44.705  26.688  26.985  1.00  0.00     0.049 A 
ATOM     49  H   UNL A   1      43.233  27.666  28.090  1.00  0.00     0.167 HD
ATOM     50  C   UNL A   1      39.915  29.741  30.100  1.00  0.00     0.034 A 
ATOM     51  C   UNL A   1      45.754  27.528  26.881  1.00  0.00     0.034 A 
ATOM     52  C   UNL A   1      41.014  30.676  30.110  1.00  0.00     0.049 A 
ATOM     53  C   UNL A   1      45.655  28.903  27.490  1.00  0.00     0.074 A 
ATOM     54  C   UNL A   1      41.077  31.930  30.693  1.00  0.00     0.029 A 
ATOM     55  N   UNL A   1      42.246  30.461  29.504  1.00  0.00    -0.354 N 
ATOM     56  N   UNL A   1      44.644  29.456  28.121  1.00  0.00    -0.248 NA
ATOM     57  C   UNL A   1      46.838  29.765  27.377  1.00  0.00     0.031 C 
ATOM     58  C   UNL A   1      42.321  32.496  30.388  1.00  0.00     0.029 A 
ATOM     59  C   UNL A   1      43.066  31.566  29.680  1.00  0.00     0.049 A 
ATOM     60  H   UNL A   1      42.501  29.642  29.020  1.00  0.00     0.167 HD
ATOM     61  C   UNL A   1      45.086  30.716  28.514  1.00  0.00     0.074 A 
ATOM     62  C   UNL A   1      46.452  30.841  28.049  1.00  0.00     0.031 C 
ATOM     63  C   UNL A   1      44.427  31.677  29.209  1.00  0.00     0.034 A 
BRANCH  50  64
ATOM     64  C   UNL A   1      38.602  30.141  30.733  1.00  0.00     0.023 A 
ATOM     65  C   UNL A   1      37.589  30.773  29.990  1.00  0.00     0.031 A 
ATOM     66  C   UNL A   1      38.380  29.942  32.107  1.00  0.00     0.131 A 
ATOM     67  C   UNL A   1      36.453  31.275  30.641  1.00  0.00     0.055 A 
ATOM     68  C   UNL A   1      37.202  30.358  32.731  1.00  0.00     0.041 A 
ATOM     69  F   UNL A   1      39.316  29.362  32.874  1.00  0.00    -0.206 F 
ATOM     70  C   UNL A   1      36.239  31.050  32.002  1.00  0.00     0.022 A 
BRANCH  67  71
ATOM     71  S   UNL A   1      35.353  32.384  29.718  1.00  0.00     0.124 S 
ATOM     72  O   UNL A   1      36.286  33.417  29.271  1.00  0.00    -0.237 OA
ATOM     73  O   UNL A   1      34.821  31.511  28.680  1.00  0.00    -0.237 OA
ATOM     74  O   UNL A   1      34.387  32.824  30.723  1.00  0.00    -0.744 OA
ENDBRANCH  67  71
ENDBRANCH  50  64
BRANCH  51  75
ATOM     75  C   UNL A   1      46.989  27.103  26.163  1.00  0.00     0.023 A 
ATOM     76  C   UNL A   1      48.017  26.430  26.842  1.00  0.00     0.031 A 
ATOM     77  C   UNL A   1      47.172  27.384  24.797  1.00  0.00     0.131 A 
ATOM     78  C   UNL A   1      49.200  26.096  26.165  1.00  0.00     0.055 A 
ATOM     79  C   UNL A   1      48.330  27.007  24.117  1.00  0.00     0.041 A 
ATOM     80  F   UNL A   1      46.215  28.016  24.100  1.00  0.00    -0.206 F 
ATOM     81  C   UNL A   1      49.358  26.368  24.804  1.00  0.00     0.022 A 
BRANCH  78  82
ATOM     82  S   UNL A   1      50.560  25.355  27.108  1.00  0.00     0.124 S 
ATOM     83  O   UNL A   1      49.882  24.264  27.796  1.00  0.00    -0.237 OA
ATOM     84  O   UNL A   1      51.487  24.970  26.049  1.00  0.00    -0.237 OA
ATOM     85  O   UNL A   1      51.015  26.449  27.963  1.00  0.00    -0.744 OA
ENDBRANCH  78  82
ENDBRANCH  51  75
BRANCH  63  86
ATOM     86  C   UNL A   1      45.200  32.922  29.568  1.00  0.00     0.023 A 
ATOM     87  C   UNL A   1      45.210  34.059  28.743  1.00  0.00     0.031 A 
ATOM     88  C   UNL A   1      45.937  32.966  30.766  1.00  0.00     0.131 A 
ATOM     89  C   UNL A   1      45.977  35.178  29.106  1.00  0.00     0.055 A 
ATOM     90  C   UNL A   1      46.654  34.100  31.148  1.00  0.00     0.041 A 
ATOM     91  F   UNL A   1      45.963  31.905  31.589  1.00  0.00    -0.206 F 
ATOM     92  C   UNL A   1      46.685  35.211  30.311  1.00  0.00     0.022 A 
BRANCH  89  93
ATOM     93  S   UNL A   1      46.098  36.568  27.947  1.00  0.00     0.124 S 
ATOM     94  O   UNL A   1      47.494  36.967  28.095  1.00  0.00    -0.237 OA
ATOM     95  O   UNL A   1      45.743  35.946  26.674  1.00  0.00    -0.237 OA
ATOM     96  O   UNL A   1      45.121  37.528  28.459  1.00  0.00    -0.744 OA
ENDBRANCH  89  93
ENDBRANCH  63  86
ENDBRANCH  37  38
ENDBRANCH  29  32
ENDBRANCH  27  28
ENDBRANCH  26  27
ENDBRANCH   1  26
TORSDOF 17
ENDMDL
MODEL 3
REMARK VINA RESULT:     -12.5      5.893     10.744
REMARK SMILES O=C(NCCCNC(=O)c1ccc(-c2c3nc(c(-c4cc(S(=O)(=O)[O-])ccc4F)c4ccc([nH]4)c(-c4cc(S(=O)(=O)[O-])ccc4F)c4nc(c(-c5cc(S(=O)(=O)[O-])ccc5F)c5ccc2[nH]5)C=C4)C=C3)cc1)c1ccc(NS(=O)(=O)Cc2c(Cl)cccc2Cl)cc1
REMARK SMILES IDX 4 1 3 2 1 3 2 4 73 6 74 7 91 8 75 9 90 10 76 11 77 12 78 14
REMARK SMILES IDX 79 15 80 16 81 17 82 18 83 19 88 20 84 21 85 22 87 23 89 24
REMARK SMILES IDX 86 25 5 26 6 27 7 28 8 29 9 31 10 32 11 33 72 34 12 35 71 36
REMARK SMILES IDX 13 37 14 38 15 39 65 40 16 41 70 42 64 43 66 44 17 45 69 46
REMARK SMILES IDX 63 47 62 48 18 50 50 51 30 52 49 53 31 54 34 55 48 56 67 57
REMARK SMILES IDX 32 58 33 59 47 61 68 62 35 63 19 64 20 65 28 66 21 67 27 68
REMARK SMILES IDX 29 69 26 70 22 71 23 72 24 73 25 74 51 75 52 76 60 77 53 78
REMARK SMILES IDX 59 79 61 80 58 81 54 82 55 83 56 84 57 85 36 86 37 87 45 88
REMARK SMILES IDX 38 89 44 90 46 91 43 92 39 93 40 94 41 95 42 96
REMARK H PARENT 3 5 77 13 7 30 66 49 34 60
REMARK Flexibility Score: inf
ROOT
ATOM      1  C   UNL A   1      32.281  30.200  26.403  1.00  0.00     0.118 C 
ENDROOT
BRANCH   1   2
ATOM      2  N   UNL A   1      32.749  30.111  25.026  1.00  0.00    -0.352 N 
ATOM      3  O   UNL A   1      33.336  29.069  23.103  1.00  0.00    -0.269 OA
ATOM      4  C   UNL A   1      32.782  29.020  24.195  1.00  0.00     0.251 C 
ATOM      5  H   UNL A   1      33.088  30.951  24.639  1.00  0.00     0.163 HD
BRANCH   4   6
ATOM      6  C   UNL A   1      32.166  27.764  24.649  1.00  0.00     0.039 A 
ATOM      7  C   UNL A   1      32.922  26.801  25.327  1.00  0.00     0.016 A 
ATOM      8  C   UNL A   1      30.822  27.543  24.362  1.00  0.00     0.016 A 
ATOM      9  C   UNL A   1      32.356  25.560  25.626  1.00  0.00     0.027 A 
ATOM     10  C   UNL A   1      30.270  26.297  24.648  1.00  0.00     0.027 A 
ATOM     11  C   UNL A   1      31.054  25.282  25.214  1.00  0.00     0.049 A 
BRANCH  11  12
ATOM     12  N   UNL A   1      30.443  24.009  25.297  1.00  0.00    -0.283 N 
ATOM     13  H   UNL A   1      29.712  23.835  24.662  1.00  0.00     0.180 HD
BRANCH  12  14
ATOM     14  S   UNL A   1      30.812  22.786  26.335  1.00  0.00     0.237 S 
ATOM     15  O   UNL A   1      31.329  23.388  27.549  1.00  0.00    -0.206 OA
ATOM     16  O   UNL A   1      29.602  21.986  26.405  1.00  0.00    -0.206 OA
BRANCH  14  17
ATOM     17  C   UNL A   1      32.100  21.734  25.666  1.00  0.00     0.198 C 
BRANCH  17  18
ATOM     18  C   UNL A   1      33.456  22.247  25.219  1.00  0.00     0.006 A 
ATOM     19  C   UNL A   1      33.582  22.605  23.844  1.00  0.00     0.046 A 
ATOM     20  C   UNL A   1      34.553  22.574  26.033  1.00  0.00     0.046 A 
ATOM     21  Cl  UNL A   1      32.258  22.483  22.723  1.00  0.00    -0.084 Cl
ATOM     22  C   UNL A   1      34.757  23.149  23.310  1.00  0.00     0.021 A 
ATOM     23  C   UNL A   1      35.751  23.069  25.482  1.00  0.00     0.021 A 
ATOM     24  Cl  UNL A   1      34.512  22.542  27.759  1.00  0.00    -0.084 Cl
ATOM     25  C   UNL A   1      35.854  23.359  24.127  1.00  0.00     0.003 A 
ENDBRANCH  17  18
ENDBRANCH  14  17
ENDBRANCH  12  14
ENDBRANCH  11  12
ENDBRANCH   4   6
ENDBRANCH   1   2
BRANCH   1  26
ATOM     26  C   UNL A   1      31.952  31.628  26.816  1.00  0.00     0.042 C 
BRANCH  26  27
ATOM     27  C   UNL A   1      33.130  32.414  27.375  1.00  0.00     0.118 C 
BRANCH  27  28
ATOM     28  N   UNL A   1      32.771  33.773  27.758  1.00  0.00    -0.352 N 
ATOM     29  C   UNL A   1      33.272  34.565  28.766  1.00  0.00     0.251 C 
ATOM     30  H   UNL A   1      32.062  34.187  27.214  1.00  0.00     0.163 HD
ATOM     31  O   UNL A   1      32.709  35.622  29.035  1.00  0.00    -0.269 OA
BRANCH  29  32
ATOM     32  C   UNL A   1      34.454  34.129  29.542  1.00  0.00     0.039 A 
ATOM     33  C   UNL A   1      34.270  33.331  30.675  1.00  0.00     0.014 A 
ATOM     34  C   UNL A   1      35.744  34.498  29.154  1.00  0.00     0.014 A 
ATOM     35  C   UNL A   1      35.380  32.833  31.365  1.00  0.00     0.010 A 
ATOM     36  C   UNL A   1      36.847  33.937  29.790  1.00  0.00     0.010 A 
ATOM     37  C   UNL A   1      36.678  33.094  30.901  1.00  0.00    -0.014 A 
BRANCH  37  38
ATOM     38  C   UNL A   1      37.886  32.522  31.553  1.00  0.00     0.031 A 
ATOM     39  C   UNL A   1      38.609  31.375  30.901  1.00  0.00     0.074 A 
ATOM     40  C   UNL A   1      38.268  32.956  32.770  1.00  0.00     0.049 A 
ATOM     41  N   UNL A   1      39.550  30.604  31.380  1.00  0.00    -0.248 NA
ATOM     42  C   UNL A   1      38.182  31.030  29.538  1.00  0.00     0.031 C 
ATOM     43  C   UNL A   1      37.642  34.051  33.515  1.00  0.00     0.029 A 
ATOM     44  N   UNL A   1      39.263  32.513  33.605  1.00  0.00    -0.354 N 
ATOM     45  C   UNL A   1      39.809  29.663  30.390  1.00  0.00     0.074 A 
ATOM     46  C   UNL A   1      38.880  29.929  29.310  1.00  0.00     0.031 C 
ATOM     47  C   UNL A   1      38.277  34.200  34.690  1.00  0.00     0.029 A 
ATOM     48  C   UNL A   1      39.313  33.180  34.808  1.00  0.00     0.049 A 
ATOM     49  H   UNL A   1      39.884  31.787  33.366  1.00  0.00     0.167 HD
ATOM     50  C   UNL A   1      40.745  28.681  30.372  1.00  0.00     0.034 A 
ATOM     51  C   UNL A   1      40.087  32.976  35.893  1.00  0.00     0.034 A 
ATOM     52  C   UNL A   1      41.672  28.441  31.452  1.00  0.00     0.049 A 
ATOM     53  C   UNL A   1      41.095  31.856  35.873  1.00  0.00     0.074 A 
ATOM     54  C   UNL A   1      42.685  27.500  31.528  1.00  0.00     0.029 A 
ATOM     55  N   UNL A   1      41.696  29.145  32.650  1.00  0.00    -0.354 N 
ATOM     56  N   UNL A   1      41.338  30.980  34.925  1.00  0.00    -0.248 NA
ATOM     57  C   UNL A   1      41.936  31.699  37.066  1.00  0.00     0.031 C 
ATOM     58  C   UNL A   1      43.280  27.595  32.791  1.00  0.00     0.029 A 
ATOM     59  C   UNL A   1      42.691  28.645  33.478  1.00  0.00     0.049 A 
ATOM     60  H   UNL A   1      41.095  29.891  32.877  1.00  0.00     0.167 HD
ATOM     61  C   UNL A   1      42.388  30.194  35.393  1.00  0.00     0.074 A 
ATOM     62  C   UNL A   1      42.730  30.699  36.707  1.00  0.00     0.031 C 
ATOM     63  C   UNL A   1      43.021  29.159  34.787  1.00  0.00     0.034 A 
BRANCH  50  64
ATOM     64  C   UNL A   1      40.781  27.785  29.156  1.00  0.00     0.023 A 
ATOM     65  C   UNL A   1      41.735  27.961  28.139  1.00  0.00     0.031 A 
ATOM     66  C   UNL A   1      39.814  26.778  28.980  1.00  0.00     0.131 A 
ATOM     67  C   UNL A   1      41.640  27.219  26.952  1.00  0.00     0.055 A 
ATOM     68  C   UNL A   1      39.785  25.976  27.837  1.00  0.00     0.041 A 
ATOM     69  F   UNL A   1      38.864  26.573  29.906  1.00  0.00    -0.206 F 
ATOM     70  C   UNL A   1      40.688  26.209  26.804  1.00  0.00     0.022 A 
BRANCH  67  71
ATOM     71  S   UNL A   1      42.661  27.722  25.540  1.00  0.00     0.124 S 
ATOM     72  O   UNL A   1      43.937  28.015  26.189  1.00  0.00    -0.237 OA
ATOM     73  O   UNL A   1      42.633  26.538  24.691  1.00  0.00    -0.237 OA
ATOM     74  O   UNL A   1      41.960  28.891  25.008  1.00  0.00    -0.744 OA
ENDBRANCH  67  71
ENDBRANCH  50  64
BRANCH  51  75
ATOM     75  C   UNL A   1      39.938  33.842  37.096  1.00  0.00     0.023 A 
ATOM     76  C   UNL A   1      40.834  34.896  37.337  1.00  0.00     0.031 A 
ATOM     77  C   UNL A   1      38.916  33.615  38.036  1.00  0.00     0.131 A 
ATOM     78  C   UNL A   1      40.716  35.658  38.509  1.00  0.00     0.055 A 
ATOM     79  C   UNL A   1      38.775  34.407  39.176  1.00  0.00     0.041 A 
ATOM     80  F   UNL A   1      38.028  32.626  37.847  1.00  0.00    -0.206 F 
ATOM     81  C   UNL A   1      39.685  35.430  39.423  1.00  0.00     0.022 A 
BRANCH  78  82
ATOM     82  S   UNL A   1      41.975  36.918  38.854  1.00  0.00     0.124 S 
ATOM     83  O   UNL A   1      41.156  38.042  39.291  1.00  0.00    -0.237 OA
ATOM     84  O   UNL A   1      42.777  36.268  39.885  1.00  0.00    -0.237 OA
ATOM     85  O   UNL A   1      42.643  37.091  37.567  1.00  0.00    -0.744 OA
ENDBRANCH  78  82
ENDBRANCH  51  75
BRANCH  63  86
ATOM     86  C   UNL A   1      44.193  28.547  35.512  1.00  0.00     0.023 A 
ATOM     87  C   UNL A   1      44.031  27.548  36.487  1.00  0.00     0.031 A 
ATOM     88  C   UNL A   1      45.500  28.974  35.211  1.00  0.00     0.131 A 
ATOM     89  C   UNL A   1      45.154  27.040  37.160  1.00  0.00     0.055 A 
ATOM     90  C   UNL A   1      46.617  28.427  35.844  1.00  0.00     0.041 A 
ATOM     91  F   UNL A   1      45.711  29.927  34.290  1.00  0.00    -0.206 F 
ATOM     92  C   UNL A   1      46.446  27.461  36.832  1.00  0.00     0.022 A 
BRANCH  89  93
ATOM     93  S   UNL A   1      44.901  25.870  38.522  1.00  0.00     0.124 S 
ATOM     94  O   UNL A   1      44.595  24.634  37.807  1.00  0.00    -0.237 OA
ATOM     95  O   UNL A   1      46.188  25.907  39.209  1.00  0.00    -0.237 OA
ATOM     96  O   UNL A   1      43.785  26.447  39.269  1.00  0.00    -0.744 OA
ENDBRANCH  89  93
ENDBRANCH  63  86
ENDBRANCH  37  38
ENDBRANCH  29  32
ENDBRANCH  27  28
ENDBRANCH  26  27
ENDBRANCH   1  26
TORSDOF 17
ENDMDL
