MODEL 1
REMARK VINA RESULT:     -11.5      0.000      0.000
REMARK SMILES Cc1cc(C)n([C@@H](C(=O)NCCCNC(=O)c2ccc(-c3c4nc(c(-c5cc(S(=O)(=O)[O-])ccc5F)c5ccc([nH]5)c(-c5cc(S(=O)(=O)[O-])ccc5F)c5nc(c(-c6cc(S(=O)(=O)[O-])ccc6F)c6ccc3[nH]6)C=C5)C=C4)cc2)C(C)C)n1
REMARK SMILES IDX 13 1 12 2 11 3 10 4 8 5 9 6 7 8 6 9 1 10 2 11 3 12 83 13
REMARK SMILES IDX 4 14 5 15 80 16 81 17 82 18 14 19 15 20 16 22 17 23 18 24
REMARK SMILES IDX 79 25 19 26 78 27 20 28 21 29 22 30 72 31 23 32 77 33 71 34
REMARK SMILES IDX 73 35 24 36 76 37 70 38 69 39 25 41 57 42 37 43 56 44 38 45
REMARK SMILES IDX 41 46 55 47 74 48 39 49 40 50 54 52 75 53 42 54 26 55 27 56
REMARK SMILES IDX 35 57 28 58 34 59 36 60 33 61 29 62 30 63 31 64 32 65 58 66
REMARK SMILES IDX 59 67 67 68 60 69 66 70 68 71 65 72 61 73 62 74 63 75 64 76
REMARK SMILES IDX 43 77 44 78 52 79 45 80 51 81 53 82 50 83 46 84 47 85 48 86
REMARK SMILES IDX 49 87
REMARK H PARENT 10 7 14 21 73 40 41 51
REMARK Flexibility Score: inf
ROOT
ATOM      1  C   UNL A   1      38.610  20.486  25.509  1.00  0.00     0.118 C 
ENDROOT
BRANCH   1   2
ATOM      2  C   UNL A   1      37.256  19.997  25.023  1.00  0.00     0.042 C 
BRANCH   2   3
ATOM      3  C   UNL A   1      36.199  21.106  24.981  1.00  0.00     0.117 C 
BRANCH   3   4
ATOM      4  N   UNL A   1      35.392  21.175  26.195  1.00  0.00    -0.354 N 
ATOM      5  C   UNL A   1      34.171  21.763  26.401  1.00  0.00     0.245 C 
ATOM      6  O   UNL A   1      33.710  21.730  27.544  1.00  0.00    -0.273 OA
ATOM      7  H   UNL A   1      35.783  20.733  26.983  1.00  0.00     0.163 HD
BRANCH   5   8
ATOM      8  C   UNL A   1      33.423  22.412  25.235  1.00  0.00     0.199 C 
BRANCH   8   9
ATOM      9  N   UNL A   1      32.932  23.732  25.643  1.00  0.00    -0.257 N 
ATOM     10  C   UNL A   1      33.693  27.186  25.954  1.00  0.00     0.069 C 
ATOM     11  C   UNL A   1      33.088  25.834  25.949  1.00  0.00     0.060 A 
ATOM     12  C   UNL A   1      31.841  25.445  26.475  1.00  0.00     0.048 A 
ATOM     13  N   UNL A   1      33.739  24.799  25.412  1.00  0.00    -0.177 NA
ATOM     14  C   UNL A   1      31.754  24.085  26.262  1.00  0.00     0.037 A 
ATOM     15  C   UNL A   1      30.659  23.152  26.630  1.00  0.00     0.066 C 
ENDBRANCH   8   9
BRANCH   8  16
ATOM     16  C   UNL A   1      32.310  21.525  24.609  1.00  0.00     0.017 C 
ATOM     17  C   UNL A   1      32.278  21.675  23.080  1.00  0.00     0.010 C 
ATOM     18  C   UNL A   1      32.501  20.036  24.934  1.00  0.00     0.010 C 
ENDBRANCH   8  16
ENDBRANCH   5   8
ENDBRANCH   3   4
ENDBRANCH   2   3
ENDBRANCH   1   2
BRANCH   1  19
ATOM     19  N   UNL A   1      39.604  19.421  25.628  1.00  0.00    -0.352 N 
ATOM     20  C   UNL A   1      40.959  19.540  25.902  1.00  0.00     0.251 C 
ATOM     21  H   UNL A   1      39.270  18.503  25.499  1.00  0.00     0.163 HD
ATOM     22  O   UNL A   1      41.722  18.630  25.626  1.00  0.00    -0.269 OA
BRANCH  20  23
ATOM     23  C   UNL A   1      41.452  20.792  26.519  1.00  0.00     0.039 A 
ATOM     24  C   UNL A   1      41.912  21.859  25.744  1.00  0.00     0.014 A 
ATOM     25  C   UNL A   1      41.426  20.891  27.907  1.00  0.00     0.014 A 
ATOM     26  C   UNL A   1      42.260  23.051  26.383  1.00  0.00     0.010 A 
ATOM     27  C   UNL A   1      41.593  22.108  28.514  1.00  0.00     0.010 A 
ATOM     28  C   UNL A   1      42.074  23.175  27.772  1.00  0.00    -0.014 A 
BRANCH  28  29
ATOM     29  C   UNL A   1      42.250  24.454  28.455  1.00  0.00     0.031 A 
ATOM     30  C   UNL A   1      41.153  25.419  28.191  1.00  0.00     0.074 A 
ATOM     31  C   UNL A   1      43.176  24.673  29.416  1.00  0.00     0.049 A 
ATOM     32  N   UNL A   1      41.188  26.454  27.421  1.00  0.00    -0.248 NA
ATOM     33  C   UNL A   1      39.802  25.093  28.676  1.00  0.00     0.031 C 
ATOM     34  C   UNL A   1      44.117  23.711  30.006  1.00  0.00     0.029 A 
ATOM     35  N   UNL A   1      43.410  25.796  30.153  1.00  0.00    -0.354 N 
ATOM     36  C   UNL A   1      39.950  27.069  27.559  1.00  0.00     0.074 A 
ATOM     37  C   UNL A   1      39.081  26.068  28.118  1.00  0.00     0.031 C 
ATOM     38  C   UNL A   1      44.645  24.220  31.141  1.00  0.00     0.029 A 
ATOM     39  C   UNL A   1      44.228  25.605  31.268  1.00  0.00     0.049 A 
ATOM     40  H   UNL A   1      43.031  26.673  29.917  1.00  0.00     0.167 HD
ATOM     41  C   UNL A   1      39.835  28.424  27.477  1.00  0.00     0.034 A 
ATOM     42  C   UNL A   1      44.545  26.515  32.229  1.00  0.00     0.034 A 
ATOM     43  C   UNL A   1      41.043  29.001  26.919  1.00  0.00     0.049 A 
ATOM     44  C   UNL A   1      44.331  27.850  31.623  1.00  0.00     0.074 A 
ATOM     45  C   UNL A   1      41.736  28.863  25.733  1.00  0.00     0.029 A 
ATOM     46  N   UNL A   1      41.932  29.570  27.804  1.00  0.00    -0.354 N 
ATOM     47  N   UNL A   1      45.024  28.295  30.611  1.00  0.00    -0.248 NA
ATOM     48  C   UNL A   1      43.041  28.490  31.817  1.00  0.00     0.031 C 
ATOM     49  C   UNL A   1      43.114  28.900  26.104  1.00  0.00     0.029 A 
ATOM     50  C   UNL A   1      43.197  29.152  27.477  1.00  0.00     0.049 A 
ATOM     51  H   UNL A   1      41.700  30.174  28.546  1.00  0.00     0.167 HD
ATOM     52  C   UNL A   1      44.098  28.925  29.793  1.00  0.00     0.074 A 
ATOM     53  C   UNL A   1      42.920  29.111  30.641  1.00  0.00     0.031 C 
ATOM     54  C   UNL A   1      44.273  28.974  28.439  1.00  0.00     0.034 A 
BRANCH  41  55
ATOM     55  C   UNL A   1      38.854  29.268  28.271  1.00  0.00     0.023 A 
ATOM     56  C   UNL A   1      39.048  29.319  29.666  1.00  0.00     0.031 A 
ATOM     57  C   UNL A   1      37.612  29.763  27.811  1.00  0.00     0.131 A 
ATOM     58  C   UNL A   1      38.011  29.710  30.530  1.00  0.00     0.055 A 
ATOM     59  C   UNL A   1      36.607  30.213  28.673  1.00  0.00     0.041 A 
ATOM     60  F   UNL A   1      37.256  29.761  26.523  1.00  0.00    -0.206 F 
ATOM     61  C   UNL A   1      36.787  30.154  30.042  1.00  0.00     0.022 A 
BRANCH  58  62
ATOM     62  S   UNL A   1      38.231  29.446  32.307  1.00  0.00     0.124 S 
ATOM     63  O   UNL A   1      39.670  29.224  32.391  1.00  0.00    -0.237 OA
ATOM     64  O   UNL A   1      37.739  30.703  32.860  1.00  0.00    -0.237 OA
ATOM     65  O   UNL A   1      37.400  28.277  32.581  1.00  0.00    -0.744 OA
ENDBRANCH  58  62
ENDBRANCH  41  55
BRANCH  42  66
ATOM     66  C   UNL A   1      44.661  26.294  33.702  1.00  0.00     0.023 A 
ATOM     67  C   UNL A   1      43.579  26.459  34.599  1.00  0.00     0.031 A 
ATOM     68  C   UNL A   1      45.807  25.644  34.213  1.00  0.00     0.131 A 
ATOM     69  C   UNL A   1      43.670  25.976  35.929  1.00  0.00     0.055 A 
ATOM     70  C   UNL A   1      45.888  25.165  35.523  1.00  0.00     0.041 A 
ATOM     71  F   UNL A   1      46.857  25.369  33.424  1.00  0.00    -0.206 F 
ATOM     72  C   UNL A   1      44.815  25.320  36.385  1.00  0.00     0.022 A 
BRANCH  69  73
ATOM     73  S   UNL A   1      42.257  26.117  37.077  1.00  0.00     0.124 S 
ATOM     74  O   UNL A   1      41.621  24.810  36.952  1.00  0.00    -0.237 OA
ATOM     75  O   UNL A   1      42.912  26.402  38.349  1.00  0.00    -0.237 OA
ATOM     76  O   UNL A   1      41.480  27.230  36.530  1.00  0.00    -0.744 OA
ENDBRANCH  69  73
ENDBRANCH  42  66
BRANCH  54  77
ATOM     77  C   UNL A   1      45.652  28.663  27.880  1.00  0.00     0.023 A 
ATOM     78  C   UNL A   1      46.098  27.397  27.436  1.00  0.00     0.031 A 
ATOM     79  C   UNL A   1      46.521  29.756  27.708  1.00  0.00     0.131 A 
ATOM     80  C   UNL A   1      47.378  27.265  26.854  1.00  0.00     0.055 A 
ATOM     81  C   UNL A   1      47.772  29.627  27.111  1.00  0.00     0.041 A 
ATOM     82  F   UNL A   1      46.149  30.988  28.093  1.00  0.00    -0.206 F 
ATOM     83  C   UNL A   1      48.209  28.378  26.686  1.00  0.00     0.022 A 
BRANCH  80  84
ATOM     84  S   UNL A   1      48.007  25.638  26.322  1.00  0.00     0.124 S 
ATOM     85  O   UNL A   1      48.902  25.245  27.403  1.00  0.00    -0.237 OA
ATOM     86  O   UNL A   1      46.783  24.852  26.186  1.00  0.00    -0.237 OA
ATOM     87  O   UNL A   1      48.680  25.931  25.053  1.00  0.00    -0.744 OA
ENDBRANCH  80  84
ENDBRANCH  54  77
ENDBRANCH  28  29
ENDBRANCH  20  23
ENDBRANCH   1  19
TORSDOF 15
ENDMDL
MODEL 2
REMARK VINA RESULT:     -11.4      3.447      8.064
REMARK SMILES Cc1cc(C)n([C@@H](C(=O)NCCCNC(=O)c2ccc(-c3c4nc(c(-c5cc(S(=O)(=O)[O-])ccc5F)c5ccc([nH]5)c(-c5cc(S(=O)(=O)[O-])ccc5F)c5nc(c(-c6cc(S(=O)(=O)[O-])ccc6F)c6ccc3[nH]6)C=C5)C=C4)cc2)C(C)C)n1
REMARK SMILES IDX 13 1 12 2 11 3 10 4 8 5 9 6 7 8 6 9 1 10 2 11 3 12 83 13
REMARK SMILES IDX 4 14 5 15 80 16 81 17 82 18 14 19 15 20 16 22 17 23 18 24
REMARK SMILES IDX 79 25 19 26 78 27 20 28 21 29 22 30 72 31 23 32 77 33 71 34
REMARK SMILES IDX 73 35 24 36 76 37 70 38 69 39 25 41 57 42 37 43 56 44 38 45
REMARK SMILES IDX 41 46 55 47 74 48 39 49 40 50 54 52 75 53 42 54 26 55 27 56
REMARK SMILES IDX 35 57 28 58 34 59 36 60 33 61 29 62 30 63 31 64 32 65 58 66
REMARK SMILES IDX 59 67 67 68 60 69 66 70 68 71 65 72 61 73 62 74 63 75 64 76
REMARK SMILES IDX 43 77 44 78 52 79 45 80 51 81 53 82 50 83 46 84 47 85 48 86
REMARK SMILES IDX 49 87
REMARK H PARENT 10 7 14 21 73 40 41 51
REMARK Flexibility Score: inf
ROOT
ATOM      1  C   UNL A   1      34.218  31.511  27.687  1.00  0.00     0.118 C 
ENDROOT
BRANCH   1   2
ATOM      2  C   UNL A   1      32.911  30.838  27.304  1.00  0.00     0.042 C 
BRANCH   2   3
ATOM      3  C   UNL A   1      33.116  29.500  26.584  1.00  0.00     0.117 C 
BRANCH   3   4
ATOM      4  N   UNL A   1      33.610  29.653  25.220  1.00  0.00    -0.354 N 
ATOM      5  C   UNL A   1      33.240  28.996  24.076  1.00  0.00     0.245 C 
ATOM      6  O   UNL A   1      33.848  29.270  23.040  1.00  0.00    -0.273 OA
ATOM      7  H   UNL A   1      34.314  30.332  25.104  1.00  0.00     0.163 HD
BRANCH   5   8
ATOM      8  C   UNL A   1      32.098  27.976  24.111  1.00  0.00     0.199 C 
BRANCH   8   9
ATOM      9  N   UNL A   1      32.545  26.765  24.806  1.00  0.00    -0.257 N 
ATOM     10  C   UNL A   1      35.199  24.454  25.276  1.00  0.00     0.069 C 
ATOM     11  C   UNL A   1      33.936  25.227  25.293  1.00  0.00     0.060 A 
ATOM     12  C   UNL A   1      32.733  24.900  25.948  1.00  0.00     0.048 A 
ATOM     13  N   UNL A   1      33.834  26.379  24.625  1.00  0.00    -0.177 NA
ATOM     14  C   UNL A   1      31.847  25.908  25.628  1.00  0.00     0.037 A 
ATOM     15  C   UNL A   1      30.428  26.066  26.033  1.00  0.00     0.066 C 
ENDBRANCH   8   9
BRANCH   8  16
ATOM     16  C   UNL A   1      31.464  27.673  22.724  1.00  0.00     0.017 C 
ATOM     17  C   UNL A   1      31.511  26.168  22.413  1.00  0.00     0.010 C 
ATOM     18  C   UNL A   1      29.999  28.127  22.642  1.00  0.00     0.010 C 
ENDBRANCH   8  16
ENDBRANCH   5   8
ENDBRANCH   3   4
ENDBRANCH   2   3
ENDBRANCH   1   2
BRANCH   1  19
ATOM     19  N   UNL A   1      34.172  32.171  28.991  1.00  0.00    -0.352 N 
ATOM     20  C   UNL A   1      34.984  31.946  30.094  1.00  0.00     0.251 C 
ATOM     21  H   UNL A   1      33.478  32.860  29.101  1.00  0.00     0.163 HD
ATOM     22  O   UNL A   1      34.621  32.296  31.203  1.00  0.00    -0.269 OA
BRANCH  20  23
ATOM     23  C   UNL A   1      36.284  31.267  29.892  1.00  0.00     0.039 A 
ATOM     24  C   UNL A   1      37.484  31.981  29.851  1.00  0.00     0.014 A 
ATOM     25  C   UNL A   1      36.285  29.881  29.766  1.00  0.00     0.014 A 
ATOM     26  C   UNL A   1      38.683  31.271  29.769  1.00  0.00     0.010 A 
ATOM     27  C   UNL A   1      37.460  29.182  29.867  1.00  0.00     0.010 A 
ATOM     28  C   UNL A   1      38.664  29.866  29.801  1.00  0.00    -0.014 A 
BRANCH  28  29
ATOM     29  C   UNL A   1      39.895  29.086  29.901  1.00  0.00     0.031 A 
ATOM     30  C   UNL A   1      40.266  28.745  31.298  1.00  0.00     0.074 A 
ATOM     31  C   UNL A   1      40.515  28.519  28.841  1.00  0.00     0.049 A 
ATOM     32  N   UNL A   1      41.198  29.279  32.013  1.00  0.00    -0.248 NA
ATOM     33  C   UNL A   1      39.376  27.855  32.061  1.00  0.00     0.031 C 
ATOM     34  C   UNL A   1      40.081  28.504  27.438  1.00  0.00     0.029 A 
ATOM     35  N   UNL A   1      41.633  27.740  28.807  1.00  0.00    -0.354 N 
ATOM     36  C   UNL A   1      41.197  28.582  33.214  1.00  0.00     0.074 A 
ATOM     37  C   UNL A   1      39.920  27.922  33.278  1.00  0.00     0.031 C 
ATOM     38  C   UNL A   1      40.786  27.579  26.748  1.00  0.00     0.029 A 
ATOM     39  C   UNL A   1      41.840  27.065  27.603  1.00  0.00     0.049 A 
ATOM     40  H   UNL A   1      42.246  27.659  29.573  1.00  0.00     0.167 HD
ATOM     41  C   UNL A   1      42.357  28.375  33.899  1.00  0.00     0.034 A 
ATOM     42  C   UNL A   1      42.808  26.149  27.321  1.00  0.00     0.034 A 
ATOM     43  C   UNL A   1      43.406  29.235  33.385  1.00  0.00     0.049 A 
ATOM     44  C   UNL A   1      43.899  26.388  28.295  1.00  0.00     0.074 A 
ATOM     45  C   UNL A   1      43.578  30.599  33.256  1.00  0.00     0.029 A 
ATOM     46  N   UNL A   1      44.323  28.663  32.530  1.00  0.00    -0.354 N 
ATOM     47  N   UNL A   1      44.595  27.491  28.333  1.00  0.00    -0.248 NA
ATOM     48  C   UNL A   1      43.899  25.615  29.526  1.00  0.00     0.031 C 
ATOM     49  C   UNL A   1      44.231  30.772  31.997  1.00  0.00     0.029 A 
ATOM     50  C   UNL A   1      44.509  29.509  31.465  1.00  0.00     0.049 A 
ATOM     51  H   UNL A   1      44.768  27.795  32.660  1.00  0.00     0.167 HD
ATOM     52  C   UNL A   1      44.735  27.778  29.683  1.00  0.00     0.074 A 
ATOM     53  C   UNL A   1      44.386  26.532  30.366  1.00  0.00     0.031 C 
ATOM     54  C   UNL A   1      44.842  29.067  30.120  1.00  0.00     0.034 A 
BRANCH  41  55
ATOM     55  C   UNL A   1      42.684  27.137  34.714  1.00  0.00     0.023 A 
ATOM     56  C   UNL A   1      43.556  26.202  34.122  1.00  0.00     0.031 A 
ATOM     57  C   UNL A   1      41.992  26.683  35.859  1.00  0.00     0.131 A 
ATOM     58  C   UNL A   1      43.611  24.872  34.574  1.00  0.00     0.055 A 
ATOM     59  C   UNL A   1      42.101  25.376  36.345  1.00  0.00     0.041 A 
ATOM     60  F   UNL A   1      41.107  27.432  36.524  1.00  0.00    -0.206 F 
ATOM     61  C   UNL A   1      42.885  24.451  35.682  1.00  0.00     0.022 A 
BRANCH  58  62
ATOM     62  S   UNL A   1      44.507  23.663  33.569  1.00  0.00     0.124 S 
ATOM     63  O   UNL A   1      45.539  24.496  32.963  1.00  0.00    -0.237 OA
ATOM     64  O   UNL A   1      44.958  22.710  34.579  1.00  0.00    -0.237 OA
ATOM     65  O   UNL A   1      43.487  23.162  32.652  1.00  0.00    -0.744 OA
ENDBRANCH  58  62
ENDBRANCH  41  55
BRANCH  42  66
ATOM     66  C   UNL A   1      42.679  24.890  26.527  1.00  0.00     0.023 A 
ATOM     67  C   UNL A   1      43.663  24.444  25.615  1.00  0.00     0.031 A 
ATOM     68  C   UNL A   1      41.672  23.960  26.871  1.00  0.00     0.131 A 
ATOM     69  C   UNL A   1      43.619  23.122  25.101  1.00  0.00     0.055 A 
ATOM     70  C   UNL A   1      41.636  22.658  26.365  1.00  0.00     0.041 A 
ATOM     71  F   UNL A   1      40.736  24.258  27.786  1.00  0.00    -0.206 F 
ATOM     72  C   UNL A   1      42.616  22.230  25.485  1.00  0.00     0.022 A 
BRANCH  69  73
ATOM     73  S   UNL A   1      44.921  22.507  23.979  1.00  0.00     0.124 S 
ATOM     74  O   UNL A   1      45.846  23.635  23.927  1.00  0.00    -0.237 OA
ATOM     75  O   UNL A   1      45.392  21.312  24.669  1.00  0.00    -0.237 OA
ATOM     76  O   UNL A   1      44.203  22.248  22.731  1.00  0.00    -0.744 OA
ENDBRANCH  69  73
ENDBRANCH  42  66
BRANCH  54  77
ATOM     77  C   UNL A   1      45.172  30.147  29.104  1.00  0.00     0.023 A 
ATOM     78  C   UNL A   1      46.470  30.509  28.672  1.00  0.00     0.031 A 
ATOM     79  C   UNL A   1      44.081  30.773  28.474  1.00  0.00     0.131 A 
ATOM     80  C   UNL A   1      46.631  31.472  27.652  1.00  0.00     0.055 A 
ATOM     81  C   UNL A   1      44.243  31.703  27.451  1.00  0.00     0.041 A 
ATOM     82  F   UNL A   1      42.822  30.460  28.826  1.00  0.00    -0.206 F 
ATOM     83  C   UNL A   1      45.520  32.061  27.039  1.00  0.00     0.022 A 
BRANCH  80  84
ATOM     84  S   UNL A   1      48.290  32.002  27.111  1.00  0.00     0.124 S 
ATOM     85  O   UNL A   1      48.865  32.605  28.308  1.00  0.00    -0.237 OA
ATOM     86  O   UNL A   1      48.897  30.749  26.670  1.00  0.00    -0.237 OA
ATOM     87  O   UNL A   1      48.009  32.950  26.030  1.00  0.00    -0.744 OA
ENDBRANCH  80  84
ENDBRANCH  54  77
ENDBRANCH  28  29
ENDBRANCH  20  23
ENDBRANCH   1  19
TORSDOF 15
ENDMDL
MODEL 3
REMARK VINA RESULT:     -11.4      3.368      8.594
REMARK SMILES Cc1cc(C)n([C@@H](C(=O)NCCCNC(=O)c2ccc(-c3c4nc(c(-c5cc(S(=O)(=O)[O-])ccc5F)c5ccc([nH]5)c(-c5cc(S(=O)(=O)[O-])ccc5F)c5nc(c(-c6cc(S(=O)(=O)[O-])ccc6F)c6ccc3[nH]6)C=C5)C=C4)cc2)C(C)C)n1
REMARK SMILES IDX 13 1 12 2 11 3 10 4 8 5 9 6 7 8 6 9 1 10 2 11 3 12 83 13
REMARK SMILES IDX 4 14 5 15 80 16 81 17 82 18 14 19 15 20 16 22 17 23 18 24
REMARK SMILES IDX 79 25 19 26 78 27 20 28 21 29 22 30 72 31 23 32 77 33 71 34
REMARK SMILES IDX 73 35 24 36 76 37 70 38 69 39 25 41 57 42 37 43 56 44 38 45
REMARK SMILES IDX 41 46 55 47 74 48 39 49 40 50 54 52 75 53 42 54 26 55 27 56
REMARK SMILES IDX 35 57 28 58 34 59 36 60 33 61 29 62 30 63 31 64 32 65 58 66
REMARK SMILES IDX 59 67 67 68 60 69 66 70 68 71 65 72 61 73 62 74 63 75 64 76
REMARK SMILES IDX 43 77 44 78 52 79 45 80 51 81 53 82 50 83 46 84 47 85 48 86
REMARK SMILES IDX 49 87
REMARK H PARENT 10 7 14 21 73 40 41 51
REMARK Flexibility Score: inf
ROOT
ATOM      1  C   UNL A   1      35.413  29.853  27.828  1.00  0.00     0.118 C 
ENDROOT
BRANCH   1   2
ATOM      2  C   UNL A   1      34.084  30.288  27.235  1.00  0.00     0.042 C 
BRANCH   2   3
ATOM      3  C   UNL A   1      33.442  29.212  26.353  1.00  0.00     0.117 C 
BRANCH   3   4
ATOM      4  N   UNL A   1      33.818  29.322  24.948  1.00  0.00    -0.354 N 
ATOM      5  C   UNL A   1      33.275  28.713  23.847  1.00  0.00     0.245 C 
ATOM      6  O   UNL A   1      33.808  28.930  22.756  1.00  0.00    -0.273 OA
ATOM      7  H   UNL A   1      34.575  29.925  24.763  1.00  0.00     0.163 HD
BRANCH   5   8
ATOM      8  C   UNL A   1      32.043  27.817  23.992  1.00  0.00     0.199 C 
BRANCH   8   9
ATOM      9  N   UNL A   1      32.430  26.555  24.631  1.00  0.00    -0.257 N 
ATOM     10  C   UNL A   1      34.955  24.083  24.970  1.00  0.00     0.069 C 
ATOM     11  C   UNL A   1      33.738  24.923  25.036  1.00  0.00     0.060 A 
ATOM     12  C   UNL A   1      32.525  24.635  25.692  1.00  0.00     0.048 A 
ATOM     13  N   UNL A   1      33.693  26.106  24.418  1.00  0.00    -0.177 NA
ATOM     14  C   UNL A   1      31.694  25.703  25.425  1.00  0.00     0.037 A 
ATOM     15  C   UNL A   1      30.290  25.922  25.855  1.00  0.00     0.066 C 
ENDBRANCH   8   9
BRANCH   8  16
ATOM     16  C   UNL A   1      31.243  27.603  22.677  1.00  0.00     0.017 C 
ATOM     17  C   UNL A   1      31.443  26.179  22.134  1.00  0.00     0.010 C 
ATOM     18  C   UNL A   1      29.736  27.829  22.869  1.00  0.00     0.010 C 
ENDBRANCH   8  16
ENDBRANCH   5   8
ENDBRANCH   3   4
ENDBRANCH   2   3
ENDBRANCH   1   2
BRANCH   1  19
ATOM     19  N   UNL A   1      35.528  30.130  29.260  1.00  0.00    -0.352 N 
ATOM     20  C   UNL A   1      36.487  29.663  30.148  1.00  0.00     0.251 C 
ATOM     21  H   UNL A   1      34.841  30.723  29.641  1.00  0.00     0.163 HD
ATOM     22  O   UNL A   1      36.269  29.678  31.347  1.00  0.00    -0.269 OA
BRANCH  20  23
ATOM     23  C   UNL A   1      37.762  29.142  29.608  1.00  0.00     0.039 A 
ATOM     24  C   UNL A   1      38.389  29.734  28.509  1.00  0.00     0.014 A 
ATOM     25  C   UNL A   1      38.342  28.048  30.243  1.00  0.00     0.014 A 
ATOM     26  C   UNL A   1      39.643  29.262  28.118  1.00  0.00     0.010 A 
ATOM     27  C   UNL A   1      39.642  27.706  29.976  1.00  0.00     0.010 A 
ATOM     28  C   UNL A   1      40.276  28.259  28.875  1.00  0.00    -0.014 A 
BRANCH  28  29
ATOM     29  C   UNL A   1      41.658  27.863  28.615  1.00  0.00     0.031 A 
ATOM     30  C   UNL A   1      41.775  26.599  27.845  1.00  0.00     0.074 A 
ATOM     31  C   UNL A   1      42.725  28.666  28.833  1.00  0.00     0.049 A 
ATOM     32  N   UNL A   1      42.107  25.436  28.294  1.00  0.00    -0.248 NA
ATOM     33  C   UNL A   1      41.273  26.574  26.461  1.00  0.00     0.031 C 
ATOM     34  C   UNL A   1      42.731  30.062  29.290  1.00  0.00     0.029 A 
ATOM     35  N   UNL A   1      44.047  28.433  28.594  1.00  0.00    -0.354 N 
ATOM     36  C   UNL A   1      42.138  24.599  27.186  1.00  0.00     0.074 A 
ATOM     37  C   UNL A   1      41.381  25.276  26.168  1.00  0.00     0.031 C 
ATOM     38  C   UNL A   1      43.949  30.610  29.078  1.00  0.00     0.029 A 
ATOM     39  C   UNL A   1      44.859  29.567  28.642  1.00  0.00     0.049 A 
ATOM     40  H   UNL A   1      44.400  27.535  28.401  1.00  0.00     0.167 HD
ATOM     41  C   UNL A   1      43.030  23.571  27.117  1.00  0.00     0.034 A 
ATOM     42  C   UNL A   1      46.186  29.649  28.347  1.00  0.00     0.034 A 
ATOM     43  C   UNL A   1      43.615  23.322  28.421  1.00  0.00     0.049 A 
ATOM     44  C   UNL A   1      46.729  28.279  28.494  1.00  0.00     0.074 A 
ATOM     45  C   UNL A   1      43.124  22.979  29.665  1.00  0.00     0.029 A 
ATOM     46  N   UNL A   1      44.879  23.823  28.647  1.00  0.00    -0.354 N 
ATOM     47  N   UNL A   1      46.758  27.639  29.631  1.00  0.00    -0.248 NA
ATOM     48  C   UNL A   1      46.790  27.437  27.310  1.00  0.00     0.031 C 
ATOM     49  C   UNL A   1      43.907  23.731  30.592  1.00  0.00     0.029 A 
ATOM     50  C   UNL A   1      44.894  24.421  29.882  1.00  0.00     0.049 A 
ATOM     51  H   UNL A   1      45.641  23.763  28.027  1.00  0.00     0.167 HD
ATOM     52  C   UNL A   1      46.388  26.339  29.319  1.00  0.00     0.074 A 
ATOM     53  C   UNL A   1      46.532  26.250  27.866  1.00  0.00     0.031 C 
ATOM     54  C   UNL A   1      45.733  25.557  30.228  1.00  0.00     0.034 A 
BRANCH  41  55
ATOM     55  C   UNL A   1      43.699  23.076  25.847  1.00  0.00     0.023 A 
ATOM     56  C   UNL A   1      43.610  21.695  25.583  1.00  0.00     0.031 A 
ATOM     57  C   UNL A   1      44.637  23.786  25.065  1.00  0.00     0.131 A 
ATOM     58  C   UNL A   1      44.501  21.066  24.696  1.00  0.00     0.055 A 
ATOM     59  C   UNL A   1      45.477  23.165  24.134  1.00  0.00     0.041 A 
ATOM     60  F   UNL A   1      44.867  25.096  25.207  1.00  0.00    -0.206 F 
ATOM     61  C   UNL A   1      45.439  21.794  23.971  1.00  0.00     0.022 A 
BRANCH  58  62
ATOM     62  S   UNL A   1      44.532  19.257  24.652  1.00  0.00     0.124 S 
ATOM     63  O   UNL A   1      44.555  19.002  23.217  1.00  0.00    -0.237 OA
ATOM     64  O   UNL A   1      45.762  18.961  25.381  1.00  0.00    -0.237 OA
ATOM     65  O   UNL A   1      43.297  18.881  25.336  1.00  0.00    -0.744 OA
ENDBRANCH  58  62
ENDBRANCH  41  55
BRANCH  42  66
ATOM     66  C   UNL A   1      46.898  30.738  27.614  1.00  0.00     0.023 A 
ATOM     67  C   UNL A   1      46.230  31.806  26.968  1.00  0.00     0.031 A 
ATOM     68  C   UNL A   1      48.295  30.878  27.775  1.00  0.00     0.131 A 
ATOM     69  C   UNL A   1      46.953  32.944  26.529  1.00  0.00     0.055 A 
ATOM     70  C   UNL A   1      49.001  32.004  27.345  1.00  0.00     0.041 A 
ATOM     71  F   UNL A   1      49.011  29.958  28.441  1.00  0.00    -0.206 F 
ATOM     72  C   UNL A   1      48.331  33.048  26.729  1.00  0.00     0.022 A 
BRANCH  69  73
ATOM     73  S   UNL A   1      46.096  34.360  25.759  1.00  0.00     0.124 S 
ATOM     74  O   UNL A   1      45.661  35.130  26.920  1.00  0.00    -0.237 OA
ATOM     75  O   UNL A   1      47.146  34.957  24.941  1.00  0.00    -0.237 OA
ATOM     76  O   UNL A   1      45.013  33.734  25.000  1.00  0.00    -0.744 OA
ENDBRANCH  69  73
ENDBRANCH  42  66
BRANCH  54  77
ATOM     77  C   UNL A   1      45.741  25.987  31.685  1.00  0.00     0.023 A 
ATOM     78  C   UNL A   1      44.643  26.528  32.395  1.00  0.00     0.031 A 
ATOM     79  C   UNL A   1      46.921  25.736  32.409  1.00  0.00     0.131 A 
ATOM     80  C   UNL A   1      44.762  26.803  33.775  1.00  0.00     0.055 A 
ATOM     81  C   UNL A   1      47.027  25.984  33.774  1.00  0.00     0.041 A 
ATOM     82  F   UNL A   1      47.994  25.207  31.796  1.00  0.00    -0.206 F 
ATOM     83  C   UNL A   1      45.949  26.525  34.463  1.00  0.00     0.022 A 
BRANCH  80  84
ATOM     84  S   UNL A   1      43.386  27.552  34.708  1.00  0.00     0.124 S 
ATOM     85  O   UNL A   1      43.258  26.695  35.880  1.00  0.00    -0.237 OA
ATOM     86  O   UNL A   1      43.869  28.908  34.955  1.00  0.00    -0.237 OA
ATOM     87  O   UNL A   1      42.259  27.474  33.774  1.00  0.00    -0.744 OA
ENDBRANCH  80  84
ENDBRANCH  54  77
ENDBRANCH  28  29
ENDBRANCH  20  23
ENDBRANCH   1  19
TORSDOF 15
ENDMDL
