MODEL 1
REMARK VINA RESULT:     -11.7      0.000      0.000
REMARK SMILES O=C(NCCCNC(=O)C1([NH+]2CCOCC2)CCC1)c1ccc(-c2c3nc(c(-c4cc(S(=O)(=O)[O-])ccc4F)c4ccc([nH]4)c(-c4cc(S(=O)(=O)[O-])ccc4F)c4nc(c(-c5cc(S(=O)(=O)[O-])ccc5F)c5ccc2[nH]5)C=C4)C=C3)cc1
REMARK SMILES IDX 4 1 3 2 1 3 2 4 20 6 21 7 82 8 22 9 81 10 23 11 24 12 25 13
REMARK SMILES IDX 75 14 26 15 80 16 74 17 76 18 27 19 79 20 73 21 72 22 28 24
REMARK SMILES IDX 60 25 40 26 59 27 41 28 44 29 58 30 77 31 42 32 43 33 57 35
REMARK SMILES IDX 78 36 45 37 29 38 30 39 38 40 31 41 37 42 39 43 36 44 32 45
REMARK SMILES IDX 33 46 34 47 35 48 61 49 62 50 70 51 63 52 69 53 71 54 68 55
REMARK SMILES IDX 64 56 65 57 66 58 67 59 46 60 47 61 55 62 48 63 54 64 56 65
REMARK SMILES IDX 53 66 49 67 50 68 51 69 52 70 5 71 6 72 7 73 8 74 9 76 10 77
REMARK SMILES IDX 17 78 19 79 18 80 11 81 12 82 16 83 13 85 15 86 14 87
REMARK H PARENT 3 5 76 23 44 34 7 75 11 84
REMARK Flexibility Score: inf
ROOT
ATOM      1  C   UNL A   1      32.944  32.375  27.186  1.00  0.00     0.118 C 
ENDROOT
BRANCH   1   2
ATOM      2  N   UNL A   1      32.757  33.761  27.599  1.00  0.00    -0.352 N 
ATOM      3  O   UNL A   1      32.736  35.485  29.038  1.00  0.00    -0.269 OA
ATOM      4  C   UNL A   1      33.258  34.432  28.685  1.00  0.00     0.251 C 
ATOM      5  H   UNL A   1      32.182  34.298  27.006  1.00  0.00     0.163 HD
BRANCH   4   6
ATOM      6  C   UNL A   1      34.429  33.900  29.411  1.00  0.00     0.039 A 
ATOM      7  C   UNL A   1      34.261  32.953  30.426  1.00  0.00     0.014 A 
ATOM      8  C   UNL A   1      35.712  34.296  29.024  1.00  0.00     0.014 A 
ATOM      9  C   UNL A   1      35.367  32.483  31.126  1.00  0.00     0.010 A 
ATOM     10  C   UNL A   1      36.825  33.765  29.679  1.00  0.00     0.010 A 
ATOM     11  C   UNL A   1      36.660  32.869  30.747  1.00  0.00    -0.014 A 
BRANCH  11  12
ATOM     12  C   UNL A   1      37.838  32.293  31.443  1.00  0.00     0.031 A 
ATOM     13  C   UNL A   1      38.634  31.192  30.806  1.00  0.00     0.074 A 
ATOM     14  C   UNL A   1      38.172  32.761  32.661  1.00  0.00     0.049 A 
ATOM     15  N   UNL A   1      39.634  30.504  31.293  1.00  0.00    -0.248 NA
ATOM     16  C   UNL A   1      38.244  30.806  29.442  1.00  0.00     0.031 C 
ATOM     17  C   UNL A   1      37.472  33.836  33.368  1.00  0.00     0.029 A 
ATOM     18  N   UNL A   1      39.175  32.395  33.521  1.00  0.00    -0.354 N 
ATOM     19  C   UNL A   1      39.981  29.586  30.308  1.00  0.00     0.074 A 
ATOM     20  C   UNL A   1      39.056  29.786  29.209  1.00  0.00     0.031 C 
ATOM     21  C   UNL A   1      38.076  34.054  34.544  1.00  0.00     0.029 A 
ATOM     22  C   UNL A   1      39.156  33.087  34.708  1.00  0.00     0.049 A 
ATOM     23  H   UNL A   1      39.843  31.704  33.308  1.00  0.00     0.167 HD
ATOM     24  C   UNL A   1      40.982  28.669  30.321  1.00  0.00     0.034 A 
ATOM     25  C   UNL A   1      39.895  32.934  35.825  1.00  0.00     0.034 A 
ATOM     26  C   UNL A   1      41.882  28.488  31.436  1.00  0.00     0.049 A 
ATOM     27  C   UNL A   1      40.958  31.870  35.845  1.00  0.00     0.074 A 
ATOM     28  C   UNL A   1      42.943  27.608  31.557  1.00  0.00     0.029 A 
ATOM     29  N   UNL A   1      41.817  29.192  32.635  1.00  0.00    -0.354 N 
ATOM     30  N   UNL A   1      41.279  31.010  34.907  1.00  0.00    -0.248 NA
ATOM     31  C   UNL A   1      41.760  31.759  37.068  1.00  0.00     0.031 C 
ATOM     32  C   UNL A   1      43.469  27.726  32.849  1.00  0.00     0.029 A 
ATOM     33  C   UNL A   1      42.796  28.743  33.508  1.00  0.00     0.049 A 
ATOM     34  H   UNL A   1      41.170  29.907  32.834  1.00  0.00     0.167 HD
ATOM     35  C   UNL A   1      42.342  30.272  35.417  1.00  0.00     0.074 A 
ATOM     36  C   UNL A   1      42.607  30.792  36.743  1.00  0.00     0.031 C 
ATOM     37  C   UNL A   1      43.042  29.265  34.834  1.00  0.00     0.034 A 
BRANCH  24  38
ATOM     38  C   UNL A   1      41.104  27.761  29.117  1.00  0.00     0.023 A 
ATOM     39  C   UNL A   1      42.100  27.947  28.143  1.00  0.00     0.031 A 
ATOM     40  C   UNL A   1      40.173  26.726  28.911  1.00  0.00     0.131 A 
ATOM     41  C   UNL A   1      42.085  27.181  26.967  1.00  0.00     0.055 A 
ATOM     42  C   UNL A   1      40.220  25.905  27.781  1.00  0.00     0.041 A 
ATOM     43  F   UNL A   1      39.184  26.509  29.792  1.00  0.00    -0.206 F 
ATOM     44  C   UNL A   1      41.168  26.144  26.790  1.00  0.00     0.022 A 
BRANCH  41  45
ATOM     45  S   UNL A   1      43.162  27.684  25.594  1.00  0.00     0.124 S 
ATOM     46  O   UNL A   1      42.205  28.297  24.675  1.00  0.00    -0.237 OA
ATOM     47  O   UNL A   1      44.097  28.594  26.243  1.00  0.00    -0.237 OA
ATOM     48  O   UNL A   1      43.736  26.423  25.130  1.00  0.00    -0.744 OA
ENDBRANCH  41  45
ENDBRANCH  24  38
BRANCH  25  49
ATOM     49  C   UNL A   1      39.616  33.783  37.016  1.00  0.00     0.023 A 
ATOM     50  C   UNL A   1      38.937  33.273  38.131  1.00  0.00     0.031 A 
ATOM     51  C   UNL A   1      40.047  35.123  37.059  1.00  0.00     0.131 A 
ATOM     52  C   UNL A   1      38.688  34.103  39.235  1.00  0.00     0.055 A 
ATOM     53  C   UNL A   1      39.840  35.929  38.177  1.00  0.00     0.041 A 
ATOM     54  F   UNL A   1      40.709  35.655  36.019  1.00  0.00    -0.206 F 
ATOM     55  C   UNL A   1      39.148  35.422  39.272  1.00  0.00     0.022 A 
BRANCH  52  56
ATOM     56  S   UNL A   1      37.704  33.449  40.610  1.00  0.00     0.124 S 
ATOM     57  O   UNL A   1      36.529  32.933  39.917  1.00  0.00    -0.237 OA
ATOM     58  O   UNL A   1      38.603  32.451  41.179  1.00  0.00    -0.237 OA
ATOM     59  O   UNL A   1      37.469  34.622  41.450  1.00  0.00    -0.744 OA
ENDBRANCH  52  56
ENDBRANCH  25  49
BRANCH  37  60
ATOM     60  C   UNL A   1      44.208  28.702  35.610  1.00  0.00     0.023 A 
ATOM     61  C   UNL A   1      44.054  27.654  36.533  1.00  0.00     0.031 A 
ATOM     62  C   UNL A   1      45.498  29.225  35.408  1.00  0.00     0.131 A 
ATOM     63  C   UNL A   1      45.168  27.189  37.250  1.00  0.00     0.055 A 
ATOM     64  C   UNL A   1      46.609  28.721  36.082  1.00  0.00     0.041 A 
ATOM     65  F   UNL A   1      45.698  30.231  34.541  1.00  0.00    -0.206 F 
ATOM     66  C   UNL A   1      46.446  27.704  37.016  1.00  0.00     0.022 A 
BRANCH  63  67
ATOM     67  S   UNL A   1      44.916  25.948  38.549  1.00  0.00     0.124 S 
ATOM     68  O   UNL A   1      44.061  26.664  39.491  1.00  0.00    -0.237 OA
ATOM     69  O   UNL A   1      44.284  24.854  37.819  1.00  0.00    -0.237 OA
ATOM     70  O   UNL A   1      46.270  25.672  39.027  1.00  0.00    -0.744 OA
ENDBRANCH  63  67
ENDBRANCH  37  60
ENDBRANCH  11  12
ENDBRANCH   4   6
ENDBRANCH   1   2
BRANCH   1  71
ATOM     71  C   UNL A   1      31.640  31.755  26.672  1.00  0.00     0.042 C 
BRANCH  71  72
ATOM     72  C   UNL A   1      31.796  30.285  26.279  1.00  0.00     0.118 C 
BRANCH  72  73
ATOM     73  N   UNL A   1      31.236  30.036  24.970  1.00  0.00    -0.351 N 
ATOM     74  C   UNL A   1      30.999  28.918  24.206  1.00  0.00     0.281 C 
ATOM     75  H   UNL A   1      30.957  30.864  24.518  1.00  0.00     0.163 HD
ATOM     76  O   UNL A   1      30.511  29.238  23.107  1.00  0.00    -0.268 OA
BRANCH  74  77
ATOM     77  C   UNL A   1      31.252  27.380  24.718  1.00  0.00     0.177 C 
ATOM     78  C   UNL A   1      31.157  27.037  26.243  1.00  0.00     0.079 C 
ATOM     79  C   UNL A   1      30.041  26.430  24.491  1.00  0.00     0.079 C 
ATOM     80  C   UNL A   1      30.191  25.883  25.917  1.00  0.00     0.014 C 
BRANCH  77  81
ATOM     81  N   UNL A   1      32.522  26.792  24.153  1.00  0.00    -0.318 N 
ATOM     82  C   UNL A   1      33.632  27.736  23.910  1.00  0.00     0.291 C 
ATOM     83  C   UNL A   1      32.516  25.757  23.107  1.00  0.00     0.291 C 
ATOM     84  H   UNL A   1      32.680  26.243  24.998  1.00  0.00     0.349 HD
ATOM     85  C   UNL A   1      33.840  28.168  22.448  1.00  0.00     0.221 C 
ATOM     86  C   UNL A   1      32.686  26.282  21.674  1.00  0.00     0.221 C 
ATOM     87  O   UNL A   1      33.879  27.059  21.549  1.00  0.00    -0.370 OA
ENDBRANCH  77  81
ENDBRANCH  74  77
ENDBRANCH  72  73
ENDBRANCH  71  72
ENDBRANCH   1  71
TORSDOF 14
ENDMDL
MODEL 2
REMARK VINA RESULT:     -11.3      3.259      8.792
REMARK SMILES O=C(NCCCNC(=O)C1([NH+]2CCOCC2)CCC1)c1ccc(-c2c3nc(c(-c4cc(S(=O)(=O)[O-])ccc4F)c4ccc([nH]4)c(-c4cc(S(=O)(=O)[O-])ccc4F)c4nc(c(-c5cc(S(=O)(=O)[O-])ccc5F)c5ccc2[nH]5)C=C4)C=C3)cc1
REMARK SMILES IDX 4 1 3 2 1 3 2 4 20 6 21 7 82 8 22 9 81 10 23 11 24 12 25 13
REMARK SMILES IDX 75 14 26 15 80 16 74 17 76 18 27 19 79 20 73 21 72 22 28 24
REMARK SMILES IDX 60 25 40 26 59 27 41 28 44 29 58 30 77 31 42 32 43 33 57 35
REMARK SMILES IDX 78 36 45 37 29 38 30 39 38 40 31 41 37 42 39 43 36 44 32 45
REMARK SMILES IDX 33 46 34 47 35 48 61 49 62 50 70 51 63 52 69 53 71 54 68 55
REMARK SMILES IDX 64 56 65 57 66 58 67 59 46 60 47 61 55 62 48 63 54 64 56 65
REMARK SMILES IDX 53 66 49 67 50 68 51 69 52 70 5 71 6 72 7 73 8 74 9 76 10 77
REMARK SMILES IDX 17 78 19 79 18 80 11 81 12 82 16 83 13 85 15 86 14 87
REMARK H PARENT 3 5 76 23 44 34 7 75 11 84
REMARK Flexibility Score: inf
ROOT
ATOM      1  C   UNL A   1      33.867  29.235  26.173  1.00  0.00     0.118 C 
ENDROOT
BRANCH   1   2
ATOM      2  N   UNL A   1      33.785  30.603  26.671  1.00  0.00    -0.352 N 
ATOM      3  O   UNL A   1      34.025  32.254  28.175  1.00  0.00    -0.269 OA
ATOM      4  C   UNL A   1      34.457  31.207  27.703  1.00  0.00     0.251 C 
ATOM      5  H   UNL A   1      33.148  31.183  26.193  1.00  0.00     0.163 HD
BRANCH   4   6
ATOM      6  C   UNL A   1      35.702  30.611  28.228  1.00  0.00     0.039 A 
ATOM      7  C   UNL A   1      36.933  30.905  27.633  1.00  0.00     0.014 A 
ATOM      8  C   UNL A   1      35.649  29.812  29.373  1.00  0.00     0.014 A 
ATOM      9  C   UNL A   1      38.096  30.314  28.114  1.00  0.00     0.010 A 
ATOM     10  C   UNL A   1      36.828  29.280  29.900  1.00  0.00     0.010 A 
ATOM     11  C   UNL A   1      38.058  29.512  29.263  1.00  0.00    -0.014 A 
BRANCH  11  12
ATOM     12  C   UNL A   1      39.317  28.959  29.821  1.00  0.00     0.031 A 
ATOM     13  C   UNL A   1      39.964  29.596  31.015  1.00  0.00     0.074 A 
ATOM     14  C   UNL A   1      39.878  27.886  29.230  1.00  0.00     0.049 A 
ATOM     15  N   UNL A   1      41.106  29.314  31.588  1.00  0.00    -0.248 NA
ATOM     16  C   UNL A   1      39.235  30.708  31.640  1.00  0.00     0.031 C 
ATOM     17  C   UNL A   1      39.327  27.183  28.070  1.00  0.00     0.029 A 
ATOM     18  N   UNL A   1      41.032  27.203  29.516  1.00  0.00    -0.354 N 
ATOM     19  C   UNL A   1      41.246  30.226  32.628  1.00  0.00     0.074 A 
ATOM     20  C   UNL A   1      40.085  31.093  32.579  1.00  0.00     0.031 C 
ATOM     21  C   UNL A   1      40.133  26.159  27.754  1.00  0.00     0.029 A 
ATOM     22  C   UNL A   1      41.293  26.179  28.638  1.00  0.00     0.049 A 
ATOM     23  H   UNL A   1      41.617  27.426  30.276  1.00  0.00     0.167 HD
ATOM     24  C   UNL A   1      42.248  30.324  33.538  1.00  0.00     0.034 A 
ATOM     25  C   UNL A   1      42.365  25.371  28.526  1.00  0.00     0.034 A 
ATOM     26  C   UNL A   1      43.398  29.448  33.554  1.00  0.00     0.049 A 
ATOM     27  C   UNL A   1      43.496  25.534  29.504  1.00  0.00     0.074 A 
ATOM     28  C   UNL A   1      44.464  29.437  34.436  1.00  0.00     0.029 A 
ATOM     29  N   UNL A   1      43.641  28.435  32.631  1.00  0.00    -0.354 N 
ATOM     30  N   UNL A   1      43.617  26.399  30.484  1.00  0.00    -0.248 NA
ATOM     31  C   UNL A   1      44.629  24.614  29.365  1.00  0.00     0.031 C 
ATOM     32  C   UNL A   1      45.383  28.473  34.005  1.00  0.00     0.029 A 
ATOM     33  C   UNL A   1      44.852  27.818  32.905  1.00  0.00     0.049 A 
ATOM     34  H   UNL A   1      43.039  28.191  31.891  1.00  0.00     0.167 HD
ATOM     35  C   UNL A   1      44.830  26.106  31.100  1.00  0.00     0.074 A 
ATOM     36  C   UNL A   1      45.398  24.985  30.379  1.00  0.00     0.031 C 
ATOM     37  C   UNL A   1      45.412  26.705  32.170  1.00  0.00     0.034 A 
BRANCH  24  38
ATOM     38  C   UNL A   1      42.165  31.451  34.542  1.00  0.00     0.023 A 
ATOM     39  C   UNL A   1      41.233  31.443  35.595  1.00  0.00     0.031 A 
ATOM     40  C   UNL A   1      42.992  32.582  34.411  1.00  0.00     0.131 A 
ATOM     41  C   UNL A   1      41.083  32.576  36.410  1.00  0.00     0.055 A 
ATOM     42  C   UNL A   1      42.902  33.668  35.285  1.00  0.00     0.041 A 
ATOM     43  F   UNL A   1      43.888  32.663  33.415  1.00  0.00    -0.206 F 
ATOM     44  C   UNL A   1      41.929  33.678  36.280  1.00  0.00     0.022 A 
BRANCH  41  45
ATOM     45  S   UNL A   1      39.647  32.659  37.519  1.00  0.00     0.124 S 
ATOM     46  O   UNL A   1      40.284  32.607  38.833  1.00  0.00    -0.237 OA
ATOM     47  O   UNL A   1      39.040  33.933  37.154  1.00  0.00    -0.237 OA
ATOM     48  O   UNL A   1      38.872  31.472  37.166  1.00  0.00    -0.744 OA
ENDBRANCH  41  45
ENDBRANCH  24  38
BRANCH  25  49
ATOM     49  C   UNL A   1      42.426  24.375  27.421  1.00  0.00     0.023 A 
ATOM     50  C   UNL A   1      41.674  23.192  27.463  1.00  0.00     0.031 A 
ATOM     51  C   UNL A   1      43.232  24.606  26.290  1.00  0.00     0.131 A 
ATOM     52  C   UNL A   1      41.760  22.273  26.406  1.00  0.00     0.055 A 
ATOM     53  C   UNL A   1      43.277  23.713  25.220  1.00  0.00     0.041 A 
ATOM     54  F   UNL A   1      43.965  25.728  26.198  1.00  0.00    -0.206 F 
ATOM     55  C   UNL A   1      42.543  22.534  25.278  1.00  0.00     0.022 A 
BRANCH  52  56
ATOM     56  S   UNL A   1      40.868  20.701  26.545  1.00  0.00     0.124 S 
ATOM     57  O   UNL A   1      39.546  21.063  26.046  1.00  0.00    -0.237 OA
ATOM     58  O   UNL A   1      41.661  19.825  25.689  1.00  0.00    -0.237 OA
ATOM     59  O   UNL A   1      40.934  20.397  27.974  1.00  0.00    -0.744 OA
ENDBRANCH  52  56
ENDBRANCH  25  49
BRANCH  37  60
ATOM     60  C   UNL A   1      46.708  26.111  32.667  1.00  0.00     0.023 A 
ATOM     61  C   UNL A   1      46.738  25.056  33.594  1.00  0.00     0.031 A 
ATOM     62  C   UNL A   1      47.932  26.612  32.190  1.00  0.00     0.131 A 
ATOM     63  C   UNL A   1      47.972  24.562  34.045  1.00  0.00     0.055 A 
ATOM     64  C   UNL A   1      49.154  26.079  32.600  1.00  0.00     0.041 A 
ATOM     65  F   UNL A   1      47.959  27.624  31.307  1.00  0.00    -0.206 F 
ATOM     66  C   UNL A   1      49.179  25.055  33.540  1.00  0.00     0.022 A 
BRANCH  63  67
ATOM     67  S   UNL A   1      47.985  23.311  35.359  1.00  0.00     0.124 S 
ATOM     68  O   UNL A   1      49.381  23.333  35.785  1.00  0.00    -0.237 OA
ATOM     69  O   UNL A   1      47.019  23.846  36.312  1.00  0.00    -0.237 OA
ATOM     70  O   UNL A   1      47.567  22.089  34.673  1.00  0.00    -0.744 OA
ENDBRANCH  63  67
ENDBRANCH  37  60
ENDBRANCH  11  12
ENDBRANCH   4   6
ENDBRANCH   1   2
BRANCH   1  71
ATOM     71  C   UNL A   1      33.257  28.234  27.159  1.00  0.00     0.042 C 
BRANCH  71  72
ATOM     72  C   UNL A   1      31.733  28.331  27.238  1.00  0.00     0.118 C 
BRANCH  72  73
ATOM     73  N   UNL A   1      31.123  27.024  27.130  1.00  0.00    -0.351 N 
ATOM     74  C   UNL A   1      30.668  26.242  26.096  1.00  0.00     0.281 C 
ATOM     75  H   UNL A   1      31.008  26.591  28.006  1.00  0.00     0.163 HD
ATOM     76  O   UNL A   1      30.190  25.179  26.534  1.00  0.00    -0.268 OA
BRANCH  74  77
ATOM     77  C   UNL A   1      30.815  26.631  24.509  1.00  0.00     0.177 C 
ATOM     78  C   UNL A   1      29.559  26.591  23.574  1.00  0.00     0.079 C 
ATOM     79  C   UNL A   1      30.893  28.161  24.238  1.00  0.00     0.079 C 
ATOM     80  C   UNL A   1      29.878  28.019  23.095  1.00  0.00     0.014 C 
BRANCH  77  81
ATOM     81  N   UNL A   1      31.955  25.898  23.845  1.00  0.00    -0.318 N 
ATOM     82  C   UNL A   1      33.242  26.617  23.767  1.00  0.00     0.291 C 
ATOM     83  C   UNL A   1      31.770  25.084  22.633  1.00  0.00     0.291 C 
ATOM     84  H   UNL A   1      31.969  25.191  24.579  1.00  0.00     0.349 HD
ATOM     85  C   UNL A   1      33.583  27.243  22.403  1.00  0.00     0.221 C 
ATOM     86  C   UNL A   1      32.092  25.802  21.314  1.00  0.00     0.221 C 
ATOM     87  O   UNL A   1      33.423  26.323  21.323  1.00  0.00    -0.370 OA
ENDBRANCH  77  81
ENDBRANCH  74  77
ENDBRANCH  72  73
ENDBRANCH  71  72
ENDBRANCH   1  71
TORSDOF 14
ENDMDL
MODEL 3
REMARK VINA RESULT:     -11.3      6.239     12.204
REMARK SMILES O=C(NCCCNC(=O)C1([NH+]2CCOCC2)CCC1)c1ccc(-c2c3nc(c(-c4cc(S(=O)(=O)[O-])ccc4F)c4ccc([nH]4)c(-c4cc(S(=O)(=O)[O-])ccc4F)c4nc(c(-c5cc(S(=O)(=O)[O-])ccc5F)c5ccc2[nH]5)C=C4)C=C3)cc1
REMARK SMILES IDX 4 1 3 2 1 3 2 4 20 6 21 7 82 8 22 9 81 10 23 11 24 12 25 13
REMARK SMILES IDX 75 14 26 15 80 16 74 17 76 18 27 19 79 20 73 21 72 22 28 24
REMARK SMILES IDX 60 25 40 26 59 27 41 28 44 29 58 30 77 31 42 32 43 33 57 35
REMARK SMILES IDX 78 36 45 37 29 38 30 39 38 40 31 41 37 42 39 43 36 44 32 45
REMARK SMILES IDX 33 46 34 47 35 48 61 49 62 50 70 51 63 52 69 53 71 54 68 55
REMARK SMILES IDX 64 56 65 57 66 58 67 59 46 60 47 61 55 62 48 63 54 64 56 65
REMARK SMILES IDX 53 66 49 67 50 68 51 69 52 70 5 71 6 72 7 73 8 74 9 76 10 77
REMARK SMILES IDX 17 78 19 79 18 80 11 81 12 82 16 83 13 85 15 86 14 87
REMARK H PARENT 3 5 76 23 44 34 7 75 11 84
REMARK Flexibility Score: inf
ROOT
ATOM      1  C   UNL A   1      39.226  20.350  26.086  1.00  0.00     0.118 C 
ENDROOT
BRANCH   1   2
ATOM      2  N   UNL A   1      40.318  19.384  26.093  1.00  0.00    -0.352 N 
ATOM      3  O   UNL A   1      42.408  18.652  25.721  1.00  0.00    -0.269 OA
ATOM      4  C   UNL A   1      41.673  19.586  26.026  1.00  0.00     0.251 C 
ATOM      5  H   UNL A   1      40.040  18.442  26.157  1.00  0.00     0.163 HD
BRANCH   4   6
ATOM      6  C   UNL A   1      42.243  20.913  26.337  1.00  0.00     0.039 A 
ATOM      7  C   UNL A   1      42.446  21.851  25.321  1.00  0.00     0.014 A 
ATOM      8  C   UNL A   1      42.507  21.249  27.667  1.00  0.00     0.014 A 
ATOM      9  C   UNL A   1      43.015  23.085  25.619  1.00  0.00     0.010 A 
ATOM     10  C   UNL A   1      43.007  22.516  27.973  1.00  0.00     0.010 A 
ATOM     11  C   UNL A   1      43.282  23.437  26.950  1.00  0.00    -0.014 A 
BRANCH  11  12
ATOM     12  C   UNL A   1      43.805  24.789  27.266  1.00  0.00     0.031 A 
ATOM     13  C   UNL A   1      42.895  25.845  27.822  1.00  0.00     0.074 A 
ATOM     14  C   UNL A   1      45.103  25.060  27.032  1.00  0.00     0.049 A 
ATOM     15  N   UNL A   1      43.144  27.104  28.074  1.00  0.00    -0.248 NA
ATOM     16  C   UNL A   1      41.517  25.432  28.121  1.00  0.00     0.031 C 
ATOM     17  C   UNL A   1      46.078  24.104  26.503  1.00  0.00     0.029 A 
ATOM     18  N   UNL A   1      45.827  26.212  27.202  1.00  0.00    -0.354 N 
ATOM     19  C   UNL A   1      41.950  27.643  28.541  1.00  0.00     0.074 A 
ATOM     20  C   UNL A   1      40.969  26.576  28.500  1.00  0.00     0.031 C 
ATOM     21  C   UNL A   1      47.274  24.702  26.408  1.00  0.00     0.029 A 
ATOM     22  C   UNL A   1      47.135  26.101  26.796  1.00  0.00     0.049 A 
ATOM     23  H   UNL A   1      45.445  27.039  27.579  1.00  0.00     0.167 HD
ATOM     24  C   UNL A   1      41.702  28.907  28.968  1.00  0.00     0.034 A 
ATOM     25  C   UNL A   1      48.106  27.030  26.703  1.00  0.00     0.034 A 
ATOM     26  C   UNL A   1      42.701  29.951  28.989  1.00  0.00     0.049 A 
ATOM     27  C   UNL A   1      47.797  28.441  27.121  1.00  0.00     0.074 A 
ATOM     28  C   UNL A   1      42.574  31.261  29.417  1.00  0.00     0.029 A 
ATOM     29  N   UNL A   1      44.013  29.809  28.545  1.00  0.00    -0.354 N 
ATOM     30  N   UNL A   1      46.665  28.939  27.563  1.00  0.00    -0.248 NA
ATOM     31  C   UNL A   1      48.892  29.413  27.033  1.00  0.00     0.031 C 
ATOM     32  C   UNL A   1      43.779  31.927  29.164  1.00  0.00     0.029 A 
ATOM     33  C   UNL A   1      44.691  31.012  28.660  1.00  0.00     0.049 A 
ATOM     34  H   UNL A   1      44.403  28.973  28.201  1.00  0.00     0.167 HD
ATOM     35  C   UNL A   1      46.920  30.279  27.834  1.00  0.00     0.074 A 
ATOM     36  C   UNL A   1      48.313  30.508  27.508  1.00  0.00     0.031 C 
ATOM     37  C   UNL A   1      46.080  31.229  28.321  1.00  0.00     0.034 A 
BRANCH  24  38
ATOM     38  C   UNL A   1      40.285  29.233  29.384  1.00  0.00     0.023 A 
ATOM     39  C   UNL A   1      39.902  29.295  30.736  1.00  0.00     0.031 A 
ATOM     40  C   UNL A   1      39.286  29.426  28.413  1.00  0.00     0.131 A 
ATOM     41  C   UNL A   1      38.549  29.446  31.077  1.00  0.00     0.055 A 
ATOM     42  C   UNL A   1      37.955  29.670  28.760  1.00  0.00     0.041 A 
ATOM     43  F   UNL A   1      39.581  29.358  27.105  1.00  0.00    -0.206 F 
ATOM     44  C   UNL A   1      37.576  29.661  30.099  1.00  0.00     0.022 A 
BRANCH  41  45
ATOM     45  S   UNL A   1      38.057  29.174  32.803  1.00  0.00     0.124 S 
ATOM     46  O   UNL A   1      36.954  30.121  32.950  1.00  0.00    -0.237 OA
ATOM     47  O   UNL A   1      37.692  27.762  32.808  1.00  0.00    -0.237 OA
ATOM     48  O   UNL A   1      39.260  29.511  33.560  1.00  0.00    -0.744 OA
ENDBRANCH  41  45
ENDBRANCH  24  38
BRANCH  25  49
ATOM     49  C   UNL A   1      49.437  26.653  26.153  1.00  0.00     0.023 A 
ATOM     50  C   UNL A   1      49.856  27.096  24.890  1.00  0.00     0.031 A 
ATOM     51  C   UNL A   1      50.322  25.852  26.900  1.00  0.00     0.131 A 
ATOM     52  C   UNL A   1      51.116  26.717  24.402  1.00  0.00     0.055 A 
ATOM     53  C   UNL A   1      51.592  25.518  26.431  1.00  0.00     0.041 A 
ATOM     54  F   UNL A   1      49.970  25.410  28.119  1.00  0.00    -0.206 F 
ATOM     55  C   UNL A   1      51.992  25.945  25.170  1.00  0.00     0.022 A 
BRANCH  52  56
ATOM     56  S   UNL A   1      51.579  27.206  22.718  1.00  0.00     0.124 S 
ATOM     57  O   UNL A   1      52.789  26.421  22.502  1.00  0.00    -0.237 OA
ATOM     58  O   UNL A   1      50.406  26.802  21.951  1.00  0.00    -0.237 OA
ATOM     59  O   UNL A   1      51.783  28.650  22.826  1.00  0.00    -0.744 OA
ENDBRANCH  52  56
ENDBRANCH  25  49
BRANCH  37  60
ATOM     60  C   UNL A   1      46.669  32.592  28.590  1.00  0.00     0.023 A 
ATOM     61  C   UNL A   1      46.697  33.599  27.611  1.00  0.00     0.031 A 
ATOM     62  C   UNL A   1      47.203  32.883  29.858  1.00  0.00     0.131 A 
ATOM     63  C   UNL A   1      47.284  34.840  27.906  1.00  0.00     0.055 A 
ATOM     64  C   UNL A   1      47.734  34.136  30.162  1.00  0.00     0.041 A 
ATOM     65  F   UNL A   1      47.206  31.954  30.827  1.00  0.00    -0.206 F 
ATOM     66  C   UNL A   1      47.786  35.120  29.180  1.00  0.00     0.022 A 
BRANCH  63  67
ATOM     67  S   UNL A   1      47.451  36.066  26.578  1.00  0.00     0.124 S 
ATOM     68  O   UNL A   1      48.208  35.324  25.574  1.00  0.00    -0.237 OA
ATOM     69  O   UNL A   1      46.062  36.357  26.244  1.00  0.00    -0.237 OA
ATOM     70  O   UNL A   1      48.177  37.163  27.215  1.00  0.00    -0.744 OA
ENDBRANCH  63  67
ENDBRANCH  37  60
ENDBRANCH  11  12
ENDBRANCH   4   6
ENDBRANCH   1   2
BRANCH   1  71
ATOM     71  C   UNL A   1      38.203  20.043  24.987  1.00  0.00     0.042 C 
BRANCH  71  72
ATOM     72  C   UNL A   1      37.056  21.052  24.943  1.00  0.00     0.118 C 
BRANCH  72  73
ATOM     73  N   UNL A   1      35.776  20.390  25.063  1.00  0.00    -0.351 N 
ATOM     74  C   UNL A   1      34.465  20.761  24.886  1.00  0.00     0.281 C 
ATOM     75  H   UNL A   1      35.866  19.449  25.334  1.00  0.00     0.163 HD
ATOM     76  O   UNL A   1      33.706  19.810  25.145  1.00  0.00    -0.268 OA
BRANCH  74  77
ATOM     77  C   UNL A   1      33.987  22.229  24.331  1.00  0.00     0.177 C 
ATOM     78  C   UNL A   1      34.848  22.978  23.258  1.00  0.00     0.079 C 
ATOM     79  C   UNL A   1      32.841  22.167  23.281  1.00  0.00     0.079 C 
ATOM     80  C   UNL A   1      33.589  23.170  22.392  1.00  0.00     0.014 C 
BRANCH  77  81
ATOM     81  N   UNL A   1      33.651  23.182  25.453  1.00  0.00    -0.318 N 
ATOM     82  C   UNL A   1      34.268  22.897  26.764  1.00  0.00     0.291 C 
ATOM     83  C   UNL A   1      32.296  23.720  25.651  1.00  0.00     0.291 C 
ATOM     84  H   UNL A   1      34.123  23.953  24.981  1.00  0.00     0.349 HD
ATOM     85  C   UNL A   1      33.356  22.225  27.806  1.00  0.00     0.221 C 
ATOM     86  C   UNL A   1      31.440  22.963  26.677  1.00  0.00     0.221 C 
ATOM     87  O   UNL A   1      32.099  22.889  27.943  1.00  0.00    -0.370 OA
ENDBRANCH  77  81
ENDBRANCH  74  77
ENDBRANCH  72  73
ENDBRANCH  71  72
ENDBRANCH   1  71
TORSDOF 14
ENDMDL
