MODEL 1
REMARK VINA RESULT:     -11.8      0.000      0.000
REMARK SMILES O=C(NCCCNC(=O)[C@H]1SC=C[C@@H]1S(=O)(=O)NCCC1=c2ccccc2=NC1)c1ccc(-c2c3nc(c(-c4cc(S(=O)(=O)[O-])ccc4F)c4ccc([nH]4)c(-c4cc(S(=O)(=O)[O-])ccc4F)c4nc(c(-c5cc(S(=O)(=O)[O-])ccc5F)c5ccc2[nH]5)C=C4)C=C3)cc1
REMARK SMILES IDX 6 1 5 2 4 3 3 4 1 5 2 6 30 8 31 9 92 10 32 11 91 12 33 13
REMARK SMILES IDX 34 14 35 15 85 16 36 17 90 18 84 19 86 20 37 21 89 22 83 23
REMARK SMILES IDX 82 24 38 26 70 27 50 28 69 29 51 30 54 31 68 32 87 33 52 34
REMARK SMILES IDX 53 35 67 37 88 38 55 39 39 40 40 41 48 42 41 43 47 44 49 45
REMARK SMILES IDX 46 46 42 47 43 48 44 49 45 50 71 51 72 52 80 53 73 54 79 55
REMARK SMILES IDX 81 56 78 57 74 58 75 59 76 60 77 61 56 62 57 63 65 64 58 65
REMARK SMILES IDX 64 66 66 67 63 68 59 69 60 70 61 71 62 72 7 73 8 74 9 76
REMARK SMILES IDX 10 77 11 78 14 79 12 80 13 81 15 82 16 83 17 84 18 85 19 87
REMARK SMILES IDX 20 88 21 89 22 90 29 91 23 92 27 93 28 94 24 95 26 96 25 97
REMARK H PARENT 3 7 86 25 54 36 7 75 18 86
REMARK Flexibility Score: inf
ROOT
ATOM      1  C   UNL A   1      32.373  26.997  26.733  1.00  0.00     0.117 C 
ENDROOT
BRANCH   1   2
ATOM      2  C   UNL A   1      31.754  28.274  26.164  1.00  0.00     0.042 C 
BRANCH   2   3
ATOM      3  C   UNL A   1      32.758  29.312  25.665  1.00  0.00     0.118 C 
BRANCH   3   4
ATOM      4  N   UNL A   1      32.388  30.672  26.023  1.00  0.00    -0.352 N 
ATOM      5  O   UNL A   1      32.334  32.561  27.230  1.00  0.00    -0.269 OA
ATOM      6  C   UNL A   1      32.924  31.517  26.964  1.00  0.00     0.251 C 
ATOM      7  H   UNL A   1      31.636  31.046  25.511  1.00  0.00     0.163 HD
BRANCH   6   8
ATOM      8  C   UNL A   1      34.194  31.193  27.653  1.00  0.00     0.039 A 
ATOM      9  C   UNL A   1      34.386  29.890  28.127  1.00  0.00     0.014 A 
ATOM     10  C   UNL A   1      35.157  32.174  27.911  1.00  0.00     0.014 A 
ATOM     11  C   UNL A   1      35.544  29.568  28.840  1.00  0.00     0.010 A 
ATOM     12  C   UNL A   1      36.342  31.834  28.560  1.00  0.00     0.010 A 
ATOM     13  C   UNL A   1      36.536  30.536  29.056  1.00  0.00    -0.014 A 
BRANCH  13  14
ATOM     14  C   UNL A   1      37.766  30.226  29.831  1.00  0.00     0.031 A 
ATOM     15  C   UNL A   1      38.785  29.270  29.276  1.00  0.00     0.074 A 
ATOM     16  C   UNL A   1      37.940  30.753  31.057  1.00  0.00     0.049 A 
ATOM     17  N   UNL A   1      39.877  28.812  29.832  1.00  0.00    -0.248 NA
ATOM     18  C   UNL A   1      38.533  28.738  27.927  1.00  0.00     0.031 C 
ATOM     19  C   UNL A   1      37.010  31.674  31.708  1.00  0.00     0.029 A 
ATOM     20  N   UNL A   1      38.944  30.581  31.979  1.00  0.00    -0.354 N 
ATOM     21  C   UNL A   1      40.425  27.921  28.917  1.00  0.00     0.074 A 
ATOM     22  C   UNL A   1      39.521  27.867  27.790  1.00  0.00     0.031 C 
ATOM     23  C   UNL A   1      37.494  31.999  32.916  1.00  0.00     0.029 A 
ATOM     24  C   UNL A   1      38.737  31.266  33.154  1.00  0.00     0.049 A 
ATOM     25  H   UNL A   1      39.737  30.019  31.814  1.00  0.00     0.167 HD
ATOM     26  C   UNL A   1      41.585  27.229  29.004  1.00  0.00     0.034 A 
ATOM     27  C   UNL A   1      39.450  31.290  34.300  1.00  0.00     0.034 A 
ATOM     28  C   UNL A   1      42.489  27.326  30.122  1.00  0.00     0.049 A 
ATOM     29  C   UNL A   1      40.730  30.502  34.388  1.00  0.00     0.074 A 
ATOM     30  C   UNL A   1      43.736  26.743  30.258  1.00  0.00     0.029 A 
ATOM     31  N   UNL A   1      42.249  28.033  31.292  1.00  0.00    -0.354 N 
ATOM     32  N   UNL A   1      41.291  29.745  33.474  1.00  0.00    -0.248 NA
ATOM     33  C   UNL A   1      41.479  30.566  35.651  1.00  0.00     0.031 C 
ATOM     34  C   UNL A   1      44.203  27.012  31.543  1.00  0.00     0.029 A 
ATOM     35  C   UNL A   1      43.298  27.848  32.179  1.00  0.00     0.049 A 
ATOM     36  H   UNL A   1      41.451  28.582  31.467  1.00  0.00     0.167 HD
ATOM     37  C   UNL A   1      42.464  29.255  34.043  1.00  0.00     0.074 A 
ATOM     38  C   UNL A   1      42.544  29.821  35.374  1.00  0.00     0.031 C 
ATOM     39  C   UNL A   1      43.383  28.412  33.507  1.00  0.00     0.034 A 
BRANCH  26  40
ATOM     40  C   UNL A   1      41.968  26.301  27.875  1.00  0.00     0.023 A 
ATOM     41  C   UNL A   1      41.570  24.951  27.920  1.00  0.00     0.031 A 
ATOM     42  C   UNL A   1      42.823  26.704  26.834  1.00  0.00     0.131 A 
ATOM     43  C   UNL A   1      42.052  24.048  26.965  1.00  0.00     0.055 A 
ATOM     44  C   UNL A   1      43.258  25.811  25.853  1.00  0.00     0.041 A 
ATOM     45  F   UNL A   1      43.244  27.977  26.749  1.00  0.00    -0.206 F 
ATOM     46  C   UNL A   1      42.885  24.473  25.925  1.00  0.00     0.022 A 
BRANCH  43  47
ATOM     47  S   UNL A   1      41.692  22.275  27.087  1.00  0.00     0.124 S 
ATOM     48  O   UNL A   1      41.686  21.874  25.682  1.00  0.00    -0.237 OA
ATOM     49  O   UNL A   1      42.824  21.786  27.870  1.00  0.00    -0.237 OA
ATOM     50  O   UNL A   1      40.395  22.224  27.753  1.00  0.00    -0.744 OA
ENDBRANCH  43  47
ENDBRANCH  26  40
BRANCH  27  51
ATOM     51  C   UNL A   1      38.958  32.147  35.418  1.00  0.00     0.023 A 
ATOM     52  C   UNL A   1      39.385  33.483  35.538  1.00  0.00     0.031 A 
ATOM     53  C   UNL A   1      38.210  31.594  36.469  1.00  0.00     0.131 A 
ATOM     54  C   UNL A   1      39.160  34.180  36.731  1.00  0.00     0.055 A 
ATOM     55  C   UNL A   1      37.915  32.323  37.624  1.00  0.00     0.041 A 
ATOM     56  F   UNL A   1      37.786  30.323  36.402  1.00  0.00    -0.206 F 
ATOM     57  C   UNL A   1      38.413  33.614  37.769  1.00  0.00     0.022 A 
BRANCH  54  58
ATOM     58  S   UNL A   1      39.977  35.771  37.040  1.00  0.00     0.124 S 
ATOM     59  O   UNL A   1      39.666  36.518  35.824  1.00  0.00    -0.237 OA
ATOM     60  O   UNL A   1      39.293  36.222  38.250  1.00  0.00    -0.237 OA
ATOM     61  O   UNL A   1      41.380  35.411  37.217  1.00  0.00    -0.744 OA
ENDBRANCH  54  58
ENDBRANCH  27  51
BRANCH  39  62
ATOM     62  C   UNL A   1      44.576  28.000  34.338  1.00  0.00     0.023 A 
ATOM     63  C   UNL A   1      44.489  26.875  35.183  1.00  0.00     0.031 A 
ATOM     64  C   UNL A   1      45.708  28.826  34.450  1.00  0.00     0.131 A 
ATOM     65  C   UNL A   1      45.475  26.650  36.151  1.00  0.00     0.055 A 
ATOM     66  C   UNL A   1      46.718  28.564  35.377  1.00  0.00     0.041 A 
ATOM     67  F   UNL A   1      45.835  29.915  33.676  1.00  0.00    -0.206 F 
ATOM     68  C   UNL A   1      46.594  27.484  36.247  1.00  0.00     0.022 A 
BRANCH  65  69
ATOM     69  S   UNL A   1      45.286  25.341  37.394  1.00  0.00     0.124 S 
ATOM     70  O   UNL A   1      46.204  25.783  38.442  1.00  0.00    -0.237 OA
ATOM     71  O   UNL A   1      43.868  25.437  37.727  1.00  0.00    -0.237 OA
ATOM     72  O   UNL A   1      45.687  24.128  36.691  1.00  0.00    -0.744 OA
ENDBRANCH  65  69
ENDBRANCH  39  62
ENDBRANCH  13  14
ENDBRANCH   6   8
ENDBRANCH   3   4
ENDBRANCH   2   3
ENDBRANCH   1   2
BRANCH   1  73
ATOM     73  N   UNL A   1      31.443  25.879  26.704  1.00  0.00    -0.355 N 
ATOM     74  C   UNL A   1      31.609  24.572  26.358  1.00  0.00     0.235 C 
ATOM     75  H   UNL A   1      30.527  26.107  26.987  1.00  0.00     0.163 HD
ATOM     76  O   UNL A   1      30.592  23.875  26.299  1.00  0.00    -0.274 OA
BRANCH  74  77
ATOM     77  C   UNL A   1      32.986  24.014  26.038  1.00  0.00     0.163 C 
ATOM     78  S   UNL A   1      33.409  22.694  27.258  1.00  0.00    -0.119 SA
ATOM     79  C   UNL A   1      32.952  23.338  24.660  1.00  0.00     0.170 C 
ATOM     80  C   UNL A   1      33.343  21.435  26.077  1.00  0.00     0.038 C 
ATOM     81  C   UNL A   1      33.130  21.856  24.827  1.00  0.00     0.002 C 
BRANCH  79  82
ATOM     82  S   UNL A   1      34.286  24.052  23.694  1.00  0.00     0.219 S 
ATOM     83  O   UNL A   1      35.156  24.718  24.640  1.00  0.00    -0.212 OA
ATOM     84  O   UNL A   1      34.814  23.054  22.792  1.00  0.00    -0.212 OA
BRANCH  82  85
ATOM     85  N   UNL A   1      33.573  25.201  22.709  1.00  0.00    -0.214 NA
ATOM     86  H   UNL A   1      32.804  24.731  22.231  1.00  0.00     0.141 HD
BRANCH  85  87
ATOM     87  C   UNL A   1      33.019  26.453  23.257  1.00  0.00     0.103 C 
BRANCH  87  88
ATOM     88  C   UNL A   1      32.144  27.242  22.269  1.00  0.00     0.050 C 
BRANCH  88  89
ATOM     89  C   UNL A   1      30.717  27.419  22.688  1.00  0.00    -0.038 C 
ATOM     90  C   UNL A   1      29.917  28.474  22.543  1.00  0.00     0.001 A 
ATOM     91  C   UNL A   1      30.016  26.338  23.456  1.00  0.00     0.174 C 
ATOM     92  C   UNL A   1      30.026  29.772  21.958  1.00  0.00     0.010 A 
ATOM     93  C   UNL A   1      28.662  28.023  23.168  1.00  0.00     0.065 A 
ATOM     94  N   UNL A   1      28.636  26.829  23.677  1.00  0.00    -0.280 NA
ATOM     95  C   UNL A   1      28.948  30.570  21.928  1.00  0.00     0.001 A 
ATOM     96  C   UNL A   1      27.525  28.970  23.127  1.00  0.00     0.028 A 
ATOM     97  C   UNL A   1      27.687  30.158  22.518  1.00  0.00     0.002 A 
ENDBRANCH  88  89
ENDBRANCH  87  88
ENDBRANCH  85  87
ENDBRANCH  82  85
ENDBRANCH  79  82
ENDBRANCH  74  77
ENDBRANCH   1  73
TORSDOF 18
ENDMDL
MODEL 2
REMARK VINA RESULT:     -11.8      2.395      4.295
REMARK SMILES O=C(NCCCNC(=O)[C@H]1SC=C[C@@H]1S(=O)(=O)NCCC1=c2ccccc2=NC1)c1ccc(-c2c3nc(c(-c4cc(S(=O)(=O)[O-])ccc4F)c4ccc([nH]4)c(-c4cc(S(=O)(=O)[O-])ccc4F)c4nc(c(-c5cc(S(=O)(=O)[O-])ccc5F)c5ccc2[nH]5)C=C4)C=C3)cc1
REMARK SMILES IDX 6 1 5 2 4 3 3 4 1 5 2 6 30 8 31 9 92 10 32 11 91 12 33 13
REMARK SMILES IDX 34 14 35 15 85 16 36 17 90 18 84 19 86 20 37 21 89 22 83 23
REMARK SMILES IDX 82 24 38 26 70 27 50 28 69 29 51 30 54 31 68 32 87 33 52 34
REMARK SMILES IDX 53 35 67 37 88 38 55 39 39 40 40 41 48 42 41 43 47 44 49 45
REMARK SMILES IDX 46 46 42 47 43 48 44 49 45 50 71 51 72 52 80 53 73 54 79 55
REMARK SMILES IDX 81 56 78 57 74 58 75 59 76 60 77 61 56 62 57 63 65 64 58 65
REMARK SMILES IDX 64 66 66 67 63 68 59 69 60 70 61 71 62 72 7 73 8 74 9 76
REMARK SMILES IDX 10 77 11 78 14 79 12 80 13 81 15 82 16 83 17 84 18 85 19 87
REMARK SMILES IDX 20 88 21 89 22 90 29 91 23 92 27 93 28 94 24 95 26 96 25 97
REMARK H PARENT 3 7 86 25 54 36 7 75 18 86
REMARK Flexibility Score: inf
ROOT
ATOM      1  C   UNL A   1      31.739  30.329  25.811  1.00  0.00     0.117 C 
ENDROOT
BRANCH   1   2
ATOM      2  C   UNL A   1      31.515  31.682  26.488  1.00  0.00     0.042 C 
BRANCH   2   3
ATOM      3  C   UNL A   1      32.716  32.222  27.263  1.00  0.00     0.118 C 
BRANCH   3   4
ATOM      4  N   UNL A   1      32.588  33.635  27.586  1.00  0.00    -0.352 N 
ATOM      5  O   UNL A   1      32.840  35.529  28.760  1.00  0.00    -0.269 OA
ATOM      6  C   UNL A   1      33.238  34.389  28.532  1.00  0.00     0.251 C 
ATOM      7  H   UNL A   1      31.933  34.127  27.043  1.00  0.00     0.163 HD
BRANCH   6   8
ATOM      8  C   UNL A   1      34.406  33.856  29.270  1.00  0.00     0.039 A 
ATOM      9  C   UNL A   1      35.689  34.248  28.868  1.00  0.00     0.014 A 
ATOM     10  C   UNL A   1      34.257  32.917  30.295  1.00  0.00     0.014 A 
ATOM     11  C   UNL A   1      36.814  33.713  29.501  1.00  0.00     0.010 A 
ATOM     12  C   UNL A   1      35.378  32.438  30.972  1.00  0.00     0.010 A 
ATOM     13  C   UNL A   1      36.668  32.809  30.564  1.00  0.00    -0.014 A 
BRANCH  13  14
ATOM     14  C   UNL A   1      37.849  32.208  31.237  1.00  0.00     0.031 A 
ATOM     15  C   UNL A   1      38.577  31.058  30.598  1.00  0.00     0.074 A 
ATOM     16  C   UNL A   1      38.231  32.652  32.449  1.00  0.00     0.049 A 
ATOM     17  N   UNL A   1      39.574  30.351  31.062  1.00  0.00    -0.248 NA
ATOM     18  C   UNL A   1      38.108  30.631  29.270  1.00  0.00     0.031 C 
ATOM     19  C   UNL A   1      37.590  33.744  33.177  1.00  0.00     0.029 A 
ATOM     20  N   UNL A   1      39.237  32.233  33.287  1.00  0.00    -0.354 N 
ATOM     21  C   UNL A   1      39.832  29.380  30.101  1.00  0.00     0.074 A 
ATOM     22  C   UNL A   1      38.856  29.560  29.050  1.00  0.00     0.031 C 
ATOM     23  C   UNL A   1      38.226  33.921  34.345  1.00  0.00     0.029 A 
ATOM     24  C   UNL A   1      39.282  32.919  34.478  1.00  0.00     0.049 A 
ATOM     25  H   UNL A   1      39.865  31.510  33.056  1.00  0.00     0.167 HD
ATOM     26  C   UNL A   1      40.805  28.440  30.091  1.00  0.00     0.034 A 
ATOM     27  C   UNL A   1      40.067  32.752  35.565  1.00  0.00     0.034 A 
ATOM     28  C   UNL A   1      41.790  28.301  31.134  1.00  0.00     0.049 A 
ATOM     29  C   UNL A   1      41.135  31.691  35.546  1.00  0.00     0.074 A 
ATOM     30  C   UNL A   1      42.876  27.446  31.168  1.00  0.00     0.029 A 
ATOM     31  N   UNL A   1      41.808  29.016  32.324  1.00  0.00    -0.354 N 
ATOM     32  N   UNL A   1      41.436  30.849  34.586  1.00  0.00    -0.248 NA
ATOM     33  C   UNL A   1      41.973  31.553  36.746  1.00  0.00     0.031 C 
ATOM     34  C   UNL A   1      43.489  27.571  32.413  1.00  0.00     0.029 A 
ATOM     35  C   UNL A   1      42.851  28.576  33.124  1.00  0.00     0.049 A 
ATOM     36  H   UNL A   1      41.173  29.729  32.565  1.00  0.00     0.167 HD
ATOM     37  C   UNL A   1      42.506  30.091  35.057  1.00  0.00     0.074 A 
ATOM     38  C   UNL A   1      42.814  30.592  36.381  1.00  0.00     0.031 C 
ATOM     39  C   UNL A   1      43.164  29.074  34.444  1.00  0.00     0.034 A 
BRANCH  26  40
ATOM     40  C   UNL A   1      40.878  27.477  28.930  1.00  0.00     0.023 A 
ATOM     41  C   UNL A   1      41.846  27.672  27.925  1.00  0.00     0.031 A 
ATOM     42  C   UNL A   1      39.927  26.458  28.743  1.00  0.00     0.131 A 
ATOM     43  C   UNL A   1      41.819  26.885  26.767  1.00  0.00     0.055 A 
ATOM     44  C   UNL A   1      39.939  25.641  27.612  1.00  0.00     0.041 A 
ATOM     45  F   UNL A   1      38.975  26.235  29.664  1.00  0.00    -0.206 F 
ATOM     46  C   UNL A   1      40.879  25.863  26.611  1.00  0.00     0.022 A 
BRANCH  43  47
ATOM     47  S   UNL A   1      42.946  27.215  25.385  1.00  0.00     0.124 S 
ATOM     48  O   UNL A   1      42.967  25.924  24.702  1.00  0.00    -0.237 OA
ATOM     49  O   UNL A   1      42.250  28.285  24.674  1.00  0.00    -0.237 OA
ATOM     50  O   UNL A   1      44.196  27.597  26.032  1.00  0.00    -0.744 OA
ENDBRANCH  43  47
ENDBRANCH  26  40
BRANCH  27  51
ATOM     51  C   UNL A   1      39.870  33.672  36.723  1.00  0.00     0.023 A 
ATOM     52  C   UNL A   1      40.693  34.803  36.887  1.00  0.00     0.031 A 
ATOM     53  C   UNL A   1      38.992  33.335  37.765  1.00  0.00     0.131 A 
ATOM     54  C   UNL A   1      40.701  35.484  38.110  1.00  0.00     0.055 A 
ATOM     55  C   UNL A   1      38.943  34.071  38.951  1.00  0.00     0.041 A 
ATOM     56  F   UNL A   1      38.193  32.263  37.656  1.00  0.00    -0.206 F 
ATOM     57  C   UNL A   1      39.819  35.136  39.138  1.00  0.00     0.022 A 
BRANCH  54  58
ATOM     58  S   UNL A   1      41.974  36.728  38.467  1.00  0.00     0.124 S 
ATOM     59  O   UNL A   1      43.030  35.922  39.073  1.00  0.00    -0.237 OA
ATOM     60  O   UNL A   1      42.262  37.245  37.131  1.00  0.00    -0.237 OA
ATOM     61  O   UNL A   1      41.301  37.663  39.363  1.00  0.00    -0.744 OA
ENDBRANCH  54  58
ENDBRANCH  27  51
BRANCH  39  62
ATOM     62  C   UNL A   1      44.290  28.380  35.175  1.00  0.00     0.023 A 
ATOM     63  C   UNL A   1      44.004  27.337  36.079  1.00  0.00     0.031 A 
ATOM     64  C   UNL A   1      45.603  28.882  35.137  1.00  0.00     0.131 A 
ATOM     65  C   UNL A   1      44.995  26.882  36.957  1.00  0.00     0.055 A 
ATOM     66  C   UNL A   1      46.602  28.384  35.973  1.00  0.00     0.041 A 
ATOM     67  F   UNL A   1      45.925  29.882  34.301  1.00  0.00    -0.206 F 
ATOM     68  C   UNL A   1      46.296  27.394  36.904  1.00  0.00     0.022 A 
BRANCH  65  69
ATOM     69  S   UNL A   1      44.606  25.696  38.275  1.00  0.00     0.124 S 
ATOM     70  O   UNL A   1      43.779  26.502  39.173  1.00  0.00    -0.237 OA
ATOM     71  O   UNL A   1      43.896  24.650  37.546  1.00  0.00    -0.237 OA
ATOM     72  O   UNL A   1      45.911  25.320  38.807  1.00  0.00    -0.744 OA
ENDBRANCH  65  69
ENDBRANCH  39  62
ENDBRANCH  13  14
ENDBRANCH   6   8
ENDBRANCH   3   4
ENDBRANCH   2   3
ENDBRANCH   1   2
BRANCH   1  73
ATOM     73  N   UNL A   1      30.924  30.174  24.616  1.00  0.00    -0.355 N 
ATOM     74  C   UNL A   1      30.857  29.178  23.689  1.00  0.00     0.235 C 
ATOM     75  H   UNL A   1      30.310  30.925  24.445  1.00  0.00     0.163 HD
ATOM     76  O   UNL A   1      30.161  29.388  22.692  1.00  0.00    -0.274 OA
BRANCH  74  77
ATOM     77  C   UNL A   1      31.627  27.881  23.874  1.00  0.00     0.163 C 
ATOM     78  S   UNL A   1      30.736  26.807  25.082  1.00  0.00    -0.119 SA
ATOM     79  C   UNL A   1      31.653  27.113  22.545  1.00  0.00     0.170 C 
ATOM     80  C   UNL A   1      30.321  25.629  23.888  1.00  0.00     0.038 C 
ATOM     81  C   UNL A   1      30.835  25.860  22.677  1.00  0.00     0.002 C 
BRANCH  79  82
ATOM     82  S   UNL A   1      33.372  26.737  22.191  1.00  0.00     0.219 S 
ATOM     83  O   UNL A   1      33.360  25.592  21.305  1.00  0.00    -0.212 OA
ATOM     84  O   UNL A   1      34.062  27.949  21.811  1.00  0.00    -0.212 OA
BRANCH  82  85
ATOM     85  N   UNL A   1      34.052  26.285  23.651  1.00  0.00    -0.214 NA
ATOM     86  H   UNL A   1      33.629  26.883  24.361  1.00  0.00     0.141 HD
BRANCH  85  87
ATOM     87  C   UNL A   1      33.950  24.904  24.158  1.00  0.00     0.103 C 
BRANCH  87  88
ATOM     88  C   UNL A   1      35.296  24.272  24.548  1.00  0.00     0.050 C 
BRANCH  88  89
ATOM     89  C   UNL A   1      35.269  22.786  24.732  1.00  0.00    -0.038 C 
ATOM     90  C   UNL A   1      34.304  21.915  24.442  1.00  0.00     0.001 A 
ATOM     91  C   UNL A   1      36.415  22.087  25.401  1.00  0.00     0.174 C 
ATOM     92  C   UNL A   1      33.003  21.982  23.857  1.00  0.00     0.010 A 
ATOM     93  C   UNL A   1      34.882  20.629  24.870  1.00  0.00     0.065 A 
ATOM     94  N   UNL A   1      36.070  20.646  25.392  1.00  0.00    -0.280 NA
ATOM     95  C   UNL A   1      32.323  20.845  23.642  1.00  0.00     0.001 A 
ATOM     96  C   UNL A   1      34.059  19.422  24.632  1.00  0.00     0.028 A 
ATOM     97  C   UNL A   1      32.863  19.556  24.033  1.00  0.00     0.002 A 
ENDBRANCH  88  89
ENDBRANCH  87  88
ENDBRANCH  85  87
ENDBRANCH  82  85
ENDBRANCH  79  82
ENDBRANCH  74  77
ENDBRANCH   1  73
TORSDOF 18
ENDMDL
MODEL 3
REMARK VINA RESULT:     -11.7      1.296      1.528
REMARK SMILES O=C(NCCCNC(=O)[C@H]1SC=C[C@@H]1S(=O)(=O)NCCC1=c2ccccc2=NC1)c1ccc(-c2c3nc(c(-c4cc(S(=O)(=O)[O-])ccc4F)c4ccc([nH]4)c(-c4cc(S(=O)(=O)[O-])ccc4F)c4nc(c(-c5cc(S(=O)(=O)[O-])ccc5F)c5ccc2[nH]5)C=C4)C=C3)cc1
REMARK SMILES IDX 6 1 5 2 4 3 3 4 1 5 2 6 30 8 31 9 92 10 32 11 91 12 33 13
REMARK SMILES IDX 34 14 35 15 85 16 36 17 90 18 84 19 86 20 37 21 89 22 83 23
REMARK SMILES IDX 82 24 38 26 70 27 50 28 69 29 51 30 54 31 68 32 87 33 52 34
REMARK SMILES IDX 53 35 67 37 88 38 55 39 39 40 40 41 48 42 41 43 47 44 49 45
REMARK SMILES IDX 46 46 42 47 43 48 44 49 45 50 71 51 72 52 80 53 73 54 79 55
REMARK SMILES IDX 81 56 78 57 74 58 75 59 76 60 77 61 56 62 57 63 65 64 58 65
REMARK SMILES IDX 64 66 66 67 63 68 59 69 60 70 61 71 62 72 7 73 8 74 9 76
REMARK SMILES IDX 10 77 11 78 14 79 12 80 13 81 15 82 16 83 17 84 18 85 19 87
REMARK SMILES IDX 20 88 21 89 22 90 29 91 23 92 27 93 28 94 24 95 26 96 25 97
REMARK H PARENT 3 7 86 25 54 36 7 75 18 86
REMARK Flexibility Score: inf
ROOT
ATOM      1  C   UNL A   1      32.446  27.002  26.780  1.00  0.00     0.117 C 
ENDROOT
BRANCH   1   2
ATOM      2  C   UNL A   1      31.835  28.319  26.303  1.00  0.00     0.042 C 
BRANCH   2   3
ATOM      3  C   UNL A   1      32.837  29.337  25.761  1.00  0.00     0.118 C 
BRANCH   3   4
ATOM      4  N   UNL A   1      32.514  30.704  26.141  1.00  0.00    -0.352 N 
ATOM      5  O   UNL A   1      32.554  32.587  27.358  1.00  0.00    -0.269 OA
ATOM      6  C   UNL A   1      33.108  31.530  27.062  1.00  0.00     0.251 C 
ATOM      7  H   UNL A   1      31.750  31.098  25.664  1.00  0.00     0.163 HD
BRANCH   6   8
ATOM      8  C   UNL A   1      34.399  31.174  27.696  1.00  0.00     0.039 A 
ATOM      9  C   UNL A   1      34.541  29.898  28.253  1.00  0.00     0.014 A 
ATOM     10  C   UNL A   1      35.434  32.105  27.821  1.00  0.00     0.014 A 
ATOM     11  C   UNL A   1      35.721  29.552  28.917  1.00  0.00     0.010 A 
ATOM     12  C   UNL A   1      36.637  31.736  28.421  1.00  0.00     0.010 A 
ATOM     13  C   UNL A   1      36.783  30.466  28.999  1.00  0.00    -0.014 A 
BRANCH  13  14
ATOM     14  C   UNL A   1      38.039  30.131  29.720  1.00  0.00     0.031 A 
ATOM     15  C   UNL A   1      38.999  29.130  29.137  1.00  0.00     0.074 A 
ATOM     16  C   UNL A   1      38.291  30.678  30.924  1.00  0.00     0.049 A 
ATOM     17  N   UNL A   1      40.102  28.649  29.648  1.00  0.00    -0.248 NA
ATOM     18  C   UNL A   1      38.662  28.580  27.815  1.00  0.00     0.031 C 
ATOM     19  C   UNL A   1      37.426  31.642  31.599  1.00  0.00     0.029 A 
ATOM     20  N   UNL A   1      39.334  30.492  31.799  1.00  0.00    -0.354 N 
ATOM     21  C   UNL A   1      40.575  27.721  28.727  1.00  0.00     0.074 A 
ATOM     22  C   UNL A   1      39.613  27.673  27.649  1.00  0.00     0.031 C 
ATOM     23  C   UNL A   1      37.979  31.976  32.774  1.00  0.00     0.029 A 
ATOM     24  C   UNL A   1      39.209  31.208  32.966  1.00  0.00     0.049 A 
ATOM     25  H   UNL A   1      40.099  29.901  31.608  1.00  0.00     0.167 HD
ATOM     26  C   UNL A   1      41.714  26.993  28.773  1.00  0.00     0.034 A 
ATOM     27  C   UNL A   1      39.978  31.232  34.075  1.00  0.00     0.034 A 
ATOM     28  C   UNL A   1      42.676  27.083  29.842  1.00  0.00     0.049 A 
ATOM     29  C   UNL A   1      41.235  30.404  34.117  1.00  0.00     0.074 A 
ATOM     30  C   UNL A   1      43.909  26.462  29.930  1.00  0.00     0.029 A 
ATOM     31  N   UNL A   1      42.517  27.822  31.006  1.00  0.00    -0.354 N 
ATOM     32  N   UNL A   1      41.725  29.610  33.194  1.00  0.00    -0.248 NA
ATOM     33  C   UNL A   1      42.048  30.470  35.340  1.00  0.00     0.031 C 
ATOM     34  C   UNL A   1      44.448  26.743  31.184  1.00  0.00     0.029 A 
ATOM     35  C   UNL A   1      43.603  27.621  31.844  1.00  0.00     0.049 A 
ATOM     36  H   UNL A   1      41.748  28.401  31.208  1.00  0.00     0.167 HD
ATOM     37  C   UNL A   1      42.909  29.094  33.716  1.00  0.00     0.074 A 
ATOM     38  C   UNL A   1      43.074  29.684  35.028  1.00  0.00     0.031 C 
ATOM     39  C   UNL A   1      43.773  28.210  33.154  1.00  0.00     0.034 A 
BRANCH  26  40
ATOM     40  C   UNL A   1      42.010  26.030  27.647  1.00  0.00     0.023 A 
ATOM     41  C   UNL A   1      41.581  24.692  27.747  1.00  0.00     0.031 A 
ATOM     42  C   UNL A   1      42.817  26.385  26.552  1.00  0.00     0.131 A 
ATOM     43  C   UNL A   1      41.987  23.754  26.790  1.00  0.00     0.055 A 
ATOM     44  C   UNL A   1      43.173  25.458  25.571  1.00  0.00     0.041 A 
ATOM     45  F   UNL A   1      43.264  27.644  26.413  1.00  0.00    -0.206 F 
ATOM     46  C   UNL A   1      42.771  24.133  25.696  1.00  0.00     0.022 A 
BRANCH  43  47
ATOM     47  S   UNL A   1      41.588  21.995  26.974  1.00  0.00     0.124 S 
ATOM     48  O   UNL A   1      42.043  21.450  25.697  1.00  0.00    -0.237 OA
ATOM     49  O   UNL A   1      42.393  21.620  28.134  1.00  0.00    -0.237 OA
ATOM     50  O   UNL A   1      40.144  21.980  27.177  1.00  0.00    -0.744 OA
ENDBRANCH  43  47
ENDBRANCH  26  40
BRANCH  27  51
ATOM     51  C   UNL A   1      39.570  32.128  35.196  1.00  0.00     0.023 A 
ATOM     52  C   UNL A   1      38.979  31.597  36.359  1.00  0.00     0.031 A 
ATOM     53  C   UNL A   1      39.596  33.523  35.044  1.00  0.00     0.131 A 
ATOM     54  C   UNL A   1      38.338  32.451  37.264  1.00  0.00     0.055 A 
ATOM     55  C   UNL A   1      39.028  34.376  35.994  1.00  0.00     0.041 A 
ATOM     56  F   UNL A   1      40.143  34.075  33.950  1.00  0.00    -0.206 F 
ATOM     57  C   UNL A   1      38.373  33.839  37.098  1.00  0.00     0.022 A 
BRANCH  54  58
ATOM     58  S   UNL A   1      37.292  31.779  38.587  1.00  0.00     0.124 S 
ATOM     59  O   UNL A   1      37.016  30.428  38.105  1.00  0.00    -0.237 OA
ATOM     60  O   UNL A   1      38.185  31.867  39.740  1.00  0.00    -0.237 OA
ATOM     61  O   UNL A   1      36.148  32.684  38.616  1.00  0.00    -0.744 OA
ENDBRANCH  54  58
ENDBRANCH  27  51
BRANCH  39  62
ATOM     62  C   UNL A   1      44.992  27.776  33.934  1.00  0.00     0.023 A 
ATOM     63  C   UNL A   1      44.921  26.649  34.779  1.00  0.00     0.031 A 
ATOM     64  C   UNL A   1      46.140  28.584  34.002  1.00  0.00     0.131 A 
ATOM     65  C   UNL A   1      45.943  26.406  35.705  1.00  0.00     0.055 A 
ATOM     66  C   UNL A   1      47.183  28.302  34.886  1.00  0.00     0.041 A 
ATOM     67  F   UNL A   1      46.253  29.673  33.226  1.00  0.00    -0.206 F 
ATOM     68  C   UNL A   1      47.078  27.221  35.758  1.00  0.00     0.022 A 
BRANCH  65  69
ATOM     69  S   UNL A   1      45.784  25.095  36.951  1.00  0.00     0.124 S 
ATOM     70  O   UNL A   1      46.443  23.969  36.292  1.00  0.00    -0.237 OA
ATOM     71  O   UNL A   1      46.506  25.663  38.086  1.00  0.00    -0.237 OA
ATOM     72  O   UNL A   1      44.344  24.952  37.129  1.00  0.00    -0.744 OA
ENDBRANCH  65  69
ENDBRANCH  39  62
ENDBRANCH  13  14
ENDBRANCH   6   8
ENDBRANCH   3   4
ENDBRANCH   2   3
ENDBRANCH   1   2
BRANCH   1  73
ATOM     73  N   UNL A   1      31.492  25.904  26.724  1.00  0.00    -0.355 N 
ATOM     74  C   UNL A   1      31.636  24.598  26.367  1.00  0.00     0.235 C 
ATOM     75  H   UNL A   1      30.578  26.150  26.993  1.00  0.00     0.163 HD
ATOM     76  O   UNL A   1      30.605  23.924  26.283  1.00  0.00    -0.274 OA
BRANCH  74  77
ATOM     77  C   UNL A   1      33.005  24.012  26.064  1.00  0.00     0.163 C 
ATOM     78  S   UNL A   1      33.328  22.593  27.199  1.00  0.00    -0.119 SA
ATOM     79  C   UNL A   1      33.010  23.440  24.640  1.00  0.00     0.170 C 
ATOM     80  C   UNL A   1      33.271  21.426  25.926  1.00  0.00     0.038 C 
ATOM     81  C   UNL A   1      33.129  21.945  24.703  1.00  0.00     0.002 C 
BRANCH  79  82
ATOM     82  S   UNL A   1      34.409  24.172  23.786  1.00  0.00     0.219 S 
ATOM     83  O   UNL A   1      35.216  24.808  24.806  1.00  0.00    -0.212 OA
ATOM     84  O   UNL A   1      34.994  23.194  22.895  1.00  0.00    -0.212 OA
BRANCH  82  85
ATOM     85  N   UNL A   1      33.770  25.350  22.786  1.00  0.00    -0.214 NA
ATOM     86  H   UNL A   1      33.048  24.892  22.229  1.00  0.00     0.141 HD
BRANCH  85  87
ATOM     87  C   UNL A   1      33.161  26.578  23.328  1.00  0.00     0.103 C 
BRANCH  87  88
ATOM     88  C   UNL A   1      32.255  27.326  22.336  1.00  0.00     0.050 C 
BRANCH  88  89
ATOM     89  C   UNL A   1      30.817  27.428  22.743  1.00  0.00    -0.038 C 
ATOM     90  C   UNL A   1      29.964  28.439  22.588  1.00  0.00     0.001 A 
ATOM     91  C   UNL A   1      30.169  26.315  23.510  1.00  0.00     0.174 C 
ATOM     92  C   UNL A   1      30.009  29.739  22.000  1.00  0.00     0.010 A 
ATOM     93  C   UNL A   1      28.729  27.925  23.206  1.00  0.00     0.065 A 
ATOM     94  N   UNL A   1      28.763  26.734  23.719  1.00  0.00    -0.280 NA
ATOM     95  C   UNL A   1      28.890  30.479  21.959  1.00  0.00     0.001 A 
ATOM     96  C   UNL A   1      27.545  28.811  23.153  1.00  0.00     0.028 A 
ATOM     97  C   UNL A   1      27.649  30.003  22.541  1.00  0.00     0.002 A 
ENDBRANCH  88  89
ENDBRANCH  87  88
ENDBRANCH  85  87
ENDBRANCH  82  85
ENDBRANCH  79  82
ENDBRANCH  74  77
ENDBRANCH   1  73
TORSDOF 18
ENDMDL
