MODEL 1
REMARK VINA RESULT:     -14.2      0.000      0.000
REMARK SMILES CC(=O)Nc1cnc(N2CC=C(c3ccccc3C)CC2)c(C(=O)NCCCNC(=O)c2ccc(-c3c4nc(c(-c5cc(S(=O)(=O)[O-])ccc5F)c5ccc([nH]5)c(-c5cc(S(=O)(=O)[O-])ccc5F)c5nc(c(-c6cc(S(=O)(=O)[O-])ccc6F)c6ccc3[nH]6)C=C5)C=C4)cc2)c1
REMARK SMILES IDX 27 1 26 2 25 3 23 4 24 5 22 7 5 8 6 9 95 10 7 11 8 12 4 13
REMARK SMILES IDX 1 14 2 15 3 16 9 18 10 19 21 20 11 21 20 22 12 23 13 24
REMARK SMILES IDX 14 25 18 26 15 27 17 28 19 29 16 30 28 31 29 32 30 33 31 35
REMARK SMILES IDX 32 36 33 37 94 38 34 39 93 40 35 41 36 42 37 43 87 44 38 45
REMARK SMILES IDX 92 46 86 47 88 48 39 49 91 50 85 51 84 52 40 54 72 55 52 56
REMARK SMILES IDX 71 57 53 58 56 59 70 60 89 61 54 62 55 63 69 65 90 66 57 67
REMARK SMILES IDX 41 68 42 69 50 70 43 71 49 72 51 73 48 74 44 75 45 76 46 77
REMARK SMILES IDX 47 78 73 79 74 80 82 81 75 82 81 83 83 84 80 85 76 86 77 87
REMARK SMILES IDX 78 88 79 89 58 90 59 91 67 92 60 93 66 94 68 95 65 96 61 97
REMARK SMILES IDX 62 98 63 99 64 100
REMARK H PARENT 25 6 4 17 29 34 88 53 56 64
REMARK Flexibility Score: inf
ROOT
ATOM      1  C   UNL A   1      33.834  30.017  26.442  1.00  0.00     0.042 C 
ENDROOT
BRANCH   1   2
ATOM      2  C   UNL A   1      33.936  28.590  25.893  1.00  0.00     0.118 C 
BRANCH   2   3
ATOM      3  N   UNL A   1      32.784  27.779  26.274  1.00  0.00    -0.352 N 
ATOM      4  C   UNL A   1      31.557  27.464  25.731  1.00  0.00     0.255 C 
ATOM      5  O   UNL A   1      30.922  26.648  26.399  1.00  0.00    -0.269 OA
ATOM      6  H   UNL A   1      32.918  27.343  27.146  1.00  0.00     0.163 HD
BRANCH   4   7
ATOM      7  C   UNL A   1      30.981  28.029  24.454  1.00  0.00     0.084 A 
ATOM      8  C   UNL A   1      30.087  29.943  23.202  1.00  0.00     0.060 A 
ATOM      9  C   UNL A   1      29.957  29.100  22.119  1.00  0.00     0.139 A 
ATOM     10  C   UNL A   1      30.575  29.375  24.373  1.00  0.00     0.045 A 
ATOM     11  N   UNL A   1      30.329  27.807  22.130  1.00  0.00    -0.236 NA
ATOM     12  C   UNL A   1      30.835  27.258  23.275  1.00  0.00     0.141 A 
BRANCH   8  13
ATOM     13  N   UNL A   1      29.670  31.279  23.076  1.00  0.00    -0.325 N 
ATOM     14  C   UNL A   1      27.281  31.114  23.782  1.00  0.00     0.114 C 
ATOM     15  C   UNL A   1      28.440  31.861  23.183  1.00  0.00     0.221 C 
ATOM     16  O   UNL A   1      28.318  33.040  22.840  1.00  0.00    -0.275 OA
ATOM     17  H   UNL A   1      30.399  31.910  22.876  1.00  0.00     0.169 HD
ENDBRANCH   8  13
BRANCH  12  18
ATOM     18  N   UNL A   1      31.164  25.939  23.106  1.00  0.00    -0.352 N 
ATOM     19  C   UNL A   1      30.127  24.948  23.328  1.00  0.00     0.146 C 
ATOM     20  C   UNL A   1      32.457  25.498  22.605  1.00  0.00     0.123 C 
ATOM     21  C   UNL A   1      30.715  23.643  23.800  1.00  0.00    -0.002 C 
ATOM     22  C   UNL A   1      33.049  24.455  23.564  1.00  0.00     0.057 C 
ATOM     23  C   UNL A   1      32.034  23.396  23.927  1.00  0.00    -0.041 C 
BRANCH  23  24
ATOM     24  C   UNL A   1      32.511  22.073  24.376  1.00  0.00    -0.020 A 
ATOM     25  C   UNL A   1      32.337  20.981  23.506  1.00  0.00     0.008 A 
ATOM     26  C   UNL A   1      33.129  21.855  25.625  1.00  0.00    -0.044 A 
ATOM     27  C   UNL A   1      32.767  19.701  23.855  1.00  0.00     0.001 A 
ATOM     28  C   UNL A   1      33.572  20.562  25.956  1.00  0.00     0.004 A 
ATOM     29  C   UNL A   1      33.361  22.963  26.614  1.00  0.00     0.045 C 
ATOM     30  C   UNL A   1      33.387  19.491  25.081  1.00  0.00     0.000 A 
ENDBRANCH  23  24
ENDBRANCH  12  18
ENDBRANCH   4   7
ENDBRANCH   2   3
ENDBRANCH   1   2
BRANCH   1  31
ATOM     31  C   UNL A   1      33.807  30.078  27.960  1.00  0.00     0.118 C 
BRANCH  31  32
ATOM     32  N   UNL A   1      34.507  31.234  28.519  1.00  0.00    -0.352 N 
ATOM     33  C   UNL A   1      35.797  31.310  29.020  1.00  0.00     0.251 C 
ATOM     34  H   UNL A   1      33.993  32.073  28.541  1.00  0.00     0.163 HD
ATOM     35  O   UNL A   1      36.228  32.324  29.515  1.00  0.00    -0.269 OA
BRANCH  33  36
ATOM     36  C   UNL A   1      36.677  30.126  28.842  1.00  0.00     0.039 A 
ATOM     37  C   UNL A   1      36.919  29.323  29.961  1.00  0.00     0.014 A 
ATOM     38  C   UNL A   1      37.421  29.967  27.676  1.00  0.00     0.014 A 
ATOM     39  C   UNL A   1      38.050  28.513  29.985  1.00  0.00     0.010 A 
ATOM     40  C   UNL A   1      38.597  29.248  27.738  1.00  0.00     0.010 A 
ATOM     41  C   UNL A   1      38.939  28.562  28.909  1.00  0.00    -0.014 A 
BRANCH  41  42
ATOM     42  C   UNL A   1      40.303  28.049  28.974  1.00  0.00     0.031 A 
ATOM     43  C   UNL A   1      40.633  26.694  28.487  1.00  0.00     0.074 A 
ATOM     44  C   UNL A   1      41.300  28.837  29.435  1.00  0.00     0.049 A 
ATOM     45  N   UNL A   1      41.641  26.008  28.911  1.00  0.00    -0.248 NA
ATOM     46  C   UNL A   1      39.828  25.979  27.502  1.00  0.00     0.031 C 
ATOM     47  C   UNL A   1      42.737  28.604  29.318  1.00  0.00     0.029 A 
ATOM     48  N   UNL A   1      41.194  29.902  30.327  1.00  0.00    -0.354 N 
ATOM     49  C   UNL A   1      41.785  24.922  28.085  1.00  0.00     0.074 A 
ATOM     50  C   UNL A   1      40.598  24.912  27.261  1.00  0.00     0.031 C 
ATOM     51  C   UNL A   1      43.370  29.294  30.277  1.00  0.00     0.029 A 
ATOM     52  C   UNL A   1      42.354  29.890  31.124  1.00  0.00     0.049 A 
ATOM     53  H   UNL A   1      40.449  30.542  30.389  1.00  0.00     0.167 HD
ATOM     54  C   UNL A   1      42.948  24.217  28.086  1.00  0.00     0.034 A 
ATOM     55  C   UNL A   1      42.287  29.778  32.481  1.00  0.00     0.034 A 
ATOM     56  C   UNL A   1      43.917  24.753  29.033  1.00  0.00     0.049 A 
ATOM     57  C   UNL A   1      43.024  28.574  33.028  1.00  0.00     0.074 A 
ATOM     58  C   UNL A   1      45.017  25.582  28.893  1.00  0.00     0.029 A 
ATOM     59  N   UNL A   1      43.660  24.666  30.395  1.00  0.00    -0.354 N 
ATOM     60  N   UNL A   1      43.434  27.574  32.297  1.00  0.00    -0.248 NA
ATOM     61  C   UNL A   1      43.342  28.392  34.439  1.00  0.00     0.031 C 
ATOM     62  C   UNL A   1      45.408  26.018  30.185  1.00  0.00     0.029 A 
ATOM     63  C   UNL A   1      44.561  25.432  31.110  1.00  0.00     0.049 A 
ATOM     64  H   UNL A   1      42.937  24.134  30.796  1.00  0.00     0.167 HD
ATOM     65  C   UNL A   1      44.034  26.626  33.092  1.00  0.00     0.074 A 
ATOM     66  C   UNL A   1      43.968  27.201  34.425  1.00  0.00     0.031 C 
ATOM     67  C   UNL A   1      44.513  25.456  32.566  1.00  0.00     0.034 A 
BRANCH  54  68
ATOM     68  C   UNL A   1      43.299  23.215  27.018  1.00  0.00     0.023 A 
ATOM     69  C   UNL A   1      42.785  21.905  27.098  1.00  0.00     0.031 A 
ATOM     70  C   UNL A   1      44.138  23.483  25.922  1.00  0.00     0.131 A 
ATOM     71  C   UNL A   1      43.179  20.911  26.185  1.00  0.00     0.055 A 
ATOM     72  C   UNL A   1      44.574  22.482  25.044  1.00  0.00     0.041 A 
ATOM     73  F   UNL A   1      44.546  24.732  25.646  1.00  0.00    -0.206 F 
ATOM     74  C   UNL A   1      44.103  21.183  25.181  1.00  0.00     0.022 A 
BRANCH  71  75
ATOM     75  S   UNL A   1      42.453  19.254  26.326  1.00  0.00     0.124 S 
ATOM     76  O   UNL A   1      42.139  19.172  27.749  1.00  0.00    -0.237 OA
ATOM     77  O   UNL A   1      41.314  19.336  25.418  1.00  0.00    -0.237 OA
ATOM     78  O   UNL A   1      43.533  18.373  25.881  1.00  0.00    -0.744 OA
ENDBRANCH  71  75
ENDBRANCH  54  68
BRANCH  55  79
ATOM     79  C   UNL A   1      41.060  30.401  33.053  1.00  0.00     0.023 A 
ATOM     80  C   UNL A   1      41.045  31.812  33.131  1.00  0.00     0.031 A 
ATOM     81  C   UNL A   1      39.833  29.727  33.099  1.00  0.00     0.131 A 
ATOM     82  C   UNL A   1      39.832  32.512  33.054  1.00  0.00     0.055 A 
ATOM     83  C   UNL A   1      38.621  30.432  33.109  1.00  0.00     0.041 A 
ATOM     84  F   UNL A   1      39.782  28.392  32.998  1.00  0.00    -0.206 F 
ATOM     85  C   UNL A   1      38.616  31.828  33.037  1.00  0.00     0.022 A 
BRANCH  82  86
ATOM     86  S   UNL A   1      39.882  34.289  32.663  1.00  0.00     0.124 S 
ATOM     87  O   UNL A   1      39.322  34.885  33.870  1.00  0.00    -0.237 OA
ATOM     88  O   UNL A   1      41.306  34.533  32.431  1.00  0.00    -0.237 OA
ATOM     89  O   UNL A   1      39.061  34.404  31.461  1.00  0.00    -0.744 OA
ENDBRANCH  82  86
ENDBRANCH  55  79
BRANCH  67  90
ATOM     90  C   UNL A   1      45.043  24.243  33.320  1.00  0.00     0.023 A 
ATOM     91  C   UNL A   1      46.293  24.189  33.949  1.00  0.00     0.031 A 
ATOM     92  C   UNL A   1      44.238  23.080  33.481  1.00  0.00     0.131 A 
ATOM     93  C   UNL A   1      46.721  23.035  34.638  1.00  0.00     0.055 A 
ATOM     94  C   UNL A   1      44.638  21.962  34.219  1.00  0.00     0.041 A 
ATOM     95  F   UNL A   1      43.017  22.976  32.938  1.00  0.00    -0.206 F 
ATOM     96  C   UNL A   1      45.893  21.927  34.798  1.00  0.00     0.022 A 
BRANCH  93  97
ATOM     97  S   UNL A   1      48.411  22.999  35.292  1.00  0.00     0.124 S 
ATOM     98  O   UNL A   1      48.400  21.773  36.085  1.00  0.00    -0.237 OA
ATOM     99  O   UNL A   1      49.216  22.958  34.075  1.00  0.00    -0.237 OA
ATOM    100  O   UNL A   1      48.511  24.237  36.062  1.00  0.00    -0.744 OA
ENDBRANCH  93  97
ENDBRANCH  67  90
ENDBRANCH  41  42
ENDBRANCH  33  36
ENDBRANCH  31  32
ENDBRANCH   1  31
TORSDOF 16
ENDMDL
MODEL 2
REMARK VINA RESULT:     -14.1      1.604      4.431
REMARK SMILES CC(=O)Nc1cnc(N2CC=C(c3ccccc3C)CC2)c(C(=O)NCCCNC(=O)c2ccc(-c3c4nc(c(-c5cc(S(=O)(=O)[O-])ccc5F)c5ccc([nH]5)c(-c5cc(S(=O)(=O)[O-])ccc5F)c5nc(c(-c6cc(S(=O)(=O)[O-])ccc6F)c6ccc3[nH]6)C=C5)C=C4)cc2)c1
REMARK SMILES IDX 27 1 26 2 25 3 23 4 24 5 22 7 5 8 6 9 95 10 7 11 8 12 4 13
REMARK SMILES IDX 1 14 2 15 3 16 9 18 10 19 21 20 11 21 20 22 12 23 13 24
REMARK SMILES IDX 14 25 18 26 15 27 17 28 19 29 16 30 28 31 29 32 30 33 31 35
REMARK SMILES IDX 32 36 33 37 94 38 34 39 93 40 35 41 36 42 37 43 87 44 38 45
REMARK SMILES IDX 92 46 86 47 88 48 39 49 91 50 85 51 84 52 40 54 72 55 52 56
REMARK SMILES IDX 71 57 53 58 56 59 70 60 89 61 54 62 55 63 69 65 90 66 57 67
REMARK SMILES IDX 41 68 42 69 50 70 43 71 49 72 51 73 48 74 44 75 45 76 46 77
REMARK SMILES IDX 47 78 73 79 74 80 82 81 75 82 81 83 83 84 80 85 76 86 77 87
REMARK SMILES IDX 78 88 79 89 58 90 59 91 67 92 60 93 66 94 68 95 65 96 61 97
REMARK SMILES IDX 62 98 63 99 64 100
REMARK H PARENT 25 6 4 17 29 34 88 53 56 64
REMARK Flexibility Score: inf
ROOT
ATOM      1  C   UNL A   1      33.848  29.108  27.458  1.00  0.00     0.042 C 
ENDROOT
BRANCH   1   2
ATOM      2  C   UNL A   1      33.559  28.152  26.295  1.00  0.00     0.118 C 
BRANCH   2   3
ATOM      3  N   UNL A   1      32.624  27.099  26.679  1.00  0.00    -0.352 N 
ATOM      4  C   UNL A   1      32.420  25.774  26.361  1.00  0.00     0.255 C 
ATOM      5  O   UNL A   1      31.522  25.246  27.016  1.00  0.00    -0.269 OA
ATOM      6  H   UNL A   1      31.967  27.420  27.338  1.00  0.00     0.163 HD
BRANCH   4   7
ATOM      7  C   UNL A   1      33.178  24.987  25.318  1.00  0.00     0.084 A 
ATOM      8  C   UNL A   1      34.802  23.233  24.758  1.00  0.00     0.060 A 
ATOM      9  C   UNL A   1      34.552  23.506  23.431  1.00  0.00     0.139 A 
ATOM     10  C   UNL A   1      34.123  24.011  25.689  1.00  0.00     0.045 A 
ATOM     11  N   UNL A   1      33.661  24.421  23.011  1.00  0.00    -0.236 NA
ATOM     12  C   UNL A   1      32.973  25.165  23.928  1.00  0.00     0.141 A 
BRANCH   8  13
ATOM     13  N   UNL A   1      35.753  22.250  25.083  1.00  0.00    -0.325 N 
ATOM     14  C   UNL A   1      37.691  23.658  25.788  1.00  0.00     0.114 C 
ATOM     15  C   UNL A   1      37.073  22.338  25.417  1.00  0.00     0.221 C 
ATOM     16  O   UNL A   1      37.734  21.297  25.474  1.00  0.00    -0.275 OA
ATOM     17  H   UNL A   1      35.401  21.330  25.069  1.00  0.00     0.169 HD
ENDBRANCH   8  13
BRANCH  12  18
ATOM     18  N   UNL A   1      32.108  26.042  23.327  1.00  0.00    -0.352 N 
ATOM     19  C   UNL A   1      32.674  27.173  22.616  1.00  0.00     0.146 C 
ATOM     20  C   UNL A   1      30.669  25.828  23.269  1.00  0.00     0.123 C 
ATOM     21  C   UNL A   1      31.734  28.351  22.633  1.00  0.00    -0.002 C 
ATOM     22  C   UNL A   1      29.945  27.078  23.791  1.00  0.00     0.057 C 
ATOM     23  C   UNL A   1      30.497  28.339  23.168  1.00  0.00    -0.041 C 
BRANCH  23  24
ATOM     24  C   UNL A   1      29.643  29.542  23.113  1.00  0.00    -0.020 A 
ATOM     25  C   UNL A   1      28.627  29.583  22.139  1.00  0.00     0.008 A 
ATOM     26  C   UNL A   1      29.794  30.640  23.984  1.00  0.00    -0.044 A 
ATOM     27  C   UNL A   1      27.775  30.682  22.027  1.00  0.00     0.001 A 
ATOM     28  C   UNL A   1      28.916  31.733  23.870  1.00  0.00     0.004 A 
ATOM     29  C   UNL A   1      30.846  30.680  25.057  1.00  0.00     0.045 C 
ATOM     30  C   UNL A   1      27.918  31.757  22.896  1.00  0.00     0.000 A 
ENDBRANCH  23  24
ENDBRANCH  12  18
ENDBRANCH   4   7
ENDBRANCH   2   3
ENDBRANCH   1   2
BRANCH   1  31
ATOM     31  C   UNL A   1      34.473  30.421  27.016  1.00  0.00     0.118 C 
BRANCH  31  32
ATOM     32  N   UNL A   1      34.897  31.277  28.124  1.00  0.00    -0.352 N 
ATOM     33  C   UNL A   1      35.913  31.069  29.042  1.00  0.00     0.251 C 
ATOM     34  H   UNL A   1      34.392  32.115  28.231  1.00  0.00     0.163 HD
ATOM     35  O   UNL A   1      36.113  31.837  29.954  1.00  0.00    -0.269 OA
BRANCH  33  36
ATOM     36  C   UNL A   1      36.824  29.917  28.816  1.00  0.00     0.039 A 
ATOM     37  C   UNL A   1      37.014  29.023  29.874  1.00  0.00     0.014 A 
ATOM     38  C   UNL A   1      37.637  29.869  27.687  1.00  0.00     0.014 A 
ATOM     39  C   UNL A   1      38.156  28.229  29.896  1.00  0.00     0.010 A 
ATOM     40  C   UNL A   1      38.821  29.163  27.758  1.00  0.00     0.010 A 
ATOM     41  C   UNL A   1      39.105  28.382  28.885  1.00  0.00    -0.014 A 
BRANCH  41  42
ATOM     42  C   UNL A   1      40.472  27.882  28.987  1.00  0.00     0.031 A 
ATOM     43  C   UNL A   1      40.832  26.536  28.496  1.00  0.00     0.074 A 
ATOM     44  C   UNL A   1      41.446  28.676  29.487  1.00  0.00     0.049 A 
ATOM     45  N   UNL A   1      41.833  25.856  28.945  1.00  0.00    -0.248 NA
ATOM     46  C   UNL A   1      40.067  25.824  27.478  1.00  0.00     0.031 C 
ATOM     47  C   UNL A   1      42.888  28.459  29.413  1.00  0.00     0.029 A 
ATOM     48  N   UNL A   1      41.300  29.730  30.387  1.00  0.00    -0.354 N 
ATOM     49  C   UNL A   1      42.015  24.781  28.111  1.00  0.00     0.074 A 
ATOM     50  C   UNL A   1      40.855  24.768  27.250  1.00  0.00     0.031 C 
ATOM     51  C   UNL A   1      43.483  29.146  30.399  1.00  0.00     0.029 A 
ATOM     52  C   UNL A   1      42.435  29.721  31.220  1.00  0.00     0.049 A 
ATOM     53  H   UNL A   1      40.547  30.361  30.432  1.00  0.00     0.167 HD
ATOM     54  C   UNL A   1      43.186  24.089  28.141  1.00  0.00     0.034 A 
ATOM     55  C   UNL A   1      42.326  29.593  32.573  1.00  0.00     0.034 A 
ATOM     56  C   UNL A   1      44.118  24.625  29.125  1.00  0.00     0.049 A 
ATOM     57  C   UNL A   1      43.058  28.391  33.130  1.00  0.00     0.074 A 
ATOM     58  C   UNL A   1      45.213  25.467  29.028  1.00  0.00     0.029 A 
ATOM     59  N   UNL A   1      43.820  24.520  30.477  1.00  0.00    -0.354 N 
ATOM     60  N   UNL A   1      43.502  27.404  32.402  1.00  0.00    -0.248 NA
ATOM     61  C   UNL A   1      43.334  28.197  34.548  1.00  0.00     0.031 C 
ATOM     62  C   UNL A   1      45.558  25.892  30.337  1.00  0.00     0.029 A 
ATOM     63  C   UNL A   1      44.689  25.287  31.228  1.00  0.00     0.049 A 
ATOM     64  H   UNL A   1      43.090  23.975  30.849  1.00  0.00     0.167 HD
ATOM     65  C   UNL A   1      44.087  26.454  33.205  1.00  0.00     0.074 A 
ATOM     66  C   UNL A   1      43.973  27.012  34.541  1.00  0.00     0.031 C 
ATOM     67  C   UNL A   1      44.595  25.295  32.682  1.00  0.00     0.034 A 
BRANCH  54  68
ATOM     68  C   UNL A   1      43.580  23.103  27.075  1.00  0.00     0.023 A 
ATOM     69  C   UNL A   1      42.995  21.821  27.061  1.00  0.00     0.031 A 
ATOM     70  C   UNL A   1      44.530  23.358  26.069  1.00  0.00     0.131 A 
ATOM     71  C   UNL A   1      43.419  20.836  26.152  1.00  0.00     0.055 A 
ATOM     72  C   UNL A   1      44.992  22.362  25.199  1.00  0.00     0.041 A 
ATOM     73  F   UNL A   1      45.025  24.590  25.875  1.00  0.00    -0.206 F 
ATOM     74  C   UNL A   1      44.444  21.087  25.246  1.00  0.00     0.022 A 
BRANCH  71  75
ATOM     75  S   UNL A   1      42.599  19.216  26.169  1.00  0.00     0.124 S 
ATOM     76  O   UNL A   1      43.577  18.366  25.498  1.00  0.00    -0.237 OA
ATOM     77  O   UNL A   1      42.410  18.980  27.596  1.00  0.00    -0.237 OA
ATOM     78  O   UNL A   1      41.368  19.453  25.415  1.00  0.00    -0.744 OA
ENDBRANCH  71  75
ENDBRANCH  54  68
BRANCH  55  79
ATOM     79  C   UNL A   1      41.075  30.197  33.113  1.00  0.00     0.023 A 
ATOM     80  C   UNL A   1      41.052  31.605  33.231  1.00  0.00     0.031 A 
ATOM     81  C   UNL A   1      39.849  29.520  33.089  1.00  0.00     0.131 A 
ATOM     82  C   UNL A   1      39.841  32.304  33.125  1.00  0.00     0.055 A 
ATOM     83  C   UNL A   1      38.636  30.222  33.070  1.00  0.00     0.041 A 
ATOM     84  F   UNL A   1      39.806  28.188  32.948  1.00  0.00    -0.206 F 
ATOM     85  C   UNL A   1      38.629  31.619  33.039  1.00  0.00     0.022 A 
BRANCH  82  86
ATOM     86  S   UNL A   1      39.902  34.093  32.788  1.00  0.00     0.124 S 
ATOM     87  O   UNL A   1      40.728  34.152  31.589  1.00  0.00    -0.237 OA
ATOM     88  O   UNL A   1      38.492  34.441  32.612  1.00  0.00    -0.237 OA
ATOM     89  O   UNL A   1      40.501  34.653  33.997  1.00  0.00    -0.744 OA
ENDBRANCH  82  86
ENDBRANCH  55  79
BRANCH  67  90
ATOM     90  C   UNL A   1      45.114  24.079  33.439  1.00  0.00     0.023 A 
ATOM     91  C   UNL A   1      46.420  23.952  33.930  1.00  0.00     0.031 A 
ATOM     92  C   UNL A   1      44.248  22.994  33.752  1.00  0.00     0.131 A 
ATOM     93  C   UNL A   1      46.835  22.801  34.630  1.00  0.00     0.055 A 
ATOM     94  C   UNL A   1      44.643  21.882  34.502  1.00  0.00     0.041 A 
ATOM     95  F   UNL A   1      42.968  22.964  33.352  1.00  0.00    -0.206 F 
ATOM     96  C   UNL A   1      45.949  21.773  34.940  1.00  0.00     0.022 A 
BRANCH  93  97
ATOM     97  S   UNL A   1      48.581  22.659  35.096  1.00  0.00     0.124 S 
ATOM     98  O   UNL A   1      48.583  23.242  36.434  1.00  0.00    -0.237 OA
ATOM     99  O   UNL A   1      48.805  21.218  35.033  1.00  0.00    -0.237 OA
ATOM    100  O   UNL A   1      49.277  23.441  34.076  1.00  0.00    -0.744 OA
ENDBRANCH  93  97
ENDBRANCH  67  90
ENDBRANCH  41  42
ENDBRANCH  33  36
ENDBRANCH  31  32
ENDBRANCH   1  31
TORSDOF 16
ENDMDL
MODEL 3
REMARK VINA RESULT:     -13.7      2.469      4.969
REMARK SMILES CC(=O)Nc1cnc(N2CC=C(c3ccccc3C)CC2)c(C(=O)NCCCNC(=O)c2ccc(-c3c4nc(c(-c5cc(S(=O)(=O)[O-])ccc5F)c5ccc([nH]5)c(-c5cc(S(=O)(=O)[O-])ccc5F)c5nc(c(-c6cc(S(=O)(=O)[O-])ccc6F)c6ccc3[nH]6)C=C5)C=C4)cc2)c1
REMARK SMILES IDX 27 1 26 2 25 3 23 4 24 5 22 7 5 8 6 9 95 10 7 11 8 12 4 13
REMARK SMILES IDX 1 14 2 15 3 16 9 18 10 19 21 20 11 21 20 22 12 23 13 24
REMARK SMILES IDX 14 25 18 26 15 27 17 28 19 29 16 30 28 31 29 32 30 33 31 35
REMARK SMILES IDX 32 36 33 37 94 38 34 39 93 40 35 41 36 42 37 43 87 44 38 45
REMARK SMILES IDX 92 46 86 47 88 48 39 49 91 50 85 51 84 52 40 54 72 55 52 56
REMARK SMILES IDX 71 57 53 58 56 59 70 60 89 61 54 62 55 63 69 65 90 66 57 67
REMARK SMILES IDX 41 68 42 69 50 70 43 71 49 72 51 73 48 74 44 75 45 76 46 77
REMARK SMILES IDX 47 78 73 79 74 80 82 81 75 82 81 83 83 84 80 85 76 86 77 87
REMARK SMILES IDX 78 88 79 89 58 90 59 91 67 92 60 93 66 94 68 95 65 96 61 97
REMARK SMILES IDX 62 98 63 99 64 100
REMARK H PARENT 25 6 4 17 29 34 88 53 56 64
REMARK Flexibility Score: inf
ROOT
ATOM      1  C   UNL A   1      33.536  29.259  27.750  1.00  0.00     0.042 C 
ENDROOT
BRANCH   1   2
ATOM      2  C   UNL A   1      33.540  28.144  26.699  1.00  0.00     0.118 C 
BRANCH   2   3
ATOM      3  N   UNL A   1      32.427  27.218  26.887  1.00  0.00    -0.352 N 
ATOM      4  C   UNL A   1      32.091  25.954  26.453  1.00  0.00     0.255 C 
ATOM      5  O   UNL A   1      31.050  25.527  26.951  1.00  0.00    -0.269 OA
ATOM      6  H   UNL A   1      31.737  27.594  27.479  1.00  0.00     0.163 HD
BRANCH   4   7
ATOM      7  C   UNL A   1      32.868  25.121  25.460  1.00  0.00     0.084 A 
ATOM      8  C   UNL A   1      34.463  23.310  25.009  1.00  0.00     0.060 A 
ATOM      9  C   UNL A   1      34.276  23.558  23.667  1.00  0.00     0.139 A 
ATOM     10  C   UNL A   1      33.768  24.129  25.893  1.00  0.00     0.045 A 
ATOM     11  N   UNL A   1      33.429  24.488  23.189  1.00  0.00    -0.236 NA
ATOM     12  C   UNL A   1      32.726  25.273  24.059  1.00  0.00     0.141 A 
BRANCH   8  13
ATOM     13  N   UNL A   1      35.371  22.309  25.396  1.00  0.00    -0.325 N 
ATOM     14  C   UNL A   1      37.516  23.586  25.443  1.00  0.00     0.114 C 
ATOM     15  C   UNL A   1      36.733  22.303  25.487  1.00  0.00     0.221 C 
ATOM     16  O   UNL A   1      37.302  21.225  25.676  1.00  0.00    -0.275 OA
ATOM     17  H   UNL A   1      34.946  21.458  25.648  1.00  0.00     0.169 HD
ENDBRANCH   8  13
BRANCH  12  18
ATOM     18  N   UNL A   1      31.912  26.158  23.404  1.00  0.00    -0.352 N 
ATOM     19  C   UNL A   1      32.541  27.248  22.679  1.00  0.00     0.146 C 
ATOM     20  C   UNL A   1      30.470  25.991  23.302  1.00  0.00     0.123 C 
ATOM     21  C   UNL A   1      31.641  28.456  22.628  1.00  0.00    -0.002 C 
ATOM     22  C   UNL A   1      29.772  27.280  23.761  1.00  0.00     0.057 C 
ATOM     23  C   UNL A   1      30.387  28.501  23.120  1.00  0.00    -0.041 C 
BRANCH  23  24
ATOM     24  C   UNL A   1      29.577  29.730  23.000  1.00  0.00    -0.020 A 
ATOM     25  C   UNL A   1      28.658  29.810  21.937  1.00  0.00     0.008 A 
ATOM     26  C   UNL A   1      29.678  30.816  23.893  1.00  0.00    -0.044 A 
ATOM     27  C   UNL A   1      27.852  30.934  21.759  1.00  0.00     0.001 A 
ATOM     28  C   UNL A   1      28.846  31.936  23.711  1.00  0.00     0.004 A 
ATOM     29  C   UNL A   1      30.627  30.816  25.059  1.00  0.00     0.045 C 
ATOM     30  C   UNL A   1      27.944  31.998  22.649  1.00  0.00     0.000 A 
ENDBRANCH  23  24
ENDBRANCH  12  18
ENDBRANCH   4   7
ENDBRANCH   2   3
ENDBRANCH   1   2
BRANCH   1  31
ATOM     31  C   UNL A   1      33.832  30.633  27.172  1.00  0.00     0.118 C 
BRANCH  31  32
ATOM     32  N   UNL A   1      34.390  31.576  28.141  1.00  0.00    -0.352 N 
ATOM     33  C   UNL A   1      35.510  31.435  28.943  1.00  0.00     0.251 C 
ATOM     34  H   UNL A   1      33.903  32.427  28.235  1.00  0.00     0.163 HD
ATOM     35  O   UNL A   1      35.821  32.275  29.754  1.00  0.00    -0.269 OA
BRANCH  33  36
ATOM     36  C   UNL A   1      36.382  30.255  28.710  1.00  0.00     0.039 A 
ATOM     37  C   UNL A   1      36.729  29.476  29.818  1.00  0.00     0.014 A 
ATOM     38  C   UNL A   1      37.023  30.079  27.486  1.00  0.00     0.014 A 
ATOM     39  C   UNL A   1      37.866  28.675  29.757  1.00  0.00     0.010 A 
ATOM     40  C   UNL A   1      38.207  29.371  27.458  1.00  0.00     0.010 A 
ATOM     41  C   UNL A   1      38.657  28.711  28.607  1.00  0.00    -0.014 A 
BRANCH  41  42
ATOM     42  C   UNL A   1      40.026  28.209  28.560  1.00  0.00     0.031 A 
ATOM     43  C   UNL A   1      40.307  26.767  28.412  1.00  0.00     0.074 A 
ATOM     44  C   UNL A   1      41.064  29.076  28.598  1.00  0.00     0.049 A 
ATOM     45  N   UNL A   1      41.396  26.206  28.818  1.00  0.00    -0.248 NA
ATOM     46  C   UNL A   1      39.362  25.823  27.824  1.00  0.00     0.031 C 
ATOM     47  C   UNL A   1      42.462  28.792  28.290  1.00  0.00     0.029 A 
ATOM     48  N   UNL A   1      41.086  30.347  29.168  1.00  0.00    -0.354 N 
ATOM     49  C   UNL A   1      41.424  24.931  28.309  1.00  0.00     0.074 A 
ATOM     50  C   UNL A   1      40.110  24.717  27.749  1.00  0.00     0.031 C 
ATOM     51  C   UNL A   1      43.235  29.708  28.891  1.00  0.00     0.029 A 
ATOM     52  C   UNL A   1      42.370  30.533  29.713  1.00  0.00     0.049 A 
ATOM     53  H   UNL A   1      40.344  30.993  29.187  1.00  0.00     0.167 HD
ATOM     54  C   UNL A   1      42.591  24.233  28.291  1.00  0.00     0.034 A 
ATOM     55  C   UNL A   1      42.552  30.800  31.037  1.00  0.00     0.034 A 
ATOM     56  C   UNL A   1      43.696  24.991  28.863  1.00  0.00     0.049 A 
ATOM     57  C   UNL A   1      43.414  29.781  31.749  1.00  0.00     0.074 A 
ATOM     58  C   UNL A   1      44.726  25.729  28.302  1.00  0.00     0.029 A 
ATOM     59  N   UNL A   1      43.692  25.287  30.219  1.00  0.00    -0.354 N 
ATOM     60  N   UNL A   1      43.718  28.610  31.259  1.00  0.00    -0.248 NA
ATOM     61  C   UNL A   1      43.986  29.988  33.074  1.00  0.00     0.031 C 
ATOM     62  C   UNL A   1      45.328  26.496  29.333  1.00  0.00     0.029 A 
ATOM     63  C   UNL A   1      44.682  26.204  30.520  1.00  0.00     0.049 A 
ATOM     64  H   UNL A   1      43.070  24.899  30.876  1.00  0.00     0.167 HD
ATOM     65  C   UNL A   1      44.481  27.907  32.161  1.00  0.00     0.074 A 
ATOM     66  C   UNL A   1      44.637  28.827  33.274  1.00  0.00     0.031 C 
ATOM     67  C   UNL A   1      44.896  26.629  31.898  1.00  0.00     0.034 A 
BRANCH  54  68
ATOM     68  C   UNL A   1      42.776  22.969  27.494  1.00  0.00     0.023 A 
ATOM     69  C   UNL A   1      43.758  22.920  26.485  1.00  0.00     0.031 A 
ATOM     70  C   UNL A   1      42.011  21.802  27.667  1.00  0.00     0.131 A 
ATOM     71  C   UNL A   1      43.885  21.801  25.645  1.00  0.00     0.055 A 
ATOM     72  C   UNL A   1      42.099  20.707  26.797  1.00  0.00     0.041 A 
ATOM     73  F   UNL A   1      41.169  21.668  28.704  1.00  0.00    -0.206 F 
ATOM     74  C   UNL A   1      43.033  20.708  25.770  1.00  0.00     0.022 A 
BRANCH  71  75
ATOM     75  S   UNL A   1      45.194  21.792  24.387  1.00  0.00     0.124 S 
ATOM     76  O   UNL A   1      46.406  21.774  25.199  1.00  0.00    -0.237 OA
ATOM     77  O   UNL A   1      44.898  20.572  23.642  1.00  0.00    -0.237 OA
ATOM     78  O   UNL A   1      44.963  23.034  23.650  1.00  0.00    -0.744 OA
ENDBRANCH  71  75
ENDBRANCH  54  68
BRANCH  55  79
ATOM     79  C   UNL A   1      41.428  31.580  31.630  1.00  0.00     0.023 A 
ATOM     80  C   UNL A   1      40.544  30.873  32.476  1.00  0.00     0.031 A 
ATOM     81  C   UNL A   1      41.465  32.977  31.738  1.00  0.00     0.131 A 
ATOM     82  C   UNL A   1      39.881  31.536  33.518  1.00  0.00     0.055 A 
ATOM     83  C   UNL A   1      40.731  33.644  32.728  1.00  0.00     0.041 A 
ATOM     84  F   UNL A   1      42.305  33.699  30.984  1.00  0.00    -0.206 F 
ATOM     85  C   UNL A   1      39.974  32.922  33.654  1.00  0.00     0.022 A 
BRANCH  82  86
ATOM     86  S   UNL A   1      39.162  30.536  34.859  1.00  0.00     0.124 S 
ATOM     87  O   UNL A   1      38.745  31.556  35.813  1.00  0.00    -0.237 OA
ATOM     88  O   UNL A   1      38.085  29.811  34.186  1.00  0.00    -0.237 OA
ATOM     89  O   UNL A   1      40.268  29.684  35.288  1.00  0.00    -0.744 OA
ENDBRANCH  82  86
ENDBRANCH  55  79
BRANCH  67  90
ATOM     90  C   UNL A   1      45.592  25.660  32.846  1.00  0.00     0.023 A 
ATOM     91  C   UNL A   1      44.937  24.649  33.560  1.00  0.00     0.031 A 
ATOM     92  C   UNL A   1      47.004  25.696  33.013  1.00  0.00     0.131 A 
ATOM     93  C   UNL A   1      45.643  23.779  34.418  1.00  0.00     0.055 A 
ATOM     94  C   UNL A   1      47.710  24.793  33.813  1.00  0.00     0.041 A 
ATOM     95  F   UNL A   1      47.773  26.607  32.398  1.00  0.00    -0.206 F 
ATOM     96  C   UNL A   1      47.029  23.829  34.533  1.00  0.00     0.022 A 
BRANCH  93  97
ATOM     97  S   UNL A   1      44.696  22.599  35.416  1.00  0.00     0.124 S 
ATOM     98  O   UNL A   1      43.349  23.159  35.346  1.00  0.00    -0.237 OA
ATOM     99  O   UNL A   1      44.898  21.347  34.695  1.00  0.00    -0.237 OA
ATOM    100  O   UNL A   1      45.330  22.669  36.731  1.00  0.00    -0.744 OA
ENDBRANCH  93  97
ENDBRANCH  67  90
ENDBRANCH  41  42
ENDBRANCH  33  36
ENDBRANCH  31  32
ENDBRANCH   1  31
TORSDOF 16
ENDMDL
