MODEL 1
REMARK VINA RESULT:     -11.0      0.000      0.000
REMARK SMILES COc1ccc(C(=O)NCCCNC(=O)c2ccc(-c3c4nc(c(-c5cc(S(=O)(=O)[O-])ccc5F)c5ccc([nH]5)c(-c5cc(S(=O)(=O)[O-])ccc5F)c5nc(c(-c6cc(S(=O)(=O)[O-])ccc6F)c6ccc3[nH]6)C=C5)C=C4)cc2)cc1NCc1cc(C#N)cs1
REMARK SMILES IDX 10 1 9 2 7 3 8 4 6 6 3 7 4 8 80 9 5 10 79 11 2 12 1 13 81 14
REMARK SMILES IDX 82 16 83 17 84 18 89 19 85 20 88 21 86 22 87 23 11 24 12 25
REMARK SMILES IDX 13 26 14 27 15 29 16 30 17 31 78 32 18 33 77 34 19 35 20 36
REMARK SMILES IDX 21 37 71 38 22 39 76 40 70 41 72 42 23 43 75 44 69 45 68 46
REMARK SMILES IDX 24 48 56 49 36 50 55 51 37 52 40 53 54 54 73 55 38 56 39 57
REMARK SMILES IDX 53 59 74 60 41 61 25 62 26 63 34 64 27 65 33 66 35 67 32 68
REMARK SMILES IDX 28 69 29 70 30 71 31 72 57 73 58 74 66 75 59 76 65 77 67 78
REMARK SMILES IDX 64 79 60 80 61 81 62 82 63 83 42 84 43 85 51 86 44 87 50 88
REMARK SMILES IDX 52 89 49 90 45 91 46 92 47 93 48 94
REMARK H PARENT 9 5 81 15 13 28 72 47 40 58
REMARK Flexibility Score: inf
ROOT
ATOM      1  C   UNL A   1      33.255  30.668  27.097  1.00  0.00     0.118 C 
ENDROOT
BRANCH   1   2
ATOM      2  N   UNL A   1      32.485  29.590  27.696  1.00  0.00    -0.352 N 
ATOM      3  C   UNL A   1      32.101  28.355  27.227  1.00  0.00     0.251 C 
ATOM      4  O   UNL A   1      31.511  27.603  28.001  1.00  0.00    -0.269 OA
ATOM      5  H   UNL A   1      32.179  29.780  28.613  1.00  0.00     0.163 HD
BRANCH   3   6
ATOM      6  C   UNL A   1      32.423  27.879  25.851  1.00  0.00     0.042 A 
ATOM      7  C   UNL A   1      33.136  27.070  23.269  1.00  0.00     0.142 A 
ATOM      8  C   UNL A   1      33.968  26.774  24.357  1.00  0.00     0.049 A 
ATOM      9  C   UNL A   1      31.912  27.738  23.452  1.00  0.00     0.078 A 
ATOM     10  C   UNL A   1      33.629  27.208  25.640  1.00  0.00     0.018 A 
ATOM     11  C   UNL A   1      31.560  28.053  24.767  1.00  0.00     0.043 A 
BRANCH   7  12
ATOM     12  O   UNL A   1      33.516  26.560  22.051  1.00  0.00    -0.495 OA
ATOM     13  C   UNL A   1      32.961  25.270  21.805  1.00  0.00     0.278 C 
ENDBRANCH   7  12
BRANCH   9  14
ATOM     14  N   UNL A   1      31.103  28.098  22.390  1.00  0.00    -0.377 N 
ATOM     15  H   UNL A   1      31.552  28.411  21.572  1.00  0.00     0.161 HD
BRANCH  14  16
ATOM     16  C   UNL A   1      29.646  28.058  22.370  1.00  0.00     0.160 C 
BRANCH  16  17
ATOM     17  C   UNL A   1      28.951  29.375  22.620  1.00  0.00     0.025 A 
ATOM     18  C   UNL A   1      29.469  30.659  22.562  1.00  0.00     0.036 A 
ATOM     19  S   UNL A   1      27.311  29.392  23.125  1.00  0.00    -0.146 S 
ATOM     20  C   UNL A   1      28.528  31.649  22.985  1.00  0.00     0.063 A 
ATOM     21  C   UNL A   1      27.316  31.091  23.324  1.00  0.00     0.084 A 
BRANCH  20  22
ATOM     22  C   UNL A   1      28.779  33.060  23.071  1.00  0.00     0.100 C 
ATOM     23  N   UNL A   1      28.963  34.202  23.126  1.00  0.00    -0.192 NA
ENDBRANCH  20  22
ENDBRANCH  16  17
ENDBRANCH  14  16
ENDBRANCH   9  14
ENDBRANCH   3   6
ENDBRANCH   1   2
BRANCH   1  24
ATOM     24  C   UNL A   1      33.210  31.929  27.962  1.00  0.00     0.042 C 
BRANCH  24  25
ATOM     25  C   UNL A   1      32.949  33.190  27.148  1.00  0.00     0.118 C 
BRANCH  25  26
ATOM     26  N   UNL A   1      32.903  34.370  28.002  1.00  0.00    -0.352 N 
ATOM     27  C   UNL A   1      33.532  34.622  29.194  1.00  0.00     0.251 C 
ATOM     28  H   UNL A   1      32.331  35.100  27.671  1.00  0.00     0.163 HD
ATOM     29  O   UNL A   1      33.138  35.552  29.891  1.00  0.00    -0.269 OA
BRANCH  27  30
ATOM     30  C   UNL A   1      34.660  33.775  29.636  1.00  0.00     0.039 A 
ATOM     31  C   UNL A   1      35.933  34.025  29.121  1.00  0.00     0.014 A 
ATOM     32  C   UNL A   1      34.460  32.721  30.532  1.00  0.00     0.014 A 
ATOM     33  C   UNL A   1      37.014  33.254  29.550  1.00  0.00     0.010 A 
ATOM     34  C   UNL A   1      35.551  32.012  31.025  1.00  0.00     0.010 A 
ATOM     35  C   UNL A   1      36.840  32.269  30.536  1.00  0.00    -0.014 A 
BRANCH  35  36
ATOM     36  C   UNL A   1      37.996  31.504  31.072  1.00  0.00     0.031 A 
ATOM     37  C   UNL A   1      38.557  31.833  32.429  1.00  0.00     0.074 A 
ATOM     38  C   UNL A   1      38.570  30.553  30.309  1.00  0.00     0.049 A 
ATOM     39  N   UNL A   1      39.596  31.322  33.037  1.00  0.00    -0.248 NA
ATOM     40  C   UNL A   1      37.877  32.892  33.191  1.00  0.00     0.031 C 
ATOM     41  C   UNL A   1      38.126  30.168  28.967  1.00  0.00     0.029 A 
ATOM     42  N   UNL A   1      39.647  29.737  30.545  1.00  0.00    -0.354 N 
ATOM     43  C   UNL A   1      39.702  32.003  34.245  1.00  0.00     0.074 A 
ATOM     44  C   UNL A   1      38.655  33.001  34.257  1.00  0.00     0.031 C 
ATOM     45  C   UNL A   1      38.900  29.168  28.516  1.00  0.00     0.029 A 
ATOM     46  C   UNL A   1      39.936  28.885  29.503  1.00  0.00     0.049 A 
ATOM     47  H   UNL A   1      40.166  29.760  31.381  1.00  0.00     0.167 HD
ATOM     48  C   UNL A   1      40.582  31.799  35.256  1.00  0.00     0.034 A 
ATOM     49  C   UNL A   1      40.933  27.991  29.352  1.00  0.00     0.034 A 
ATOM     50  C   UNL A   1      41.617  30.794  35.224  1.00  0.00     0.049 A 
ATOM     51  C   UNL A   1      41.936  27.829  30.469  1.00  0.00     0.074 A 
ATOM     52  C   UNL A   1      42.524  30.465  36.216  1.00  0.00     0.029 A 
ATOM     53  N   UNL A   1      41.898  29.972  34.141  1.00  0.00    -0.354 N 
ATOM     54  N   UNL A   1      41.985  28.441  31.630  1.00  0.00    -0.248 NA
ATOM     55  C   UNL A   1      43.010  26.851  30.259  1.00  0.00     0.031 C 
ATOM     56  C   UNL A   1      43.414  29.520  35.700  1.00  0.00     0.029 A 
ATOM     57  C   UNL A   1      42.997  29.174  34.424  1.00  0.00     0.049 A 
ATOM     58  H   UNL A   1      41.393  29.957  33.297  1.00  0.00     0.167 HD
ATOM     59  C   UNL A   1      43.075  27.891  32.302  1.00  0.00     0.074 A 
ATOM     60  C   UNL A   1      43.641  26.889  31.422  1.00  0.00     0.031 C 
ATOM     61  C   UNL A   1      43.559  28.183  33.535  1.00  0.00     0.034 A 
BRANCH  48  62
ATOM     62  C   UNL A   1      40.491  32.704  36.461  1.00  0.00     0.023 A 
ATOM     63  C   UNL A   1      39.650  32.415  37.549  1.00  0.00     0.031 A 
ATOM     64  C   UNL A   1      41.261  33.880  36.521  1.00  0.00     0.131 A 
ATOM     65  C   UNL A   1      39.548  33.321  38.615  1.00  0.00     0.055 A 
ATOM     66  C   UNL A   1      41.222  34.733  37.627  1.00  0.00     0.041 A 
ATOM     67  F   UNL A   1      42.063  34.226  35.502  1.00  0.00    -0.206 F 
ATOM     68  C   UNL A   1      40.350  34.463  38.676  1.00  0.00     0.022 A 
BRANCH  65  69
ATOM     69  S   UNL A   1      38.241  33.064  39.847  1.00  0.00     0.124 S 
ATOM     70  O   UNL A   1      38.785  31.953  40.625  1.00  0.00    -0.237 OA
ATOM     71  O   UNL A   1      38.189  34.353  40.526  1.00  0.00    -0.237 OA
ATOM     72  O   UNL A   1      37.069  32.734  39.040  1.00  0.00    -0.744 OA
ENDBRANCH  65  69
ENDBRANCH  48  62
BRANCH  49  73
ATOM     73  C   UNL A   1      41.060  27.196  28.096  1.00  0.00     0.023 A 
ATOM     74  C   UNL A   1      40.726  25.832  28.069  1.00  0.00     0.031 A 
ATOM     75  C   UNL A   1      41.583  27.766  26.921  1.00  0.00     0.131 A 
ATOM     76  C   UNL A   1      40.979  25.073  26.916  1.00  0.00     0.055 A 
ATOM     77  C   UNL A   1      41.764  27.023  25.753  1.00  0.00     0.041 A 
ATOM     78  F   UNL A   1      41.924  29.066  26.889  1.00  0.00    -0.206 F 
ATOM     79  C   UNL A   1      41.477  25.662  25.752  1.00  0.00     0.022 A 
BRANCH  76  80
ATOM     80  S   UNL A   1      40.770  23.273  27.004  1.00  0.00     0.124 S 
ATOM     81  O   UNL A   1      39.327  23.137  26.844  1.00  0.00    -0.237 OA
ATOM     82  O   UNL A   1      41.587  22.818  25.883  1.00  0.00    -0.237 OA
ATOM     83  O   UNL A   1      41.286  22.936  28.328  1.00  0.00    -0.744 OA
ENDBRANCH  76  80
ENDBRANCH  49  73
BRANCH  61  84
ATOM     84  C   UNL A   1      44.731  27.368  34.031  1.00  0.00     0.023 A 
ATOM     85  C   UNL A   1      44.558  26.180  34.759  1.00  0.00     0.031 A 
ATOM     86  C   UNL A   1      46.046  27.795  33.767  1.00  0.00     0.131 A 
ATOM     87  C   UNL A   1      45.679  25.491  35.249  1.00  0.00     0.055 A 
ATOM     88  C   UNL A   1      47.157  27.064  34.189  1.00  0.00     0.041 A 
ATOM     89  F   UNL A   1      46.274  28.929  33.083  1.00  0.00    -0.206 F 
ATOM     90  C   UNL A   1      46.977  25.912  34.948  1.00  0.00     0.022 A 
BRANCH  87  91
ATOM     91  S   UNL A   1      45.417  24.098  36.380  1.00  0.00     0.124 S 
ATOM     92  O   UNL A   1      45.166  22.999  35.453  1.00  0.00    -0.237 OA
ATOM     93  O   UNL A   1      46.682  24.043  37.106  1.00  0.00    -0.237 OA
ATOM     94  O   UNL A   1      44.263  24.515  37.176  1.00  0.00    -0.744 OA
ENDBRANCH  87  91
ENDBRANCH  61  84
ENDBRANCH  35  36
ENDBRANCH  27  30
ENDBRANCH  25  26
ENDBRANCH  24  25
ENDBRANCH   1  24
TORSDOF 18
ENDMDL
MODEL 2
REMARK VINA RESULT:     -10.4      5.816     11.979
REMARK SMILES COc1ccc(C(=O)NCCCNC(=O)c2ccc(-c3c4nc(c(-c5cc(S(=O)(=O)[O-])ccc5F)c5ccc([nH]5)c(-c5cc(S(=O)(=O)[O-])ccc5F)c5nc(c(-c6cc(S(=O)(=O)[O-])ccc6F)c6ccc3[nH]6)C=C5)C=C4)cc2)cc1NCc1cc(C#N)cs1
REMARK SMILES IDX 10 1 9 2 7 3 8 4 6 6 3 7 4 8 80 9 5 10 79 11 2 12 1 13 81 14
REMARK SMILES IDX 82 16 83 17 84 18 89 19 85 20 88 21 86 22 87 23 11 24 12 25
REMARK SMILES IDX 13 26 14 27 15 29 16 30 17 31 78 32 18 33 77 34 19 35 20 36
REMARK SMILES IDX 21 37 71 38 22 39 76 40 70 41 72 42 23 43 75 44 69 45 68 46
REMARK SMILES IDX 24 48 56 49 36 50 55 51 37 52 40 53 54 54 73 55 38 56 39 57
REMARK SMILES IDX 53 59 74 60 41 61 25 62 26 63 34 64 27 65 33 66 35 67 32 68
REMARK SMILES IDX 28 69 29 70 30 71 31 72 57 73 58 74 66 75 59 76 65 77 67 78
REMARK SMILES IDX 64 79 60 80 61 81 62 82 63 83 42 84 43 85 51 86 44 87 50 88
REMARK SMILES IDX 52 89 49 90 45 91 46 92 47 93 48 94
REMARK H PARENT 9 5 81 15 13 28 72 47 40 58
REMARK Flexibility Score: inf
ROOT
ATOM      1  C   UNL A   1      42.603  22.207  25.712  1.00  0.00     0.118 C 
ENDROOT
BRANCH   1   2
ATOM      2  N   UNL A   1      43.933  21.771  25.315  1.00  0.00    -0.352 N 
ATOM      3  C   UNL A   1      45.185  22.061  25.805  1.00  0.00     0.251 C 
ATOM      4  O   UNL A   1      46.145  21.469  25.314  1.00  0.00    -0.269 OA
ATOM      5  H   UNL A   1      43.938  21.151  24.550  1.00  0.00     0.163 HD
BRANCH   3   6
ATOM      6  C   UNL A   1      45.411  23.007  26.934  1.00  0.00     0.042 A 
ATOM      7  C   UNL A   1      45.711  24.836  29.031  1.00  0.00     0.142 A 
ATOM      8  C   UNL A   1      44.748  23.821  29.112  1.00  0.00     0.049 A 
ATOM      9  C   UNL A   1      46.571  24.934  27.923  1.00  0.00     0.078 A 
ATOM     10  C   UNL A   1      44.576  22.929  28.051  1.00  0.00     0.018 A 
ATOM     11  C   UNL A   1      46.438  23.953  26.937  1.00  0.00     0.043 A 
BRANCH   7  12
ATOM     12  O   UNL A   1      45.851  25.636  30.139  1.00  0.00    -0.495 OA
ATOM     13  C   UNL A   1      44.655  25.710  30.911  1.00  0.00     0.278 C 
ENDBRANCH   7  12
BRANCH   9  14
ATOM     14  N   UNL A   1      47.486  25.963  27.789  1.00  0.00    -0.377 N 
ATOM     15  H   UNL A   1      47.756  26.431  28.612  1.00  0.00     0.161 HD
BRANCH  14  16
ATOM     16  C   UNL A   1      48.085  26.420  26.542  1.00  0.00     0.160 C 
BRANCH  16  17
ATOM     17  C   UNL A   1      49.563  26.150  26.388  1.00  0.00     0.025 A 
ATOM     18  C   UNL A   1      50.372  26.337  25.278  1.00  0.00     0.036 A 
ATOM     19  S   UNL A   1      50.441  25.444  27.682  1.00  0.00    -0.146 S 
ATOM     20  C   UNL A   1      51.700  25.848  25.480  1.00  0.00     0.063 A 
ATOM     21  C   UNL A   1      51.869  25.332  26.746  1.00  0.00     0.084 A 
BRANCH  20  22
ATOM     22  C   UNL A   1      52.756  25.865  24.507  1.00  0.00     0.100 C 
ATOM     23  N   UNL A   1      53.602  25.900  23.717  1.00  0.00    -0.192 NA
ENDBRANCH  20  22
ENDBRANCH  16  17
ENDBRANCH  14  16
ENDBRANCH   9  14
ENDBRANCH   3   6
ENDBRANCH   1   2
BRANCH   1  24
ATOM     24  C   UNL A   1      41.802  21.057  26.325  1.00  0.00     0.042 C 
BRANCH  24  25
ATOM     25  C   UNL A   1      40.647  21.543  27.191  1.00  0.00     0.118 C 
BRANCH  25  26
ATOM     26  N   UNL A   1      39.498  21.918  26.378  1.00  0.00    -0.352 N 
ATOM     27  C   UNL A   1      38.811  23.103  26.315  1.00  0.00     0.251 C 
ATOM     28  H   UNL A   1      39.163  21.211  25.781  1.00  0.00     0.163 HD
ATOM     29  O   UNL A   1      37.704  23.123  25.785  1.00  0.00    -0.269 OA
BRANCH  27  30
ATOM     30  C   UNL A   1      39.390  24.334  26.892  1.00  0.00     0.039 A 
ATOM     31  C   UNL A   1      40.081  25.211  26.053  1.00  0.00     0.014 A 
ATOM     32  C   UNL A   1      39.282  24.609  28.258  1.00  0.00     0.014 A 
ATOM     33  C   UNL A   1      40.609  26.393  26.575  1.00  0.00     0.010 A 
ATOM     34  C   UNL A   1      39.732  25.827  28.758  1.00  0.00     0.010 A 
ATOM     35  C   UNL A   1      40.404  26.730  27.923  1.00  0.00    -0.014 A 
BRANCH  35  36
ATOM     36  C   UNL A   1      40.878  28.027  28.471  1.00  0.00     0.031 A 
ATOM     37  C   UNL A   1      39.893  29.021  29.024  1.00  0.00     0.074 A 
ATOM     38  C   UNL A   1      42.191  28.327  28.417  1.00  0.00     0.049 A 
ATOM     39  N   UNL A   1      40.108  30.225  29.487  1.00  0.00    -0.248 NA
ATOM     40  C   UNL A   1      38.478  28.618  29.037  1.00  0.00     0.031 C 
ATOM     41  C   UNL A   1      43.234  27.450  27.877  1.00  0.00     0.029 A 
ATOM     42  N   UNL A   1      42.877  29.446  28.816  1.00  0.00    -0.354 N 
ATOM     43  C   UNL A   1      38.859  30.729  29.833  1.00  0.00     0.074 A 
ATOM     44  C   UNL A   1      37.887  29.719  29.474  1.00  0.00     0.031 C 
ATOM     45  C   UNL A   1      44.427  28.050  28.013  1.00  0.00     0.029 A 
ATOM     46  C   UNL A   1      44.232  29.377  28.585  1.00  0.00     0.049 A 
ATOM     47  H   UNL A   1      42.440  30.226  29.227  1.00  0.00     0.167 HD
ATOM     48  C   UNL A   1      38.557  31.916  30.413  1.00  0.00     0.034 A 
ATOM     49  C   UNL A   1      45.205  30.287  28.793  1.00  0.00     0.034 A 
ATOM     50  C   UNL A   1      39.544  32.907  30.766  1.00  0.00     0.049 A 
ATOM     51  C   UNL A   1      44.831  31.625  29.382  1.00  0.00     0.074 A 
ATOM     52  C   UNL A   1      39.353  34.118  31.409  1.00  0.00     0.029 A 
ATOM     53  N   UNL A   1      40.902  32.815  30.489  1.00  0.00    -0.354 N 
ATOM     54  N   UNL A   1      43.650  32.061  29.759  1.00  0.00    -0.248 NA
ATOM     55  C   UNL A   1      45.919  32.589  29.583  1.00  0.00     0.031 C 
ATOM     56  C   UNL A   1      40.572  34.799  31.430  1.00  0.00     0.029 A 
ATOM     57  C   UNL A   1      41.549  33.971  30.902  1.00  0.00     0.049 A 
ATOM     58  H   UNL A   1      41.341  32.045  30.062  1.00  0.00     0.167 HD
ATOM     59  C   UNL A   1      43.865  33.336  30.276  1.00  0.00     0.074 A 
ATOM     60  C   UNL A   1      45.288  33.589  30.177  1.00  0.00     0.031 C 
ATOM     61  C   UNL A   1      42.969  34.215  30.791  1.00  0.00     0.034 A 
BRANCH  48  62
ATOM     62  C   UNL A   1      37.100  32.226  30.664  1.00  0.00     0.023 A 
ATOM     63  C   UNL A   1      36.263  32.737  29.658  1.00  0.00     0.031 A 
ATOM     64  C   UNL A   1      36.540  32.009  31.936  1.00  0.00     0.131 A 
ATOM     65  C   UNL A   1      34.934  33.075  29.956  1.00  0.00     0.055 A 
ATOM     66  C   UNL A   1      35.194  32.263  32.203  1.00  0.00     0.041 A 
ATOM     67  F   UNL A   1      37.295  31.549  32.946  1.00  0.00    -0.206 F 
ATOM     68  C   UNL A   1      34.385  32.813  31.214  1.00  0.00     0.022 A 
BRANCH  65  69
ATOM     69  S   UNL A   1      33.979  34.001  28.724  1.00  0.00     0.124 S 
ATOM     70  O   UNL A   1      32.919  34.579  29.548  1.00  0.00    -0.237 OA
ATOM     71  O   UNL A   1      34.963  34.940  28.201  1.00  0.00    -0.237 OA
ATOM     72  O   UNL A   1      33.536  32.971  27.788  1.00  0.00    -0.744 OA
ENDBRANCH  65  69
ENDBRANCH  48  62
BRANCH  49  73
ATOM     73  C   UNL A   1      46.620  29.989  28.423  1.00  0.00     0.023 A 
ATOM     74  C   UNL A   1      47.475  29.329  29.319  1.00  0.00     0.031 A 
ATOM     75  C   UNL A   1      47.160  30.419  27.197  1.00  0.00     0.131 A 
ATOM     76  C   UNL A   1      48.835  29.178  29.005  1.00  0.00     0.055 A 
ATOM     77  C   UNL A   1      48.496  30.200  26.859  1.00  0.00     0.041 A 
ATOM     78  F   UNL A   1      46.389  31.058  26.301  1.00  0.00    -0.206 F 
ATOM     79  C   UNL A   1      49.347  29.592  27.774  1.00  0.00     0.022 A 
BRANCH  76  80
ATOM     80  S   UNL A   1      49.953  28.550  30.289  1.00  0.00     0.124 S 
ATOM     81  O   UNL A   1      49.847  29.590  31.305  1.00  0.00    -0.237 OA
ATOM     82  O   UNL A   1      49.345  27.265  30.618  1.00  0.00    -0.237 OA
ATOM     83  O   UNL A   1      51.243  28.472  29.606  1.00  0.00    -0.744 OA
ENDBRANCH  76  80
ENDBRANCH  49  73
BRANCH  61  84
ATOM     84  C   UNL A   1      43.510  35.515  31.340  1.00  0.00     0.023 A 
ATOM     85  C   UNL A   1      43.833  35.673  32.699  1.00  0.00     0.031 A 
ATOM     86  C   UNL A   1      43.703  36.615  30.484  1.00  0.00     0.131 A 
ATOM     87  C   UNL A   1      44.276  36.919  33.171  1.00  0.00     0.055 A 
ATOM     88  C   UNL A   1      44.217  37.827  30.945  1.00  0.00     0.041 A 
ATOM     89  F   UNL A   1      43.402  36.526  29.177  1.00  0.00    -0.206 F 
ATOM     90  C   UNL A   1      44.493  37.989  32.299  1.00  0.00     0.022 A 
BRANCH  87  91
ATOM     91  S   UNL A   1      44.457  37.155  34.959  1.00  0.00     0.124 S 
ATOM     92  O   UNL A   1      43.243  36.529  35.472  1.00  0.00    -0.237 OA
ATOM     93  O   UNL A   1      45.705  36.455  35.242  1.00  0.00    -0.237 OA
ATOM     94  O   UNL A   1      44.515  38.609  35.108  1.00  0.00    -0.744 OA
ENDBRANCH  87  91
ENDBRANCH  61  84
ENDBRANCH  35  36
ENDBRANCH  27  30
ENDBRANCH  25  26
ENDBRANCH  24  25
ENDBRANCH   1  24
TORSDOF 18
ENDMDL
MODEL 3
REMARK VINA RESULT:     -10.4      5.118     14.329
REMARK SMILES COc1ccc(C(=O)NCCCNC(=O)c2ccc(-c3c4nc(c(-c5cc(S(=O)(=O)[O-])ccc5F)c5ccc([nH]5)c(-c5cc(S(=O)(=O)[O-])ccc5F)c5nc(c(-c6cc(S(=O)(=O)[O-])ccc6F)c6ccc3[nH]6)C=C5)C=C4)cc2)cc1NCc1cc(C#N)cs1
REMARK SMILES IDX 10 1 9 2 7 3 8 4 6 6 3 7 4 8 80 9 5 10 79 11 2 12 1 13 81 14
REMARK SMILES IDX 82 16 83 17 84 18 89 19 85 20 88 21 86 22 87 23 11 24 12 25
REMARK SMILES IDX 13 26 14 27 15 29 16 30 17 31 78 32 18 33 77 34 19 35 20 36
REMARK SMILES IDX 21 37 71 38 22 39 76 40 70 41 72 42 23 43 75 44 69 45 68 46
REMARK SMILES IDX 24 48 56 49 36 50 55 51 37 52 40 53 54 54 73 55 38 56 39 57
REMARK SMILES IDX 53 59 74 60 41 61 25 62 26 63 34 64 27 65 33 66 35 67 32 68
REMARK SMILES IDX 28 69 29 70 30 71 31 72 57 73 58 74 66 75 59 76 65 77 67 78
REMARK SMILES IDX 64 79 60 80 61 81 62 82 63 83 42 84 43 85 51 86 44 87 50 88
REMARK SMILES IDX 52 89 49 90 45 91 46 92 47 93 48 94
REMARK H PARENT 9 5 81 15 13 28 72 47 40 58
REMARK Flexibility Score: inf
ROOT
ATOM      1  C   UNL A   1      45.698  22.281  35.918  1.00  0.00     0.118 C 
ENDROOT
BRANCH   1   2
ATOM      2  N   UNL A   1      45.439  20.937  35.427  1.00  0.00    -0.352 N 
ATOM      3  C   UNL A   1      45.827  19.697  35.879  1.00  0.00     0.251 C 
ATOM      4  O   UNL A   1      45.381  18.708  35.298  1.00  0.00    -0.269 OA
ATOM      5  H   UNL A   1      44.881  20.909  34.617  1.00  0.00     0.163 HD
BRANCH   3   6
ATOM      6  C   UNL A   1      46.707  19.509  37.067  1.00  0.00     0.042 A 
ATOM      7  C   UNL A   1      48.439  19.074  39.221  1.00  0.00     0.142 A 
ATOM      8  C   UNL A   1      48.885  19.763  38.085  1.00  0.00     0.049 A 
ATOM      9  C   UNL A   1      47.111  18.627  39.324  1.00  0.00     0.078 A 
ATOM     10  C   UNL A   1      48.030  19.950  36.996  1.00  0.00     0.018 A 
ATOM     11  C   UNL A   1      46.261  18.935  38.259  1.00  0.00     0.043 A 
BRANCH   7  12
ATOM     12  O   UNL A   1      49.326  18.982  40.267  1.00  0.00    -0.495 OA
ATOM     13  C   UNL A   1      50.538  18.329  39.895  1.00  0.00     0.278 C 
ENDBRANCH   7  12
BRANCH   9  14
ATOM     14  N   UNL A   1      46.663  17.891  40.406  1.00  0.00    -0.377 N 
ATOM     15  H   UNL A   1      47.153  17.063  40.617  1.00  0.00     0.161 HD
BRANCH  14  16
ATOM     16  C   UNL A   1      45.532  18.226  41.262  1.00  0.00     0.160 C 
BRANCH  16  17
ATOM     17  C   UNL A   1      44.541  17.113  41.503  1.00  0.00     0.025 A 
ATOM     18  C   UNL A   1      43.938  16.267  40.585  1.00  0.00     0.036 A 
ATOM     19  S   UNL A   1      43.953  16.823  43.090  1.00  0.00    -0.146 S 
ATOM     20  C   UNL A   1      42.957  15.418  41.185  1.00  0.00     0.063 A 
ATOM     21  C   UNL A   1      42.862  15.624  42.543  1.00  0.00     0.084 A 
BRANCH  20  22
ATOM     22  C   UNL A   1      42.141  14.462  40.491  1.00  0.00     0.100 C 
ATOM     23  N   UNL A   1      41.464  13.703  39.936  1.00  0.00    -0.192 NA
ENDBRANCH  20  22
ENDBRANCH  16  17
ENDBRANCH  14  16
ENDBRANCH   9  14
ENDBRANCH   3   6
ENDBRANCH   1   2
BRANCH   1  24
ATOM     24  C   UNL A   1      45.809  23.281  34.766  1.00  0.00     0.042 C 
BRANCH  24  25
ATOM     25  C   UNL A   1      47.169  23.965  34.710  1.00  0.00     0.118 C 
BRANCH  25  26
ATOM     26  N   UNL A   1      47.449  24.685  35.946  1.00  0.00    -0.352 N 
ATOM     27  C   UNL A   1      47.007  25.911  36.371  1.00  0.00     0.251 C 
ATOM     28  H   UNL A   1      48.049  24.219  36.571  1.00  0.00     0.163 HD
ATOM     29  O   UNL A   1      47.584  26.462  37.304  1.00  0.00    -0.269 OA
BRANCH  27  30
ATOM     30  C   UNL A   1      45.860  26.565  35.705  1.00  0.00     0.039 A 
ATOM     31  C   UNL A   1      46.105  27.610  34.812  1.00  0.00     0.014 A 
ATOM     32  C   UNL A   1      44.548  26.170  35.981  1.00  0.00     0.014 A 
ATOM     33  C   UNL A   1      45.036  28.218  34.153  1.00  0.00     0.010 A 
ATOM     34  C   UNL A   1      43.493  26.717  35.258  1.00  0.00     0.010 A 
ATOM     35  C   UNL A   1      43.725  27.750  34.339  1.00  0.00    -0.014 A 
BRANCH  35  36
ATOM     36  C   UNL A   1      42.588  28.324  33.573  1.00  0.00     0.031 A 
ATOM     37  C   UNL A   1      41.602  29.236  34.251  1.00  0.00     0.074 A 
ATOM     38  C   UNL A   1      42.419  27.977  32.282  1.00  0.00     0.049 A 
ATOM     39  N   UNL A   1      40.516  29.782  33.768  1.00  0.00    -0.248 NA
ATOM     40  C   UNL A   1      41.856  29.555  35.665  1.00  0.00     0.031 C 
ATOM     41  C   UNL A   1      43.299  27.080  31.528  1.00  0.00     0.029 A 
ATOM     42  N   UNL A   1      41.455  28.331  31.373  1.00  0.00    -0.354 N 
ATOM     43  C   UNL A   1      39.951  30.497  34.818  1.00  0.00     0.074 A 
ATOM     44  C   UNL A   1      40.785  30.269  35.978  1.00  0.00     0.031 C 
ATOM     45  C   UNL A   1      42.854  26.984  30.265  1.00  0.00     0.029 A 
ATOM     46  C   UNL A   1      41.624  27.756  30.133  1.00  0.00     0.049 A 
ATOM     47  H   UNL A   1      40.710  28.938  31.587  1.00  0.00     0.167 HD
ATOM     48  C   UNL A   1      38.848  31.285  34.806  1.00  0.00     0.034 A 
ATOM     49  C   UNL A   1      40.862  27.826  29.023  1.00  0.00     0.034 A 
ATOM     50  C   UNL A   1      38.033  31.502  33.636  1.00  0.00     0.049 A 
ATOM     51  C   UNL A   1      39.606  28.661  29.058  1.00  0.00     0.074 A 
ATOM     52  C   UNL A   1      36.928  32.324  33.500  1.00  0.00     0.029 A 
ATOM     53  N   UNL A   1      38.216  30.878  32.409  1.00  0.00    -0.354 N 
ATOM     54  N   UNL A   1      39.118  29.379  30.043  1.00  0.00    -0.248 NA
ATOM     55  C   UNL A   1      38.802  28.702  27.830  1.00  0.00     0.031 C 
ATOM     56  C   UNL A   1      36.386  32.123  32.228  1.00  0.00     0.029 A 
ATOM     57  C   UNL A   1      37.214  31.260  31.529  1.00  0.00     0.049 A 
ATOM     58  H   UNL A   1      38.948  30.257  32.195  1.00  0.00     0.167 HD
ATOM     59  C   UNL A   1      37.971  29.987  29.538  1.00  0.00     0.074 A 
ATOM     60  C   UNL A   1      37.852  29.563  28.158  1.00  0.00     0.031 C 
ATOM     61  C   UNL A   1      37.100  30.824  30.156  1.00  0.00     0.034 A 
BRANCH  48  62
ATOM     62  C   UNL A   1      38.435  31.938  36.105  1.00  0.00     0.023 A 
ATOM     63  C   UNL A   1      37.790  31.221  37.127  1.00  0.00     0.031 A 
ATOM     64  C   UNL A   1      38.691  33.304  36.322  1.00  0.00     0.131 A 
ATOM     65  C   UNL A   1      37.364  31.885  38.287  1.00  0.00     0.055 A 
ATOM     66  C   UNL A   1      38.345  33.939  37.516  1.00  0.00     0.041 A 
ATOM     67  F   UNL A   1      39.279  34.049  35.373  1.00  0.00    -0.206 F 
ATOM     68  C   UNL A   1      37.664  33.232  38.502  1.00  0.00     0.022 A 
BRANCH  65  69
ATOM     69  S   UNL A   1      36.280  31.002  39.442  1.00  0.00     0.124 S 
ATOM     70  O   UNL A   1      35.117  31.885  39.488  1.00  0.00    -0.237 OA
ATOM     71  O   UNL A   1      36.083  29.721  38.774  1.00  0.00    -0.237 OA
ATOM     72  O   UNL A   1      37.062  30.951  40.675  1.00  0.00    -0.744 OA
ENDBRANCH  65  69
ENDBRANCH  48  62
BRANCH  49  73
ATOM     73  C   UNL A   1      41.240  27.072  27.792  1.00  0.00     0.023 A 
ATOM     74  C   UNL A   1      41.266  25.668  27.784  1.00  0.00     0.031 A 
ATOM     75  C   UNL A   1      41.647  27.741  26.623  1.00  0.00     0.131 A 
ATOM     76  C   UNL A   1      41.752  24.983  26.660  1.00  0.00     0.055 A 
ATOM     77  C   UNL A   1      42.060  27.053  25.481  1.00  0.00     0.041 A 
ATOM     78  F   UNL A   1      41.646  29.084  26.572  1.00  0.00    -0.206 F 
ATOM     79  C   UNL A   1      42.131  25.665  25.502  1.00  0.00     0.022 A 
BRANCH  76  80
ATOM     80  S   UNL A   1      42.005  23.191  26.783  1.00  0.00     0.124 S 
ATOM     81  O   UNL A   1      40.857  22.787  27.585  1.00  0.00    -0.237 OA
ATOM     82  O   UNL A   1      41.986  22.786  25.382  1.00  0.00    -0.237 OA
ATOM     83  O   UNL A   1      43.302  23.077  27.447  1.00  0.00    -0.744 OA
ENDBRANCH  76  80
ENDBRANCH  49  73
BRANCH  61  84
ATOM     84  C   UNL A   1      35.968  31.383  29.325  1.00  0.00     0.023 A 
ATOM     85  C   UNL A   1      35.620  32.743  29.359  1.00  0.00     0.031 A 
ATOM     86  C   UNL A   1      35.225  30.532  28.487  1.00  0.00     0.131 A 
ATOM     87  C   UNL A   1      34.522  33.202  28.614  1.00  0.00     0.055 A 
ATOM     88  C   UNL A   1      34.183  31.008  27.689  1.00  0.00     0.041 A 
ATOM     89  F   UNL A   1      35.505  29.219  28.420  1.00  0.00    -0.206 F 
ATOM     90  C   UNL A   1      33.817  32.348  27.762  1.00  0.00     0.022 A 
BRANCH  87  91
ATOM     91  S   UNL A   1      33.955  34.906  28.861  1.00  0.00     0.124 S 
ATOM     92  O   UNL A   1      32.529  34.795  28.575  1.00  0.00    -0.237 OA
ATOM     93  O   UNL A   1      34.308  35.154  30.255  1.00  0.00    -0.237 OA
ATOM     94  O   UNL A   1      34.727  35.670  27.881  1.00  0.00    -0.744 OA
ENDBRANCH  87  91
ENDBRANCH  61  84
ENDBRANCH  35  36
ENDBRANCH  27  30
ENDBRANCH  25  26
ENDBRANCH  24  25
ENDBRANCH   1  24
TORSDOF 18
ENDMDL
