MODEL 1
REMARK VINA RESULT:     -13.3      0.000      0.000
REMARK SMILES Cc1cnn(C2(C(=O)NCCCNC(=O)c3ccc(-c4c5nc(c(-c6cc(S(=O)(=O)[O-])ccc6F)c6ccc([nH]6)c(-c6cc(S(=O)(=O)[O-])ccc6F)c6nc(c(-c7cc(S(=O)(=O)[O-])ccc7F)c7ccc4[nH]7)C=C6)C=C5)cc3)CCN(C(=O)c3cc4ccccc4[nH]3)CC2)c1
REMARK SMILES IDX 12 1 11 2 10 3 9 4 7 5 8 6 6 8 79 9 94 10 80 11 93 12 81 13
REMARK SMILES IDX 82 14 83 15 5 16 1 17 2 18 3 19 95 20 4 21 84 22 85 23 92 24
REMARK SMILES IDX 86 25 91 26 87 28 90 29 88 30 89 31 13 32 14 33 15 35 16 36
REMARK SMILES IDX 17 37 78 38 18 39 77 40 19 41 20 42 21 43 71 44 22 45 76 46
REMARK SMILES IDX 70 47 72 48 23 49 75 50 69 51 68 52 24 54 56 55 36 56 55 57
REMARK SMILES IDX 37 58 40 59 54 60 73 61 38 62 39 63 53 65 74 66 41 67 25 68
REMARK SMILES IDX 26 69 34 70 27 71 33 72 35 73 32 74 28 75 29 76 30 77 31 78
REMARK SMILES IDX 57 79 58 80 66 81 59 82 65 83 67 84 64 85 60 86 61 87 62 88
REMARK SMILES IDX 63 89 42 90 43 91 51 92 44 93 50 94 52 95 49 96 45 97 46 98
REMARK SMILES IDX 47 99 48 100
REMARK H PARENT 9 7 92 27 13 34 72 53 40 64
REMARK Flexibility Score: inf
ROOT
ATOM      1  C   UNL A   1      38.445  24.489  26.535  1.00  0.00     0.118 C 
ENDROOT
BRANCH   1   2
ATOM      2  C   UNL A   1      37.729  23.305  25.919  1.00  0.00     0.042 C 
BRANCH   2   3
ATOM      3  C   UNL A   1      36.338  23.659  25.389  1.00  0.00     0.117 C 
BRANCH   3   4
ATOM      4  N   UNL A   1      35.231  23.154  26.205  1.00  0.00    -0.354 N 
ATOM      5  C   UNL A   1      33.878  23.431  26.236  1.00  0.00     0.248 C 
ATOM      6  O   UNL A   1      33.241  22.711  27.005  1.00  0.00    -0.272 OA
ATOM      7  H   UNL A   1      35.510  22.481  26.867  1.00  0.00     0.163 HD
BRANCH   5   8
ATOM      8  C   UNL A   1      33.267  24.560  25.341  1.00  0.00     0.144 C 
ATOM      9  C   UNL A   1      31.799  24.729  25.814  1.00  0.00     0.062 C 
ATOM     10  C   UNL A   1      34.197  25.792  25.499  1.00  0.00     0.062 C 
ATOM     11  C   UNL A   1      31.250  26.139  25.716  1.00  0.00     0.123 C 
ATOM     12  C   UNL A   1      33.502  27.146  25.459  1.00  0.00     0.123 C 
ATOM     13  N   UNL A   1      32.213  27.138  26.144  1.00  0.00    -0.337 N 
ATOM     14  C   UNL A   1      31.838  28.039  27.141  1.00  0.00     0.270 C 
ATOM     15  O   UNL A   1      30.872  27.833  27.870  1.00  0.00    -0.267 OA
BRANCH   8  16
ATOM     16  N   UNL A   1      33.204  24.270  23.869  1.00  0.00    -0.257 N 
ATOM     17  C   UNL A   1      32.681  25.124  20.345  1.00  0.00     0.048 C 
ATOM     18  C   UNL A   1      32.934  24.537  21.677  1.00  0.00    -0.013 A 
ATOM     19  C   UNL A   1      33.151  23.195  22.037  1.00  0.00     0.138 A 
ATOM     20  C   UNL A   1      33.000  25.206  22.876  1.00  0.00     0.113 A 
ATOM     21  N   UNL A   1      33.319  23.039  23.350  1.00  0.00    -0.180 NA
ENDBRANCH   8  16
BRANCH  14  22
ATOM     22  C   UNL A   1      32.655  29.213  27.320  1.00  0.00     0.105 A 
ATOM     23  C   UNL A   1      32.316  30.555  27.342  1.00  0.00     0.042 A 
ATOM     24  N   UNL A   1      33.999  29.139  27.590  1.00  0.00    -0.351 N 
ATOM     25  C   UNL A   1      33.500  31.308  27.562  1.00  0.00     0.000 A 
ATOM     26  C   UNL A   1      34.548  30.395  27.670  1.00  0.00     0.046 A 
ATOM     27  H   UNL A   1      34.501  28.299  27.709  1.00  0.00     0.167 HD
ATOM     28  C   UNL A   1      33.782  32.682  27.681  1.00  0.00     0.010 A 
ATOM     29  C   UNL A   1      35.878  30.787  27.845  1.00  0.00     0.026 A 
ATOM     30  C   UNL A   1      35.105  33.091  27.878  1.00  0.00     0.001 A 
ATOM     31  C   UNL A   1      36.138  32.157  27.947  1.00  0.00     0.002 A 
ENDBRANCH  14  22
ENDBRANCH   5   8
ENDBRANCH   3   4
ENDBRANCH   2   3
ENDBRANCH   1   2
BRANCH   1  32
ATOM     32  N   UNL A   1      39.767  24.740  25.955  1.00  0.00    -0.352 N 
ATOM     33  C   UNL A   1      40.546  25.875  26.113  1.00  0.00     0.251 C 
ATOM     34  H   UNL A   1      40.142  24.024  25.393  1.00  0.00     0.163 HD
ATOM     35  O   UNL A   1      41.441  26.129  25.310  1.00  0.00    -0.269 OA
BRANCH  33  36
ATOM     36  C   UNL A   1      40.259  26.763  27.255  1.00  0.00     0.039 A 
ATOM     37  C   UNL A   1      39.904  26.273  28.512  1.00  0.00     0.014 A 
ATOM     38  C   UNL A   1      40.436  28.128  27.051  1.00  0.00     0.014 A 
ATOM     39  C   UNL A   1      39.828  27.173  29.576  1.00  0.00     0.010 A 
ATOM     40  C   UNL A   1      40.571  28.966  28.124  1.00  0.00     0.010 A 
ATOM     41  C   UNL A   1      40.197  28.518  29.380  1.00  0.00    -0.014 A 
BRANCH  41  42
ATOM     42  C   UNL A   1      40.302  29.456  30.491  1.00  0.00     0.031 A 
ATOM     43  C   UNL A   1      39.047  30.187  30.781  1.00  0.00     0.074 A 
ATOM     44  C   UNL A   1      41.372  29.552  31.313  1.00  0.00     0.049 A 
ATOM     45  N   UNL A   1      38.745  31.378  30.387  1.00  0.00    -0.248 NA
ATOM     46  C   UNL A   1      37.924  29.465  31.396  1.00  0.00     0.031 C 
ATOM     47  C   UNL A   1      42.581  28.721  31.356  1.00  0.00     0.029 A 
ATOM     48  N   UNL A   1      41.565  30.406  32.355  1.00  0.00    -0.354 N 
ATOM     49  C   UNL A   1      37.510  31.664  30.951  1.00  0.00     0.074 A 
ATOM     50  C   UNL A   1      36.962  30.391  31.340  1.00  0.00     0.031 C 
ATOM     51  C   UNL A   1      43.277  28.978  32.488  1.00  0.00     0.029 A 
ATOM     52  C   UNL A   1      42.672  30.118  33.152  1.00  0.00     0.049 A 
ATOM     53  H   UNL A   1      40.970  31.169  32.533  1.00  0.00     0.167 HD
ATOM     54  C   UNL A   1      37.183  32.946  31.280  1.00  0.00     0.034 A 
ATOM     55  C   UNL A   1      43.091  30.789  34.259  1.00  0.00     0.034 A 
ATOM     56  C   UNL A   1      38.128  33.877  30.691  1.00  0.00     0.049 A 
ATOM     57  C   UNL A   1      42.549  32.165  34.137  1.00  0.00     0.074 A 
ATOM     58  C   UNL A   1      38.533  34.164  29.400  1.00  0.00     0.029 A 
ATOM     59  N   UNL A   1      39.121  34.380  31.505  1.00  0.00    -0.354 N 
ATOM     60  N   UNL A   1      42.916  32.990  33.195  1.00  0.00    -0.248 NA
ATOM     61  C   UNL A   1      41.251  32.446  34.733  1.00  0.00     0.031 C 
ATOM     62  C   UNL A   1      39.946  34.348  29.492  1.00  0.00     0.029 A 
ATOM     63  C   UNL A   1      40.316  34.262  30.837  1.00  0.00     0.049 A 
ATOM     64  H   UNL A   1      38.996  34.757  32.407  1.00  0.00     0.167 HD
ATOM     65  C   UNL A   1      41.743  33.594  32.771  1.00  0.00     0.074 A 
ATOM     66  C   UNL A   1      40.770  33.299  33.822  1.00  0.00     0.031 C 
ATOM     67  C   UNL A   1      41.597  34.034  31.484  1.00  0.00     0.034 A 
BRANCH  54  68
ATOM     68  C   UNL A   1      36.286  33.355  32.427  1.00  0.00     0.023 A 
ATOM     69  C   UNL A   1      35.140  34.105  32.097  1.00  0.00     0.031 A 
ATOM     70  C   UNL A   1      36.616  33.318  33.800  1.00  0.00     0.131 A 
ATOM     71  C   UNL A   1      34.467  34.867  33.066  1.00  0.00     0.055 A 
ATOM     72  C   UNL A   1      35.901  34.026  34.773  1.00  0.00     0.041 A 
ATOM     73  F   UNL A   1      37.687  32.678  34.276  1.00  0.00    -0.206 F 
ATOM     74  C   UNL A   1      34.843  34.837  34.404  1.00  0.00     0.022 A 
BRANCH  71  75
ATOM     75  S   UNL A   1      33.211  36.045  32.504  1.00  0.00     0.124 S 
ATOM     76  O   UNL A   1      33.319  37.090  33.515  1.00  0.00    -0.237 OA
ATOM     77  O   UNL A   1      33.696  36.385  31.170  1.00  0.00    -0.237 OA
ATOM     78  O   UNL A   1      31.978  35.264  32.539  1.00  0.00    -0.744 OA
ENDBRANCH  71  75
ENDBRANCH  54  68
BRANCH  55  79
ATOM     79  C   UNL A   1      43.614  30.217  35.531  1.00  0.00     0.023 A 
ATOM     80  C   UNL A   1      43.280  28.925  35.997  1.00  0.00     0.031 A 
ATOM     81  C   UNL A   1      44.686  30.867  36.184  1.00  0.00     0.131 A 
ATOM     82  C   UNL A   1      44.012  28.337  37.059  1.00  0.00     0.055 A 
ATOM     83  C   UNL A   1      45.406  30.281  37.226  1.00  0.00     0.041 A 
ATOM     84  F   UNL A   1      45.126  32.064  35.765  1.00  0.00    -0.206 F 
ATOM     85  C   UNL A   1      45.079  29.006  37.663  1.00  0.00     0.022 A 
BRANCH  82  86
ATOM     86  S   UNL A   1      43.639  26.641  37.626  1.00  0.00     0.124 S 
ATOM     87  O   UNL A   1      42.190  26.576  37.486  1.00  0.00    -0.237 OA
ATOM     88  O   UNL A   1      44.418  25.824  36.704  1.00  0.00    -0.237 OA
ATOM     89  O   UNL A   1      44.121  26.628  39.009  1.00  0.00    -0.744 OA
ENDBRANCH  82  86
ENDBRANCH  55  79
BRANCH  67  90
ATOM     90  C   UNL A   1      42.837  34.123  30.611  1.00  0.00     0.023 A 
ATOM     91  C   UNL A   1      43.271  33.134  29.696  1.00  0.00     0.031 A 
ATOM     92  C   UNL A   1      43.553  35.333  30.642  1.00  0.00     0.131 A 
ATOM     93  C   UNL A   1      44.388  33.377  28.869  1.00  0.00     0.055 A 
ATOM     94  C   UNL A   1      44.641  35.579  29.807  1.00  0.00     0.041 A 
ATOM     95  F   UNL A   1      43.181  36.322  31.473  1.00  0.00    -0.206 F 
ATOM     96  C   UNL A   1      45.067  34.599  28.920  1.00  0.00     0.022 A 
BRANCH  93  97
ATOM     97  S   UNL A   1      44.999  32.101  27.715  1.00  0.00     0.124 S 
ATOM     98  O   UNL A   1      45.199  32.834  26.471  1.00  0.00    -0.237 OA
ATOM     99  O   UNL A   1      46.210  31.626  28.379  1.00  0.00    -0.237 OA
ATOM    100  O   UNL A   1      43.908  31.125  27.677  1.00  0.00    -0.744 OA
ENDBRANCH  93  97
ENDBRANCH  67  90
ENDBRANCH  41  42
ENDBRANCH  33  36
ENDBRANCH   1  32
TORSDOF 15
ENDMDL
MODEL 2
REMARK VINA RESULT:     -13.1      3.702      8.580
REMARK SMILES Cc1cnn(C2(C(=O)NCCCNC(=O)c3ccc(-c4c5nc(c(-c6cc(S(=O)(=O)[O-])ccc6F)c6ccc([nH]6)c(-c6cc(S(=O)(=O)[O-])ccc6F)c6nc(c(-c7cc(S(=O)(=O)[O-])ccc7F)c7ccc4[nH]7)C=C6)C=C5)cc3)CCN(C(=O)c3cc4ccccc4[nH]3)CC2)c1
REMARK SMILES IDX 12 1 11 2 10 3 9 4 7 5 8 6 6 8 79 9 94 10 80 11 93 12 81 13
REMARK SMILES IDX 82 14 83 15 5 16 1 17 2 18 3 19 95 20 4 21 84 22 85 23 92 24
REMARK SMILES IDX 86 25 91 26 87 28 90 29 88 30 89 31 13 32 14 33 15 35 16 36
REMARK SMILES IDX 17 37 78 38 18 39 77 40 19 41 20 42 21 43 71 44 22 45 76 46
REMARK SMILES IDX 70 47 72 48 23 49 75 50 69 51 68 52 24 54 56 55 36 56 55 57
REMARK SMILES IDX 37 58 40 59 54 60 73 61 38 62 39 63 53 65 74 66 41 67 25 68
REMARK SMILES IDX 26 69 34 70 27 71 33 72 35 73 32 74 28 75 29 76 30 77 31 78
REMARK SMILES IDX 57 79 58 80 66 81 59 82 65 83 67 84 64 85 60 86 61 87 62 88
REMARK SMILES IDX 63 89 42 90 43 91 51 92 44 93 50 94 52 95 49 96 45 97 46 98
REMARK SMILES IDX 47 99 48 100
REMARK H PARENT 9 7 92 27 13 34 72 53 40 64
REMARK Flexibility Score: inf
ROOT
ATOM      1  C   UNL A   1      33.436  29.216  27.304  1.00  0.00     0.118 C 
ENDROOT
BRANCH   1   2
ATOM      2  C   UNL A   1      31.975  28.841  27.445  1.00  0.00     0.042 C 
BRANCH   2   3
ATOM      3  C   UNL A   1      31.440  28.068  26.237  1.00  0.00     0.117 C 
BRANCH   3   4
ATOM      4  N   UNL A   1      30.759  26.815  26.571  1.00  0.00    -0.354 N 
ATOM      5  C   UNL A   1      30.997  25.494  26.243  1.00  0.00     0.248 C 
ATOM      6  O   UNL A   1      30.251  24.698  26.814  1.00  0.00    -0.272 OA
ATOM      7  H   UNL A   1      29.969  26.941  27.146  1.00  0.00     0.163 HD
BRANCH   5   8
ATOM      8  C   UNL A   1      32.136  25.107  25.243  1.00  0.00     0.144 C 
ATOM      9  C   UNL A   1      33.460  25.218  26.044  1.00  0.00     0.062 C 
ATOM     10  C   UNL A   1      31.772  23.704  24.689  1.00  0.00     0.062 C 
ATOM     11  C   UNL A   1      34.541  24.233  25.642  1.00  0.00     0.123 C 
ATOM     12  C   UNL A   1      32.954  22.787  24.401  1.00  0.00     0.123 C 
ATOM     13  N   UNL A   1      34.012  22.902  25.399  1.00  0.00    -0.337 N 
ATOM     14  C   UNL A   1      34.569  21.829  26.095  1.00  0.00     0.270 C 
ATOM     15  O   UNL A   1      35.250  21.993  27.103  1.00  0.00    -0.267 OA
BRANCH   8  16
ATOM     16  N   UNL A   1      32.293  26.000  24.047  1.00  0.00    -0.257 N 
ATOM     17  C   UNL A   1      34.083  28.350  21.880  1.00  0.00     0.048 C 
ATOM     18  C   UNL A   1      33.164  27.432  22.584  1.00  0.00    -0.013 A 
ATOM     19  C   UNL A   1      31.816  27.136  22.315  1.00  0.00     0.138 A 
ATOM     20  C   UNL A   1      33.448  26.666  23.689  1.00  0.00     0.113 A 
ATOM     21  N   UNL A   1      31.299  26.272  23.189  1.00  0.00    -0.180 NA
ENDBRANCH   8  16
BRANCH  14  22
ATOM     22  C   UNL A   1      34.280  20.501  25.613  1.00  0.00     0.105 A 
ATOM     23  C   UNL A   1      34.850  19.768  24.586  1.00  0.00     0.042 A 
ATOM     24  N   UNL A   1      33.358  19.684  26.219  1.00  0.00    -0.351 N 
ATOM     25  C   UNL A   1      34.205  18.504  24.532  1.00  0.00     0.000 A 
ATOM     26  C   UNL A   1      33.242  18.496  25.540  1.00  0.00     0.046 A 
ATOM     27  H   UNL A   1      32.849  19.919  27.030  1.00  0.00     0.167 HD
ATOM     28  C   UNL A   1      34.347  17.364  23.720  1.00  0.00     0.010 A 
ATOM     29  C   UNL A   1      32.377  17.418  25.753  1.00  0.00     0.026 A 
ATOM     30  C   UNL A   1      33.504  16.267  23.933  1.00  0.00     0.001 A 
ATOM     31  C   UNL A   1      32.526  16.301  24.926  1.00  0.00     0.002 A 
ENDBRANCH  14  22
ENDBRANCH   5   8
ENDBRANCH   3   4
ENDBRANCH   2   3
ENDBRANCH   1   2
BRANCH   1  32
ATOM     32  N   UNL A   1      33.714  30.615  27.638  1.00  0.00    -0.352 N 
ATOM     33  C   UNL A   1      34.816  31.107  28.319  1.00  0.00     0.251 C 
ATOM     34  H   UNL A   1      33.047  31.277  27.346  1.00  0.00     0.163 HD
ATOM     35  O   UNL A   1      34.770  32.213  28.855  1.00  0.00    -0.269 OA
BRANCH  33  36
ATOM     36  C   UNL A   1      36.024  30.265  28.391  1.00  0.00     0.039 A 
ATOM     37  C   UNL A   1      36.969  30.226  27.366  1.00  0.00     0.014 A 
ATOM     38  C   UNL A   1      36.231  29.559  29.572  1.00  0.00     0.014 A 
ATOM     39  C   UNL A   1      38.165  29.544  27.594  1.00  0.00     0.010 A 
ATOM     40  C   UNL A   1      37.477  29.080  29.871  1.00  0.00     0.010 A 
ATOM     41  C   UNL A   1      38.426  28.999  28.866  1.00  0.00    -0.014 A 
BRANCH  41  42
ATOM     42  C   UNL A   1      39.725  28.432  29.208  1.00  0.00     0.031 A 
ATOM     43  C   UNL A   1      39.975  28.338  30.666  1.00  0.00     0.074 A 
ATOM     44  C   UNL A   1      40.575  27.873  28.317  1.00  0.00     0.049 A 
ATOM     45  N   UNL A   1      40.649  29.172  31.383  1.00  0.00    -0.248 NA
ATOM     46  C   UNL A   1      39.242  27.337  31.455  1.00  0.00     0.031 C 
ATOM     47  C   UNL A   1      40.377  27.620  26.885  1.00  0.00     0.029 A 
ATOM     48  N   UNL A   1      41.808  27.340  28.541  1.00  0.00    -0.354 N 
ATOM     49  C   UNL A   1      40.669  28.643  32.665  1.00  0.00     0.074 A 
ATOM     50  C   UNL A   1      39.605  27.674  32.696  1.00  0.00     0.031 C 
ATOM     51  C   UNL A   1      41.355  26.808  26.420  1.00  0.00     0.029 A 
ATOM     52  C   UNL A   1      42.349  26.640  27.464  1.00  0.00     0.049 A 
ATOM     53  H   UNL A   1      42.281  27.442  29.398  1.00  0.00     0.167 HD
ATOM     54  C   UNL A   1      41.732  28.869  33.487  1.00  0.00     0.034 A 
ATOM     55  C   UNL A   1      43.547  25.998  27.414  1.00  0.00     0.034 A 
ATOM     56  C   UNL A   1      42.578  29.917  32.946  1.00  0.00     0.049 A 
ATOM     57  C   UNL A   1      44.403  26.640  28.442  1.00  0.00     0.074 A 
ATOM     58  C   UNL A   1      42.384  31.242  32.602  1.00  0.00     0.029 A 
ATOM     59  N   UNL A   1      43.725  29.532  32.283  1.00  0.00    -0.354 N 
ATOM     60  N   UNL A   1      44.787  27.885  28.366  1.00  0.00    -0.248 NA
ATOM     61  C   UNL A   1      44.409  26.073  29.782  1.00  0.00     0.031 C 
ATOM     62  C   UNL A   1      43.106  31.414  31.383  1.00  0.00     0.029 A 
ATOM     63  C   UNL A   1      43.780  30.223  31.097  1.00  0.00     0.049 A 
ATOM     64  H   UNL A   1      44.388  28.878  32.605  1.00  0.00     0.167 HD
ATOM     65  C   UNL A   1      44.644  28.383  29.651  1.00  0.00     0.074 A 
ATOM     66  C   UNL A   1      44.510  27.198  30.498  1.00  0.00     0.031 C 
ATOM     67  C   UNL A   1      44.368  29.704  29.873  1.00  0.00     0.034 A 
BRANCH  54  68
ATOM     68  C   UNL A   1      42.240  27.915  34.546  1.00  0.00     0.023 A 
ATOM     69  C   UNL A   1      43.022  26.831  34.098  1.00  0.00     0.031 A 
ATOM     70  C   UNL A   1      41.786  27.830  35.880  1.00  0.00     0.131 A 
ATOM     71  C   UNL A   1      43.207  25.692  34.898  1.00  0.00     0.055 A 
ATOM     72  C   UNL A   1      42.031  26.720  36.697  1.00  0.00     0.041 A 
ATOM     73  F   UNL A   1      41.011  28.758  36.448  1.00  0.00    -0.206 F 
ATOM     74  C   UNL A   1      42.713  25.626  36.196  1.00  0.00     0.022 A 
BRANCH  71  75
ATOM     75  S   UNL A   1      43.945  24.225  34.134  1.00  0.00     0.124 S 
ATOM     76  O   UNL A   1      42.952  23.204  34.447  1.00  0.00    -0.237 OA
ATOM     77  O   UNL A   1      44.036  24.630  32.735  1.00  0.00    -0.237 OA
ATOM     78  O   UNL A   1      45.223  24.090  34.829  1.00  0.00    -0.744 OA
ENDBRANCH  71  75
ENDBRANCH  54  68
BRANCH  55  79
ATOM     79  C   UNL A   1      43.851  24.678  26.793  1.00  0.00     0.023 A 
ATOM     80  C   UNL A   1      43.042  23.533  26.967  1.00  0.00     0.031 A 
ATOM     81  C   UNL A   1      44.836  24.609  25.782  1.00  0.00     0.131 A 
ATOM     82  C   UNL A   1      43.228  22.394  26.142  1.00  0.00     0.055 A 
ATOM     83  C   UNL A   1      45.011  23.487  24.969  1.00  0.00     0.041 A 
ATOM     84  F   UNL A   1      45.603  25.671  25.491  1.00  0.00    -0.206 F 
ATOM     85  C   UNL A   1      44.199  22.376  25.139  1.00  0.00     0.022 A 
BRANCH  82  86
ATOM     86  S   UNL A   1      42.144  20.933  26.307  1.00  0.00     0.124 S 
ATOM     87  O   UNL A   1      42.264  20.612  27.723  1.00  0.00    -0.237 OA
ATOM     88  O   UNL A   1      40.854  21.448  25.864  1.00  0.00    -0.237 OA
ATOM     89  O   UNL A   1      42.751  19.953  25.403  1.00  0.00    -0.744 OA
ENDBRANCH  82  86
ENDBRANCH  55  79
BRANCH  67  90
ATOM     90  C   UNL A   1      44.515  30.673  28.713  1.00  0.00     0.023 A 
ATOM     91  C   UNL A   1      45.696  31.377  28.374  1.00  0.00     0.031 A 
ATOM     92  C   UNL A   1      43.415  30.800  27.846  1.00  0.00     0.131 A 
ATOM     93  C   UNL A   1      45.734  32.176  27.211  1.00  0.00     0.055 A 
ATOM     94  C   UNL A   1      43.464  31.571  26.686  1.00  0.00     0.041 A 
ATOM     95  F   UNL A   1      42.271  30.142  28.098  1.00  0.00    -0.206 F 
ATOM     96  C   UNL A   1      44.623  32.267  26.366  1.00  0.00     0.022 A 
BRANCH  93  97
ATOM     97  S   UNL A   1      47.226  33.133  26.777  1.00  0.00     0.124 S 
ATOM     98  O   UNL A   1      47.462  33.952  27.959  1.00  0.00    -0.237 OA
ATOM     99  O   UNL A   1      48.211  32.086  26.517  1.00  0.00    -0.237 OA
ATOM    100  O   UNL A   1      46.815  33.884  25.589  1.00  0.00    -0.744 OA
ENDBRANCH  93  97
ENDBRANCH  67  90
ENDBRANCH  41  42
ENDBRANCH  33  36
ENDBRANCH   1  32
TORSDOF 15
ENDMDL
MODEL 3
REMARK VINA RESULT:     -13.1      4.165      5.962
REMARK SMILES Cc1cnn(C2(C(=O)NCCCNC(=O)c3ccc(-c4c5nc(c(-c6cc(S(=O)(=O)[O-])ccc6F)c6ccc([nH]6)c(-c6cc(S(=O)(=O)[O-])ccc6F)c6nc(c(-c7cc(S(=O)(=O)[O-])ccc7F)c7ccc4[nH]7)C=C6)C=C5)cc3)CCN(C(=O)c3cc4ccccc4[nH]3)CC2)c1
REMARK SMILES IDX 12 1 11 2 10 3 9 4 7 5 8 6 6 8 79 9 94 10 80 11 93 12 81 13
REMARK SMILES IDX 82 14 83 15 5 16 1 17 2 18 3 19 95 20 4 21 84 22 85 23 92 24
REMARK SMILES IDX 86 25 91 26 87 28 90 29 88 30 89 31 13 32 14 33 15 35 16 36
REMARK SMILES IDX 17 37 78 38 18 39 77 40 19 41 20 42 21 43 71 44 22 45 76 46
REMARK SMILES IDX 70 47 72 48 23 49 75 50 69 51 68 52 24 54 56 55 36 56 55 57
REMARK SMILES IDX 37 58 40 59 54 60 73 61 38 62 39 63 53 65 74 66 41 67 25 68
REMARK SMILES IDX 26 69 34 70 27 71 33 72 35 73 32 74 28 75 29 76 30 77 31 78
REMARK SMILES IDX 57 79 58 80 66 81 59 82 65 83 67 84 64 85 60 86 61 87 62 88
REMARK SMILES IDX 63 89 42 90 43 91 51 92 44 93 50 94 52 95 49 96 45 97 46 98
REMARK SMILES IDX 47 99 48 100
REMARK H PARENT 9 7 92 27 13 34 72 53 40 64
REMARK Flexibility Score: inf
ROOT
ATOM      1  C   UNL A   1      38.470  21.091  25.438  1.00  0.00     0.118 C 
ENDROOT
BRANCH   1   2
ATOM      2  C   UNL A   1      37.084  20.800  24.901  1.00  0.00     0.042 C 
BRANCH   2   3
ATOM      3  C   UNL A   1      36.175  22.032  24.901  1.00  0.00     0.117 C 
BRANCH   3   4
ATOM      4  N   UNL A   1      35.628  22.383  26.213  1.00  0.00    -0.354 N 
ATOM      5  C   UNL A   1      34.340  22.468  26.708  1.00  0.00     0.248 C 
ATOM      6  O   UNL A   1      34.287  22.698  27.916  1.00  0.00    -0.272 OA
ATOM      7  H   UNL A   1      36.319  22.606  26.878  1.00  0.00     0.163 HD
BRANCH   5   8
ATOM      8  C   UNL A   1      33.104  22.266  25.770  1.00  0.00     0.144 C 
ATOM      9  C   UNL A   1      31.869  22.192  26.707  1.00  0.00     0.062 C 
ATOM     10  C   UNL A   1      33.136  23.435  24.750  1.00  0.00     0.062 C 
ATOM     11  C   UNL A   1      30.587  22.757  26.128  1.00  0.00     0.123 C 
ATOM     12  C   UNL A   1      31.774  23.959  24.312  1.00  0.00     0.123 C 
ATOM     13  N   UNL A   1      30.807  23.997  25.404  1.00  0.00    -0.337 N 
ATOM     14  C   UNL A   1      30.063  25.120  25.768  1.00  0.00     0.270 C 
ATOM     15  O   UNL A   1      29.475  25.187  26.843  1.00  0.00    -0.267 OA
BRANCH   8  16
ATOM     16  N   UNL A   1      33.093  21.004  24.959  1.00  0.00    -0.257 N 
ATOM     17  C   UNL A   1      32.170  18.917  22.092  1.00  0.00     0.048 C 
ATOM     18  C   UNL A   1      32.665  19.544  23.335  1.00  0.00    -0.013 A 
ATOM     19  C   UNL A   1      33.356  18.966  24.415  1.00  0.00     0.138 A 
ATOM     20  C   UNL A   1      32.534  20.861  23.706  1.00  0.00     0.113 A 
ATOM     21  N   UNL A   1      33.618  19.845  25.383  1.00  0.00    -0.180 NA
ENDBRANCH   8  16
BRANCH  14  22
ATOM     22  C   UNL A   1      30.040  26.230  24.848  1.00  0.00     0.105 A 
ATOM     23  C   UNL A   1      31.065  27.023  24.362  1.00  0.00     0.042 A 
ATOM     24  N   UNL A   1      28.889  26.638  24.219  1.00  0.00    -0.351 N 
ATOM     25  C   UNL A   1      30.503  27.975  23.470  1.00  0.00     0.000 A 
ATOM     26  C   UNL A   1      29.130  27.739  23.434  1.00  0.00     0.046 A 
ATOM     27  H   UNL A   1      28.012  26.201  24.318  1.00  0.00     0.167 HD
ATOM     28  C   UNL A   1      31.033  29.019  22.688  1.00  0.00     0.010 A 
ATOM     29  C   UNL A   1      28.246  28.523  22.688  1.00  0.00     0.026 A 
ATOM     30  C   UNL A   1      30.164  29.801  21.919  1.00  0.00     0.001 A 
ATOM     31  C   UNL A   1      28.791  29.564  21.930  1.00  0.00     0.002 A 
ENDBRANCH  14  22
ENDBRANCH   5   8
ENDBRANCH   3   4
ENDBRANCH   2   3
ENDBRANCH   1   2
BRANCH   1  32
ATOM     32  N   UNL A   1      39.310  19.897  25.564  1.00  0.00    -0.352 N 
ATOM     33  C   UNL A   1      40.661  19.856  25.869  1.00  0.00     0.251 C 
ATOM     34  H   UNL A   1      38.866  19.031  25.416  1.00  0.00     0.163 HD
ATOM     35  O   UNL A   1      41.329  18.862  25.591  1.00  0.00    -0.269 OA
BRANCH  33  36
ATOM     36  C   UNL A   1      41.265  21.035  26.516  1.00  0.00     0.039 A 
ATOM     37  C   UNL A   1      41.828  22.082  25.787  1.00  0.00     0.014 A 
ATOM     38  C   UNL A   1      41.180  21.105  27.904  1.00  0.00     0.014 A 
ATOM     39  C   UNL A   1      42.212  23.235  26.472  1.00  0.00     0.010 A 
ATOM     40  C   UNL A   1      41.355  22.304  28.539  1.00  0.00     0.010 A 
ATOM     41  C   UNL A   1      41.940  23.352  27.849  1.00  0.00    -0.014 A 
BRANCH  41  42
ATOM     42  C   UNL A   1      42.161  24.597  28.574  1.00  0.00     0.031 A 
ATOM     43  C   UNL A   1      41.126  25.628  28.328  1.00  0.00     0.074 A 
ATOM     44  C   UNL A   1      43.109  24.773  29.523  1.00  0.00     0.049 A 
ATOM     45  N   UNL A   1      41.209  26.615  27.501  1.00  0.00    -0.248 NA
ATOM     46  C   UNL A   1      39.783  25.444  28.896  1.00  0.00     0.031 C 
ATOM     47  C   UNL A   1      44.032  23.789  30.100  1.00  0.00     0.029 A 
ATOM     48  N   UNL A   1      43.399  25.898  30.233  1.00  0.00    -0.354 N 
ATOM     49  C   UNL A   1      40.039  27.344  27.660  1.00  0.00     0.074 A 
ATOM     50  C   UNL A   1      39.123  26.458  28.328  1.00  0.00     0.031 C 
ATOM     51  C   UNL A   1      44.629  24.304  31.199  1.00  0.00     0.029 A 
ATOM     52  C   UNL A   1      44.281  25.710  31.296  1.00  0.00     0.049 A 
ATOM     53  H   UNL A   1      43.016  26.777  30.012  1.00  0.00     0.167 HD
ATOM     54  C   UNL A   1      40.036  28.692  27.460  1.00  0.00     0.034 A 
ATOM     55  C   UNL A   1      44.729  26.647  32.174  1.00  0.00     0.034 A 
ATOM     56  C   UNL A   1      41.263  29.112  26.806  1.00  0.00     0.049 A 
ATOM     57  C   UNL A   1      44.599  27.954  31.484  1.00  0.00     0.074 A 
ATOM     58  C   UNL A   1      41.884  28.796  25.612  1.00  0.00     0.029 A 
ATOM     59  N   UNL A   1      42.248  29.667  27.595  1.00  0.00    -0.354 N 
ATOM     60  N   UNL A   1      45.288  28.264  30.420  1.00  0.00    -0.248 NA
ATOM     61  C   UNL A   1      43.365  28.704  31.660  1.00  0.00     0.031 C 
ATOM     62  C   UNL A   1      43.271  28.703  25.934  1.00  0.00     0.029 A 
ATOM     63  C   UNL A   1      43.438  29.058  27.275  1.00  0.00     0.049 A 
ATOM     64  H   UNL A   1      42.121  30.375  28.268  1.00  0.00     0.167 HD
ATOM     65  C   UNL A   1      44.384  28.892  29.578  1.00  0.00     0.074 A 
ATOM     66  C   UNL A   1      43.247  29.228  30.435  1.00  0.00     0.031 C 
ATOM     67  C   UNL A   1      44.521  28.831  28.218  1.00  0.00     0.034 A 
BRANCH  54  68
ATOM     68  C   UNL A   1      39.151  29.684  28.184  1.00  0.00     0.023 A 
ATOM     69  C   UNL A   1      39.559  30.070  29.476  1.00  0.00     0.031 A 
ATOM     70  C   UNL A   1      37.831  30.038  27.829  1.00  0.00     0.131 A 
ATOM     71  C   UNL A   1      38.652  30.646  30.381  1.00  0.00     0.055 A 
ATOM     72  C   UNL A   1      36.952  30.674  28.713  1.00  0.00     0.041 A 
ATOM     73  F   UNL A   1      37.281  29.720  26.654  1.00  0.00    -0.206 F 
ATOM     74  C   UNL A   1      37.347  30.948  30.010  1.00  0.00     0.022 A 
BRANCH  71  75
ATOM     75  S   UNL A   1      39.165  30.816  32.109  1.00  0.00     0.124 S 
ATOM     76  O   UNL A   1      40.473  31.446  31.964  1.00  0.00    -0.237 OA
ATOM     77  O   UNL A   1      38.102  31.652  32.657  1.00  0.00    -0.237 OA
ATOM     78  O   UNL A   1      39.186  29.437  32.591  1.00  0.00    -0.744 OA
ENDBRANCH  71  75
ENDBRANCH  54  68
BRANCH  55  79
ATOM     79  C   UNL A   1      44.918  26.505  33.645  1.00  0.00     0.023 A 
ATOM     80  C   UNL A   1      43.866  26.636  34.580  1.00  0.00     0.031 A 
ATOM     81  C   UNL A   1      46.131  25.966  34.129  1.00  0.00     0.131 A 
ATOM     82  C   UNL A   1      44.049  26.225  35.924  1.00  0.00     0.055 A 
ATOM     83  C   UNL A   1      46.304  25.558  35.454  1.00  0.00     0.041 A 
ATOM     84  F   UNL A   1      47.162  25.733  33.303  1.00  0.00    -0.206 F 
ATOM     85  C   UNL A   1      45.259  25.676  36.356  1.00  0.00     0.022 A 
BRANCH  82  86
ATOM     86  S   UNL A   1      42.678  26.321  37.127  1.00  0.00     0.124 S 
ATOM     87  O   UNL A   1      42.017  27.564  36.749  1.00  0.00    -0.237 OA
ATOM     88  O   UNL A   1      41.944  25.089  36.866  1.00  0.00    -0.237 OA
ATOM     89  O   UNL A   1      43.361  26.361  38.422  1.00  0.00    -0.744 OA
ENDBRANCH  82  86
ENDBRANCH  55  79
BRANCH  67  90
ATOM     90  C   UNL A   1      45.835  28.322  27.651  1.00  0.00     0.023 A 
ATOM     91  C   UNL A   1      46.158  26.963  27.416  1.00  0.00     0.031 A 
ATOM     92  C   UNL A   1      46.764  29.289  27.230  1.00  0.00     0.131 A 
ATOM     93  C   UNL A   1      47.376  26.624  26.792  1.00  0.00     0.055 A 
ATOM     94  C   UNL A   1      47.957  28.952  26.592  1.00  0.00     0.041 A 
ATOM     95  F   UNL A   1      46.510  30.598  27.403  1.00  0.00    -0.206 F 
ATOM     96  C   UNL A   1      48.270  27.616  26.375  1.00  0.00     0.022 A 
BRANCH  93  97
ATOM     97  S   UNL A   1      47.840  24.880  26.522  1.00  0.00     0.124 S 
ATOM     98  O   UNL A   1      46.946  24.147  27.411  1.00  0.00    -0.237 OA
ATOM     99  O   UNL A   1      47.604  24.706  25.091  1.00  0.00    -0.237 OA
ATOM    100  O   UNL A   1      49.252  24.838  26.911  1.00  0.00    -0.744 OA
ENDBRANCH  93  97
ENDBRANCH  67  90
ENDBRANCH  41  42
ENDBRANCH  33  36
ENDBRANCH   1  32
TORSDOF 15
ENDMDL
