MODEL 1
REMARK VINA RESULT:     -10.3      0.000      0.000
REMARK SMILES C[C@@H](C(=O)NCCCNC(=O)c1ccc(-c2c3nc(c(-c4cc(S(=O)(=O)[O-])ccc4F)c4ccc([nH]4)c(-c4cc(S(=O)(=O)[O-])ccc4F)c4nc(c(-c5cc(S(=O)(=O)[O-])ccc5F)c5ccc2[nH]5)C=C4)C=C3)cc1)c1ccc(-c2ccccc2)cc1
REMARK SMILES IDX 7 1 6 2 5 3 3 4 4 5 2 7 1 8 75 9 76 10 86 11 77 12 85 13
REMARK SMILES IDX 78 14 79 15 80 16 84 17 81 18 83 19 82 20 8 21 9 22 10 23
REMARK SMILES IDX 11 25 12 26 13 27 74 28 14 29 73 30 15 31 16 32 17 33 67 34
REMARK SMILES IDX 18 35 72 36 66 37 68 38 19 39 71 40 65 41 64 42 20 44 52 45
REMARK SMILES IDX 32 46 51 47 33 48 36 49 50 50 69 51 34 52 35 53 49 55 70 56
REMARK SMILES IDX 37 57 21 58 22 59 30 60 23 61 29 62 31 63 28 64 24 65 25 66
REMARK SMILES IDX 26 67 27 68 53 69 54 70 62 71 55 72 61 73 63 74 60 75 56 76
REMARK SMILES IDX 57 77 58 78 59 79 38 80 39 81 47 82 40 83 46 84 48 85 45 86
REMARK SMILES IDX 41 87 42 88 43 89 44 90
REMARK H PARENT 5 6 9 24 68 43 36 54
REMARK Flexibility Score: inf
ROOT
ATOM      1  C   UNL A   1      34.235  35.420  29.045  1.00  0.00     0.042 C 
ENDROOT
BRANCH   1   2
ATOM      2  C   UNL A   1      33.299  35.280  30.243  1.00  0.00     0.117 C 
BRANCH   2   3
ATOM      3  N   UNL A   1      33.768  36.031  31.390  1.00  0.00    -0.356 N 
ATOM      4  C   UNL A   1      34.591  35.678  32.419  1.00  0.00     0.227 C 
ATOM      5  O   UNL A   1      34.781  36.546  33.273  1.00  0.00    -0.274 OA
ATOM      6  H   UNL A   1      33.435  36.956  31.436  1.00  0.00     0.163 HD
BRANCH   4   7
ATOM      7  C   UNL A   1      35.248  34.285  32.450  1.00  0.00     0.105 C 
ATOM      8  C   UNL A   1      34.781  33.445  33.641  1.00  0.00     0.023 C 
BRANCH   7   9
ATOM      9  C   UNL A   1      36.776  34.325  32.462  1.00  0.00    -0.036 A 
ATOM     10  C   UNL A   1      37.518  34.268  31.274  1.00  0.00     0.005 A 
ATOM     11  C   UNL A   1      37.469  34.493  33.669  1.00  0.00     0.005 A 
ATOM     12  C   UNL A   1      38.911  34.337  31.294  1.00  0.00     0.009 A 
ATOM     13  C   UNL A   1      38.868  34.577  33.684  1.00  0.00     0.009 A 
ATOM     14  C   UNL A   1      39.613  34.495  32.497  1.00  0.00    -0.018 A 
BRANCH  14  15
ATOM     15  C   UNL A   1      41.083  34.567  32.499  1.00  0.00    -0.018 A 
ATOM     16  C   UNL A   1      41.847  33.732  31.665  1.00  0.00     0.009 A 
ATOM     17  C   UNL A   1      41.767  35.446  33.353  1.00  0.00     0.009 A 
ATOM     18  C   UNL A   1      43.244  33.764  31.693  1.00  0.00     0.001 A 
ATOM     19  C   UNL A   1      43.164  35.482  33.382  1.00  0.00     0.001 A 
ATOM     20  C   UNL A   1      43.901  34.638  32.554  1.00  0.00     0.000 A 
ENDBRANCH  14  15
ENDBRANCH   7   9
ENDBRANCH   4   7
ENDBRANCH   2   3
ENDBRANCH   1   2
BRANCH   1  21
ATOM     21  C   UNL A   1      34.930  34.127  28.631  1.00  0.00     0.118 C 
BRANCH  21  22
ATOM     22  N   UNL A   1      34.040  33.199  27.950  1.00  0.00    -0.352 N 
ATOM     23  C   UNL A   1      34.240  31.877  27.629  1.00  0.00     0.251 C 
ATOM     24  H   UNL A   1      33.170  33.571  27.680  1.00  0.00     0.163 HD
ATOM     25  O   UNL A   1      33.441  31.302  26.894  1.00  0.00    -0.269 OA
BRANCH  23  26
ATOM     26  C   UNL A   1      35.429  31.163  28.146  1.00  0.00     0.039 A 
ATOM     27  C   UNL A   1      36.666  31.813  28.147  1.00  0.00     0.014 A 
ATOM     28  C   UNL A   1      35.319  29.861  28.637  1.00  0.00     0.014 A 
ATOM     29  C   UNL A   1      37.779  31.186  28.716  1.00  0.00     0.010 A 
ATOM     30  C   UNL A   1      36.410  29.267  29.266  1.00  0.00     0.010 A 
ATOM     31  C   UNL A   1      37.650  29.924  29.317  1.00  0.00    -0.014 A 
BRANCH  31  32
ATOM     32  C   UNL A   1      38.786  29.254  30.000  1.00  0.00     0.031 A 
ATOM     33  C   UNL A   1      39.242  29.754  31.342  1.00  0.00     0.074 A 
ATOM     34  C   UNL A   1      39.479  28.288  29.368  1.00  0.00     0.049 A 
ATOM     35  N   UNL A   1      40.324  29.461  32.017  1.00  0.00    -0.248 NA
ATOM     36  C   UNL A   1      38.379  30.753  31.987  1.00  0.00     0.031 C 
ATOM     37  C   UNL A   1      39.156  27.740  28.050  1.00  0.00     0.029 A 
ATOM     38  N   UNL A   1      40.621  27.620  29.734  1.00  0.00    -0.354 N 
ATOM     39  C   UNL A   1      40.288  30.264  33.153  1.00  0.00     0.074 A 
ATOM     40  C   UNL A   1      39.105  31.093  33.040  1.00  0.00     0.031 C 
ATOM     41  C   UNL A   1      40.084  26.831  27.712  1.00  0.00     0.029 A 
ATOM     42  C   UNL A   1      41.094  26.768  28.764  1.00  0.00     0.049 A 
ATOM     43  H   UNL A   1      41.061  27.740  30.608  1.00  0.00     0.167 HD
ATOM     44  C   UNL A   1      41.153  30.294  34.198  1.00  0.00     0.034 A 
ATOM     45  C   UNL A   1      42.232  26.045  28.708  1.00  0.00     0.034 A 
ATOM     46  C   UNL A   1      42.319  29.450  34.294  1.00  0.00     0.049 A 
ATOM     47  C   UNL A   1      43.193  26.100  29.866  1.00  0.00     0.074 A 
ATOM     48  C   UNL A   1      43.230  29.347  35.330  1.00  0.00     0.029 A 
ATOM     49  N   UNL A   1      42.744  28.568  33.305  1.00  0.00    -0.354 N 
ATOM     50  N   UNL A   1      43.129  26.830  30.955  1.00  0.00    -0.248 NA
ATOM     51  C   UNL A   1      44.373  25.229  29.794  1.00  0.00     0.031 C 
ATOM     52  C   UNL A   1      44.238  28.455  34.945  1.00  0.00     0.029 A 
ATOM     53  C   UNL A   1      43.917  27.942  33.697  1.00  0.00     0.049 A 
ATOM     54  H   UNL A   1      42.280  28.411  32.452  1.00  0.00     0.167 HD
ATOM     55  C   UNL A   1      44.245  26.486  31.710  1.00  0.00     0.074 A 
ATOM     56  C   UNL A   1      44.966  25.483  30.952  1.00  0.00     0.031 C 
ATOM     57  C   UNL A   1      44.631  26.948  32.927  1.00  0.00     0.034 A 
BRANCH  44  58
ATOM     58  C   UNL A   1      40.877  31.301  35.292  1.00  0.00     0.023 A 
ATOM     59  C   UNL A   1      39.738  31.204  36.112  1.00  0.00     0.031 A 
ATOM     60  C   UNL A   1      41.723  32.409  35.473  1.00  0.00     0.131 A 
ATOM     61  C   UNL A   1      39.417  32.250  36.990  1.00  0.00     0.055 A 
ATOM     62  C   UNL A   1      41.449  33.398  36.421  1.00  0.00     0.041 A 
ATOM     63  F   UNL A   1      42.817  32.567  34.712  1.00  0.00    -0.206 F 
ATOM     64  C   UNL A   1      40.277  33.335  37.169  1.00  0.00     0.022 A 
BRANCH  61  65
ATOM     65  S   UNL A   1      37.766  32.263  37.743  1.00  0.00     0.124 S 
ATOM     66  O   UNL A   1      37.015  33.081  36.793  1.00  0.00    -0.237 OA
ATOM     67  O   UNL A   1      37.423  30.846  37.776  1.00  0.00    -0.237 OA
ATOM     68  O   UNL A   1      37.988  32.885  39.047  1.00  0.00    -0.744 OA
ENDBRANCH  61  65
ENDBRANCH  44  58
BRANCH  45  69
ATOM     69  C   UNL A   1      42.534  25.237  27.494  1.00  0.00     0.023 A 
ATOM     70  C   UNL A   1      42.166  23.887  27.407  1.00  0.00     0.031 A 
ATOM     71  C   UNL A   1      43.191  25.817  26.393  1.00  0.00     0.131 A 
ATOM     72  C   UNL A   1      42.478  23.151  26.252  1.00  0.00     0.055 A 
ATOM     73  C   UNL A   1      43.463  25.093  25.231  1.00  0.00     0.041 A 
ATOM     74  F   UNL A   1      43.552  27.110  26.422  1.00  0.00    -0.206 F 
ATOM     75  C   UNL A   1      43.112  23.749  25.159  1.00  0.00     0.022 A 
BRANCH  72  76
ATOM     76  S   UNL A   1      42.075  21.383  26.211  1.00  0.00     0.124 S 
ATOM     77  O   UNL A   1      40.686  21.406  25.766  1.00  0.00    -0.237 OA
ATOM     78  O   UNL A   1      43.049  20.872  25.252  1.00  0.00    -0.237 OA
ATOM     79  O   UNL A   1      42.283  20.955  27.593  1.00  0.00    -0.744 OA
ENDBRANCH  72  76
ENDBRANCH  45  69
BRANCH  57  80
ATOM     80  C   UNL A   1      45.861  26.332  33.543  1.00  0.00     0.023 A 
ATOM     81  C   UNL A   1      45.789  25.226  34.406  1.00  0.00     0.031 A 
ATOM     82  C   UNL A   1      47.131  26.851  33.231  1.00  0.00     0.131 A 
ATOM     83  C   UNL A   1      46.967  24.689  34.950  1.00  0.00     0.055 A 
ATOM     84  C   UNL A   1      48.300  26.284  33.737  1.00  0.00     0.041 A 
ATOM     85  F   UNL A   1      47.254  27.909  32.413  1.00  0.00    -0.206 F 
ATOM     86  C   UNL A   1      48.222  25.201  34.608  1.00  0.00     0.022 A 
BRANCH  83  87
ATOM     87  S   UNL A   1      46.840  23.336  36.152  1.00  0.00     0.124 S 
ATOM     88  O   UNL A   1      45.809  22.496  35.553  1.00  0.00    -0.237 OA
ATOM     89  O   UNL A   1      48.192  22.786  36.150  1.00  0.00    -0.237 OA
ATOM     90  O   UNL A   1      46.449  24.010  37.388  1.00  0.00    -0.744 OA
ENDBRANCH  83  87
ENDBRANCH  57  80
ENDBRANCH  31  32
ENDBRANCH  23  26
ENDBRANCH  21  22
ENDBRANCH   1  21
TORSDOF 15
ENDMDL
MODEL 2
REMARK VINA RESULT:     -10.1      4.329     10.853
REMARK SMILES C[C@@H](C(=O)NCCCNC(=O)c1ccc(-c2c3nc(c(-c4cc(S(=O)(=O)[O-])ccc4F)c4ccc([nH]4)c(-c4cc(S(=O)(=O)[O-])ccc4F)c4nc(c(-c5cc(S(=O)(=O)[O-])ccc5F)c5ccc2[nH]5)C=C4)C=C3)cc1)c1ccc(-c2ccccc2)cc1
REMARK SMILES IDX 7 1 6 2 5 3 3 4 4 5 2 7 1 8 75 9 76 10 86 11 77 12 85 13
REMARK SMILES IDX 78 14 79 15 80 16 84 17 81 18 83 19 82 20 8 21 9 22 10 23
REMARK SMILES IDX 11 25 12 26 13 27 74 28 14 29 73 30 15 31 16 32 17 33 67 34
REMARK SMILES IDX 18 35 72 36 66 37 68 38 19 39 71 40 65 41 64 42 20 44 52 45
REMARK SMILES IDX 32 46 51 47 33 48 36 49 50 50 69 51 34 52 35 53 49 55 70 56
REMARK SMILES IDX 37 57 21 58 22 59 30 60 23 61 29 62 31 63 28 64 24 65 25 66
REMARK SMILES IDX 26 67 27 68 53 69 54 70 62 71 55 72 61 73 63 74 60 75 56 76
REMARK SMILES IDX 57 77 58 78 59 79 38 80 39 81 47 82 40 83 46 84 48 85 45 86
REMARK SMILES IDX 41 87 42 88 43 89 44 90
REMARK H PARENT 5 6 9 24 68 43 36 54
REMARK Flexibility Score: inf
ROOT
ATOM      1  C   UNL A   1      31.438  29.541  25.182  1.00  0.00     0.042 C 
ENDROOT
BRANCH   1   2
ATOM      2  C   UNL A   1      31.968  28.377  24.348  1.00  0.00     0.117 C 
BRANCH   2   3
ATOM      3  N   UNL A   1      32.887  27.545  25.099  1.00  0.00    -0.356 N 
ATOM      4  C   UNL A   1      32.820  26.231  25.459  1.00  0.00     0.227 C 
ATOM      5  O   UNL A   1      33.763  25.813  26.133  1.00  0.00    -0.274 OA
ATOM      6  H   UNL A   1      33.701  28.008  25.403  1.00  0.00     0.163 HD
BRANCH   4   7
ATOM      7  C   UNL A   1      31.640  25.355  24.997  1.00  0.00     0.105 C 
ATOM      8  C   UNL A   1      30.473  25.377  25.987  1.00  0.00     0.023 C 
BRANCH   7   9
ATOM      9  C   UNL A   1      32.020  23.898  24.738  1.00  0.00    -0.036 A 
ATOM     10  C   UNL A   1      31.455  22.853  25.482  1.00  0.00     0.005 A 
ATOM     11  C   UNL A   1      32.896  23.570  23.694  1.00  0.00     0.005 A 
ATOM     12  C   UNL A   1      31.784  21.523  25.217  1.00  0.00     0.009 A 
ATOM     13  C   UNL A   1      33.213  22.232  23.421  1.00  0.00     0.009 A 
ATOM     14  C   UNL A   1      32.667  21.186  24.182  1.00  0.00    -0.018 A 
BRANCH  14  15
ATOM     15  C   UNL A   1      33.003  19.778  23.916  1.00  0.00    -0.018 A 
ATOM     16  C   UNL A   1      34.062  19.148  24.593  1.00  0.00     0.009 A 
ATOM     17  C   UNL A   1      32.298  19.030  22.959  1.00  0.00     0.009 A 
ATOM     18  C   UNL A   1      34.414  17.826  24.314  1.00  0.00     0.001 A 
ATOM     19  C   UNL A   1      32.647  17.706  22.679  1.00  0.00     0.001 A 
ATOM     20  C   UNL A   1      33.707  17.106  23.355  1.00  0.00     0.000 A 
ENDBRANCH  14  15
ENDBRANCH   7   9
ENDBRANCH   4   7
ENDBRANCH   2   3
ENDBRANCH   1   2
BRANCH   1  21
ATOM     21  C   UNL A   1      32.463  30.162  26.126  1.00  0.00     0.118 C 
BRANCH  21  22
ATOM     22  N   UNL A   1      32.171  31.551  26.444  1.00  0.00    -0.352 N 
ATOM     23  C   UNL A   1      32.852  32.418  27.267  1.00  0.00     0.251 C 
ATOM     24  H   UNL A   1      31.373  31.925  26.007  1.00  0.00     0.163 HD
ATOM     25  O   UNL A   1      32.353  33.504  27.551  1.00  0.00    -0.269 OA
BRANCH  23  26
ATOM     26  C   UNL A   1      34.163  32.027  27.829  1.00  0.00     0.039 A 
ATOM     27  C   UNL A   1      35.173  32.987  27.932  1.00  0.00     0.014 A 
ATOM     28  C   UNL A   1      34.391  30.719  28.262  1.00  0.00     0.014 A 
ATOM     29  C   UNL A   1      36.386  32.656  28.545  1.00  0.00     0.010 A 
ATOM     30  C   UNL A   1      35.570  30.410  28.935  1.00  0.00     0.010 A 
ATOM     31  C   UNL A   1      36.578  31.376  29.087  1.00  0.00    -0.014 A 
BRANCH  31  32
ATOM     32  C   UNL A   1      37.820  31.004  29.814  1.00  0.00     0.031 A 
ATOM     33  C   UNL A   1      38.784  30.038  29.185  1.00  0.00     0.074 A 
ATOM     34  C   UNL A   1      38.017  31.430  31.076  1.00  0.00     0.049 A 
ATOM     35  N   UNL A   1      39.809  29.421  29.714  1.00  0.00    -0.248 NA
ATOM     36  C   UNL A   1      38.528  29.691  27.780  1.00  0.00     0.031 C 
ATOM     37  C   UNL A   1      37.136  32.342  31.808  1.00  0.00     0.029 A 
ATOM     38  N   UNL A   1      39.004  31.124  31.980  1.00  0.00    -0.354 N 
ATOM     39  C   UNL A   1      40.303  28.587  28.716  1.00  0.00     0.074 A 
ATOM     40  C   UNL A   1      39.425  28.740  27.573  1.00  0.00     0.031 C 
ATOM     41  C   UNL A   1      37.613  32.511  33.050  1.00  0.00     0.029 A 
ATOM     42  C   UNL A   1      38.803  31.682  33.222  1.00  0.00     0.049 A 
ATOM     43  H   UNL A   1      39.780  30.559  31.762  1.00  0.00     0.167 HD
ATOM     44  C   UNL A   1      41.395  27.781  28.746  1.00  0.00     0.034 A 
ATOM     45  C   UNL A   1      39.477  31.517  34.378  1.00  0.00     0.034 A 
ATOM     46  C   UNL A   1      42.261  27.653  29.893  1.00  0.00     0.049 A 
ATOM     47  C   UNL A   1      40.676  30.607  34.405  1.00  0.00     0.074 A 
ATOM     48  C   UNL A   1      43.427  26.920  30.018  1.00  0.00     0.029 A 
ATOM     49  N   UNL A   1      42.046  28.267  31.122  1.00  0.00    -0.354 N 
ATOM     50  N   UNL A   1      41.160  29.855  33.443  1.00  0.00    -0.248 NA
ATOM     51  C   UNL A   1      41.425  30.528  35.665  1.00  0.00     0.031 C 
ATOM     52  C   UNL A   1      43.882  27.037  31.337  1.00  0.00     0.029 A 
ATOM     53  C   UNL A   1      43.041  27.905  32.016  1.00  0.00     0.049 A 
ATOM     54  H   UNL A   1      41.297  28.872  31.328  1.00  0.00     0.167 HD
ATOM     55  C   UNL A   1      42.287  29.236  33.975  1.00  0.00     0.074 A 
ATOM     56  C   UNL A   1      42.410  29.701  35.342  1.00  0.00     0.031 C 
ATOM     57  C   UNL A   1      43.148  28.372  33.380  1.00  0.00     0.034 A 
BRANCH  44  58
ATOM     58  C   UNL A   1      41.676  26.956  27.511  1.00  0.00     0.023 A 
ATOM     59  C   UNL A   1      41.365  25.585  27.454  1.00  0.00     0.031 A 
ATOM     60  C   UNL A   1      42.326  27.527  26.402  1.00  0.00     0.131 A 
ATOM     61  C   UNL A   1      41.804  24.812  26.369  1.00  0.00     0.055 A 
ATOM     62  C   UNL A   1      42.671  26.770  25.280  1.00  0.00     0.041 A 
ATOM     63  F   UNL A   1      42.664  28.826  26.401  1.00  0.00    -0.206 F 
ATOM     64  C   UNL A   1      42.432  25.398  25.269  1.00  0.00     0.022 A 
BRANCH  61  65
ATOM     65  S   UNL A   1      41.715  23.005  26.509  1.00  0.00     0.124 S 
ATOM     66  O   UNL A   1      42.255  22.582  25.219  1.00  0.00    -0.237 OA
ATOM     67  O   UNL A   1      42.554  22.738  27.672  1.00  0.00    -0.237 OA
ATOM     68  O   UNL A   1      40.289  22.745  26.693  1.00  0.00    -0.744 OA
ENDBRANCH  61  65
ENDBRANCH  44  58
BRANCH  45  69
ATOM     69  C   UNL A   1      39.005  32.205  35.612  1.00  0.00     0.023 A 
ATOM     70  C   UNL A   1      38.295  31.514  36.605  1.00  0.00     0.031 A 
ATOM     71  C   UNL A   1      39.272  33.571  35.818  1.00  0.00     0.131 A 
ATOM     72  C   UNL A   1      37.853  32.196  37.750  1.00  0.00     0.055 A 
ATOM     73  C   UNL A   1      38.866  34.235  36.977  1.00  0.00     0.041 A 
ATOM     74  F   UNL A   1      39.960  34.274  34.904  1.00  0.00    -0.206 F 
ATOM     75  C   UNL A   1      38.145  33.548  37.948  1.00  0.00     0.022 A 
BRANCH  72  76
ATOM     76  S   UNL A   1      36.854  31.297  38.967  1.00  0.00     0.124 S 
ATOM     77  O   UNL A   1      36.757  29.977  38.354  1.00  0.00    -0.237 OA
ATOM     78  O   UNL A   1      37.679  31.390  40.166  1.00  0.00    -0.237 OA
ATOM     79  O   UNL A   1      35.607  32.058  39.012  1.00  0.00    -0.744 OA
ENDBRANCH  72  76
ENDBRANCH  45  69
BRANCH  57  80
ATOM     80  C   UNL A   1      44.337  27.914  34.188  1.00  0.00     0.023 A 
ATOM     81  C   UNL A   1      44.312  26.733  34.947  1.00  0.00     0.031 A 
ATOM     82  C   UNL A   1      45.525  28.667  34.165  1.00  0.00     0.131 A 
ATOM     83  C   UNL A   1      45.449  26.352  35.678  1.00  0.00     0.055 A 
ATOM     84  C   UNL A   1      46.666  28.258  34.856  1.00  0.00     0.041 A 
ATOM     85  F   UNL A   1      45.599  29.805  33.456  1.00  0.00    -0.206 F 
ATOM     86  C   UNL A   1      46.630  27.098  35.624  1.00  0.00     0.022 A 
BRANCH  83  87
ATOM     87  S   UNL A   1      45.355  24.886  36.744  1.00  0.00     0.124 S 
ATOM     88  O   UNL A   1      46.365  24.017  36.151  1.00  0.00    -0.237 OA
ATOM     89  O   UNL A   1      45.675  25.433  38.059  1.00  0.00    -0.237 OA
ATOM     90  O   UNL A   1      43.975  24.433  36.583  1.00  0.00    -0.744 OA
ENDBRANCH  83  87
ENDBRANCH  57  80
ENDBRANCH  31  32
ENDBRANCH  23  26
ENDBRANCH  21  22
ENDBRANCH   1  21
TORSDOF 15
ENDMDL
MODEL 3
REMARK VINA RESULT:     -10.1      5.568      9.730
REMARK SMILES C[C@@H](C(=O)NCCCNC(=O)c1ccc(-c2c3nc(c(-c4cc(S(=O)(=O)[O-])ccc4F)c4ccc([nH]4)c(-c4cc(S(=O)(=O)[O-])ccc4F)c4nc(c(-c5cc(S(=O)(=O)[O-])ccc5F)c5ccc2[nH]5)C=C4)C=C3)cc1)c1ccc(-c2ccccc2)cc1
REMARK SMILES IDX 7 1 6 2 5 3 3 4 4 5 2 7 1 8 75 9 76 10 86 11 77 12 85 13
REMARK SMILES IDX 78 14 79 15 80 16 84 17 81 18 83 19 82 20 8 21 9 22 10 23
REMARK SMILES IDX 11 25 12 26 13 27 74 28 14 29 73 30 15 31 16 32 17 33 67 34
REMARK SMILES IDX 18 35 72 36 66 37 68 38 19 39 71 40 65 41 64 42 20 44 52 45
REMARK SMILES IDX 32 46 51 47 33 48 36 49 50 50 69 51 34 52 35 53 49 55 70 56
REMARK SMILES IDX 37 57 21 58 22 59 30 60 23 61 29 62 31 63 28 64 24 65 25 66
REMARK SMILES IDX 26 67 27 68 53 69 54 70 62 71 55 72 61 73 63 74 60 75 56 76
REMARK SMILES IDX 57 77 58 78 59 79 38 80 39 81 47 82 40 83 46 84 48 85 45 86
REMARK SMILES IDX 41 87 42 88 43 89 44 90
REMARK H PARENT 5 6 9 24 68 43 36 54
REMARK Flexibility Score: inf
ROOT
ATOM      1  C   UNL A   1      35.780  21.932  24.232  1.00  0.00     0.042 C 
ENDROOT
BRANCH   1   2
ATOM      2  C   UNL A   1      34.455  21.291  24.637  1.00  0.00     0.117 C 
BRANCH   2   3
ATOM      3  N   UNL A   1      33.354  21.753  23.816  1.00  0.00    -0.356 N 
ATOM      4  C   UNL A   1      32.206  22.413  24.142  1.00  0.00     0.227 C 
ATOM      5  O   UNL A   1      31.439  22.647  23.205  1.00  0.00    -0.274 OA
ATOM      6  H   UNL A   1      33.451  21.557  22.856  1.00  0.00     0.163 HD
BRANCH   4   7
ATOM      7  C   UNL A   1      31.944  22.852  25.595  1.00  0.00     0.105 C 
ATOM      8  C   UNL A   1      30.519  22.532  26.054  1.00  0.00     0.023 C 
BRANCH   7   9
ATOM      9  C   UNL A   1      32.204  24.337  25.846  1.00  0.00    -0.036 A 
ATOM     10  C   UNL A   1      31.167  25.210  26.202  1.00  0.00     0.005 A 
ATOM     11  C   UNL A   1      33.509  24.845  25.792  1.00  0.00     0.005 A 
ATOM     12  C   UNL A   1      31.420  26.558  26.460  1.00  0.00     0.009 A 
ATOM     13  C   UNL A   1      33.762  26.197  26.067  1.00  0.00     0.009 A 
ATOM     14  C   UNL A   1      32.720  27.077  26.399  1.00  0.00    -0.018 A 
BRANCH  14  15
ATOM     15  C   UNL A   1      32.968  28.502  26.675  1.00  0.00    -0.018 A 
ATOM     16  C   UNL A   1      34.221  28.939  27.139  1.00  0.00     0.009 A 
ATOM     17  C   UNL A   1      31.956  29.461  26.514  1.00  0.00     0.009 A 
ATOM     18  C   UNL A   1      34.451  30.282  27.445  1.00  0.00     0.001 A 
ATOM     19  C   UNL A   1      32.183  30.807  26.818  1.00  0.00     0.001 A 
ATOM     20  C   UNL A   1      33.430  31.215  27.286  1.00  0.00     0.000 A 
ENDBRANCH  14  15
ENDBRANCH   7   9
ENDBRANCH   4   7
ENDBRANCH   2   3
ENDBRANCH   1   2
BRANCH   1  21
ATOM     21  C   UNL A   1      36.764  22.128  25.381  1.00  0.00     0.118 C 
BRANCH  21  22
ATOM     22  N   UNL A   1      37.661  20.996  25.558  1.00  0.00    -0.352 N 
ATOM     23  C   UNL A   1      38.966  20.978  25.991  1.00  0.00     0.251 C 
ATOM     24  H   UNL A   1      37.278  20.117  25.336  1.00  0.00     0.163 HD
ATOM     25  O   UNL A   1      39.619  19.941  25.908  1.00  0.00    -0.269 OA
BRANCH  23  26
ATOM     26  C   UNL A   1      39.583  22.211  26.527  1.00  0.00     0.039 A 
ATOM     27  C   UNL A   1      40.620  22.104  27.458  1.00  0.00     0.014 A 
ATOM     28  C   UNL A   1      39.147  23.468  26.103  1.00  0.00     0.014 A 
ATOM     29  C   UNL A   1      41.275  23.256  27.903  1.00  0.00     0.010 A 
ATOM     30  C   UNL A   1      39.845  24.608  26.492  1.00  0.00     0.010 A 
ATOM     31  C   UNL A   1      40.919  24.514  27.392  1.00  0.00    -0.014 A 
BRANCH  31  32
ATOM     32  C   UNL A   1      41.637  25.757  27.778  1.00  0.00     0.031 A 
ATOM     33  C   UNL A   1      40.910  26.822  28.550  1.00  0.00     0.074 A 
ATOM     34  C   UNL A   1      42.888  25.979  27.333  1.00  0.00     0.049 A 
ATOM     35  N   UNL A   1      41.269  28.053  28.810  1.00  0.00    -0.248 NA
ATOM     36  C   UNL A   1      39.581  26.458  29.060  1.00  0.00     0.031 C 
ATOM     37  C   UNL A   1      43.686  25.037  26.547  1.00  0.00     0.029 A 
ATOM     38  N   UNL A   1      43.696  27.084  27.448  1.00  0.00    -0.354 N 
ATOM     39  C   UNL A   1      40.195  28.623  29.487  1.00  0.00     0.074 A 
ATOM     40  C   UNL A   1      39.155  27.615  29.542  1.00  0.00     0.031 C 
ATOM     41  C   UNL A   1      44.861  25.607  26.239  1.00  0.00     0.029 A 
ATOM     42  C   UNL A   1      44.882  26.971  26.760  1.00  0.00     0.049 A 
ATOM     43  H   UNL A   1      43.450  27.881  27.971  1.00  0.00     0.167 HD
ATOM     44  C   UNL A   1      40.093  29.865  30.024  1.00  0.00     0.034 A 
ATOM     45  C   UNL A   1      45.859  27.874  26.540  1.00  0.00     0.034 A 
ATOM     46  C   UNL A   1      41.146  30.849  29.965  1.00  0.00     0.049 A 
ATOM     47  C   UNL A   1      45.727  29.255  27.126  1.00  0.00     0.074 A 
ATOM     48  C   UNL A   1      41.181  32.113  30.527  1.00  0.00     0.029 A 
ATOM     49  N   UNL A   1      42.352  30.682  29.292  1.00  0.00    -0.354 N 
ATOM     50  N   UNL A   1      44.726  29.770  27.800  1.00  0.00    -0.248 NA
ATOM     51  C   UNL A   1      46.856  30.172  26.930  1.00  0.00     0.031 C 
ATOM     52  C   UNL A   1      42.375  32.734  30.141  1.00  0.00     0.029 A 
ATOM     53  C   UNL A   1      43.121  31.830  29.400  1.00  0.00     0.049 A 
ATOM     54  H   UNL A   1      42.620  29.867  28.809  1.00  0.00     0.167 HD
ATOM     55  C   UNL A   1      45.117  31.063  28.134  1.00  0.00     0.074 A 
ATOM     56  C   UNL A   1      46.446  31.249  27.585  1.00  0.00     0.031 C 
ATOM     57  C   UNL A   1      44.443  32.005  28.841  1.00  0.00     0.034 A 
BRANCH  44  58
ATOM     58  C   UNL A   1      38.780  30.225  30.682  1.00  0.00     0.023 A 
ATOM     59  C   UNL A   1      37.861  31.094  30.066  1.00  0.00     0.031 A 
ATOM     60  C   UNL A   1      38.472  29.751  31.969  1.00  0.00     0.131 A 
ATOM     61  C   UNL A   1      36.742  31.551  30.779  1.00  0.00     0.055 A 
ATOM     62  C   UNL A   1      37.304  30.133  32.635  1.00  0.00     0.041 A 
ATOM     63  F   UNL A   1      39.315  28.932  32.617  1.00  0.00    -0.206 F 
ATOM     64  C   UNL A   1      36.443  31.057  32.050  1.00  0.00     0.022 A 
BRANCH  61  65
ATOM     65  S   UNL A   1      35.799  32.943  30.099  1.00  0.00     0.124 S 
ATOM     66  O   UNL A   1      36.236  32.942  28.704  1.00  0.00    -0.237 OA
ATOM     67  O   UNL A   1      34.419  32.534  30.336  1.00  0.00    -0.237 OA
ATOM     68  O   UNL A   1      36.258  34.086  30.885  1.00  0.00    -0.744 OA
ENDBRANCH  61  65
ENDBRANCH  44  58
BRANCH  45  69
ATOM     69  C   UNL A   1      47.029  27.504  25.696  1.00  0.00     0.023 A 
ATOM     70  C   UNL A   1      47.082  27.845  24.336  1.00  0.00     0.031 A 
ATOM     71  C   UNL A   1      48.121  26.808  26.248  1.00  0.00     0.131 A 
ATOM     72  C   UNL A   1      48.195  27.469  23.566  1.00  0.00     0.055 A 
ATOM     73  C   UNL A   1      49.242  26.474  25.487  1.00  0.00     0.041 A 
ATOM     74  F   UNL A   1      48.123  26.471  27.547  1.00  0.00    -0.206 F 
ATOM     75  C   UNL A   1      49.280  26.798  24.135  1.00  0.00     0.022 A 
BRANCH  72  76
ATOM     76  S   UNL A   1      48.189  27.840  21.790  1.00  0.00     0.124 S 
ATOM     77  O   UNL A   1      48.401  26.518  21.211  1.00  0.00    -0.237 OA
ATOM     78  O   UNL A   1      46.862  28.417  21.605  1.00  0.00    -0.237 OA
ATOM     79  O   UNL A   1      49.300  28.777  21.635  1.00  0.00    -0.744 OA
ENDBRANCH  72  76
ENDBRANCH  45  69
BRANCH  57  80
ATOM     80  C   UNL A   1      45.154  33.306  29.114  1.00  0.00     0.023 A 
ATOM     81  C   UNL A   1      44.993  34.431  28.288  1.00  0.00     0.031 A 
ATOM     82  C   UNL A   1      45.983  33.424  30.244  1.00  0.00     0.131 A 
ATOM     83  C   UNL A   1      45.677  35.620  28.589  1.00  0.00     0.055 A 
ATOM     84  C   UNL A   1      46.623  34.621  30.564  1.00  0.00     0.041 A 
ATOM     85  F   UNL A   1      46.172  32.377  31.064  1.00  0.00    -0.206 F 
ATOM     86  C   UNL A   1      46.477  35.726  29.731  1.00  0.00     0.022 A 
BRANCH  83  87
ATOM     87  S   UNL A   1      45.546  37.021  27.444  1.00  0.00     0.124 S 
ATOM     88  O   UNL A   1      46.539  36.678  26.433  1.00  0.00    -0.237 OA
ATOM     89  O   UNL A   1      44.152  36.950  27.019  1.00  0.00    -0.237 OA
ATOM     90  O   UNL A   1      45.880  38.176  28.275  1.00  0.00    -0.744 OA
ENDBRANCH  83  87
ENDBRANCH  57  80
ENDBRANCH  31  32
ENDBRANCH  23  26
ENDBRANCH  21  22
ENDBRANCH   1  21
TORSDOF 15
ENDMDL
